MODEL 1
REMARK VINA RESULT:     -11.3      0.000      0.000
REMARK SMILES C[C@@H]1c2ccccc2-c2ccc(C(=O)NCCCCCCNC(=O)c3ccc(-c4c5nc(c(-c6cc(S(=O)(=O)[O-])ccc6F)c6ccc([nH]6)c(-c6cc(S(=O)(=O)[O-])ccc6F)c6nc(c(-c7cc(S(=O)(=O)[O-])ccc7F)c7ccc4[nH]7)C=C6)C=C5)cc3)cc21
REMARK SMILES IDX 20 1 19 2 18 3 17 4 16 5 15 6 13 7 14 8 12 10 1 11 2 12 3 13
REMARK SMILES IDX 89 14 4 15 8 16 9 17 88 18 5 19 7 20 10 21 6 22 11 23 21 24
REMARK SMILES IDX 22 25 23 26 24 28 25 29 26 30 87 31 27 32 86 33 28 34 29 35
REMARK SMILES IDX 30 36 80 37 31 38 85 39 79 40 81 41 32 42 84 43 78 44 77 45
REMARK SMILES IDX 33 47 65 48 45 49 64 50 46 51 49 52 63 53 82 54 47 55 48 56
REMARK SMILES IDX 62 58 83 59 50 60 34 61 35 62 43 63 36 64 42 65 44 66 41 67
REMARK SMILES IDX 37 68 38 69 39 70 40 71 66 72 67 73 75 74 68 75 74 76 76 77
REMARK SMILES IDX 73 78 69 79 70 80 71 81 72 82 51 83 52 84 60 85 53 86 59 87
REMARK SMILES IDX 61 88 58 89 54 90 55 91 56 92 57 93
REMARK H PARENT 15 9 22 27 81 46 49 57
REMARK Flexibility Score: inf
ROOT
ATOM      1  C   UNL A   1      34.443  34.717  28.127  1.00  0.00     0.021 C 
ENDROOT
BRANCH   1   2
ATOM      2  C   UNL A   1      33.554  34.880  29.363  1.00  0.00     0.002 C 
BRANCH   2   3
ATOM      3  C   UNL A   1      33.376  36.327  29.843  1.00  0.00     0.002 C 
BRANCH   3   4
ATOM      4  C   UNL A   1      32.522  36.480  31.109  1.00  0.00     0.021 C 
BRANCH   4   5
ATOM      5  C   UNL A   1      33.324  36.269  32.395  1.00  0.00     0.116 C 
BRANCH   5   6
ATOM      6  N   UNL A   1      33.191  34.899  32.846  1.00  0.00    -0.352 N 
ATOM      7  C   UNL A   1      34.074  33.858  32.973  1.00  0.00     0.251 C 
ATOM      8  O   UNL A   1      33.614  32.789  33.382  1.00  0.00    -0.269 OA
ATOM      9  H   UNL A   1      32.274  34.665  33.118  1.00  0.00     0.163 HD
BRANCH   7  10
ATOM     10  C   UNL A   1      35.541  33.957  32.704  1.00  0.00     0.040 A 
ATOM     11  C   UNL A   1      38.181  32.943  29.130  1.00  0.00     0.018 C 
ATOM     12  C   UNL A   1      38.327  34.149  30.043  1.00  0.00     0.047 C 
ATOM     13  C   UNL A   1      39.729  34.349  30.598  1.00  0.00    -0.033 A 
ATOM     14  C   UNL A   1      37.502  34.056  31.321  1.00  0.00    -0.032 A 
ATOM     15  C   UNL A   1      40.923  34.467  29.904  1.00  0.00     0.005 A 
ATOM     16  C   UNL A   1      39.686  34.450  32.006  1.00  0.00    -0.014 A 
ATOM     17  C   UNL A   1      38.315  34.302  32.445  1.00  0.00    -0.014 A 
ATOM     18  C   UNL A   1      36.138  33.823  31.447  1.00  0.00     0.018 A 
ATOM     19  C   UNL A   1      42.093  34.667  30.638  1.00  0.00     0.000 A 
ATOM     20  C   UNL A   1      40.848  34.645  32.734  1.00  0.00     0.009 A 
ATOM     21  C   UNL A   1      37.755  34.366  33.707  1.00  0.00     0.010 A 
ATOM     22  C   UNL A   1      42.057  34.751  32.040  1.00  0.00     0.001 A 
ATOM     23  C   UNL A   1      36.367  34.211  33.826  1.00  0.00     0.014 A 
ENDBRANCH   7  10
ENDBRANCH   5   6
ENDBRANCH   4   5
ENDBRANCH   3   4
ENDBRANCH   2   3
ENDBRANCH   1   2
BRANCH   1  24
ATOM     24  C   UNL A   1      35.104  33.346  28.012  1.00  0.00     0.116 C 
BRANCH  24  25
ATOM     25  N   UNL A   1      34.129  32.314  27.699  1.00  0.00    -0.352 N 
ATOM     26  C   UNL A   1      34.306  30.957  27.589  1.00  0.00     0.251 C 
ATOM     27  H   UNL A   1      33.210  32.633  27.546  1.00  0.00     0.163 HD
ATOM     28  O   UNL A   1      33.444  30.272  27.049  1.00  0.00    -0.269 OA
BRANCH  26  29
ATOM     29  C   UNL A   1      35.541  30.336  28.112  1.00  0.00     0.039 A 
ATOM     30  C   UNL A   1      36.654  30.225  27.276  1.00  0.00     0.014 A 
ATOM     31  C   UNL A   1      35.592  29.847  29.421  1.00  0.00     0.014 A 
ATOM     32  C   UNL A   1      37.836  29.670  27.771  1.00  0.00     0.010 A 
ATOM     33  C   UNL A   1      36.791  29.363  29.934  1.00  0.00     0.010 A 
ATOM     34  C   UNL A   1      37.924  29.262  29.112  1.00  0.00    -0.014 A 
BRANCH  34  35
ATOM     35  C   UNL A   1      39.189  28.719  29.670  1.00  0.00     0.031 A 
ATOM     36  C   UNL A   1      39.809  29.352  30.886  1.00  0.00     0.074 A 
ATOM     37  C   UNL A   1      39.806  27.695  29.048  1.00  0.00     0.049 A 
ATOM     38  N   UNL A   1      40.942  29.074  31.479  1.00  0.00    -0.248 NA
ATOM     39  C   UNL A   1      39.071  30.469  31.495  1.00  0.00     0.031 C 
ATOM     40  C   UNL A   1      39.318  27.026  27.840  1.00  0.00     0.029 A 
ATOM     41  N   UNL A   1      40.978  27.043  29.337  1.00  0.00    -0.354 N 
ATOM     42  C   UNL A   1      41.057  29.986  32.523  1.00  0.00     0.074 A 
ATOM     43  C   UNL A   1      39.911  30.866  32.438  1.00  0.00     0.031 C 
ATOM     44  C   UNL A   1      40.170  26.043  27.507  1.00  0.00     0.029 A 
ATOM     45  C   UNL A   1      41.289  26.042  28.446  1.00  0.00     0.049 A 
ATOM     46  H   UNL A   1      41.545  27.271  30.109  1.00  0.00     0.167 HD
ATOM     47  C   UNL A   1      42.017  30.065  33.478  1.00  0.00     0.034 A 
ATOM     48  C   UNL A   1      42.358  25.226  28.383  1.00  0.00     0.034 A 
ATOM     49  C   UNL A   1      43.149  29.171  33.550  1.00  0.00     0.049 A 
ATOM     50  C   UNL A   1      43.430  25.351  29.437  1.00  0.00     0.074 A 
ATOM     51  C   UNL A   1      44.153  29.125  34.501  1.00  0.00     0.029 A 
ATOM     52  N   UNL A   1      43.433  28.170  32.628  1.00  0.00    -0.354 N 
ATOM     53  N   UNL A   1      43.500  26.187  30.449  1.00  0.00    -0.248 NA
ATOM     54  C   UNL A   1      44.559  24.418  29.348  1.00  0.00     0.031 C 
ATOM     55  C   UNL A   1      45.080  28.150  34.115  1.00  0.00     0.029 A 
ATOM     56  C   UNL A   1      44.613  27.527  32.969  1.00  0.00     0.049 A 
ATOM     57  H   UNL A   1      42.876  27.950  31.846  1.00  0.00     0.167 HD
ATOM     58  C   UNL A   1      44.665  25.855  31.134  1.00  0.00     0.074 A 
ATOM     59  C   UNL A   1      45.256  24.735  30.428  1.00  0.00     0.031 C 
ATOM     60  C   UNL A   1      45.197  26.420  32.248  1.00  0.00     0.034 A 
BRANCH  47  61
ATOM     61  C   UNL A   1      41.895  31.173  34.499  1.00  0.00     0.023 A 
ATOM     62  C   UNL A   1      40.858  31.191  35.450  1.00  0.00     0.031 A 
ATOM     63  C   UNL A   1      42.808  32.242  34.504  1.00  0.00     0.131 A 
ATOM     64  C   UNL A   1      40.712  32.292  36.307  1.00  0.00     0.055 A 
ATOM     65  C   UNL A   1      42.707  33.292  35.419  1.00  0.00     0.041 A 
ATOM     66  F   UNL A   1      43.806  32.294  33.608  1.00  0.00    -0.206 F 
ATOM     67  C   UNL A   1      41.644  33.331  36.317  1.00  0.00     0.022 A 
BRANCH  64  68
ATOM     68  S   UNL A   1      39.197  32.421  37.297  1.00  0.00     0.124 S 
ATOM     69  O   UNL A   1      39.737  32.466  38.654  1.00  0.00    -0.237 OA
ATOM     70  O   UNL A   1      38.602  33.657  36.804  1.00  0.00    -0.237 OA
ATOM     71  O   UNL A   1      38.466  31.199  36.967  1.00  0.00    -0.744 OA
ENDBRANCH  64  68
ENDBRANCH  47  61
BRANCH  48  72
ATOM     72  C   UNL A   1      42.481  24.225  27.284  1.00  0.00     0.023 A 
ATOM     73  C   UNL A   1      41.900  22.952  27.397  1.00  0.00     0.031 A 
ATOM     74  C   UNL A   1      43.215  24.513  26.119  1.00  0.00     0.131 A 
ATOM     75  C   UNL A   1      42.101  21.998  26.387  1.00  0.00     0.055 A 
ATOM     76  C   UNL A   1      43.364  23.580  25.092  1.00  0.00     0.041 A 
ATOM     77  F   UNL A   1      43.787  25.716  25.958  1.00  0.00    -0.206 F 
ATOM     78  C   UNL A   1      42.816  22.308  25.228  1.00  0.00     0.022 A 
BRANCH  75  79
ATOM     79  S   UNL A   1      41.484  20.312  26.649  1.00  0.00     0.124 S 
ATOM     80  O   UNL A   1      40.050  20.540  26.782  1.00  0.00    -0.237 OA
ATOM     81  O   UNL A   1      41.918  19.638  25.431  1.00  0.00    -0.237 OA
ATOM     82  O   UNL A   1      42.166  19.889  27.871  1.00  0.00    -0.744 OA
ENDBRANCH  75  79
ENDBRANCH  48  72
BRANCH  60  83
ATOM     83  C   UNL A   1      46.460  25.800  32.795  1.00  0.00     0.023 A 
ATOM     84  C   UNL A   1      46.427  24.748  33.729  1.00  0.00     0.031 A 
ATOM     85  C   UNL A   1      47.717  26.278  32.382  1.00  0.00     0.131 A 
ATOM     86  C   UNL A   1      47.626  24.249  34.261  1.00  0.00     0.055 A 
ATOM     87  C   UNL A   1      48.907  25.732  32.866  1.00  0.00     0.041 A 
ATOM     88  F   UNL A   1      47.809  27.283  31.496  1.00  0.00    -0.206 F 
ATOM     89  C   UNL A   1      48.866  24.722  33.822  1.00  0.00     0.022 A 
BRANCH  86  90
ATOM     90  S   UNL A   1      47.543  23.039  35.609  1.00  0.00     0.124 S 
ATOM     91  O   UNL A   1      46.403  22.219  35.211  1.00  0.00    -0.237 OA
ATOM     92  O   UNL A   1      48.850  22.393  35.530  1.00  0.00    -0.237 OA
ATOM     93  O   UNL A   1      47.331  23.862  36.797  1.00  0.00    -0.744 OA
ENDBRANCH  86  90
ENDBRANCH  60  83
ENDBRANCH  34  35
ENDBRANCH  26  29
ENDBRANCH  24  25
ENDBRANCH   1  24
TORSDOF 16
ENDMDL
MODEL 2
REMARK VINA RESULT:     -10.6      5.094     11.169
REMARK SMILES C[C@@H]1c2ccccc2-c2ccc(C(=O)NCCCCCCNC(=O)c3ccc(-c4c5nc(c(-c6cc(S(=O)(=O)[O-])ccc6F)c6ccc([nH]6)c(-c6cc(S(=O)(=O)[O-])ccc6F)c6nc(c(-c7cc(S(=O)(=O)[O-])ccc7F)c7ccc4[nH]7)C=C6)C=C5)cc3)cc21
REMARK SMILES IDX 20 1 19 2 18 3 17 4 16 5 15 6 13 7 14 8 12 10 1 11 2 12 3 13
REMARK SMILES IDX 89 14 4 15 8 16 9 17 88 18 5 19 7 20 10 21 6 22 11 23 21 24
REMARK SMILES IDX 22 25 23 26 24 28 25 29 26 30 87 31 27 32 86 33 28 34 29 35
REMARK SMILES IDX 30 36 80 37 31 38 85 39 79 40 81 41 32 42 84 43 78 44 77 45
REMARK SMILES IDX 33 47 65 48 45 49 64 50 46 51 49 52 63 53 82 54 47 55 48 56
REMARK SMILES IDX 62 58 83 59 50 60 34 61 35 62 43 63 36 64 42 65 44 66 41 67
REMARK SMILES IDX 37 68 38 69 39 70 40 71 66 72 67 73 75 74 68 75 74 76 76 77
REMARK SMILES IDX 73 78 69 79 70 80 71 81 72 82 51 83 52 84 60 85 53 86 59 87
REMARK SMILES IDX 61 88 58 89 54 90 55 91 56 92 57 93
REMARK H PARENT 15 9 22 27 81 46 49 57
REMARK Flexibility Score: inf
ROOT
ATOM      1  C   UNL A   1      35.438  22.192  26.097  1.00  0.00     0.021 C 
ENDROOT
BRANCH   1   2
ATOM      2  C   UNL A   1      35.422  20.971  25.173  1.00  0.00     0.002 C 
BRANCH   2   3
ATOM      3  C   UNL A   1      34.031  20.569  24.663  1.00  0.00     0.002 C 
BRANCH   3   4
ATOM      4  C   UNL A   1      32.880  20.883  25.629  1.00  0.00     0.021 C 
BRANCH   4   5
ATOM      5  C   UNL A   1      31.860  21.860  25.040  1.00  0.00     0.116 C 
BRANCH   5   6
ATOM      6  N   UNL A   1      32.239  22.219  23.689  1.00  0.00    -0.352 N 
ATOM      7  C   UNL A   1      32.650  23.389  23.104  1.00  0.00     0.251 C 
ATOM      8  O   UNL A   1      32.882  23.350  21.893  1.00  0.00    -0.269 OA
ATOM      9  H   UNL A   1      32.191  21.465  23.057  1.00  0.00     0.163 HD
BRANCH   7  10
ATOM     10  C   UNL A   1      32.883  24.667  23.843  1.00  0.00     0.040 A 
ATOM     11  C   UNL A   1      30.694  28.660  24.034  1.00  0.00     0.018 C 
ATOM     12  C   UNL A   1      31.348  27.935  25.200  1.00  0.00     0.047 C 
ATOM     13  C   UNL A   1      32.297  28.796  26.019  1.00  0.00    -0.033 A 
ATOM     14  C   UNL A   1      32.261  26.790  24.777  1.00  0.00    -0.032 A 
ATOM     15  C   UNL A   1      32.042  30.006  26.644  1.00  0.00     0.005 A 
ATOM     16  C   UNL A   1      33.557  28.167  26.125  1.00  0.00    -0.014 A 
ATOM     17  C   UNL A   1      33.522  26.922  25.389  1.00  0.00    -0.014 A 
ATOM     18  C   UNL A   1      31.957  25.707  23.961  1.00  0.00     0.018 A 
ATOM     19  C   UNL A   1      33.077  30.606  27.364  1.00  0.00     0.000 A 
ATOM     20  C   UNL A   1      34.584  28.763  26.837  1.00  0.00     0.009 A 
ATOM     21  C   UNL A   1      34.480  25.939  25.225  1.00  0.00     0.010 A 
ATOM     22  C   UNL A   1      34.337  29.992  27.457  1.00  0.00     0.001 A 
ATOM     23  C   UNL A   1      34.147  24.807  24.467  1.00  0.00     0.014 A 
ENDBRANCH   7  10
ENDBRANCH   5   6
ENDBRANCH   4   5
ENDBRANCH   3   4
ENDBRANCH   2   3
ENDBRANCH   1   2
BRANCH   1  24
ATOM     24  C   UNL A   1      36.737  22.992  26.049  1.00  0.00     0.116 C 
BRANCH  24  25
ATOM     25  N   UNL A   1      37.896  22.124  26.187  1.00  0.00    -0.352 N 
ATOM     26  C   UNL A   1      39.211  22.460  26.394  1.00  0.00     0.251 C 
ATOM     27  H   UNL A   1      37.712  21.159  26.124  1.00  0.00     0.163 HD
ATOM     28  O   UNL A   1      40.089  21.624  26.209  1.00  0.00    -0.269 OA
BRANCH  26  29
ATOM     29  C   UNL A   1      39.557  23.829  26.829  1.00  0.00     0.039 A 
ATOM     30  C   UNL A   1      39.387  24.181  28.169  1.00  0.00     0.014 A 
ATOM     31  C   UNL A   1      40.031  24.769  25.909  1.00  0.00     0.014 A 
ATOM     32  C   UNL A   1      39.743  25.461  28.598  1.00  0.00     0.010 A 
ATOM     33  C   UNL A   1      40.454  26.020  26.351  1.00  0.00     0.010 A 
ATOM     34  C   UNL A   1      40.307  26.382  27.699  1.00  0.00    -0.014 A 
BRANCH  34  35
ATOM     35  C   UNL A   1      40.740  27.729  28.147  1.00  0.00     0.031 A 
ATOM     36  C   UNL A   1      42.205  28.060  28.235  1.00  0.00     0.074 A 
ATOM     37  C   UNL A   1      39.816  28.633  28.530  1.00  0.00     0.049 A 
ATOM     38  N   UNL A   1      42.784  29.149  28.671  1.00  0.00    -0.248 NA
ATOM     39  C   UNL A   1      43.143  27.011  27.806  1.00  0.00     0.031 C 
ATOM     40  C   UNL A   1      38.368  28.412  28.523  1.00  0.00     0.029 A 
ATOM     41  N   UNL A   1      39.953  29.912  29.005  1.00  0.00    -0.354 N 
ATOM     42  C   UNL A   1      44.153  28.913  28.578  1.00  0.00     0.074 A 
ATOM     43  C   UNL A   1      44.312  27.554  28.108  1.00  0.00     0.031 C 
ATOM     44  C   UNL A   1      37.751  29.527  28.949  1.00  0.00     0.029 A 
ATOM     45  C   UNL A   1      38.757  30.523  29.305  1.00  0.00     0.049 A 
ATOM     46  H   UNL A   1      40.826  30.353  29.122  1.00  0.00     0.167 HD
ATOM     47  C   UNL A   1      45.179  29.762  28.838  1.00  0.00     0.034 A 
ATOM     48  C   UNL A   1      38.499  31.741  29.820  1.00  0.00     0.034 A 
ATOM     49  C   UNL A   1      44.998  31.118  29.299  1.00  0.00     0.049 A 
ATOM     50  C   UNL A   1      39.657  32.657  30.131  1.00  0.00     0.074 A 
ATOM     51  C   UNL A   1      45.960  32.081  29.544  1.00  0.00     0.029 A 
ATOM     52  N   UNL A   1      43.771  31.701  29.595  1.00  0.00    -0.354 N 
ATOM     53  N   UNL A   1      40.945  32.438  29.990  1.00  0.00    -0.248 NA
ATOM     54  C   UNL A   1      39.326  33.986  30.658  1.00  0.00     0.031 C 
ATOM     55  C   UNL A   1      45.324  33.217  30.057  1.00  0.00     0.029 A 
ATOM     56  C   UNL A   1      43.957  32.997  30.053  1.00  0.00     0.049 A 
ATOM     57  H   UNL A   1      42.897  31.259  29.494  1.00  0.00     0.167 HD
ATOM     58  C   UNL A   1      41.574  33.616  30.382  1.00  0.00     0.074 A 
ATOM     59  C   UNL A   1      40.523  34.544  30.749  1.00  0.00     0.031 C 
ATOM     60  C   UNL A   1      42.899  33.907  30.428  1.00  0.00     0.034 A 
BRANCH  47  61
ATOM     61  C   UNL A   1      46.583  29.232  28.656  1.00  0.00     0.023 A 
ATOM     62  C   UNL A   1      47.143  29.047  27.379  1.00  0.00     0.031 A 
ATOM     63  C   UNL A   1      47.363  28.880  29.771  1.00  0.00     0.131 A 
ATOM     64  C   UNL A   1      48.405  28.449  27.246  1.00  0.00     0.055 A 
ATOM     65  C   UNL A   1      48.655  28.367  29.634  1.00  0.00     0.041 A 
ATOM     66  F   UNL A   1      46.877  29.013  31.015  1.00  0.00    -0.206 F 
ATOM     67  C   UNL A   1      49.176  28.132  28.365  1.00  0.00     0.022 A 
BRANCH  64  68
ATOM     68  S   UNL A   1      48.955  27.948  25.592  1.00  0.00     0.124 S 
ATOM     69  O   UNL A   1      47.835  28.390  24.763  1.00  0.00    -0.237 OA
ATOM     70  O   UNL A   1      50.200  28.691  25.435  1.00  0.00    -0.237 OA
ATOM     71  O   UNL A   1      49.102  26.499  25.703  1.00  0.00    -0.744 OA
ENDBRANCH  64  68
ENDBRANCH  47  61
BRANCH  48  72
ATOM     72  C   UNL A   1      37.095  32.167  30.086  1.00  0.00     0.023 A 
ATOM     73  C   UNL A   1      36.365  32.888  29.129  1.00  0.00     0.031 A 
ATOM     74  C   UNL A   1      36.475  31.892  31.318  1.00  0.00     0.131 A 
ATOM     75  C   UNL A   1      35.075  33.351  29.435  1.00  0.00     0.055 A 
ATOM     76  C   UNL A   1      35.171  32.306  31.596  1.00  0.00     0.041 A 
ATOM     77  F   UNL A   1      37.126  31.202  32.268  1.00  0.00    -0.206 F 
ATOM     78  C   UNL A   1      34.468  33.052  30.656  1.00  0.00     0.022 A 
BRANCH  75  79
ATOM     79  S   UNL A   1      34.234  34.428  28.241  1.00  0.00     0.124 S 
ATOM     80  O   UNL A   1      35.198  34.467  27.148  1.00  0.00    -0.237 OA
ATOM     81  O   UNL A   1      33.001  33.690  27.985  1.00  0.00    -0.237 OA
ATOM     82  O   UNL A   1      34.067  35.681  28.974  1.00  0.00    -0.744 OA
ENDBRANCH  75  79
ENDBRANCH  48  72
BRANCH  60  83
ATOM     83  C   UNL A   1      43.280  35.306  30.851  1.00  0.00     0.023 A 
ATOM     84  C   UNL A   1      43.308  35.691  32.203  1.00  0.00     0.031 A 
ATOM     85  C   UNL A   1      43.608  36.271  29.881  1.00  0.00     0.131 A 
ATOM     86  C   UNL A   1      43.602  37.020  32.545  1.00  0.00     0.055 A 
ATOM     87  C   UNL A   1      43.963  37.575  30.232  1.00  0.00     0.041 A 
ATOM     88  F   UNL A   1      43.593  35.961  28.575  1.00  0.00    -0.206 F 
ATOM     89  C   UNL A   1      43.947  37.960  31.569  1.00  0.00     0.022 A 
BRANCH  86  90
ATOM     90  S   UNL A   1      43.431  37.532  34.276  1.00  0.00     0.124 S 
ATOM     91  O   UNL A   1      44.815  37.502  34.739  1.00  0.00    -0.237 OA
ATOM     92  O   UNL A   1      42.830  38.857  34.152  1.00  0.00    -0.237 OA
ATOM     93  O   UNL A   1      42.562  36.509  34.853  1.00  0.00    -0.744 OA
ENDBRANCH  86  90
ENDBRANCH  60  83
ENDBRANCH  34  35
ENDBRANCH  26  29
ENDBRANCH  24  25
ENDBRANCH   1  24
TORSDOF 16
ENDMDL
MODEL 3
REMARK VINA RESULT:     -10.5      4.681     11.087
REMARK SMILES C[C@@H]1c2ccccc2-c2ccc(C(=O)NCCCCCCNC(=O)c3ccc(-c4c5nc(c(-c6cc(S(=O)(=O)[O-])ccc6F)c6ccc([nH]6)c(-c6cc(S(=O)(=O)[O-])ccc6F)c6nc(c(-c7cc(S(=O)(=O)[O-])ccc7F)c7ccc4[nH]7)C=C6)C=C5)cc3)cc21
REMARK SMILES IDX 20 1 19 2 18 3 17 4 16 5 15 6 13 7 14 8 12 10 1 11 2 12 3 13
REMARK SMILES IDX 89 14 4 15 8 16 9 17 88 18 5 19 7 20 10 21 6 22 11 23 21 24
REMARK SMILES IDX 22 25 23 26 24 28 25 29 26 30 87 31 27 32 86 33 28 34 29 35
REMARK SMILES IDX 30 36 80 37 31 38 85 39 79 40 81 41 32 42 84 43 78 44 77 45
REMARK SMILES IDX 33 47 65 48 45 49 64 50 46 51 49 52 63 53 82 54 47 55 48 56
REMARK SMILES IDX 62 58 83 59 50 60 34 61 35 62 43 63 36 64 42 65 44 66 41 67
REMARK SMILES IDX 37 68 38 69 39 70 40 71 66 72 67 73 75 74 68 75 74 76 76 77
REMARK SMILES IDX 73 78 69 79 70 80 71 81 72 82 51 83 52 84 60 85 53 86 59 87
REMARK SMILES IDX 61 88 58 89 54 90 55 91 56 92 57 93
REMARK H PARENT 15 9 22 27 81 46 49 57
REMARK Flexibility Score: inf
ROOT
ATOM      1  C   UNL A   1      31.669  32.048  26.877  1.00  0.00     0.021 C 
ENDROOT
BRANCH   1   2
ATOM      2  C   UNL A   1      31.781  30.528  26.732  1.00  0.00     0.002 C 
BRANCH   2   3
ATOM      3  C   UNL A   1      31.849  30.022  25.285  1.00  0.00     0.002 C 
BRANCH   3   4
ATOM      4  C   UNL A   1      31.178  28.661  25.052  1.00  0.00     0.021 C 
BRANCH   4   5
ATOM      5  C   UNL A   1      32.187  27.526  24.866  1.00  0.00     0.116 C 
BRANCH   5   6
ATOM      6  N   UNL A   1      32.793  27.609  23.552  1.00  0.00    -0.352 N 
ATOM      7  C   UNL A   1      33.332  26.679  22.702  1.00  0.00     0.251 C 
ATOM      8  O   UNL A   1      33.791  27.102  21.638  1.00  0.00    -0.269 OA
ATOM      9  H   UNL A   1      32.824  28.526  23.195  1.00  0.00     0.163 HD
BRANCH   7  10
ATOM     10  C   UNL A   1      33.345  25.206  22.959  1.00  0.00     0.040 A 
ATOM     11  C   UNL A   1      36.626  22.183  23.891  1.00  0.00     0.018 C 
ATOM     12  C   UNL A   1      35.234  22.217  24.500  1.00  0.00     0.047 C 
ATOM     13  C   UNL A   1      34.491  20.891  24.440  1.00  0.00    -0.033 A 
ATOM     14  C   UNL A   1      34.267  23.143  23.772  1.00  0.00    -0.032 A 
ATOM     15  C   UNL A   1      34.896  19.654  24.915  1.00  0.00     0.005 A 
ATOM     16  C   UNL A   1      33.225  21.069  23.840  1.00  0.00    -0.014 A 
ATOM     17  C   UNL A   1      33.077  22.457  23.460  1.00  0.00    -0.014 A 
ATOM     18  C   UNL A   1      34.431  24.491  23.471  1.00  0.00     0.018 A 
ATOM     19  C   UNL A   1      34.025  18.574  24.761  1.00  0.00     0.000 A 
ATOM     20  C   UNL A   1      32.363  19.997  23.685  1.00  0.00     0.009 A 
ATOM     21  C   UNL A   1      32.017  23.131  22.883  1.00  0.00     0.010 A 
ATOM     22  C   UNL A   1      32.772  18.742  24.148  1.00  0.00     0.001 A 
ATOM     23  C   UNL A   1      32.152  24.507  22.653  1.00  0.00     0.014 A 
ENDBRANCH   7  10
ENDBRANCH   5   6
ENDBRANCH   4   5
ENDBRANCH   3   4
ENDBRANCH   2   3
ENDBRANCH   1   2
BRANCH   1  24
ATOM     24  C   UNL A   1      32.975  32.735  27.268  1.00  0.00     0.116 C 
BRANCH  24  25
ATOM     25  N   UNL A   1      32.743  34.106  27.694  1.00  0.00    -0.352 N 
ATOM     26  C   UNL A   1      33.242  34.771  28.786  1.00  0.00     0.251 C 
ATOM     27  H   UNL A   1      32.145  34.633  27.116  1.00  0.00     0.163 HD
ATOM     28  O   UNL A   1      32.729  35.826  29.144  1.00  0.00    -0.269 OA
BRANCH  26  29
ATOM     29  C   UNL A   1      34.388  34.204  29.527  1.00  0.00     0.039 A 
ATOM     30  C   UNL A   1      34.146  33.398  30.641  1.00  0.00     0.014 A 
ATOM     31  C   UNL A   1      35.700  34.483  29.133  1.00  0.00     0.014 A 
ATOM     32  C   UNL A   1      35.220  32.829  31.329  1.00  0.00     0.010 A 
ATOM     33  C   UNL A   1      36.765  33.858  29.773  1.00  0.00     0.010 A 
ATOM     34  C   UNL A   1      36.536  33.030  30.884  1.00  0.00    -0.014 A 
BRANCH  34  35
ATOM     35  C   UNL A   1      37.688  32.390  31.570  1.00  0.00     0.031 A 
ATOM     36  C   UNL A   1      38.423  31.255  30.911  1.00  0.00     0.074 A 
ATOM     37  C   UNL A   1      38.032  32.794  32.809  1.00  0.00     0.049 A 
ATOM     38  N   UNL A   1      39.401  30.520  31.375  1.00  0.00    -0.248 NA
ATOM     39  C   UNL A   1      37.974  30.876  29.563  1.00  0.00     0.031 C 
ATOM     40  C   UNL A   1      37.368  33.860  33.564  1.00  0.00     0.029 A 
ATOM     41  N   UNL A   1      39.017  32.353  33.656  1.00  0.00    -0.354 N 
ATOM     42  C   UNL A   1      39.678  29.587  30.381  1.00  0.00     0.074 A 
ATOM     43  C   UNL A   1      38.719  29.808  29.320  1.00  0.00     0.031 C 
ATOM     44  C   UNL A   1      37.981  34.006  34.749  1.00  0.00     0.029 A 
ATOM     45  C   UNL A   1      39.047  33.016  34.862  1.00  0.00     0.049 A 
ATOM     46  H   UNL A   1      39.643  31.630  33.424  1.00  0.00     0.167 HD
ATOM     47  C   UNL A   1      40.657  28.648  30.348  1.00  0.00     0.034 A 
ATOM     48  C   UNL A   1      39.834  32.837  35.940  1.00  0.00     0.034 A 
ATOM     49  C   UNL A   1      41.610  28.450  31.414  1.00  0.00     0.049 A 
ATOM     50  C   UNL A   1      40.897  31.768  35.894  1.00  0.00     0.074 A 
ATOM     51  C   UNL A   1      42.674  27.567  31.467  1.00  0.00     0.029 A 
ATOM     52  N   UNL A   1      41.608  29.137  32.623  1.00  0.00    -0.354 N 
ATOM     53  N   UNL A   1      41.179  30.925  34.926  1.00  0.00    -0.248 NA
ATOM     54  C   UNL A   1      41.753  31.633  37.079  1.00  0.00     0.031 C 
ATOM     55  C   UNL A   1      43.268  27.668  32.730  1.00  0.00     0.029 A 
ATOM     56  C   UNL A   1      42.629  28.673  33.438  1.00  0.00     0.049 A 
ATOM     57  H   UNL A   1      40.974  29.850  32.864  1.00  0.00     0.167 HD
ATOM     58  C   UNL A   1      42.268  30.183  35.376  1.00  0.00     0.074 A 
ATOM     59  C   UNL A   1      42.598  30.689  36.694  1.00  0.00     0.031 C 
ATOM     60  C   UNL A   1      42.938  29.179  34.755  1.00  0.00     0.034 A 
BRANCH  47  61
ATOM     61  C   UNL A   1      40.723  27.753  29.132  1.00  0.00     0.023 A 
ATOM     62  C   UNL A   1      41.664  27.964  28.108  1.00  0.00     0.031 A 
ATOM     63  C   UNL A   1      39.814  26.692  28.978  1.00  0.00     0.131 A 
ATOM     64  C   UNL A   1      41.622  27.183  26.944  1.00  0.00     0.055 A 
ATOM     65  C   UNL A   1      39.834  25.861  27.855  1.00  0.00     0.041 A 
ATOM     66  F   UNL A   1      38.878  26.452  29.909  1.00  0.00    -0.206 F 
ATOM     67  C   UNL A   1      40.730  26.116  26.821  1.00  0.00     0.022 A 
BRANCH  64  68
ATOM     68  S   UNL A   1      42.641  27.683  25.529  1.00  0.00     0.124 S 
ATOM     69  O   UNL A   1      41.903  28.841  25.029  1.00  0.00    -0.237 OA
ATOM     70  O   UNL A   1      43.929  27.966  26.153  1.00  0.00    -0.237 OA
ATOM     71  O   UNL A   1      42.613  26.512  24.655  1.00  0.00    -0.744 OA
ENDBRANCH  64  68
ENDBRANCH  47  61
BRANCH  48  72
ATOM     72  C   UNL A   1      39.648  33.677  37.158  1.00  0.00     0.023 A 
ATOM     73  C   UNL A   1      40.454  34.803  37.391  1.00  0.00     0.031 A 
ATOM     74  C   UNL A   1      38.687  33.343  38.130  1.00  0.00     0.131 A 
ATOM     75  C   UNL A   1      40.316  35.528  38.585  1.00  0.00     0.055 A 
ATOM     76  C   UNL A   1      38.516  34.101  39.289  1.00  0.00     0.041 A 
ATOM     77  F   UNL A   1      37.888  32.279  37.956  1.00  0.00    -0.206 F 
ATOM     78  C   UNL A   1      39.343  35.194  39.529  1.00  0.00     0.022 A 
BRANCH  75  79
ATOM     79  S   UNL A   1      41.491  36.868  38.927  1.00  0.00     0.124 S 
ATOM     80  O   UNL A   1      40.595  37.962  39.284  1.00  0.00    -0.237 OA
ATOM     81  O   UNL A   1      42.284  36.305  40.014  1.00  0.00    -0.237 OA
ATOM     82  O   UNL A   1      42.200  37.029  37.658  1.00  0.00    -0.744 OA
ENDBRANCH  75  79
ENDBRANCH  48  72
BRANCH  60  83
ATOM     83  C   UNL A   1      44.126  28.595  35.482  1.00  0.00     0.023 A 
ATOM     84  C   UNL A   1      43.987  27.550  36.413  1.00  0.00     0.031 A 
ATOM     85  C   UNL A   1      45.417  29.102  35.245  1.00  0.00     0.131 A 
ATOM     86  C   UNL A   1      45.109  27.085  37.115  1.00  0.00     0.055 A 
ATOM     87  C   UNL A   1      46.539  28.590  35.899  1.00  0.00     0.041 A 
ATOM     88  F   UNL A   1      45.609  30.102  34.371  1.00  0.00    -0.206 F 
ATOM     89  C   UNL A   1      46.388  27.586  36.850  1.00  0.00     0.022 A 
BRANCH  86  90
ATOM     90  S   UNL A   1      44.866  25.883  38.451  1.00  0.00     0.124 S 
ATOM     91  O   UNL A   1      46.220  25.730  38.972  1.00  0.00    -0.237 OA
ATOM     92  O   UNL A   1      43.922  26.574  39.324  1.00  0.00    -0.237 OA
ATOM     93  O   UNL A   1      44.328  24.711  37.764  1.00  0.00    -0.744 OA
ENDBRANCH  86  90
ENDBRANCH  60  83
ENDBRANCH  34  35
ENDBRANCH  26  29
ENDBRANCH  24  25
ENDBRANCH   1  24
TORSDOF 16
ENDMDL
