MODEL 1
REMARK VINA RESULT:     -11.5      0.000      0.000
REMARK SMILES [NH3+][C@H](c1ccc(C(=O)NCCCCCCNC(=O)c2ccc(-c3c4nc(c(-c5cc(S(=O)(=O)[O-])ccc5F)c5ccc([nH]5)c(-c5cc(S(=O)(=O)[O-])ccc5F)c5nc(c(-c6cc(S(=O)(=O)[O-])ccc6F)c6ccc3[nH]6)C=C5)C=C4)cc2)cc1Cl)C(F)(F)F
REMARK SMILES IDX 13 1 12 2 11 3 10 4 9 5 7 6 8 7 6 9 3 10 4 11 83 12 5 13
REMARK SMILES IDX 82 14 84 15 2 16 1 17 85 21 86 22 87 23 88 24 14 25 15 26
REMARK SMILES IDX 16 27 17 28 18 30 19 31 20 32 81 33 21 34 80 35 22 36 23 37
REMARK SMILES IDX 24 38 74 39 25 40 79 41 73 42 75 43 26 44 78 45 72 46 71 47
REMARK SMILES IDX 27 49 59 50 39 51 58 52 40 53 43 54 57 55 76 56 41 57 42 58
REMARK SMILES IDX 56 60 77 61 44 62 28 63 29 64 37 65 30 66 36 67 38 68 35 69
REMARK SMILES IDX 31 70 32 71 33 72 34 73 60 74 61 75 69 76 62 77 68 78 70 79
REMARK SMILES IDX 67 80 63 81 64 82 65 83 66 84 45 85 46 86 54 87 47 88 53 89
REMARK SMILES IDX 55 90 52 91 48 92 49 93 50 94 51 95
REMARK H PARENT 9 8 1 18 1 19 1 20 16 29 75 48 43 59
REMARK Flexibility Score: inf
ROOT
ATOM      1  C   UNL A   1      31.695  28.065  26.746  1.00  0.00     0.002 C 
ENDROOT
BRANCH   1   2
ATOM      2  C   UNL A   1      33.023  27.610  26.134  1.00  0.00     0.002 C 
BRANCH   2   3
ATOM      3  C   UNL A   1      33.137  26.129  25.788  1.00  0.00     0.021 C 
BRANCH   3   4
ATOM      4  C   UNL A   1      31.926  25.266  26.109  1.00  0.00     0.116 C 
BRANCH   4   5
ATOM      5  N   UNL A   1      31.410  24.470  25.006  1.00  0.00    -0.352 N 
ATOM      6  C   UNL A   1      30.699  24.859  23.886  1.00  0.00     0.251 C 
ATOM      7  O   UNL A   1      30.334  24.006  23.079  1.00  0.00    -0.269 OA
ATOM      8  H   UNL A   1      31.597  23.504  25.066  1.00  0.00     0.163 HD
BRANCH   6   9
ATOM      9  C   UNL A   1      30.301  26.281  23.671  1.00  0.00     0.041 A 
ATOM     10  C   UNL A   1      29.438  28.881  22.852  1.00  0.00     0.037 A 
ATOM     11  C   UNL A   1      30.775  28.451  22.688  1.00  0.00     0.012 A 
ATOM     12  C   UNL A   1      28.568  27.958  23.467  1.00  0.00     0.051 A 
ATOM     13  C   UNL A   1      31.194  27.162  23.063  1.00  0.00     0.014 A 
ATOM     14  C   UNL A   1      29.035  26.749  23.988  1.00  0.00     0.034 A 
ATOM     15  Cl  UNL A   1      26.842  28.117  23.511  1.00  0.00    -0.084 Cl
BRANCH  10  16
ATOM     16  C   UNL A   1      28.973  30.245  22.298  1.00  0.00     0.320 C 
BRANCH  16  17
ATOM     17  N   UNL A   1      27.819  30.119  21.367  1.00  0.00    -0.344 N 
ATOM     18  H   UNL A   1      28.080  30.482  20.450  1.00  0.00     0.345 HD
ATOM     19  H   UNL A   1      27.029  30.651  21.731  1.00  0.00     0.345 HD
ATOM     20  H   UNL A   1      27.557  29.137  21.281  1.00  0.00     0.345 HD
ENDBRANCH  16  17
BRANCH  16  21
ATOM     21  C   UNL A   1      28.657  31.339  23.374  1.00  0.00     0.445 C 
ATOM     22  F   UNL A   1      27.428  31.183  23.921  1.00  0.00    -0.165 F 
ATOM     23  F   UNL A   1      29.538  31.295  24.405  1.00  0.00    -0.165 F 
ATOM     24  F   UNL A   1      28.718  32.586  22.846  1.00  0.00    -0.165 F 
ENDBRANCH  16  21
ENDBRANCH  10  16
ENDBRANCH   6   9
ENDBRANCH   4   5
ENDBRANCH   3   4
ENDBRANCH   2   3
ENDBRANCH   1   2
BRANCH   1  25
ATOM     25  C   UNL A   1      31.518  29.573  26.951  1.00  0.00     0.021 C 
BRANCH  25  26
ATOM     26  C   UNL A   1      32.460  30.466  26.151  1.00  0.00     0.116 C 
BRANCH  26  27
ATOM     27  N   UNL A   1      32.284  31.876  26.462  1.00  0.00    -0.352 N 
ATOM     28  C   UNL A   1      32.982  32.669  27.337  1.00  0.00     0.251 C 
ATOM     29  H   UNL A   1      31.558  32.326  25.973  1.00  0.00     0.163 HD
ATOM     30  O   UNL A   1      32.554  33.791  27.611  1.00  0.00    -0.269 OA
BRANCH  28  31
ATOM     31  C   UNL A   1      34.226  32.173  27.964  1.00  0.00     0.039 A 
ATOM     32  C   UNL A   1      35.292  33.057  28.149  1.00  0.00     0.014 A 
ATOM     33  C   UNL A   1      34.348  30.838  28.359  1.00  0.00     0.014 A 
ATOM     34  C   UNL A   1      36.455  32.617  28.786  1.00  0.00     0.010 A 
ATOM     35  C   UNL A   1      35.476  30.422  29.062  1.00  0.00     0.010 A 
ATOM     36  C   UNL A   1      36.544  31.306  29.280  1.00  0.00    -0.014 A 
BRANCH  36  37
ATOM     37  C   UNL A   1      37.746  30.838  30.022  1.00  0.00     0.031 A 
ATOM     38  C   UNL A   1      38.709  29.882  29.371  1.00  0.00     0.074 A 
ATOM     39  C   UNL A   1      37.934  31.224  31.300  1.00  0.00     0.049 A 
ATOM     40  N   UNL A   1      39.761  29.292  29.879  1.00  0.00    -0.248 NA
ATOM     41  C   UNL A   1      38.433  29.521  27.973  1.00  0.00     0.031 C 
ATOM     42  C   UNL A   1      37.054  32.124  32.049  1.00  0.00     0.029 A 
ATOM     43  N   UNL A   1      38.921  30.904  32.199  1.00  0.00    -0.354 N 
ATOM     44  C   UNL A   1      40.267  28.482  28.867  1.00  0.00     0.074 A 
ATOM     45  C   UNL A   1      39.364  28.608  27.742  1.00  0.00     0.031 C 
ATOM     46  C   UNL A   1      37.555  32.305  33.281  1.00  0.00     0.029 A 
ATOM     47  C   UNL A   1      38.759  31.493  33.432  1.00  0.00     0.049 A 
ATOM     48  H   UNL A   1      39.675  30.309  31.982  1.00  0.00     0.167 HD
ATOM     49  C   UNL A   1      41.392  27.725  28.867  1.00  0.00     0.034 A 
ATOM     50  C   UNL A   1      39.485  31.379  34.562  1.00  0.00     0.034 A 
ATOM     51  C   UNL A   1      42.281  27.614  29.999  1.00  0.00     0.049 A 
ATOM     52  C   UNL A   1      40.704  30.490  34.557  1.00  0.00     0.074 A 
ATOM     53  C   UNL A   1      43.470  26.911  30.095  1.00  0.00     0.029 A 
ATOM     54  N   UNL A   1      42.076  28.214  31.236  1.00  0.00    -0.354 N 
ATOM     55  N   UNL A   1      41.193  29.764  33.578  1.00  0.00    -0.248 NA
ATOM     56  C   UNL A   1      41.475  30.416  35.804  1.00  0.00     0.031 C 
ATOM     57  C   UNL A   1      43.938  27.019  31.408  1.00  0.00     0.029 A 
ATOM     58  C   UNL A   1      43.095  27.866  32.110  1.00  0.00     0.049 A 
ATOM     59  H   UNL A   1      41.317  28.800  31.460  1.00  0.00     0.167 HD
ATOM     60  C   UNL A   1      42.349  29.174  34.083  1.00  0.00     0.074 A 
ATOM     61  C   UNL A   1      42.489  29.642  35.447  1.00  0.00     0.031 C 
ATOM     62  C   UNL A   1      43.220  28.331  33.473  1.00  0.00     0.034 A 
BRANCH  49  63
ATOM     63  C   UNL A   1      41.699  26.934  27.616  1.00  0.00     0.023 A 
ATOM     64  C   UNL A   1      41.407  25.561  27.518  1.00  0.00     0.031 A 
ATOM     65  C   UNL A   1      42.324  27.549  26.516  1.00  0.00     0.131 A 
ATOM     66  C   UNL A   1      41.812  24.835  26.389  1.00  0.00     0.055 A 
ATOM     67  C   UNL A   1      42.642  26.840  25.356  1.00  0.00     0.041 A 
ATOM     68  F   UNL A   1      42.651  28.850  26.555  1.00  0.00    -0.206 F 
ATOM     69  C   UNL A   1      42.403  25.470  25.295  1.00  0.00     0.022 A 
BRANCH  66  70
ATOM     70  S   UNL A   1      41.709  23.025  26.442  1.00  0.00     0.124 S 
ATOM     71  O   UNL A   1      42.473  22.651  25.254  1.00  0.00    -0.237 OA
ATOM     72  O   UNL A   1      42.329  22.711  27.724  1.00  0.00    -0.237 OA
ATOM     73  O   UNL A   1      40.274  22.760  26.360  1.00  0.00    -0.744 OA
ENDBRANCH  66  70
ENDBRANCH  49  63
BRANCH  50  74
ATOM     74  C   UNL A   1      39.080  32.109  35.799  1.00  0.00     0.023 A 
ATOM     75  C   UNL A   1      38.353  31.465  36.813  1.00  0.00     0.031 A 
ATOM     76  C   UNL A   1      39.376  33.474  35.966  1.00  0.00     0.131 A 
ATOM     77  C   UNL A   1      37.905  32.195  37.925  1.00  0.00     0.055 A 
ATOM     78  C   UNL A   1      38.980  34.182  37.104  1.00  0.00     0.041 A 
ATOM     79  F   UNL A   1      40.070  34.139  35.029  1.00  0.00    -0.206 F 
ATOM     80  C   UNL A   1      38.227  33.545  38.085  1.00  0.00     0.022 A 
BRANCH  77  81
ATOM     81  S   UNL A   1      36.811  31.377  39.118  1.00  0.00     0.124 S 
ATOM     82  O   UNL A   1      37.655  31.324  40.306  1.00  0.00    -0.237 OA
ATOM     83  O   UNL A   1      35.680  32.297  39.172  1.00  0.00    -0.237 OA
ATOM     84  O   UNL A   1      36.532  30.086  38.493  1.00  0.00    -0.744 OA
ENDBRANCH  77  81
ENDBRANCH  50  74
BRANCH  62  85
ATOM     85  C   UNL A   1      44.434  27.902  34.264  1.00  0.00     0.023 A 
ATOM     86  C   UNL A   1      44.465  26.695  34.985  1.00  0.00     0.031 A 
ATOM     87  C   UNL A   1      45.577  28.720  34.299  1.00  0.00     0.131 A 
ATOM     88  C   UNL A   1      45.591  26.371  35.757  1.00  0.00     0.055 A 
ATOM     89  C   UNL A   1      46.721  28.360  35.013  1.00  0.00     0.041 A 
ATOM     90  F   UNL A   1      45.604  29.887  33.634  1.00  0.00    -0.206 F 
ATOM     91  C   UNL A   1      46.726  27.186  35.760  1.00  0.00     0.022 A 
BRANCH  88  92
ATOM     92  S   UNL A   1      45.515  24.920  36.843  1.00  0.00     0.124 S 
ATOM     93  O   UNL A   1      46.918  24.523  36.916  1.00  0.00    -0.237 OA
ATOM     94  O   UNL A   1      44.945  25.475  38.065  1.00  0.00    -0.237 OA
ATOM     95  O   UNL A   1      44.647  23.994  36.118  1.00  0.00    -0.744 OA
ENDBRANCH  88  92
ENDBRANCH  62  85
ENDBRANCH  36  37
ENDBRANCH  28  31
ENDBRANCH  26  27
ENDBRANCH  25  26
ENDBRANCH   1  25
TORSDOF 19
ENDMDL
MODEL 2
REMARK VINA RESULT:     -11.3      1.898      7.786
REMARK SMILES [NH3+][C@H](c1ccc(C(=O)NCCCCCCNC(=O)c2ccc(-c3c4nc(c(-c5cc(S(=O)(=O)[O-])ccc5F)c5ccc([nH]5)c(-c5cc(S(=O)(=O)[O-])ccc5F)c5nc(c(-c6cc(S(=O)(=O)[O-])ccc6F)c6ccc3[nH]6)C=C5)C=C4)cc2)cc1Cl)C(F)(F)F
REMARK SMILES IDX 13 1 12 2 11 3 10 4 9 5 7 6 8 7 6 9 3 10 4 11 83 12 5 13
REMARK SMILES IDX 82 14 84 15 2 16 1 17 85 21 86 22 87 23 88 24 14 25 15 26
REMARK SMILES IDX 16 27 17 28 18 30 19 31 20 32 81 33 21 34 80 35 22 36 23 37
REMARK SMILES IDX 24 38 74 39 25 40 79 41 73 42 75 43 26 44 78 45 72 46 71 47
REMARK SMILES IDX 27 49 59 50 39 51 58 52 40 53 43 54 57 55 76 56 41 57 42 58
REMARK SMILES IDX 56 60 77 61 44 62 28 63 29 64 37 65 30 66 36 67 38 68 35 69
REMARK SMILES IDX 31 70 32 71 33 72 34 73 60 74 61 75 69 76 62 77 68 78 70 79
REMARK SMILES IDX 67 80 63 81 64 82 65 83 66 84 45 85 46 86 54 87 47 88 53 89
REMARK SMILES IDX 55 90 52 91 48 92 49 93 50 94 51 95
REMARK H PARENT 9 8 1 18 1 19 1 20 16 29 75 48 43 59
REMARK Flexibility Score: inf
ROOT
ATOM      1  C   UNL A   1      32.585  27.211  26.502  1.00  0.00     0.002 C 
ENDROOT
BRANCH   1   2
ATOM      2  C   UNL A   1      33.890  26.900  25.763  1.00  0.00     0.002 C 
BRANCH   2   3
ATOM      3  C   UNL A   1      34.178  25.428  25.487  1.00  0.00     0.021 C 
BRANCH   3   4
ATOM      4  C   UNL A   1      33.189  24.704  24.586  1.00  0.00     0.116 C 
BRANCH   4   5
ATOM      5  N   UNL A   1      33.421  24.847  23.156  1.00  0.00    -0.352 N 
ATOM      6  C   UNL A   1      32.965  25.808  22.273  1.00  0.00     0.251 C 
ATOM      7  O   UNL A   1      33.266  25.724  21.084  1.00  0.00    -0.269 OA
ATOM      8  H   UNL A   1      33.992  24.150  22.756  1.00  0.00     0.163 HD
BRANCH   6   9
ATOM      9  C   UNL A   1      32.057  26.905  22.717  1.00  0.00     0.041 A 
ATOM     10  C   UNL A   1      30.166  29.004  23.158  1.00  0.00     0.037 A 
ATOM     11  C   UNL A   1      31.482  29.266  22.709  1.00  0.00     0.012 A 
ATOM     12  C   UNL A   1      29.858  27.651  23.400  1.00  0.00     0.051 A 
ATOM     13  C   UNL A   1      32.402  28.232  22.463  1.00  0.00     0.014 A 
ATOM     14  C   UNL A   1      30.832  26.653  23.314  1.00  0.00     0.034 A 
ATOM     15  Cl  UNL A   1      28.255  27.042  23.660  1.00  0.00    -0.084 Cl
BRANCH  10  16
ATOM     16  C   UNL A   1      29.132  30.145  23.279  1.00  0.00     0.320 C 
BRANCH  16  17
ATOM     17  N   UNL A   1      29.709  31.375  23.887  1.00  0.00    -0.344 N 
ATOM     18  H   UNL A   1      30.448  31.116  24.540  1.00  0.00     0.345 HD
ATOM     19  H   UNL A   1      28.978  31.882  24.384  1.00  0.00     0.345 HD
ATOM     20  H   UNL A   1      30.097  31.968  23.153  1.00  0.00     0.345 HD
ENDBRANCH  16  17
BRANCH  16  21
ATOM     21  C   UNL A   1      28.383  30.521  21.955  1.00  0.00     0.445 C 
ATOM     22  F   UNL A   1      27.721  29.467  21.420  1.00  0.00    -0.165 F 
ATOM     23  F   UNL A   1      27.453  31.486  22.164  1.00  0.00    -0.165 F 
ATOM     24  F   UNL A   1      29.242  30.988  21.016  1.00  0.00    -0.165 F 
ENDBRANCH  16  21
ENDBRANCH  10  16
ENDBRANCH   6   9
ENDBRANCH   4   5
ENDBRANCH   3   4
ENDBRANCH   2   3
ENDBRANCH   1   2
BRANCH   1  25
ATOM     25  C   UNL A   1      32.027  28.628  26.339  1.00  0.00     0.021 C 
BRANCH  25  26
ATOM     26  C   UNL A   1      33.003  29.666  25.793  1.00  0.00     0.116 C 
BRANCH  26  27
ATOM     27  N   UNL A   1      32.688  31.012  26.242  1.00  0.00    -0.352 N 
ATOM     28  C   UNL A   1      33.299  31.775  27.205  1.00  0.00     0.251 C 
ATOM     29  H   UNL A   1      31.925  31.438  25.789  1.00  0.00     0.163 HD
ATOM     30  O   UNL A   1      32.761  32.816  27.585  1.00  0.00    -0.269 OA
BRANCH  28  31
ATOM     31  C   UNL A   1      34.581  31.339  27.800  1.00  0.00     0.039 A 
ATOM     32  C   UNL A   1      35.620  32.265  27.924  1.00  0.00     0.014 A 
ATOM     33  C   UNL A   1      34.765  30.020  28.223  1.00  0.00     0.014 A 
ATOM     34  C   UNL A   1      36.820  31.883  28.530  1.00  0.00     0.010 A 
ATOM     35  C   UNL A   1      35.931  29.663  28.895  1.00  0.00     0.010 A 
ATOM     36  C   UNL A   1      36.974  30.589  29.053  1.00  0.00    -0.014 A 
BRANCH  36  37
ATOM     37  C   UNL A   1      38.216  30.184  29.763  1.00  0.00     0.031 A 
ATOM     38  C   UNL A   1      38.483  30.681  31.159  1.00  0.00     0.074 A 
ATOM     39  C   UNL A   1      39.130  29.422  29.130  1.00  0.00     0.049 A 
ATOM     40  N   UNL A   1      39.542  30.514  31.909  1.00  0.00    -0.248 NA
ATOM     41  C   UNL A   1      37.429  31.497  31.779  1.00  0.00     0.031 C 
ATOM     42  C   UNL A   1      38.998  28.904  27.766  1.00  0.00     0.029 A 
ATOM     43  N   UNL A   1      40.353  28.957  29.542  1.00  0.00    -0.354 N 
ATOM     44  C   UNL A   1      39.287  31.213  33.085  1.00  0.00     0.074 A 
ATOM     45  C   UNL A   1      38.003  31.860  32.915  1.00  0.00     0.031 C 
ATOM     46  C   UNL A   1      40.082  28.171  27.467  1.00  0.00     0.029 A 
ATOM     47  C   UNL A   1      41.013  28.212  28.591  1.00  0.00     0.049 A 
ATOM     48  H   UNL A   1      40.726  29.139  30.435  1.00  0.00     0.167 HD
ATOM     49  C   UNL A   1      40.043  31.289  34.209  1.00  0.00     0.034 A 
ATOM     50  C   UNL A   1      42.234  27.640  28.613  1.00  0.00     0.034 A 
ATOM     51  C   UNL A   1      41.321  30.634  34.360  1.00  0.00     0.049 A 
ATOM     52  C   UNL A   1      43.079  27.780  29.855  1.00  0.00     0.074 A 
ATOM     53  C   UNL A   1      42.149  30.607  35.468  1.00  0.00     0.029 A 
ATOM     54  N   UNL A   1      41.962  29.899  33.369  1.00  0.00    -0.354 N 
ATOM     55  N   UNL A   1      42.805  28.409  30.975  1.00  0.00    -0.248 NA
ATOM     56  C   UNL A   1      44.391  27.122  29.839  1.00  0.00     0.031 C 
ATOM     57  C   UNL A   1      43.322  29.928  35.123  1.00  0.00     0.029 A 
ATOM     58  C   UNL A   1      43.190  29.449  33.829  1.00  0.00     0.049 A 
ATOM     59  H   UNL A   1      41.598  29.726  32.471  1.00  0.00     0.167 HD
ATOM     60  C   UNL A   1      43.899  28.191  31.809  1.00  0.00     0.074 A 
ATOM     61  C   UNL A   1      44.827  27.362  31.067  1.00  0.00     0.031 C 
ATOM     62  C   UNL A   1      44.113  28.630  33.076  1.00  0.00     0.034 A 
BRANCH  49  63
ATOM     63  C   UNL A   1      39.517  32.135  35.346  1.00  0.00     0.023 A 
ATOM     64  C   UNL A   1      39.887  33.484  35.497  1.00  0.00     0.031 A 
ATOM     65  C   UNL A   1      38.659  31.581  36.313  1.00  0.00     0.131 A 
ATOM     66  C   UNL A   1      39.473  34.204  36.627  1.00  0.00     0.055 A 
ATOM     67  C   UNL A   1      38.176  32.330  37.387  1.00  0.00     0.041 A 
ATOM     68  F   UNL A   1      38.287  30.293  36.240  1.00  0.00    -0.206 F 
ATOM     69  C   UNL A   1      38.598  33.645  37.560  1.00  0.00     0.022 A 
BRANCH  66  70
ATOM     70  S   UNL A   1      40.231  35.821  36.947  1.00  0.00     0.124 S 
ATOM     71  O   UNL A   1      39.717  36.128  38.279  1.00  0.00    -0.237 OA
ATOM     72  O   UNL A   1      41.655  35.523  36.865  1.00  0.00    -0.237 OA
ATOM     73  O   UNL A   1      39.705  36.664  35.875  1.00  0.00    -0.744 OA
ENDBRANCH  66  70
ENDBRANCH  49  63
BRANCH  50  74
ATOM     74  C   UNL A   1      42.742  26.896  27.424  1.00  0.00     0.023 A 
ATOM     75  C   UNL A   1      42.508  25.519  27.280  1.00  0.00     0.031 A 
ATOM     76  C   UNL A   1      43.506  27.541  26.435  1.00  0.00     0.131 A 
ATOM     77  C   UNL A   1      43.073  24.822  26.200  1.00  0.00     0.055 A 
ATOM     78  C   UNL A   1      44.015  26.855  25.330  1.00  0.00     0.041 A 
ATOM     79  F   UNL A   1      43.758  28.857  26.521  1.00  0.00    -0.206 F 
ATOM     80  C   UNL A   1      43.811  25.484  25.216  1.00  0.00     0.022 A 
BRANCH  77  81
ATOM     81  S   UNL A   1      42.907  23.017  26.150  1.00  0.00     0.124 S 
ATOM     82  O   UNL A   1      42.970  22.754  24.718  1.00  0.00    -0.237 OA
ATOM     83  O   UNL A   1      44.060  22.586  26.934  1.00  0.00    -0.237 OA
ATOM     84  O   UNL A   1      41.608  22.777  26.773  1.00  0.00    -0.744 OA
ENDBRANCH  77  81
ENDBRANCH  50  74
BRANCH  62  85
ATOM     85  C   UNL A   1      45.381  28.173  33.760  1.00  0.00     0.023 A 
ATOM     86  C   UNL A   1      45.434  26.986  34.512  1.00  0.00     0.031 A 
ATOM     87  C   UNL A   1      46.552  28.944  33.660  1.00  0.00     0.131 A 
ATOM     88  C   UNL A   1      46.617  26.636  35.182  1.00  0.00     0.055 A 
ATOM     89  C   UNL A   1      47.745  28.555  34.272  1.00  0.00     0.041 A 
ATOM     90  F   UNL A   1      46.559  30.090  32.959  1.00  0.00    -0.206 F 
ATOM     91  C   UNL A   1      47.778  27.403  35.051  1.00  0.00     0.022 A 
BRANCH  88  92
ATOM     92  S   UNL A   1      46.591  25.220  36.314  1.00  0.00     0.124 S 
ATOM     93  O   UNL A   1      47.997  25.103  36.687  1.00  0.00    -0.237 OA
ATOM     94  O   UNL A   1      45.689  25.677  37.366  1.00  0.00    -0.237 OA
ATOM     95  O   UNL A   1      46.077  24.129  35.488  1.00  0.00    -0.744 OA
ENDBRANCH  88  92
ENDBRANCH  62  85
ENDBRANCH  36  37
ENDBRANCH  28  31
ENDBRANCH  26  27
ENDBRANCH  25  26
ENDBRANCH   1  25
TORSDOF 19
ENDMDL
MODEL 3
REMARK VINA RESULT:     -11.3      3.563      4.781
REMARK SMILES [NH3+][C@H](c1ccc(C(=O)NCCCCCCNC(=O)c2ccc(-c3c4nc(c(-c5cc(S(=O)(=O)[O-])ccc5F)c5ccc([nH]5)c(-c5cc(S(=O)(=O)[O-])ccc5F)c5nc(c(-c6cc(S(=O)(=O)[O-])ccc6F)c6ccc3[nH]6)C=C5)C=C4)cc2)cc1Cl)C(F)(F)F
REMARK SMILES IDX 13 1 12 2 11 3 10 4 9 5 7 6 8 7 6 9 3 10 4 11 83 12 5 13
REMARK SMILES IDX 82 14 84 15 2 16 1 17 85 21 86 22 87 23 88 24 14 25 15 26
REMARK SMILES IDX 16 27 17 28 18 30 19 31 20 32 81 33 21 34 80 35 22 36 23 37
REMARK SMILES IDX 24 38 74 39 25 40 79 41 73 42 75 43 26 44 78 45 72 46 71 47
REMARK SMILES IDX 27 49 59 50 39 51 58 52 40 53 43 54 57 55 76 56 41 57 42 58
REMARK SMILES IDX 56 60 77 61 44 62 28 63 29 64 37 65 30 66 36 67 38 68 35 69
REMARK SMILES IDX 31 70 32 71 33 72 34 73 60 74 61 75 69 76 62 77 68 78 70 79
REMARK SMILES IDX 67 80 63 81 64 82 65 83 66 84 45 85 46 86 54 87 47 88 53 89
REMARK SMILES IDX 55 90 52 91 48 92 49 93 50 94 51 95
REMARK H PARENT 9 8 1 18 1 19 1 20 16 29 75 48 43 59
REMARK Flexibility Score: inf
ROOT
ATOM      1  C   UNL A   1      31.378  27.756  25.033  1.00  0.00     0.002 C 
ENDROOT
BRANCH   1   2
ATOM      2  C   UNL A   1      30.621  26.877  24.034  1.00  0.00     0.002 C 
BRANCH   2   3
ATOM      3  C   UNL A   1      30.406  25.422  24.439  1.00  0.00     0.021 C 
BRANCH   3   4
ATOM      4  C   UNL A   1      30.495  24.391  23.325  1.00  0.00     0.116 C 
BRANCH   4   5
ATOM      5  N   UNL A   1      31.698  24.450  22.508  1.00  0.00    -0.352 N 
ATOM      6  C   UNL A   1      32.702  23.515  22.336  1.00  0.00     0.251 C 
ATOM      7  O   UNL A   1      33.656  23.784  21.607  1.00  0.00    -0.269 OA
ATOM      8  H   UNL A   1      31.815  25.285  21.999  1.00  0.00     0.163 HD
BRANCH   6   9
ATOM      9  C   UNL A   1      32.692  22.216  23.070  1.00  0.00     0.041 A 
ATOM     10  C   UNL A   1      33.034  19.635  24.251  1.00  0.00     0.037 A 
ATOM     11  C   UNL A   1      32.294  19.820  23.060  1.00  0.00     0.012 A 
ATOM     12  C   UNL A   1      33.566  20.804  24.831  1.00  0.00     0.051 A 
ATOM     13  C   UNL A   1      32.151  21.085  22.462  1.00  0.00     0.014 A 
ATOM     14  C   UNL A   1      33.274  22.071  24.320  1.00  0.00     0.034 A 
ATOM     15  Cl  UNL A   1      34.745  20.819  26.102  1.00  0.00    -0.084 Cl
BRANCH  10  16
ATOM     16  C   UNL A   1      33.298  18.218  24.804  1.00  0.00     0.320 C 
BRANCH  16  17
ATOM     17  N   UNL A   1      32.125  17.316  24.646  1.00  0.00    -0.344 N 
ATOM     18  H   UNL A   1      31.376  17.621  25.268  1.00  0.00     0.345 HD
ATOM     19  H   UNL A   1      32.395  16.362  24.882  1.00  0.00     0.345 HD
ATOM     20  H   UNL A   1      31.798  17.349  23.680  1.00  0.00     0.345 HD
ENDBRANCH  16  17
BRANCH  16  21
ATOM     21  C   UNL A   1      34.580  17.505  24.252  1.00  0.00     0.445 C 
ATOM     22  F   UNL A   1      35.666  18.314  24.268  1.00  0.00    -0.165 F 
ATOM     23  F   UNL A   1      34.906  16.419  24.996  1.00  0.00    -0.165 F 
ATOM     24  F   UNL A   1      34.400  17.080  22.978  1.00  0.00    -0.165 F 
ENDBRANCH  16  21
ENDBRANCH  10  16
ENDBRANCH   6   9
ENDBRANCH   4   5
ENDBRANCH   3   4
ENDBRANCH   2   3
ENDBRANCH   1   2
BRANCH   1  25
ATOM     25  C   UNL A   1      32.906  27.646  25.019  1.00  0.00     0.021 C 
BRANCH  25  26
ATOM     26  C   UNL A   1      33.665  28.962  24.884  1.00  0.00     0.116 C 
BRANCH  26  27
ATOM     27  N   UNL A   1      32.892  30.098  25.358  1.00  0.00    -0.352 N 
ATOM     28  C   UNL A   1      33.012  30.806  26.528  1.00  0.00     0.251 C 
ATOM     29  H   UNL A   1      32.179  30.404  24.753  1.00  0.00     0.163 HD
ATOM     30  O   UNL A   1      32.133  31.610  26.842  1.00  0.00    -0.269 OA
BRANCH  28  31
ATOM     31  C   UNL A   1      34.175  30.590  27.415  1.00  0.00     0.039 A 
ATOM     32  C   UNL A   1      34.320  29.356  28.055  1.00  0.00     0.014 A 
ATOM     33  C   UNL A   1      35.115  31.602  27.626  1.00  0.00     0.014 A 
ATOM     34  C   UNL A   1      35.440  29.118  28.856  1.00  0.00     0.010 A 
ATOM     35  C   UNL A   1      36.268  31.337  28.361  1.00  0.00     0.010 A 
ATOM     36  C   UNL A   1      36.442  30.093  28.987  1.00  0.00    -0.014 A 
BRANCH  36  37
ATOM     37  C   UNL A   1      37.674  29.834  29.778  1.00  0.00     0.031 A 
ATOM     38  C   UNL A   1      38.748  28.933  29.228  1.00  0.00     0.074 A 
ATOM     39  C   UNL A   1      37.798  30.358  31.014  1.00  0.00     0.049 A 
ATOM     40  N   UNL A   1      39.849  28.514  29.797  1.00  0.00    -0.248 NA
ATOM     41  C   UNL A   1      38.537  28.413  27.870  1.00  0.00     0.031 C 
ATOM     42  C   UNL A   1      36.812  31.222  31.668  1.00  0.00     0.029 A 
ATOM     43  N   UNL A   1      38.798  30.236  31.946  1.00  0.00    -0.354 N 
ATOM     44  C   UNL A   1      40.458  27.673  28.870  1.00  0.00     0.074 A 
ATOM     45  C   UNL A   1      39.565  27.591  27.733  1.00  0.00     0.031 C 
ATOM     46  C   UNL A   1      37.269  31.573  32.880  1.00  0.00     0.029 A 
ATOM     47  C   UNL A   1      38.552  30.917  33.116  1.00  0.00     0.049 A 
ATOM     48  H   UNL A   1      39.617  29.710  31.792  1.00  0.00     0.167 HD
ATOM     49  C   UNL A   1      41.659  27.048  28.951  1.00  0.00     0.034 A 
ATOM     50  C   UNL A   1      39.268  30.992  34.256  1.00  0.00     0.034 A 
ATOM     51  C   UNL A   1      42.536  27.144  30.093  1.00  0.00     0.049 A 
ATOM     52  C   UNL A   1      40.577  30.248  34.344  1.00  0.00     0.074 A 
ATOM     53  C   UNL A   1      43.793  26.590  30.264  1.00  0.00     0.029 A 
ATOM     54  N   UNL A   1      42.246  27.833  31.266  1.00  0.00    -0.354 N 
ATOM     55  N   UNL A   1      41.159  29.490  33.442  1.00  0.00    -0.248 NA
ATOM     56  C   UNL A   1      41.330  30.378  35.597  1.00  0.00     0.031 C 
ATOM     57  C   UNL A   1      44.225  26.873  31.563  1.00  0.00     0.029 A 
ATOM     58  C   UNL A   1      43.282  27.684  32.175  1.00  0.00     0.049 A 
ATOM     59  H   UNL A   1      41.423  28.350  31.427  1.00  0.00     0.167 HD
ATOM     60  C   UNL A   1      42.364  29.083  34.009  1.00  0.00     0.074 A 
ATOM     61  C   UNL A   1      42.429  29.691  35.322  1.00  0.00     0.031 C 
ATOM     62  C   UNL A   1      43.332  28.287  33.488  1.00  0.00     0.034 A 
BRANCH  49  63
ATOM     63  C   UNL A   1      42.072  26.181  27.784  1.00  0.00     0.023 A 
ATOM     64  C   UNL A   1      41.643  24.846  27.665  1.00  0.00     0.031 A 
ATOM     65  C   UNL A   1      42.933  26.681  26.790  1.00  0.00     0.131 A 
ATOM     66  C   UNL A   1      42.141  24.038  26.633  1.00  0.00     0.055 A 
ATOM     67  C   UNL A   1      43.351  25.898  25.713  1.00  0.00     0.041 A 
ATOM     68  F   UNL A   1      43.397  27.939  26.857  1.00  0.00    -0.206 F 
ATOM     69  C   UNL A   1      42.970  24.561  25.640  1.00  0.00     0.022 A 
BRANCH  66  70
ATOM     70  S   UNL A   1      41.823  22.253  26.703  1.00  0.00     0.124 S 
ATOM     71  O   UNL A   1      42.265  21.823  25.379  1.00  0.00    -0.237 OA
ATOM     72  O   UNL A   1      42.654  21.829  27.823  1.00  0.00    -0.237 OA
ATOM     73  O   UNL A   1      40.381  22.170  26.928  1.00  0.00    -0.744 OA
ENDBRANCH  66  70
ENDBRANCH  49  63
BRANCH  50  74
ATOM     74  C   UNL A   1      38.764  31.787  35.414  1.00  0.00     0.023 A 
ATOM     75  C   UNL A   1      38.235  31.154  36.551  1.00  0.00     0.031 A 
ATOM     76  C   UNL A   1      38.765  33.193  35.385  1.00  0.00     0.131 A 
ATOM     77  C   UNL A   1      37.685  31.922  37.588  1.00  0.00     0.055 A 
ATOM     78  C   UNL A   1      38.272  33.954  36.448  1.00  0.00     0.041 A 
ATOM     79  F   UNL A   1      39.262  33.851  34.326  1.00  0.00    -0.206 F 
ATOM     80  C   UNL A   1      37.714  33.318  37.552  1.00  0.00     0.022 A 
BRANCH  77  81
ATOM     81  S   UNL A   1      36.842  31.068  38.948  1.00  0.00     0.124 S 
ATOM     82  O   UNL A   1      35.611  31.840  39.065  1.00  0.00    -0.237 OA
ATOM     83  O   UNL A   1      36.705  29.716  38.417  1.00  0.00    -0.237 OA
ATOM     84  O   UNL A   1      37.775  31.204  40.065  1.00  0.00    -0.744 OA
ENDBRANCH  77  81
ENDBRANCH  50  74
BRANCH  62  85
ATOM     85  C   UNL A   1      44.573  28.072  34.324  1.00  0.00     0.023 A 
ATOM     86  C   UNL A   1      44.691  26.993  35.217  1.00  0.00     0.031 A 
ATOM     87  C   UNL A   1      45.651  28.969  34.226  1.00  0.00     0.131 A 
ATOM     88  C   UNL A   1      45.836  26.872  36.020  1.00  0.00     0.055 A 
ATOM     89  C   UNL A   1      46.817  28.805  34.977  1.00  0.00     0.041 A 
ATOM     90  F   UNL A   1      45.593  30.022  33.394  1.00  0.00    -0.206 F 
ATOM     91  C   UNL A   1      46.908  27.760  35.891  1.00  0.00     0.022 A 
BRANCH  88  92
ATOM     92  S   UNL A   1      45.865  25.599  37.311  1.00  0.00     0.124 S 
ATOM     93  O   UNL A   1      46.129  24.389  36.538  1.00  0.00    -0.237 OA
ATOM     94  O   UNL A   1      46.949  26.054  38.174  1.00  0.00    -0.237 OA
ATOM     95  O   UNL A   1      44.529  25.677  37.900  1.00  0.00    -0.744 OA
ENDBRANCH  88  92
ENDBRANCH  62  85
ENDBRANCH  36  37
ENDBRANCH  28  31
ENDBRANCH  26  27
ENDBRANCH  25  26
ENDBRANCH   1  25
TORSDOF 19
ENDMDL
