MODEL 1
REMARK VINA RESULT:     -11.9      0.000      0.000
REMARK SMILES CSc1ccc([C@H]2[NH2+][C@@H](C(=O)NCCCCCCNC(=O)c3ccc(-c4c5nc(c(-c6cc(S(=O)(=O)[O-])ccc6F)c6ccc([nH]6)c(-c6cc(S(=O)(=O)[O-])ccc6F)c6nc(c(-c7cc(S(=O)(=O)[O-])ccc7F)c7ccc4[nH]7)C=C6)C=C5)cc3)C(C)(C)S2)cc1
REMARK SMILES IDX 16 1 15 2 14 3 13 4 12 5 10 6 11 7 9 9 7 10 8 11 88 12 85 15
REMARK SMILES IDX 86 16 87 17 6 18 3 19 4 20 90 21 5 22 89 23 2 24 1 25 17 26
REMARK SMILES IDX 18 27 19 28 20 29 21 31 22 32 23 33 84 34 24 35 83 36 25 37
REMARK SMILES IDX 26 38 27 39 77 40 28 41 82 42 76 43 78 44 29 45 81 46 75 47
REMARK SMILES IDX 74 48 30 50 62 51 42 52 61 53 43 54 46 55 60 56 79 57 44 58
REMARK SMILES IDX 45 59 59 61 80 62 47 63 31 64 32 65 40 66 33 67 39 68 41 69
REMARK SMILES IDX 38 70 34 71 35 72 36 73 37 74 63 75 64 76 72 77 65 78 71 79
REMARK SMILES IDX 73 80 70 81 66 82 67 83 68 84 69 85 48 86 49 87 57 88 50 89
REMARK SMILES IDX 56 90 58 91 55 92 51 93 52 94 53 95 54 96
REMARK H PARENT 12 8 8 13 8 14 19 30 78 49 46 60
REMARK Flexibility Score: inf
ROOT
ATOM      1  C   UNL A   1      31.431  30.540  25.729  1.00  0.00     0.002 C 
ENDROOT
BRANCH   1   2
ATOM      2  C   UNL A   1      32.357  29.398  26.158  1.00  0.00     0.002 C 
BRANCH   2   3
ATOM      3  C   UNL A   1      31.674  28.285  26.951  1.00  0.00     0.021 C 
BRANCH   3   4
ATOM      4  C   UNL A   1      31.236  27.095  26.101  1.00  0.00     0.116 C 
BRANCH   4   5
ATOM      5  N   UNL A   1      31.295  25.860  26.859  1.00  0.00    -0.351 N 
ATOM      6  C   UNL A   1      31.635  24.585  26.520  1.00  0.00     0.279 C 
ATOM      7  O   UNL A   1      31.429  23.715  27.376  1.00  0.00    -0.268 OA
ATOM      8  H   UNL A   1      31.040  25.963  27.804  1.00  0.00     0.163 HD
BRANCH   6   9
ATOM      9  C   UNL A   1      32.233  24.190  25.152  1.00  0.00     0.289 C 
ATOM     10  C   UNL A   1      32.652  22.398  23.624  1.00  0.00     0.274 C 
ATOM     11  N   UNL A   1      31.824  22.829  24.749  1.00  0.00    -0.320 N 
ATOM     12  S   UNL A   1      34.160  23.401  23.533  1.00  0.00    -0.081 SA
ATOM     13  H   UNL A   1      31.949  22.189  25.532  1.00  0.00     0.348 HD
ATOM     14  H   UNL A   1      30.841  22.832  24.473  1.00  0.00     0.348 HD
ATOM     15  C   UNL A   1      33.742  24.462  24.964  1.00  0.00     0.077 C 
ATOM     16  C   UNL A   1      34.708  24.084  26.084  1.00  0.00     0.030 C 
ATOM     17  C   UNL A   1      33.979  25.938  24.613  1.00  0.00     0.030 C 
BRANCH  10  18
ATOM     18  C   UNL A   1      32.912  20.902  23.688  1.00  0.00     0.020 A 
ATOM     19  C   UNL A   1      33.225  18.086  23.909  1.00  0.00     0.007 A 
ATOM     20  C   UNL A   1      32.323  18.635  22.995  1.00  0.00     0.015 A 
ATOM     21  C   UNL A   1      33.991  18.955  24.691  1.00  0.00     0.015 A 
ATOM     22  C   UNL A   1      32.162  20.024  22.892  1.00  0.00     0.012 A 
ATOM     23  C   UNL A   1      33.844  20.342  24.577  1.00  0.00     0.012 A 
BRANCH  19  24
ATOM     24  S   UNL A   1      33.514  16.336  24.108  1.00  0.00    -0.130 SA
ATOM     25  C   UNL A   1      32.647  15.957  25.652  1.00  0.00     0.091 C 
ENDBRANCH  19  24
ENDBRANCH  10  18
ENDBRANCH   6   9
ENDBRANCH   4   5
ENDBRANCH   3   4
ENDBRANCH   2   3
ENDBRANCH   1   2
BRANCH   1  26
ATOM     26  C   UNL A   1      31.360  31.721  26.702  1.00  0.00     0.021 C 
BRANCH  26  27
ATOM     27  C   UNL A   1      32.713  32.284  27.123  1.00  0.00     0.116 C 
BRANCH  27  28
ATOM     28  N   UNL A   1      32.624  33.688  27.486  1.00  0.00    -0.352 N 
ATOM     29  C   UNL A   1      33.297  34.373  28.468  1.00  0.00     0.251 C 
ATOM     30  H   UNL A   1      31.993  34.224  26.954  1.00  0.00     0.163 HD
ATOM     31  O   UNL A   1      32.924  35.495  28.796  1.00  0.00    -0.269 OA
BRANCH  29  32
ATOM     32  C   UNL A   1      34.454  33.739  29.133  1.00  0.00     0.039 A 
ATOM     33  C   UNL A   1      34.228  32.767  30.110  1.00  0.00     0.014 A 
ATOM     34  C   UNL A   1      35.758  34.104  28.788  1.00  0.00     0.014 A 
ATOM     35  C   UNL A   1      35.315  32.120  30.701  1.00  0.00     0.010 A 
ATOM     36  C   UNL A   1      36.836  33.404  29.320  1.00  0.00     0.010 A 
ATOM     37  C   UNL A   1      36.627  32.410  30.288  1.00  0.00    -0.014 A 
BRANCH  37  38
ATOM     38  C   UNL A   1      37.792  31.694  30.869  1.00  0.00     0.031 A 
ATOM     39  C   UNL A   1      38.245  32.000  32.269  1.00  0.00     0.074 A 
ATOM     40  C   UNL A   1      38.473  30.808  30.115  1.00  0.00     0.049 A 
ATOM     41  N   UNL A   1      39.264  31.521  32.935  1.00  0.00    -0.248 NA
ATOM     42  C   UNL A   1      37.462  33.003  33.003  1.00  0.00     0.031 C 
ATOM     43  C   UNL A   1      38.149  30.450  28.733  1.00  0.00     0.029 A 
ATOM     44  N   UNL A   1      39.576  30.047  30.406  1.00  0.00    -0.354 N 
ATOM     45  C   UNL A   1      39.250  32.170  34.166  1.00  0.00     0.074 A 
ATOM     46  C   UNL A   1      38.171  33.134  34.113  1.00  0.00     0.031 C 
ATOM     47  C   UNL A   1      39.007  29.508  28.313  1.00  0.00     0.029 A 
ATOM     48  C   UNL A   1      39.971  29.231  29.372  1.00  0.00     0.049 A 
ATOM     49  H   UNL A   1      40.043  30.083  31.273  1.00  0.00     0.167 HD
ATOM     50  C   UNL A   1      40.042  31.960  35.248  1.00  0.00     0.034 A 
ATOM     51  C   UNL A   1      40.997  28.362  29.288  1.00  0.00     0.034 A 
ATOM     52  C   UNL A   1      41.119  31.000  35.275  1.00  0.00     0.049 A 
ATOM     53  C   UNL A   1      41.910  28.194  30.475  1.00  0.00     0.074 A 
ATOM     54  C   UNL A   1      41.961  30.674  36.325  1.00  0.00     0.029 A 
ATOM     55  N   UNL A   1      41.518  30.220  34.194  1.00  0.00    -0.354 N 
ATOM     56  N   UNL A   1      41.857  28.778  31.650  1.00  0.00    -0.248 NA
ATOM     57  C   UNL A   1      43.017  27.243  30.323  1.00  0.00     0.031 C 
ATOM     58  C   UNL A   1      42.914  29.762  35.857  1.00  0.00     0.029 A 
ATOM     59  C   UNL A   1      42.617  29.447  34.540  1.00  0.00     0.049 A 
ATOM     60  H   UNL A   1      41.083  30.219  33.310  1.00  0.00     0.167 HD
ATOM     61  C   UNL A   1      42.905  28.237  32.390  1.00  0.00     0.074 A 
ATOM     62  C   UNL A   1      43.565  27.274  31.530  1.00  0.00     0.031 C 
ATOM     63  C   UNL A   1      43.280  28.504  33.667  1.00  0.00     0.034 A 
BRANCH  50  64
ATOM     64  C   UNL A   1      39.779  32.819  36.466  1.00  0.00     0.023 A 
ATOM     65  C   UNL A   1      38.997  32.352  37.540  1.00  0.00     0.031 A 
ATOM     66  C   UNL A   1      40.246  34.143  36.528  1.00  0.00     0.131 A 
ATOM     67  C   UNL A   1      38.608  33.232  38.561  1.00  0.00     0.055 A 
ATOM     68  C   UNL A   1      39.943  34.983  37.603  1.00  0.00     0.041 A 
ATOM     69  F   UNL A   1      40.981  34.657  35.530  1.00  0.00    -0.206 F 
ATOM     70  C   UNL A   1      39.098  34.538  38.615  1.00  0.00     0.022 A 
BRANCH  67  71
ATOM     71  S   UNL A   1      37.288  32.708  39.690  1.00  0.00     0.124 S 
ATOM     72  O   UNL A   1      36.133  32.665  38.795  1.00  0.00    -0.237 OA
ATOM     73  O   UNL A   1      37.774  31.420  40.169  1.00  0.00    -0.237 OA
ATOM     74  O   UNL A   1      37.249  33.775  40.690  1.00  0.00    -0.744 OA
ENDBRANCH  67  71
ENDBRANCH  50  64
BRANCH  51  75
ATOM     75  C   UNL A   1      41.209  27.570  28.043  1.00  0.00     0.023 A 
ATOM     76  C   UNL A   1      40.904  26.200  28.008  1.00  0.00     0.031 A 
ATOM     77  C   UNL A   1      41.732  28.162  26.880  1.00  0.00     0.131 A 
ATOM     78  C   UNL A   1      41.156  25.458  26.844  1.00  0.00     0.055 A 
ATOM     79  C   UNL A   1      41.935  27.430  25.709  1.00  0.00     0.041 A 
ATOM     80  F   UNL A   1      42.034  29.469  26.861  1.00  0.00    -0.206 F 
ATOM     81  C   UNL A   1      41.656  26.066  25.690  1.00  0.00     0.022 A 
BRANCH  78  82
ATOM     82  S   UNL A   1      40.880  23.666  26.880  1.00  0.00     0.124 S 
ATOM     83  O   UNL A   1      41.803  23.202  25.851  1.00  0.00    -0.237 OA
ATOM     84  O   UNL A   1      41.233  23.332  28.257  1.00  0.00    -0.237 OA
ATOM     85  O   UNL A   1      39.462  23.534  26.555  1.00  0.00    -0.744 OA
ENDBRANCH  78  82
ENDBRANCH  51  75
BRANCH  63  86
ATOM     86  C   UNL A   1      44.437  27.705  34.224  1.00  0.00     0.023 A 
ATOM     87  C   UNL A   1      44.237  26.533  34.975  1.00  0.00     0.031 A 
ATOM     88  C   UNL A   1      45.759  28.135  34.011  1.00  0.00     0.131 A 
ATOM     89  C   UNL A   1      45.338  25.866  35.535  1.00  0.00     0.055 A 
ATOM     90  C   UNL A   1      46.853  27.429  34.513  1.00  0.00     0.041 A 
ATOM     91  F   UNL A   1      46.010  29.250  33.306  1.00  0.00    -0.206 F 
ATOM     92  C   UNL A   1      46.645  26.295  35.292  1.00  0.00     0.022 A 
BRANCH  89  93
ATOM     93  S   UNL A   1      45.034  24.484  36.672  1.00  0.00     0.124 S 
ATOM     94  O   UNL A   1      46.289  24.420  37.413  1.00  0.00    -0.237 OA
ATOM     95  O   UNL A   1      43.872  24.948  37.423  1.00  0.00    -0.237 OA
ATOM     96  O   UNL A   1      44.782  23.354  35.779  1.00  0.00    -0.744 OA
ENDBRANCH  89  93
ENDBRANCH  63  86
ENDBRANCH  37  38
ENDBRANCH  29  32
ENDBRANCH  27  28
ENDBRANCH  26  27
ENDBRANCH   1  26
TORSDOF 18
ENDMDL
MODEL 2
REMARK VINA RESULT:     -11.9      0.541      7.500
REMARK SMILES CSc1ccc([C@H]2[NH2+][C@@H](C(=O)NCCCCCCNC(=O)c3ccc(-c4c5nc(c(-c6cc(S(=O)(=O)[O-])ccc6F)c6ccc([nH]6)c(-c6cc(S(=O)(=O)[O-])ccc6F)c6nc(c(-c7cc(S(=O)(=O)[O-])ccc7F)c7ccc4[nH]7)C=C6)C=C5)cc3)C(C)(C)S2)cc1
REMARK SMILES IDX 16 1 15 2 14 3 13 4 12 5 10 6 11 7 9 9 7 10 8 11 88 12 85 15
REMARK SMILES IDX 86 16 87 17 6 18 3 19 4 20 90 21 5 22 89 23 2 24 1 25 17 26
REMARK SMILES IDX 18 27 19 28 20 29 21 31 22 32 23 33 84 34 24 35 83 36 25 37
REMARK SMILES IDX 26 38 27 39 77 40 28 41 82 42 76 43 78 44 29 45 81 46 75 47
REMARK SMILES IDX 74 48 30 50 62 51 42 52 61 53 43 54 46 55 60 56 79 57 44 58
REMARK SMILES IDX 45 59 59 61 80 62 47 63 31 64 32 65 40 66 33 67 39 68 41 69
REMARK SMILES IDX 38 70 34 71 35 72 36 73 37 74 63 75 64 76 72 77 65 78 71 79
REMARK SMILES IDX 73 80 70 81 66 82 67 83 68 84 69 85 48 86 49 87 57 88 50 89
REMARK SMILES IDX 56 90 58 91 55 92 51 93 52 94 53 95 54 96
REMARK H PARENT 12 8 8 13 8 14 19 30 78 49 46 60
REMARK Flexibility Score: inf
ROOT
ATOM      1  C   UNL A   1      31.325  30.511  25.634  1.00  0.00     0.002 C 
ENDROOT
BRANCH   1   2
ATOM      2  C   UNL A   1      31.682  29.347  26.562  1.00  0.00     0.002 C 
BRANCH   2   3
ATOM      3  C   UNL A   1      32.113  28.068  25.845  1.00  0.00     0.021 C 
BRANCH   3   4
ATOM      4  C   UNL A   1      31.003  27.030  25.704  1.00  0.00     0.116 C 
BRANCH   4   5
ATOM      5  N   UNL A   1      31.184  25.940  26.645  1.00  0.00    -0.351 N 
ATOM      6  C   UNL A   1      31.549  24.637  26.487  1.00  0.00     0.279 C 
ATOM      7  O   UNL A   1      31.458  23.916  27.489  1.00  0.00    -0.268 OA
ATOM      8  H   UNL A   1      31.007  26.191  27.580  1.00  0.00     0.163 HD
BRANCH   6   9
ATOM      9  C   UNL A   1      32.043  24.039  25.152  1.00  0.00     0.289 C 
ATOM     10  C   UNL A   1      32.244  22.053  23.834  1.00  0.00     0.274 C 
ATOM     11  N   UNL A   1      31.511  22.678  24.934  1.00  0.00    -0.320 N 
ATOM     12  S   UNL A   1      33.816  22.912  23.557  1.00  0.00    -0.081 SA
ATOM     13  H   UNL A   1      31.629  22.125  25.782  1.00  0.00     0.348 HD
ATOM     14  H   UNL A   1      30.518  22.728  24.702  1.00  0.00     0.348 HD
ATOM     15  C   UNL A   1      33.556  24.163  24.868  1.00  0.00     0.077 C 
ATOM     16  C   UNL A   1      34.548  23.841  25.982  1.00  0.00     0.030 C 
ATOM     17  C   UNL A   1      33.885  25.564  24.332  1.00  0.00     0.030 C 
BRANCH  10  18
ATOM     18  C   UNL A   1      32.393  20.559  24.066  1.00  0.00     0.020 A 
ATOM     19  C   UNL A   1      32.871  17.793  24.513  1.00  0.00     0.007 A 
ATOM     20  C   UNL A   1      32.937  18.708  25.566  1.00  0.00     0.015 A 
ATOM     21  C   UNL A   1      32.534  18.264  23.242  1.00  0.00     0.015 A 
ATOM     22  C   UNL A   1      32.711  20.074  25.344  1.00  0.00     0.012 A 
ATOM     23  C   UNL A   1      32.290  19.625  23.022  1.00  0.00     0.012 A 
BRANCH  19  24
ATOM     24  S   UNL A   1      33.129  16.036  24.693  1.00  0.00    -0.130 SA
ATOM     25  C   UNL A   1      34.858  15.934  25.221  1.00  0.00     0.091 C 
ENDBRANCH  19  24
ENDBRANCH  10  18
ENDBRANCH   6   9
ENDBRANCH   4   5
ENDBRANCH   3   4
ENDBRANCH   2   3
ENDBRANCH   1   2
BRANCH   1  26
ATOM     26  C   UNL A   1      31.289  31.889  26.303  1.00  0.00     0.021 C 
BRANCH  26  27
ATOM     27  C   UNL A   1      32.524  32.231  27.130  1.00  0.00     0.116 C 
BRANCH  27  28
ATOM     28  N   UNL A   1      32.585  33.646  27.450  1.00  0.00    -0.352 N 
ATOM     29  C   UNL A   1      33.406  34.300  28.335  1.00  0.00     0.251 C 
ATOM     30  H   UNL A   1      31.948  34.219  26.964  1.00  0.00     0.163 HD
ATOM     31  O   UNL A   1      33.159  35.457  28.659  1.00  0.00    -0.269 OA
BRANCH  29  32
ATOM     32  C   UNL A   1      34.571  33.591  28.905  1.00  0.00     0.039 A 
ATOM     33  C   UNL A   1      35.850  34.112  28.700  1.00  0.00     0.014 A 
ATOM     34  C   UNL A   1      34.396  32.416  29.642  1.00  0.00     0.014 A 
ATOM     35  C   UNL A   1      36.951  33.482  29.284  1.00  0.00     0.010 A 
ATOM     36  C   UNL A   1      35.483  31.836  30.286  1.00  0.00     0.010 A 
ATOM     37  C   UNL A   1      36.774  32.358  30.108  1.00  0.00    -0.014 A 
BRANCH  37  38
ATOM     38  C   UNL A   1      37.928  31.707  30.780  1.00  0.00     0.031 A 
ATOM     39  C   UNL A   1      38.726  30.656  30.060  1.00  0.00     0.074 A 
ATOM     40  C   UNL A   1      38.222  32.024  32.056  1.00  0.00     0.049 A 
ATOM     41  N   UNL A   1      39.733  29.939  30.489  1.00  0.00    -0.248 NA
ATOM     42  C   UNL A   1      38.312  30.352  28.684  1.00  0.00     0.031 C 
ATOM     43  C   UNL A   1      37.502  33.005  32.870  1.00  0.00     0.029 A 
ATOM     44  N   UNL A   1      39.204  31.557  32.891  1.00  0.00    -0.354 N 
ATOM     45  C   UNL A   1      40.070  29.093  29.437  1.00  0.00     0.074 A 
ATOM     46  C   UNL A   1      39.102  29.332  28.387  1.00  0.00     0.031 C 
ATOM     47  C   UNL A   1      38.095  33.097  34.071  1.00  0.00     0.029 A 
ATOM     48  C   UNL A   1      39.202  32.149  34.132  1.00  0.00     0.049 A 
ATOM     49  H   UNL A   1      39.851  30.861  32.627  1.00  0.00     0.167 HD
ATOM     50  C   UNL A   1      41.105  28.221  29.344  1.00  0.00     0.034 A 
ATOM     51  C   UNL A   1      39.999  31.947  35.199  1.00  0.00     0.034 A 
ATOM     52  C   UNL A   1      42.053  27.990  30.408  1.00  0.00     0.049 A 
ATOM     53  C   UNL A   1      41.101  30.923  35.102  1.00  0.00     0.074 A 
ATOM     54  C   UNL A   1      43.163  27.163  30.414  1.00  0.00     0.029 A 
ATOM     55  N   UNL A   1      41.994  28.578  31.668  1.00  0.00    -0.354 N 
ATOM     56  N   UNL A   1      41.439  30.164  34.086  1.00  0.00    -0.248 NA
ATOM     57  C   UNL A   1      41.931  30.736  36.298  1.00  0.00     0.031 C 
ATOM     58  C   UNL A   1      43.724  27.188  31.696  1.00  0.00     0.029 A 
ATOM     59  C   UNL A   1      43.021  28.099  32.469  1.00  0.00     0.049 A 
ATOM     60  H   UNL A   1      41.319  29.237  31.950  1.00  0.00     0.167 HD
ATOM     61  C   UNL A   1      42.546  29.433  34.509  1.00  0.00     0.074 A 
ATOM     62  C   UNL A   1      42.821  29.852  35.870  1.00  0.00     0.031 C 
ATOM     63  C   UNL A   1      43.274  28.509  33.832  1.00  0.00     0.034 A 
BRANCH  50  64
ATOM     64  C   UNL A   1      41.228  27.437  28.055  1.00  0.00     0.023 A 
ATOM     65  C   UNL A   1      40.823  26.092  27.971  1.00  0.00     0.031 A 
ATOM     66  C   UNL A   1      41.825  28.010  26.919  1.00  0.00     0.131 A 
ATOM     67  C   UNL A   1      41.127  25.335  26.829  1.00  0.00     0.055 A 
ATOM     68  C   UNL A   1      42.028  27.280  25.745  1.00  0.00     0.041 A 
ATOM     69  F   UNL A   1      42.252  29.282  26.937  1.00  0.00    -0.206 F 
ATOM     70  C   UNL A   1      41.702  25.927  25.704  1.00  0.00     0.022 A 
BRANCH  67  71
ATOM     71  S   UNL A   1      40.954  23.532  26.921  1.00  0.00     0.124 S 
ATOM     72  O   UNL A   1      39.523  23.359  26.681  1.00  0.00    -0.237 OA
ATOM     73  O   UNL A   1      41.841  23.074  25.858  1.00  0.00    -0.237 OA
ATOM     74  O   UNL A   1      41.390  23.215  28.280  1.00  0.00    -0.744 OA
ENDBRANCH  67  71
ENDBRANCH  50  64
BRANCH  51  75
ATOM     75  C   UNL A   1      39.800  32.740  36.445  1.00  0.00     0.023 A 
ATOM     76  C   UNL A   1      38.882  32.320  37.420  1.00  0.00     0.031 A 
ATOM     77  C   UNL A   1      40.510  33.932  36.674  1.00  0.00     0.131 A 
ATOM     78  C   UNL A   1      38.669  33.104  38.564  1.00  0.00     0.055 A 
ATOM     79  C   UNL A   1      40.332  34.682  37.838  1.00  0.00     0.041 A 
ATOM     80  F   UNL A   1      41.404  34.372  35.775  1.00  0.00    -0.206 F 
ATOM     81  C   UNL A   1      39.399  34.274  38.786  1.00  0.00     0.022 A 
BRANCH  78  82
ATOM     82  S   UNL A   1      37.376  32.603  39.732  1.00  0.00     0.124 S 
ATOM     83  O   UNL A   1      36.197  32.574  38.875  1.00  0.00    -0.237 OA
ATOM     84  O   UNL A   1      37.868  31.308  40.192  1.00  0.00    -0.237 OA
ATOM     85  O   UNL A   1      37.394  33.665  40.736  1.00  0.00    -0.744 OA
ENDBRANCH  78  82
ENDBRANCH  51  75
BRANCH  63  86
ATOM     86  C   UNL A   1      44.471  27.921  34.546  1.00  0.00     0.023 A 
ATOM     87  C   UNL A   1      44.344  26.866  35.466  1.00  0.00     0.031 A 
ATOM     88  C   UNL A   1      45.758  28.439  34.310  1.00  0.00     0.131 A 
ATOM     89  C   UNL A   1      45.473  26.403  36.159  1.00  0.00     0.055 A 
ATOM     90  C   UNL A   1      46.886  27.929  34.952  1.00  0.00     0.041 A 
ATOM     91  F   UNL A   1      45.939  29.451  33.446  1.00  0.00    -0.206 F 
ATOM     92  C   UNL A   1      46.746  26.914  35.893  1.00  0.00     0.022 A 
BRANCH  89  93
ATOM     93  S   UNL A   1      45.243  25.190  37.489  1.00  0.00     0.124 S 
ATOM     94  O   UNL A   1      43.790  25.132  37.600  1.00  0.00    -0.237 OA
ATOM     95  O   UNL A   1      45.890  24.001  36.943  1.00  0.00    -0.237 OA
ATOM     96  O   UNL A   1      45.929  25.797  38.630  1.00  0.00    -0.744 OA
ENDBRANCH  89  93
ENDBRANCH  63  86
ENDBRANCH  37  38
ENDBRANCH  29  32
ENDBRANCH  27  28
ENDBRANCH  26  27
ENDBRANCH   1  26
TORSDOF 18
ENDMDL
MODEL 3
REMARK VINA RESULT:     -11.9      1.629      7.689
REMARK SMILES CSc1ccc([C@H]2[NH2+][C@@H](C(=O)NCCCCCCNC(=O)c3ccc(-c4c5nc(c(-c6cc(S(=O)(=O)[O-])ccc6F)c6ccc([nH]6)c(-c6cc(S(=O)(=O)[O-])ccc6F)c6nc(c(-c7cc(S(=O)(=O)[O-])ccc7F)c7ccc4[nH]7)C=C6)C=C5)cc3)C(C)(C)S2)cc1
REMARK SMILES IDX 16 1 15 2 14 3 13 4 12 5 10 6 11 7 9 9 7 10 8 11 88 12 85 15
REMARK SMILES IDX 86 16 87 17 6 18 3 19 4 20 90 21 5 22 89 23 2 24 1 25 17 26
REMARK SMILES IDX 18 27 19 28 20 29 21 31 22 32 23 33 84 34 24 35 83 36 25 37
REMARK SMILES IDX 26 38 27 39 77 40 28 41 82 42 76 43 78 44 29 45 81 46 75 47
REMARK SMILES IDX 74 48 30 50 62 51 42 52 61 53 43 54 46 55 60 56 79 57 44 58
REMARK SMILES IDX 45 59 59 61 80 62 47 63 31 64 32 65 40 66 33 67 39 68 41 69
REMARK SMILES IDX 38 70 34 71 35 72 36 73 37 74 63 75 64 76 72 77 65 78 71 79
REMARK SMILES IDX 73 80 70 81 66 82 67 83 68 84 69 85 48 86 49 87 57 88 50 89
REMARK SMILES IDX 56 90 58 91 55 92 51 93 52 94 53 95 54 96
REMARK H PARENT 12 8 8 13 8 14 19 30 78 49 46 60
REMARK Flexibility Score: inf
ROOT
ATOM      1  C   UNL A   1      31.916  30.467  26.050  1.00  0.00     0.002 C 
ENDROOT
BRANCH   1   2
ATOM      2  C   UNL A   1      31.749  29.184  26.869  1.00  0.00     0.002 C 
BRANCH   2   3
ATOM      3  C   UNL A   1      32.115  27.901  26.126  1.00  0.00     0.021 C 
BRANCH   3   4
ATOM      4  C   UNL A   1      30.990  26.869  26.073  1.00  0.00     0.116 C 
BRANCH   4   5
ATOM      5  N   UNL A   1      31.309  25.706  26.878  1.00  0.00    -0.351 N 
ATOM      6  C   UNL A   1      31.752  24.458  26.560  1.00  0.00     0.279 C 
ATOM      7  O   UNL A   1      31.779  23.633  27.482  1.00  0.00    -0.268 OA
ATOM      8  H   UNL A   1      31.178  25.845  27.844  1.00  0.00     0.163 HD
BRANCH   6   9
ATOM      9  C   UNL A   1      32.196  24.039  25.141  1.00  0.00     0.289 C 
ATOM     10  C   UNL A   1      32.497  22.213  23.626  1.00  0.00     0.274 C 
ATOM     11  N   UNL A   1      31.795  22.652  24.831  1.00  0.00    -0.320 N 
ATOM     12  S   UNL A   1      33.942  23.265  23.322  1.00  0.00    -0.081 SA
ATOM     13  H   UNL A   1      32.040  22.043  25.611  1.00  0.00     0.348 HD
ATOM     14  H   UNL A   1      30.787  22.610  24.677  1.00  0.00     0.348 HD
ATOM     15  C   UNL A   1      33.659  24.358  24.762  1.00  0.00     0.077 C 
ATOM     16  C   UNL A   1      34.767  24.053  25.766  1.00  0.00     0.030 C 
ATOM     17  C   UNL A   1      33.792  25.830  24.343  1.00  0.00     0.030 C 
BRANCH  10  18
ATOM     18  C   UNL A   1      32.822  20.731  23.701  1.00  0.00     0.020 A 
ATOM     19  C   UNL A   1      33.255  17.931  23.936  1.00  0.00     0.007 A 
ATOM     20  C   UNL A   1      32.363  18.439  22.989  1.00  0.00     0.015 A 
ATOM     21  C   UNL A   1      33.952  18.834  24.744  1.00  0.00     0.015 A 
ATOM     22  C   UNL A   1      32.142  19.819  22.879  1.00  0.00     0.012 A 
ATOM     23  C   UNL A   1      33.747  20.212  24.623  1.00  0.00     0.012 A 
BRANCH  19  24
ATOM     24  S   UNL A   1      33.616  16.196  24.147  1.00  0.00    -0.130 SA
ATOM     25  C   UNL A   1      32.732  15.783  25.673  1.00  0.00     0.091 C 
ENDBRANCH  19  24
ENDBRANCH  10  18
ENDBRANCH   6   9
ENDBRANCH   4   5
ENDBRANCH   3   4
ENDBRANCH   2   3
ENDBRANCH   1   2
BRANCH   1  26
ATOM     26  C   UNL A   1      31.662  31.768  26.818  1.00  0.00     0.021 C 
BRANCH  26  27
ATOM     27  C   UNL A   1      32.921  32.482  27.300  1.00  0.00     0.116 C 
BRANCH  27  28
ATOM     28  N   UNL A   1      32.665  33.877  27.611  1.00  0.00    -0.352 N 
ATOM     29  C   UNL A   1      33.167  34.644  28.633  1.00  0.00     0.251 C 
ATOM     30  H   UNL A   1      32.043  34.340  27.003  1.00  0.00     0.163 HD
ATOM     31  O   UNL A   1      32.660  35.731  28.889  1.00  0.00    -0.269 OA
BRANCH  29  32
ATOM     32  C   UNL A   1      34.306  34.138  29.427  1.00  0.00     0.039 A 
ATOM     33  C   UNL A   1      34.060  33.270  30.492  1.00  0.00     0.014 A 
ATOM     34  C   UNL A   1      35.614  34.520  29.116  1.00  0.00     0.014 A 
ATOM     35  C   UNL A   1      35.133  32.740  31.212  1.00  0.00     0.010 A 
ATOM     36  C   UNL A   1      36.684  33.930  29.781  1.00  0.00     0.010 A 
ATOM     37  C   UNL A   1      36.455  33.041  30.842  1.00  0.00    -0.014 A 
BRANCH  37  38
ATOM     38  C   UNL A   1      37.609  32.444  31.561  1.00  0.00     0.031 A 
ATOM     39  C   UNL A   1      38.362  31.292  30.956  1.00  0.00     0.074 A 
ATOM     40  C   UNL A   1      37.944  32.905  32.782  1.00  0.00     0.049 A 
ATOM     41  N   UNL A   1      39.362  30.605  31.446  1.00  0.00    -0.248 NA
ATOM     42  C   UNL A   1      37.905  30.835  29.637  1.00  0.00     0.031 C 
ATOM     43  C   UNL A   1      37.270  33.997  33.487  1.00  0.00     0.029 A 
ATOM     44  N   UNL A   1      38.936  32.514  33.646  1.00  0.00    -0.354 N 
ATOM     45  C   UNL A   1      39.650  29.628  30.498  1.00  0.00     0.074 A 
ATOM     46  C   UNL A   1      38.662  29.766  29.449  1.00  0.00     0.031 C 
ATOM     47  C   UNL A   1      37.896  34.217  34.654  1.00  0.00     0.029 A 
ATOM     48  C   UNL A   1      38.981  33.252  34.805  1.00  0.00     0.049 A 
ATOM     49  H   UNL A   1      39.558  31.774  33.453  1.00  0.00     0.167 HD
ATOM     50  C   UNL A   1      40.661  28.722  30.488  1.00  0.00     0.034 A 
ATOM     51  C   UNL A   1      39.800  33.158  35.870  1.00  0.00     0.034 A 
ATOM     52  C   UNL A   1      41.630  28.596  31.550  1.00  0.00     0.049 A 
ATOM     53  C   UNL A   1      40.873  32.100  35.874  1.00  0.00     0.074 A 
ATOM     54  C   UNL A   1      42.718  27.744  31.631  1.00  0.00     0.029 A 
ATOM     55  N   UNL A   1      41.618  29.333  32.730  1.00  0.00    -0.354 N 
ATOM     56  N   UNL A   1      41.165  31.214  34.949  1.00  0.00    -0.248 NA
ATOM     57  C   UNL A   1      41.729  32.036  37.064  1.00  0.00     0.031 C 
ATOM     58  C   UNL A   1      43.312  27.909  32.888  1.00  0.00     0.029 A 
ATOM     59  C   UNL A   1      42.653  28.926  33.560  1.00  0.00     0.049 A 
ATOM     60  H   UNL A   1      40.967  30.040  32.946  1.00  0.00     0.167 HD
ATOM     61  C   UNL A   1      42.264  30.509  35.434  1.00  0.00     0.074 A 
ATOM     62  C   UNL A   1      42.585  31.082  36.727  1.00  0.00     0.031 C 
ATOM     63  C   UNL A   1      42.952  29.490  34.858  1.00  0.00     0.034 A 
BRANCH  50  64
ATOM     64  C   UNL A   1      40.730  27.785  29.301  1.00  0.00     0.023 A 
ATOM     65  C   UNL A   1      41.658  27.983  28.261  1.00  0.00     0.031 A 
ATOM     66  C   UNL A   1      39.814  26.728  29.164  1.00  0.00     0.131 A 
ATOM     67  C   UNL A   1      41.571  27.221  27.086  1.00  0.00     0.055 A 
ATOM     68  C   UNL A   1      39.802  25.903  28.037  1.00  0.00     0.041 A 
ATOM     69  F   UNL A   1      38.890  26.496  30.110  1.00  0.00    -0.206 F 
ATOM     70  C   UNL A   1      40.667  26.163  26.978  1.00  0.00     0.022 A 
BRANCH  67  71
ATOM     71  S   UNL A   1      42.507  27.772  25.633  1.00  0.00     0.124 S 
ATOM     72  O   UNL A   1      43.862  27.866  26.173  1.00  0.00    -0.237 OA
ATOM     73  O   UNL A   1      42.272  26.695  24.679  1.00  0.00    -0.237 OA
ATOM     74  O   UNL A   1      41.892  29.054  25.295  1.00  0.00    -0.744 OA
ENDBRANCH  67  71
ENDBRANCH  50  64
BRANCH  51  75
ATOM     75  C   UNL A   1      39.653  34.101  37.015  1.00  0.00     0.023 A 
ATOM     76  C   UNL A   1      39.116  33.664  38.236  1.00  0.00     0.031 A 
ATOM     77  C   UNL A   1      40.031  35.451  36.903  1.00  0.00     0.131 A 
ATOM     78  C   UNL A   1      38.938  34.576  39.287  1.00  0.00     0.055 A 
ATOM     79  C   UNL A   1      39.898  36.343  37.969  1.00  0.00     0.041 A 
ATOM     80  F   UNL A   1      40.556  35.916  35.759  1.00  0.00    -0.206 F 
ATOM     81  C   UNL A   1      39.339  35.909  39.167  1.00  0.00     0.022 A 
BRANCH  78  82
ATOM     82  S   UNL A   1      38.114  34.007  40.799  1.00  0.00     0.124 S 
ATOM     83  O   UNL A   1      37.279  32.924  40.293  1.00  0.00    -0.237 OA
ATOM     84  O   UNL A   1      39.246  33.611  41.631  1.00  0.00    -0.237 OA
ATOM     85  O   UNL A   1      37.391  35.191  41.259  1.00  0.00    -0.744 OA
ENDBRANCH  78  82
ENDBRANCH  51  75
BRANCH  63  86
ATOM     86  C   UNL A   1      44.151  28.960  35.609  1.00  0.00     0.023 A 
ATOM     87  C   UNL A   1      44.045  27.897  36.525  1.00  0.00     0.031 A 
ATOM     88  C   UNL A   1      45.419  29.540  35.416  1.00  0.00     0.131 A 
ATOM     89  C   UNL A   1      45.172  27.488  37.254  1.00  0.00     0.055 A 
ATOM     90  C   UNL A   1      46.548  29.084  36.095  1.00  0.00     0.041 A 
ATOM     91  F   UNL A   1      45.578  30.561  34.559  1.00  0.00    -0.206 F 
ATOM     92  C   UNL A   1      46.427  28.061  37.031  1.00  0.00     0.022 A 
BRANCH  89  93
ATOM     93  S   UNL A   1      44.958  26.264  38.576  1.00  0.00     0.124 S 
ATOM     94  O   UNL A   1      43.551  26.431  38.920  1.00  0.00    -0.237 OA
ATOM     95  O   UNL A   1      45.307  25.016  37.904  1.00  0.00    -0.237 OA
ATOM     96  O   UNL A   1      45.904  26.697  39.603  1.00  0.00    -0.744 OA
ENDBRANCH  89  93
ENDBRANCH  63  86
ENDBRANCH  37  38
ENDBRANCH  29  32
ENDBRANCH  27  28
ENDBRANCH  26  27
ENDBRANCH   1  26
TORSDOF 18
ENDMDL
