MODEL 1
REMARK VINA RESULT:     -12.1      0.000      0.000
REMARK SMILES O=C(NCCCCCCNC(=O)c1ccccc1NC(=O)c1ccncc1)c1ccc(-c2c3nc(c(-c4cc(S(=O)(=O)[O-])ccc4F)c4ccc([nH]4)c(-c4cc(S(=O)(=O)[O-])ccc4F)c4nc(c(-c5cc(S(=O)(=O)[O-])ccc5F)c5ccc2[nH]5)C=C4)C=C3)cc1
REMARK SMILES IDX 6 1 5 2 4 3 3 4 1 5 2 6 28 8 29 9 90 10 30 11 89 12 31 13
REMARK SMILES IDX 32 14 33 15 83 16 34 17 88 18 82 19 84 20 35 21 87 22 81 23
REMARK SMILES IDX 80 24 36 26 68 27 48 28 67 29 49 30 52 31 66 32 85 33 50 34
REMARK SMILES IDX 51 35 65 37 86 38 53 39 37 40 38 41 46 42 39 43 45 44 47 45
REMARK SMILES IDX 44 46 40 47 41 48 42 49 43 50 69 51 70 52 78 53 71 54 77 55
REMARK SMILES IDX 79 56 76 57 72 58 73 59 74 60 75 61 54 62 55 63 63 64 56 65
REMARK SMILES IDX 62 66 64 67 61 68 57 69 58 70 59 71 60 72 7 73 8 74 9 75
REMARK SMILES IDX 10 76 11 77 12 79 13 80 14 81 18 82 15 83 17 84 16 85 19 86
REMARK SMILES IDX 20 87 21 89 22 90 23 91 27 92 24 93 26 94 25 95
REMARK H PARENT 3 7 84 25 52 36 10 78 19 88
REMARK Flexibility Score: inf
ROOT
ATOM      1  C   UNL A   1      31.443  30.481  26.108  1.00  0.00     0.002 C 
ENDROOT
BRANCH   1   2
ATOM      2  C   UNL A   1      31.435  31.956  26.509  1.00  0.00     0.021 C 
BRANCH   2   3
ATOM      3  C   UNL A   1      32.725  32.463  27.139  1.00  0.00     0.116 C 
BRANCH   3   4
ATOM      4  N   UNL A   1      32.636  33.846  27.574  1.00  0.00    -0.352 N 
ATOM      5  O   UNL A   1      33.100  35.636  28.871  1.00  0.00    -0.269 OA
ATOM      6  C   UNL A   1      33.394  34.495  28.520  1.00  0.00     0.251 C 
ATOM      7  H   UNL A   1      31.942  34.390  27.136  1.00  0.00     0.163 HD
BRANCH   6   8
ATOM      8  C   UNL A   1      34.553  33.804  29.126  1.00  0.00     0.039 A 
ATOM      9  C   UNL A   1      34.362  32.768  30.044  1.00  0.00     0.014 A 
ATOM     10  C   UNL A   1      35.847  34.198  28.772  1.00  0.00     0.014 A 
ATOM     11  C   UNL A   1      35.455  32.209  30.694  1.00  0.00     0.010 A 
ATOM     12  C   UNL A   1      36.950  33.576  29.367  1.00  0.00     0.010 A 
ATOM     13  C   UNL A   1      36.762  32.587  30.346  1.00  0.00    -0.014 A 
BRANCH  13  14
ATOM     14  C   UNL A   1      37.911  31.861  30.947  1.00  0.00     0.031 A 
ATOM     15  C   UNL A   1      38.394  32.173  32.337  1.00  0.00     0.074 A 
ATOM     16  C   UNL A   1      38.505  30.896  30.217  1.00  0.00     0.049 A 
ATOM     17  N   UNL A   1      39.381  31.631  33.003  1.00  0.00    -0.248 NA
ATOM     18  C   UNL A   1      37.683  33.230  33.071  1.00  0.00     0.031 C 
ATOM     19  C   UNL A   1      38.120  30.519  28.854  1.00  0.00     0.029 A 
ATOM     20  N   UNL A   1      39.542  30.048  30.511  1.00  0.00    -0.354 N 
ATOM     21  C   UNL A   1      39.426  32.289  34.227  1.00  0.00     0.074 A 
ATOM     22  C   UNL A   1      38.375  33.286  34.203  1.00  0.00     0.031 C 
ATOM     23  C   UNL A   1      38.882  29.493  28.447  1.00  0.00     0.029 A 
ATOM     24  C   UNL A   1      39.858  29.188  29.485  1.00  0.00     0.049 A 
ATOM     25  H   UNL A   1      40.015  30.054  31.375  1.00  0.00     0.167 HD
ATOM     26  C   UNL A   1      40.266  32.075  35.270  1.00  0.00     0.034 A 
ATOM     27  C   UNL A   1      40.842  28.276  29.376  1.00  0.00     0.034 A 
ATOM     28  C   UNL A   1      41.303  31.070  35.276  1.00  0.00     0.049 A 
ATOM     29  C   UNL A   1      41.780  28.089  30.537  1.00  0.00     0.074 A 
ATOM     30  C   UNL A   1      42.175  30.737  36.299  1.00  0.00     0.029 A 
ATOM     31  N   UNL A   1      41.620  30.242  34.205  1.00  0.00    -0.354 N 
ATOM     32  N   UNL A   1      41.783  28.697  31.701  1.00  0.00    -0.248 NA
ATOM     33  C   UNL A   1      42.845  27.093  30.374  1.00  0.00     0.031 C 
ATOM     34  C   UNL A   1      43.062  29.764  35.825  1.00  0.00     0.029 A 
ATOM     35  C   UNL A   1      42.696  29.430  34.532  1.00  0.00     0.049 A 
ATOM     36  H   UNL A   1      41.149  30.233  33.341  1.00  0.00     0.167 HD
ATOM     37  C   UNL A   1      42.839  28.141  32.415  1.00  0.00     0.074 A 
ATOM     38  C   UNL A   1      43.430  27.130  31.561  1.00  0.00     0.031 C 
ATOM     39  C   UNL A   1      43.285  28.439  33.662  1.00  0.00     0.034 A 
BRANCH  26  40
ATOM     40  C   UNL A   1      40.135  32.970  36.479  1.00  0.00     0.023 A 
ATOM     41  C   UNL A   1      39.355  32.613  37.592  1.00  0.00     0.031 A 
ATOM     42  C   UNL A   1      40.833  34.192  36.528  1.00  0.00     0.131 A 
ATOM     43  C   UNL A   1      39.258  33.486  38.687  1.00  0.00     0.055 A 
ATOM     44  C   UNL A   1      40.782  35.026  37.646  1.00  0.00     0.041 A 
ATOM     45  F   UNL A   1      41.580  34.593  35.488  1.00  0.00    -0.206 F 
ATOM     46  C   UNL A   1      39.985  34.678  38.732  1.00  0.00     0.022 A 
BRANCH  43  47
ATOM     47  S   UNL A   1      38.094  33.085  40.020  1.00  0.00     0.124 S 
ATOM     48  O   UNL A   1      36.887  32.751  39.268  1.00  0.00    -0.237 OA
ATOM     49  O   UNL A   1      38.755  31.973  40.692  1.00  0.00    -0.237 OA
ATOM     50  O   UNL A   1      38.017  34.323  40.793  1.00  0.00    -0.744 OA
ENDBRANCH  43  47
ENDBRANCH  26  40
BRANCH  27  51
ATOM     51  C   UNL A   1      41.022  27.506  28.112  1.00  0.00     0.023 A 
ATOM     52  C   UNL A   1      40.695  26.144  28.038  1.00  0.00     0.031 A 
ATOM     53  C   UNL A   1      41.574  28.114  26.969  1.00  0.00     0.131 A 
ATOM     54  C   UNL A   1      40.971  25.422  26.868  1.00  0.00     0.055 A 
ATOM     55  C   UNL A   1      41.787  27.407  25.786  1.00  0.00     0.041 A 
ATOM     56  F   UNL A   1      41.904  29.416  26.984  1.00  0.00    -0.206 F 
ATOM     57  C   UNL A   1      41.501  26.047  25.736  1.00  0.00     0.022 A 
BRANCH  54  58
ATOM     58  S   UNL A   1      40.730  23.624  26.882  1.00  0.00     0.124 S 
ATOM     59  O   UNL A   1      40.981  23.301  28.281  1.00  0.00    -0.237 OA
ATOM     60  O   UNL A   1      39.347  23.503  26.433  1.00  0.00    -0.237 OA
ATOM     61  O   UNL A   1      41.735  23.140  25.938  1.00  0.00    -0.744 OA
ENDBRANCH  54  58
ENDBRANCH  27  51
BRANCH  39  62
ATOM     62  C   UNL A   1      44.448  27.629  34.174  1.00  0.00     0.023 A 
ATOM     63  C   UNL A   1      44.256  26.427  34.878  1.00  0.00     0.031 A 
ATOM     64  C   UNL A   1      45.766  28.084  33.986  1.00  0.00     0.131 A 
ATOM     65  C   UNL A   1      45.359  25.754  35.424  1.00  0.00     0.055 A 
ATOM     66  C   UNL A   1      46.862  27.376  34.478  1.00  0.00     0.041 A 
ATOM     67  F   UNL A   1      46.006  29.227  33.325  1.00  0.00    -0.206 F 
ATOM     68  C   UNL A   1      46.662  26.212  35.214  1.00  0.00     0.022 A 
BRANCH  65  69
ATOM     69  S   UNL A   1      45.059  24.324  36.498  1.00  0.00     0.124 S 
ATOM     70  O   UNL A   1      44.220  24.901  37.544  1.00  0.00    -0.237 OA
ATOM     71  O   UNL A   1      44.399  23.387  35.595  1.00  0.00    -0.237 OA
ATOM     72  O   UNL A   1      46.400  23.930  36.927  1.00  0.00    -0.744 OA
ENDBRANCH  65  69
ENDBRANCH  39  62
ENDBRANCH  13  14
ENDBRANCH   6   8
ENDBRANCH   3   4
ENDBRANCH   2   3
ENDBRANCH   1   2
BRANCH   1  73
ATOM     73  C   UNL A   1      32.234  29.546  27.028  1.00  0.00     0.002 C 
BRANCH  73  74
ATOM     74  C   UNL A   1      31.481  28.316  27.554  1.00  0.00     0.021 C 
BRANCH  74  75
ATOM     75  C   UNL A   1      31.907  26.978  26.955  1.00  0.00     0.116 C 
BRANCH  75  76
ATOM     76  N   UNL A   1      30.788  26.275  26.350  1.00  0.00    -0.352 N 
ATOM     77  C   UNL A   1      30.214  26.434  25.118  1.00  0.00     0.253 C 
ATOM     78  H   UNL A   1      30.381  25.578  26.913  1.00  0.00     0.163 HD
ATOM     79  O   UNL A   1      29.155  25.866  24.863  1.00  0.00    -0.269 OA
BRANCH  77  80
ATOM     80  C   UNL A   1      30.847  27.273  24.077  1.00  0.00     0.063 A 
ATOM     81  C   UNL A   1      32.252  27.245  24.045  1.00  0.00     0.016 A 
ATOM     82  C   UNL A   1      30.122  28.140  23.234  1.00  0.00     0.054 A 
ATOM     83  C   UNL A   1      32.950  28.083  23.181  1.00  0.00     0.001 A 
ATOM     84  C   UNL A   1      30.852  29.030  22.438  1.00  0.00     0.027 A 
ATOM     85  C   UNL A   1      32.249  28.987  22.393  1.00  0.00     0.002 A 
BRANCH  82  86
ATOM     86  N   UNL A   1      28.709  28.108  23.251  1.00  0.00    -0.321 N 
ATOM     87  C   UNL A   1      27.733  29.065  23.090  1.00  0.00     0.255 C 
ATOM     88  H   UNL A   1      28.344  27.208  23.412  1.00  0.00     0.170 HD
ATOM     89  O   UNL A   1      26.556  28.752  23.258  1.00  0.00    -0.269 OA
BRANCH  87  90
ATOM     90  C   UNL A   1      28.039  30.451  22.698  1.00  0.00     0.043 A 
ATOM     91  C   UNL A   1      28.387  31.423  23.636  1.00  0.00     0.034 A 
ATOM     92  C   UNL A   1      27.971  30.772  21.345  1.00  0.00     0.034 A 
ATOM     93  C   UNL A   1      28.542  32.719  23.180  1.00  0.00     0.112 A 
ATOM     94  C   UNL A   1      28.158  32.094  20.992  1.00  0.00     0.112 A 
ATOM     95  N   UNL A   1      28.402  33.078  21.885  1.00  0.00    -0.265 NA
ENDBRANCH  87  90
ENDBRANCH  82  86
ENDBRANCH  77  80
ENDBRANCH  75  76
ENDBRANCH  74  75
ENDBRANCH  73  74
ENDBRANCH   1  73
TORSDOF 18
ENDMDL
MODEL 2
REMARK VINA RESULT:     -12.0      0.568      7.499
REMARK SMILES O=C(NCCCCCCNC(=O)c1ccccc1NC(=O)c1ccncc1)c1ccc(-c2c3nc(c(-c4cc(S(=O)(=O)[O-])ccc4F)c4ccc([nH]4)c(-c4cc(S(=O)(=O)[O-])ccc4F)c4nc(c(-c5cc(S(=O)(=O)[O-])ccc5F)c5ccc2[nH]5)C=C4)C=C3)cc1
REMARK SMILES IDX 6 1 5 2 4 3 3 4 1 5 2 6 28 8 29 9 90 10 30 11 89 12 31 13
REMARK SMILES IDX 32 14 33 15 83 16 34 17 88 18 82 19 84 20 35 21 87 22 81 23
REMARK SMILES IDX 80 24 36 26 68 27 48 28 67 29 49 30 52 31 66 32 85 33 50 34
REMARK SMILES IDX 51 35 65 37 86 38 53 39 37 40 38 41 46 42 39 43 45 44 47 45
REMARK SMILES IDX 44 46 40 47 41 48 42 49 43 50 69 51 70 52 78 53 71 54 77 55
REMARK SMILES IDX 79 56 76 57 72 58 73 59 74 60 75 61 54 62 55 63 63 64 56 65
REMARK SMILES IDX 62 66 64 67 61 68 57 69 58 70 59 71 60 72 7 73 8 74 9 75
REMARK SMILES IDX 10 76 11 77 12 79 13 80 14 81 18 82 15 83 17 84 16 85 19 86
REMARK SMILES IDX 20 87 21 89 22 90 23 91 27 92 24 93 26 94 25 95
REMARK H PARENT 3 7 84 25 52 36 10 78 19 88
REMARK Flexibility Score: inf
ROOT
ATOM      1  C   UNL A   1      31.456  30.551  26.015  1.00  0.00     0.002 C 
ENDROOT
BRANCH   1   2
ATOM      2  C   UNL A   1      31.419  32.008  26.474  1.00  0.00     0.021 C 
BRANCH   2   3
ATOM      3  C   UNL A   1      32.695  32.513  27.132  1.00  0.00     0.116 C 
BRANCH   3   4
ATOM      4  N   UNL A   1      32.603  33.899  27.557  1.00  0.00    -0.352 N 
ATOM      5  O   UNL A   1      33.049  35.697  28.848  1.00  0.00    -0.269 OA
ATOM      6  C   UNL A   1      33.346  34.553  28.511  1.00  0.00     0.251 C 
ATOM      7  H   UNL A   1      31.918  34.442  27.102  1.00  0.00     0.163 HD
BRANCH   6   8
ATOM      8  C   UNL A   1      34.492  33.863  29.141  1.00  0.00     0.039 A 
ATOM      9  C   UNL A   1      35.803  34.216  28.810  1.00  0.00     0.014 A 
ATOM     10  C   UNL A   1      34.253  32.849  30.075  1.00  0.00     0.014 A 
ATOM     11  C   UNL A   1      36.868  33.481  29.319  1.00  0.00     0.010 A 
ATOM     12  C   UNL A   1      35.330  32.165  30.648  1.00  0.00     0.010 A 
ATOM     13  C   UNL A   1      36.646  32.465  30.262  1.00  0.00    -0.014 A 
BRANCH  13  14
ATOM     14  C   UNL A   1      37.813  31.804  30.902  1.00  0.00     0.031 A 
ATOM     15  C   UNL A   1      38.642  30.791  30.162  1.00  0.00     0.074 A 
ATOM     16  C   UNL A   1      38.124  32.149  32.168  1.00  0.00     0.049 A 
ATOM     17  N   UNL A   1      39.689  30.125  30.580  1.00  0.00    -0.248 NA
ATOM     18  C   UNL A   1      38.245  30.480  28.781  1.00  0.00     0.031 C 
ATOM     19  C   UNL A   1      37.380  33.116  32.980  1.00  0.00     0.029 A 
ATOM     20  N   UNL A   1      39.144  31.746  32.991  1.00  0.00    -0.354 N 
ATOM     21  C   UNL A   1      40.068  29.303  29.523  1.00  0.00     0.074 A 
ATOM     22  C   UNL A   1      39.123  29.541  28.451  1.00  0.00     0.031 C 
ATOM     23  C   UNL A   1      37.989  33.260  34.166  1.00  0.00     0.029 A 
ATOM     24  C   UNL A   1      39.120  32.342  34.230  1.00  0.00     0.049 A 
ATOM     25  H   UNL A   1      39.828  31.092  32.720  1.00  0.00     0.167 HD
ATOM     26  C   UNL A   1      41.108  28.436  29.460  1.00  0.00     0.034 A 
ATOM     27  C   UNL A   1      39.899  32.153  35.311  1.00  0.00     0.034 A 
ATOM     28  C   UNL A   1      42.043  28.219  30.540  1.00  0.00     0.049 A 
ATOM     29  C   UNL A   1      41.023  31.156  35.221  1.00  0.00     0.074 A 
ATOM     30  C   UNL A   1      43.160  27.402  30.561  1.00  0.00     0.029 A 
ATOM     31  N   UNL A   1      41.966  28.812  31.795  1.00  0.00    -0.354 N 
ATOM     32  N   UNL A   1      41.386  30.414  34.200  1.00  0.00    -0.248 NA
ATOM     33  C   UNL A   1      41.842  30.971  36.423  1.00  0.00     0.031 C 
ATOM     34  C   UNL A   1      43.714  27.443  31.846  1.00  0.00     0.029 A 
ATOM     35  C   UNL A   1      42.992  28.348  32.606  1.00  0.00     0.049 A 
ATOM     36  H   UNL A   1      41.283  29.467  32.068  1.00  0.00     0.167 HD
ATOM     37  C   UNL A   1      42.490  29.688  34.635  1.00  0.00     0.074 A 
ATOM     38  C   UNL A   1      42.748  30.104  35.999  1.00  0.00     0.031 C 
ATOM     39  C   UNL A   1      43.224  28.760  33.970  1.00  0.00     0.034 A 
BRANCH  26  40
ATOM     40  C   UNL A   1      41.272  27.618  28.202  1.00  0.00     0.023 A 
ATOM     41  C   UNL A   1      40.932  26.256  28.148  1.00  0.00     0.031 A 
ATOM     42  C   UNL A   1      41.750  28.225  27.025  1.00  0.00     0.131 A 
ATOM     43  C   UNL A   1      41.112  25.536  26.956  1.00  0.00     0.055 A 
ATOM     44  C   UNL A   1      41.868  27.520  25.826  1.00  0.00     0.041 A 
ATOM     45  F   UNL A   1      42.107  29.519  27.022  1.00  0.00    -0.206 F 
ATOM     46  C   UNL A   1      41.555  26.164  25.789  1.00  0.00     0.022 A 
BRANCH  43  47
ATOM     47  S   UNL A   1      40.847  23.742  26.972  1.00  0.00     0.124 S 
ATOM     48  O   UNL A   1      41.731  23.302  25.896  1.00  0.00    -0.237 OA
ATOM     49  O   UNL A   1      41.254  23.374  28.323  1.00  0.00    -0.237 OA
ATOM     50  O   UNL A   1      39.418  23.603  26.693  1.00  0.00    -0.744 OA
ENDBRANCH  43  47
ENDBRANCH  26  40
BRANCH  27  51
ATOM     51  C   UNL A   1      39.621  32.881  36.581  1.00  0.00     0.023 A 
ATOM     52  C   UNL A   1      38.717  32.373  37.527  1.00  0.00     0.031 A 
ATOM     53  C   UNL A   1      40.220  34.126  36.847  1.00  0.00     0.131 A 
ATOM     54  C   UNL A   1      38.398  33.129  38.665  1.00  0.00     0.055 A 
ATOM     55  C   UNL A   1      39.948  34.846  38.011  1.00  0.00     0.041 A 
ATOM     56  F   UNL A   1      41.094  34.659  35.977  1.00  0.00    -0.206 F 
ATOM     57  C   UNL A   1      39.018  34.355  38.921  1.00  0.00     0.022 A 
BRANCH  54  58
ATOM     58  S   UNL A   1      37.074  32.537  39.754  1.00  0.00     0.124 S 
ATOM     59  O   UNL A   1      37.122  33.512  40.837  1.00  0.00    -0.237 OA
ATOM     60  O   UNL A   1      35.910  32.608  38.878  1.00  0.00    -0.237 OA
ATOM     61  O   UNL A   1      37.505  31.187  40.109  1.00  0.00    -0.744 OA
ENDBRANCH  54  58
ENDBRANCH  27  51
BRANCH  39  62
ATOM     62  C   UNL A   1      44.393  28.165  34.714  1.00  0.00     0.023 A 
ATOM     63  C   UNL A   1      44.252  27.016  35.510  1.00  0.00     0.031 A 
ATOM     64  C   UNL A   1      45.658  28.777  34.651  1.00  0.00     0.131 A 
ATOM     65  C   UNL A   1      45.339  26.551  36.264  1.00  0.00     0.055 A 
ATOM     66  C   UNL A   1      46.752  28.272  35.354  1.00  0.00     0.041 A 
ATOM     67  F   UNL A   1      45.848  29.879  33.908  1.00  0.00    -0.206 F 
ATOM     68  C   UNL A   1      46.593  27.162  36.177  1.00  0.00     0.022 A 
BRANCH  65  69
ATOM     69  S   UNL A   1      45.067  25.194  37.437  1.00  0.00     0.124 S 
ATOM     70  O   UNL A   1      45.517  25.785  38.694  1.00  0.00    -0.237 OA
ATOM     71  O   UNL A   1      43.632  24.962  37.318  1.00  0.00    -0.237 OA
ATOM     72  O   UNL A   1      45.913  24.119  36.920  1.00  0.00    -0.744 OA
ENDBRANCH  65  69
ENDBRANCH  39  62
ENDBRANCH  13  14
ENDBRANCH   6   8
ENDBRANCH   3   4
ENDBRANCH   2   3
ENDBRANCH   1   2
BRANCH   1  73
ATOM     73  C   UNL A   1      32.229  29.587  26.920  1.00  0.00     0.002 C 
BRANCH  73  74
ATOM     74  C   UNL A   1      31.454  28.364  27.429  1.00  0.00     0.021 C 
BRANCH  74  75
ATOM     75  C   UNL A   1      31.938  27.014  26.906  1.00  0.00     0.116 C 
BRANCH  75  76
ATOM     76  N   UNL A   1      30.863  26.253  26.293  1.00  0.00    -0.352 N 
ATOM     77  C   UNL A   1      30.269  26.403  25.069  1.00  0.00     0.253 C 
ATOM     78  H   UNL A   1      30.506  25.518  26.841  1.00  0.00     0.163 HD
ATOM     79  O   UNL A   1      29.247  25.773  24.808  1.00  0.00    -0.269 OA
BRANCH  77  80
ATOM     80  C   UNL A   1      30.837  27.306  24.044  1.00  0.00     0.063 A 
ATOM     81  C   UNL A   1      32.239  27.333  23.968  1.00  0.00     0.016 A 
ATOM     82  C   UNL A   1      30.053  28.176  23.259  1.00  0.00     0.054 A 
ATOM     83  C   UNL A   1      32.878  28.231  23.118  1.00  0.00     0.001 A 
ATOM     84  C   UNL A   1      30.724  29.124  22.477  1.00  0.00     0.027 A 
ATOM     85  C   UNL A   1      32.119  29.138  22.389  1.00  0.00     0.002 A 
BRANCH  82  86
ATOM     86  N   UNL A   1      28.643  28.089  23.317  1.00  0.00    -0.321 N 
ATOM     87  C   UNL A   1      27.626  28.998  23.138  1.00  0.00     0.255 C 
ATOM     88  H   UNL A   1      28.320  27.184  23.531  1.00  0.00     0.170 HD
ATOM     89  O   UNL A   1      26.467  28.646  23.354  1.00  0.00    -0.269 OA
BRANCH  87  90
ATOM     90  C   UNL A   1      27.864  30.373  22.671  1.00  0.00     0.043 A 
ATOM     91  C   UNL A   1      27.904  30.694  21.314  1.00  0.00     0.034 A 
ATOM     92  C   UNL A   1      28.052  31.362  23.634  1.00  0.00     0.034 A 
ATOM     93  C   UNL A   1      28.249  31.990  20.978  1.00  0.00     0.112 A 
ATOM     94  C   UNL A   1      28.377  32.629  23.192  1.00  0.00     0.112 A 
ATOM     95  N   UNL A   1      28.518  32.953  21.888  1.00  0.00    -0.265 NA
ENDBRANCH  87  90
ENDBRANCH  82  86
ENDBRANCH  77  80
ENDBRANCH  75  76
ENDBRANCH  74  75
ENDBRANCH  73  74
ENDBRANCH   1  73
TORSDOF 18
ENDMDL
MODEL 3
REMARK VINA RESULT:     -11.7      5.273     10.382
REMARK SMILES O=C(NCCCCCCNC(=O)c1ccccc1NC(=O)c1ccncc1)c1ccc(-c2c3nc(c(-c4cc(S(=O)(=O)[O-])ccc4F)c4ccc([nH]4)c(-c4cc(S(=O)(=O)[O-])ccc4F)c4nc(c(-c5cc(S(=O)(=O)[O-])ccc5F)c5ccc2[nH]5)C=C4)C=C3)cc1
REMARK SMILES IDX 6 1 5 2 4 3 3 4 1 5 2 6 28 8 29 9 90 10 30 11 89 12 31 13
REMARK SMILES IDX 32 14 33 15 83 16 34 17 88 18 82 19 84 20 35 21 87 22 81 23
REMARK SMILES IDX 80 24 36 26 68 27 48 28 67 29 49 30 52 31 66 32 85 33 50 34
REMARK SMILES IDX 51 35 65 37 86 38 53 39 37 40 38 41 46 42 39 43 45 44 47 45
REMARK SMILES IDX 44 46 40 47 41 48 42 49 43 50 69 51 70 52 78 53 71 54 77 55
REMARK SMILES IDX 79 56 76 57 72 58 73 59 74 60 75 61 54 62 55 63 63 64 56 65
REMARK SMILES IDX 62 66 64 67 61 68 57 69 58 70 59 71 60 72 7 73 8 74 9 75
REMARK SMILES IDX 10 76 11 77 12 79 13 80 14 81 18 82 15 83 17 84 16 85 19 86
REMARK SMILES IDX 20 87 21 89 22 90 23 91 27 92 24 93 26 94 25 95
REMARK H PARENT 3 7 84 25 52 36 10 78 19 88
REMARK Flexibility Score: inf
ROOT
ATOM      1  C   UNL A   1      34.731  21.429  25.941  1.00  0.00     0.002 C 
ENDROOT
BRANCH   1   2
ATOM      2  C   UNL A   1      35.436  21.617  24.598  1.00  0.00     0.021 C 
BRANCH   2   3
ATOM      3  C   UNL A   1      36.923  21.930  24.685  1.00  0.00     0.116 C 
BRANCH   3   4
ATOM      4  N   UNL A   1      37.711  20.807  25.165  1.00  0.00    -0.352 N 
ATOM      5  O   UNL A   1      39.536  19.773  25.999  1.00  0.00    -0.269 OA
ATOM      6  C   UNL A   1      38.942  20.825  25.776  1.00  0.00     0.251 C 
ATOM      7  H   UNL A   1      37.311  19.916  25.034  1.00  0.00     0.163 HD
BRANCH   6   8
ATOM      8  C   UNL A   1      39.553  22.120  26.147  1.00  0.00     0.039 A 
ATOM      9  C   UNL A   1      40.823  22.165  26.728  1.00  0.00     0.014 A 
ATOM     10  C   UNL A   1      38.848  23.304  25.910  1.00  0.00     0.014 A 
ATOM     11  C   UNL A   1      41.335  23.376  27.180  1.00  0.00     0.010 A 
ATOM     12  C   UNL A   1      39.401  24.531  26.291  1.00  0.00     0.010 A 
ATOM     13  C   UNL A   1      40.644  24.575  26.945  1.00  0.00    -0.014 A 
BRANCH  13  14
ATOM     14  C   UNL A   1      41.288  25.865  27.301  1.00  0.00     0.031 A 
ATOM     15  C   UNL A   1      42.661  26.220  26.798  1.00  0.00     0.074 A 
ATOM     16  C   UNL A   1      40.601  26.726  28.078  1.00  0.00     0.049 A 
ATOM     17  N   UNL A   1      43.360  27.304  27.018  1.00  0.00    -0.248 NA
ATOM     18  C   UNL A   1      43.337  25.233  25.943  1.00  0.00     0.031 C 
ATOM     19  C   UNL A   1      39.265  26.476  28.627  1.00  0.00     0.029 A 
ATOM     20  N   UNL A   1      40.914  27.981  28.534  1.00  0.00    -0.354 N 
ATOM     21  C   UNL A   1      44.566  27.127  26.348  1.00  0.00     0.074 A 
ATOM     22  C   UNL A   1      44.509  25.819  25.727  1.00  0.00     0.031 C 
ATOM     23  C   UNL A   1      38.859  27.556  29.310  1.00  0.00     0.029 A 
ATOM     24  C   UNL A   1      39.930  28.545  29.313  1.00  0.00     0.049 A 
ATOM     25  H   UNL A   1      41.761  28.436  28.322  1.00  0.00     0.167 HD
ATOM     26  C   UNL A   1      45.616  27.980  26.260  1.00  0.00     0.034 A 
ATOM     27  C   UNL A   1      39.902  29.712  29.983  1.00  0.00     0.034 A 
ATOM     28  C   UNL A   1      45.648  29.284  26.881  1.00  0.00     0.049 A 
ATOM     29  C   UNL A   1      41.099  30.619  29.895  1.00  0.00     0.074 A 
ATOM     30  C   UNL A   1      46.642  30.246  26.812  1.00  0.00     0.029 A 
ATOM     31  N   UNL A   1      44.651  29.807  27.695  1.00  0.00    -0.354 N 
ATOM     32  N   UNL A   1      42.216  30.449  29.226  1.00  0.00    -0.248 NA
ATOM     33  C   UNL A   1      41.032  31.877  30.648  1.00  0.00     0.031 C 
ATOM     34  C   UNL A   1      46.280  31.315  27.639  1.00  0.00     0.029 A 
ATOM     35  C   UNL A   1      45.024  31.058  28.164  1.00  0.00     0.049 A 
ATOM     36  H   UNL A   1      43.802  29.355  27.908  1.00  0.00     0.167 HD
ATOM     37  C   UNL A   1      42.977  31.588  29.464  1.00  0.00     0.074 A 
ATOM     38  C   UNL A   1      42.178  32.449  30.314  1.00  0.00     0.031 C 
ATOM     39  C   UNL A   1      44.223  31.896  29.025  1.00  0.00     0.034 A 
BRANCH  26  40
ATOM     40  C   UNL A   1      46.839  27.521  25.504  1.00  0.00     0.023 A 
ATOM     41  C   UNL A   1      47.057  27.860  24.158  1.00  0.00     0.031 A 
ATOM     42  C   UNL A   1      47.822  26.753  26.157  1.00  0.00     0.131 A 
ATOM     43  C   UNL A   1      48.206  27.399  23.497  1.00  0.00     0.055 A 
ATOM     44  C   UNL A   1      48.993  26.350  25.512  1.00  0.00     0.041 A 
ATOM     45  F   UNL A   1      47.661  26.384  27.437  1.00  0.00    -0.206 F 
ATOM     46  C   UNL A   1      49.187  26.667  24.171  1.00  0.00     0.022 A 
BRANCH  43  47
ATOM     47  S   UNL A   1      48.362  27.692  21.713  1.00  0.00     0.124 S 
ATOM     48  O   UNL A   1      48.678  26.353  21.221  1.00  0.00    -0.237 OA
ATOM     49  O   UNL A   1      47.044  28.206  21.361  1.00  0.00    -0.237 OA
ATOM     50  O   UNL A   1      49.454  28.659  21.618  1.00  0.00    -0.744 OA
ENDBRANCH  43  47
ENDBRANCH  26  40
BRANCH  27  51
ATOM     51  C   UNL A   1      38.729  30.069  30.830  1.00  0.00     0.023 A 
ATOM     52  C   UNL A   1      37.668  30.831  30.317  1.00  0.00     0.031 A 
ATOM     53  C   UNL A   1      38.675  29.694  32.185  1.00  0.00     0.131 A 
ATOM     54  C   UNL A   1      36.627  31.238  31.165  1.00  0.00     0.055 A 
ATOM     55  C   UNL A   1      37.607  30.047  33.009  1.00  0.00     0.041 A 
ATOM     56  F   UNL A   1      39.663  28.963  32.727  1.00  0.00    -0.206 F 
ATOM     57  C   UNL A   1      36.581  30.839  32.504  1.00  0.00     0.022 A 
BRANCH  54  58
ATOM     58  S   UNL A   1      35.386  32.392  30.520  1.00  0.00     0.124 S 
ATOM     59  O   UNL A   1      34.426  32.441  31.617  1.00  0.00    -0.237 OA
ATOM     60  O   UNL A   1      36.179  33.598  30.307  1.00  0.00    -0.237 OA
ATOM     61  O   UNL A   1      34.912  31.736  29.303  1.00  0.00    -0.744 OA
ENDBRANCH  54  58
ENDBRANCH  27  51
BRANCH  39  62
ATOM     62  C   UNL A   1      44.772  33.238  29.437  1.00  0.00     0.023 A 
ATOM     63  C   UNL A   1      44.588  34.384  28.644  1.00  0.00     0.031 A 
ATOM     64  C   UNL A   1      45.518  33.365  30.622  1.00  0.00     0.131 A 
ATOM     65  C   UNL A   1      45.197  35.593  29.012  1.00  0.00     0.055 A 
ATOM     66  C   UNL A   1      46.068  34.585  31.015  1.00  0.00     0.041 A 
ATOM     67  F   UNL A   1      45.727  32.302  31.416  1.00  0.00    -0.206 F 
ATOM     68  C   UNL A   1      45.922  35.704  30.201  1.00  0.00     0.022 A 
BRANCH  65  69
ATOM     69  S   UNL A   1      45.112  36.994  27.863  1.00  0.00     0.124 S 
ATOM     70  O   UNL A   1      46.522  37.332  27.692  1.00  0.00    -0.237 OA
ATOM     71  O   UNL A   1      44.452  36.407  26.703  1.00  0.00    -0.237 OA
ATOM     72  O   UNL A   1      44.320  37.986  28.590  1.00  0.00    -0.744 OA
ENDBRANCH  65  69
ENDBRANCH  39  62
ENDBRANCH  13  14
ENDBRANCH   6   8
ENDBRANCH   3   4
ENDBRANCH   2   3
ENDBRANCH   1   2
BRANCH   1  73
ATOM     73  C   UNL A   1      34.524  22.702  26.767  1.00  0.00     0.002 C 
BRANCH  73  74
ATOM     74  C   UNL A   1      33.084  23.224  26.860  1.00  0.00     0.021 C 
BRANCH  74  75
ATOM     75  C   UNL A   1      32.851  24.620  26.287  1.00  0.00     0.116 C 
BRANCH  75  76
ATOM     76  N   UNL A   1      31.479  24.804  25.847  1.00  0.00    -0.352 N 
ATOM     77  C   UNL A   1      30.725  25.944  25.776  1.00  0.00     0.253 C 
ATOM     78  H   UNL A   1      31.021  23.983  25.556  1.00  0.00     0.163 HD
ATOM     79  O   UNL A   1      29.520  25.862  25.550  1.00  0.00    -0.269 OA
BRANCH  77  80
ATOM     80  C   UNL A   1      31.332  27.280  25.958  1.00  0.00     0.063 A 
ATOM     81  C   UNL A   1      31.418  27.733  27.285  1.00  0.00     0.016 A 
ATOM     82  C   UNL A   1      31.704  28.113  24.883  1.00  0.00     0.054 A 
ATOM     83  C   UNL A   1      31.868  29.022  27.558  1.00  0.00     0.001 A 
ATOM     84  C   UNL A   1      32.072  29.431  25.183  1.00  0.00     0.027 A 
ATOM     85  C   UNL A   1      32.175  29.875  26.505  1.00  0.00     0.002 A 
BRANCH  82  86
ATOM     86  N   UNL A   1      31.657  27.612  23.562  1.00  0.00    -0.321 N 
ATOM     87  C   UNL A   1      30.725  27.677  22.552  1.00  0.00     0.255 C 
ATOM     88  H   UNL A   1      32.465  27.108  23.312  1.00  0.00     0.170 HD
ATOM     89  O   UNL A   1      30.924  27.045  21.516  1.00  0.00    -0.269 OA
BRANCH  87  90
ATOM     90  C   UNL A   1      29.507  28.497  22.650  1.00  0.00     0.043 A 
ATOM     91  C   UNL A   1      29.500  29.849  22.306  1.00  0.00     0.034 A 
ATOM     92  C   UNL A   1      28.343  27.880  23.101  1.00  0.00     0.034 A 
ATOM     93  C   UNL A   1      28.336  30.558  22.542  1.00  0.00     0.112 A 
ATOM     94  C   UNL A   1      27.230  28.675  23.288  1.00  0.00     0.112 A 
ATOM     95  N   UNL A   1      27.215  30.006  23.057  1.00  0.00    -0.265 NA
ENDBRANCH  87  90
ENDBRANCH  82  86
ENDBRANCH  77  80
ENDBRANCH  75  76
ENDBRANCH  74  75
ENDBRANCH  73  74
ENDBRANCH   1  73
TORSDOF 18
ENDMDL
