MODEL 1
REMARK VINA RESULT:     -11.2      0.000      0.000
REMARK SMILES CC1(C)C(Nc2cc(C(=O)NCCCCCCNC(=O)c3ccc(-c4c5nc(c(-c6cc(S(=O)(=O)[O-])ccc6F)c6ccc([nH]6)c(-c6cc(S(=O)(=O)[O-])ccc6F)c6nc(c(-c7cc(S(=O)(=O)[O-])ccc7F)c7ccc4[nH]7)C=C6)C=C5)cc3)cc(Cl)n2)C1(C)C
REMARK SMILES IDX 15 1 14 2 13 3 12 4 11 5 9 6 10 7 8 9 6 10 7 11 87 12 85 13
REMARK SMILES IDX 84 14 86 15 5 16 4 18 1 19 2 20 3 21 88 22 89 23 90 24 16 25
REMARK SMILES IDX 17 26 18 27 19 28 20 30 21 31 22 32 83 33 23 34 82 35 24 36
REMARK SMILES IDX 25 37 26 38 76 39 27 40 81 41 75 42 77 43 28 44 80 45 74 46
REMARK SMILES IDX 73 47 29 49 61 50 41 51 60 52 42 53 45 54 59 55 78 56 43 57
REMARK SMILES IDX 44 58 58 60 79 61 46 62 30 63 31 64 39 65 32 66 38 67 40 68
REMARK SMILES IDX 37 69 33 70 34 71 35 72 36 73 62 74 63 75 71 76 64 77 70 78
REMARK SMILES IDX 72 79 69 80 65 81 66 82 67 83 68 84 47 85 48 86 56 87 49 88
REMARK SMILES IDX 55 89 57 90 54 91 50 92 51 93 52 94 53 95
REMARK H PARENT 11 8 5 17 18 29 77 48 45 59
REMARK Flexibility Score: inf
ROOT
ATOM      1  C   UNL A   1      35.683  21.355  24.592  1.00  0.00     0.002 C 
ENDROOT
BRANCH   1   2
ATOM      2  C   UNL A   1      34.953  20.039  24.891  1.00  0.00     0.002 C 
BRANCH   2   3
ATOM      3  C   UNL A   1      33.457  20.188  25.210  1.00  0.00     0.021 C 
BRANCH   3   4
ATOM      4  C   UNL A   1      32.579  20.222  23.958  1.00  0.00     0.116 C 
BRANCH   4   5
ATOM      5  N   UNL A   1      32.775  21.471  23.249  1.00  0.00    -0.352 N 
ATOM      6  C   UNL A   1      32.401  22.767  23.454  1.00  0.00     0.251 C 
ATOM      7  O   UNL A   1      32.711  23.566  22.566  1.00  0.00    -0.269 OA
ATOM      8  H   UNL A   1      33.305  21.357  22.427  1.00  0.00     0.163 HD
BRANCH   6   9
ATOM      9  C   UNL A   1      31.701  23.289  24.662  1.00  0.00     0.046 A 
ATOM     10  C   UNL A   1      31.416  25.193  26.127  1.00  0.00     0.128 A 
ATOM     11  C   UNL A   1      32.014  24.607  25.020  1.00  0.00     0.060 A 
ATOM     12  N   UNL A   1      30.603  24.510  26.943  1.00  0.00    -0.219 NA
ATOM     13  C   UNL A   1      30.281  23.261  26.562  1.00  0.00     0.132 A 
ATOM     14  C   UNL A   1      30.752  22.627  25.426  1.00  0.00     0.055 A 
ATOM     15  Cl  UNL A   1      29.157  22.480  27.597  1.00  0.00    -0.062 Cl
BRANCH  10  16
ATOM     16  N   UNL A   1      31.548  26.562  26.385  1.00  0.00    -0.366 N 
ATOM     17  H   UNL A   1      30.813  27.064  26.805  1.00  0.00     0.162 HD
BRANCH  16  18
ATOM     18  C   UNL A   1      32.799  27.238  26.020  1.00  0.00     0.093 C 
ATOM     19  C   UNL A   1      33.950  28.190  23.925  1.00  0.00     0.014 C 
ATOM     20  C   UNL A   1      32.828  28.303  24.937  1.00  0.00    -0.008 C 
ATOM     21  C   UNL A   1      31.541  28.764  24.288  1.00  0.00     0.014 C 
ATOM     22  C   UNL A   1      33.126  28.662  26.408  1.00  0.00    -0.008 C 
ATOM     23  C   UNL A   1      34.552  28.941  26.838  1.00  0.00     0.014 C 
ATOM     24  C   UNL A   1      32.129  29.428  27.245  1.00  0.00     0.014 C 
ENDBRANCH  16  18
ENDBRANCH  10  16
ENDBRANCH   6   9
ENDBRANCH   4   5
ENDBRANCH   3   4
ENDBRANCH   2   3
ENDBRANCH   1   2
BRANCH   1  25
ATOM     25  C   UNL A   1      35.502  22.451  25.647  1.00  0.00     0.021 C 
BRANCH  25  26
ATOM     26  C   UNL A   1      36.767  23.249  25.950  1.00  0.00     0.116 C 
BRANCH  26  27
ATOM     27  N   UNL A   1      37.910  22.377  26.168  1.00  0.00    -0.352 N 
ATOM     28  C   UNL A   1      39.208  22.701  26.476  1.00  0.00     0.251 C 
ATOM     29  H   UNL A   1      37.726  21.414  26.082  1.00  0.00     0.163 HD
ATOM     30  O   UNL A   1      40.083  21.846  26.377  1.00  0.00    -0.269 OA
BRANCH  28  31
ATOM     31  C   UNL A   1      39.550  24.075  26.905  1.00  0.00     0.039 A 
ATOM     32  C   UNL A   1      39.350  24.434  28.240  1.00  0.00     0.014 A 
ATOM     33  C   UNL A   1      40.044  25.013  25.993  1.00  0.00     0.014 A 
ATOM     34  C   UNL A   1      39.698  25.715  28.671  1.00  0.00     0.010 A 
ATOM     35  C   UNL A   1      40.455  26.267  26.439  1.00  0.00     0.010 A 
ATOM     36  C   UNL A   1      40.284  26.633  27.783  1.00  0.00    -0.014 A 
BRANCH  36  37
ATOM     37  C   UNL A   1      40.730  27.972  28.251  1.00  0.00     0.031 A 
ATOM     38  C   UNL A   1      42.191  28.329  28.251  1.00  0.00     0.074 A 
ATOM     39  C   UNL A   1      39.819  28.844  28.724  1.00  0.00     0.049 A 
ATOM     40  N   UNL A   1      42.774  29.427  28.661  1.00  0.00    -0.248 NA
ATOM     41  C   UNL A   1      43.122  27.307  27.750  1.00  0.00     0.031 C 
ATOM     42  C   UNL A   1      38.378  28.592  28.815  1.00  0.00     0.029 A 
ATOM     43  N   UNL A   1      39.963  30.114  29.222  1.00  0.00    -0.354 N 
ATOM     44  C   UNL A   1      44.138  29.226  28.474  1.00  0.00     0.074 A 
ATOM     45  C   UNL A   1      44.296  27.877  27.974  1.00  0.00     0.031 C 
ATOM     46  C   UNL A   1      37.771  29.683  29.309  1.00  0.00     0.029 A 
ATOM     47  C   UNL A   1      38.778  30.694  29.613  1.00  0.00     0.049 A 
ATOM     48  H   UNL A   1      40.834  30.569  29.293  1.00  0.00     0.167 HD
ATOM     49  C   UNL A   1      45.160  30.095  28.679  1.00  0.00     0.034 A 
ATOM     50  C   UNL A   1      38.531  31.898  30.166  1.00  0.00     0.034 A 
ATOM     51  C   UNL A   1      44.982  31.439  29.174  1.00  0.00     0.049 A 
ATOM     52  C   UNL A   1      39.686  32.837  30.408  1.00  0.00     0.074 A 
ATOM     53  C   UNL A   1      45.939  32.421  29.366  1.00  0.00     0.029 A 
ATOM     54  N   UNL A   1      43.769  31.990  29.568  1.00  0.00    -0.354 N 
ATOM     55  N   UNL A   1      40.964  32.653  30.171  1.00  0.00    -0.248 NA
ATOM     56  C   UNL A   1      39.361  34.149  30.981  1.00  0.00     0.031 C 
ATOM     57  C   UNL A   1      45.318  33.536  29.941  1.00  0.00     0.029 A 
ATOM     58  C   UNL A   1      43.958  33.283  30.034  1.00  0.00     0.049 A 
ATOM     59  H   UNL A   1      42.900  31.529  29.522  1.00  0.00     0.167 HD
ATOM     60  C   UNL A   1      41.592  33.839  30.541  1.00  0.00     0.074 A 
ATOM     61  C   UNL A   1      40.549  34.735  30.997  1.00  0.00     0.031 C 
ATOM     62  C   UNL A   1      42.911  34.160  30.504  1.00  0.00     0.034 A 
BRANCH  49  63
ATOM     63  C   UNL A   1      46.560  29.602  28.392  1.00  0.00     0.023 A 
ATOM     64  C   UNL A   1      47.339  28.972  29.380  1.00  0.00     0.031 A 
ATOM     65  C   UNL A   1      47.135  29.782  27.121  1.00  0.00     0.131 A 
ATOM     66  C   UNL A   1      48.669  28.619  29.105  1.00  0.00     0.055 A 
ATOM     67  C   UNL A   1      48.431  29.352  26.830  1.00  0.00     0.041 A 
ATOM     68  F   UNL A   1      46.450  30.394  26.142  1.00  0.00    -0.206 F 
ATOM     69  C   UNL A   1      49.212  28.781  27.829  1.00  0.00     0.022 A 
BRANCH  66  70
ATOM     70  S   UNL A   1      49.724  28.085  30.482  1.00  0.00     0.124 S 
ATOM     71  O   UNL A   1      49.687  29.258  31.353  1.00  0.00    -0.237 OA
ATOM     72  O   UNL A   1      49.028  26.902  30.971  1.00  0.00    -0.237 OA
ATOM     73  O   UNL A   1      51.016  27.832  29.845  1.00  0.00    -0.744 OA
ENDBRANCH  66  70
ENDBRANCH  49  63
BRANCH  50  74
ATOM     74  C   UNL A   1      37.140  32.288  30.536  1.00  0.00     0.023 A 
ATOM     75  C   UNL A   1      36.259  32.821  29.582  1.00  0.00     0.031 A 
ATOM     76  C   UNL A   1      36.682  32.167  31.861  1.00  0.00     0.131 A 
ATOM     77  C   UNL A   1      34.984  33.257  29.974  1.00  0.00     0.055 A 
ATOM     78  C   UNL A   1      35.394  32.551  32.234  1.00  0.00     0.041 A 
ATOM     79  F   UNL A   1      37.482  31.658  32.811  1.00  0.00    -0.206 F 
ATOM     80  C   UNL A   1      34.540  33.113  31.290  1.00  0.00     0.022 A 
BRANCH  77  81
ATOM     81  S   UNL A   1      33.939  34.096  28.750  1.00  0.00     0.124 S 
ATOM     82  O   UNL A   1      34.849  35.109  28.228  1.00  0.00    -0.237 OA
ATOM     83  O   UNL A   1      33.602  33.006  27.842  1.00  0.00    -0.237 OA
ATOM     84  O   UNL A   1      32.827  34.606  29.548  1.00  0.00    -0.744 OA
ENDBRANCH  77  81
ENDBRANCH  50  74
BRANCH  62  85
ATOM     85  C   UNL A   1      43.286  35.557  30.939  1.00  0.00     0.023 A 
ATOM     86  C   UNL A   1      43.436  36.604  30.012  1.00  0.00     0.031 A 
ATOM     87  C   UNL A   1      43.517  35.838  32.297  1.00  0.00     0.131 A 
ATOM     88  C   UNL A   1      43.867  37.867  30.448  1.00  0.00     0.055 A 
ATOM     89  C   UNL A   1      43.883  37.113  32.732  1.00  0.00     0.041 A 
ATOM     90  F   UNL A   1      43.393  34.876  33.226  1.00  0.00    -0.206 F 
ATOM     91  C   UNL A   1      44.074  38.132  31.804  1.00  0.00     0.022 A 
BRANCH  88  92
ATOM     92  S   UNL A   1      44.253  39.131  29.206  1.00  0.00     0.124 S 
ATOM     93  O   UNL A   1      44.134  38.378  27.961  1.00  0.00    -0.237 OA
ATOM     94  O   UNL A   1      43.218  40.132  29.447  1.00  0.00    -0.237 OA
ATOM     95  O   UNL A   1      45.610  39.548  29.551  1.00  0.00    -0.744 OA
ENDBRANCH  88  92
ENDBRANCH  62  85
ENDBRANCH  36  37
ENDBRANCH  28  31
ENDBRANCH  26  27
ENDBRANCH  25  26
ENDBRANCH   1  25
TORSDOF 18
ENDMDL
MODEL 2
REMARK VINA RESULT:     -11.2      1.889      2.319
REMARK SMILES CC1(C)C(Nc2cc(C(=O)NCCCCCCNC(=O)c3ccc(-c4c5nc(c(-c6cc(S(=O)(=O)[O-])ccc6F)c6ccc([nH]6)c(-c6cc(S(=O)(=O)[O-])ccc6F)c6nc(c(-c7cc(S(=O)(=O)[O-])ccc7F)c7ccc4[nH]7)C=C6)C=C5)cc3)cc(Cl)n2)C1(C)C
REMARK SMILES IDX 15 1 14 2 13 3 12 4 11 5 9 6 10 7 8 9 6 10 7 11 87 12 85 13
REMARK SMILES IDX 84 14 86 15 5 16 4 18 1 19 2 20 3 21 88 22 89 23 90 24 16 25
REMARK SMILES IDX 17 26 18 27 19 28 20 30 21 31 22 32 83 33 23 34 82 35 24 36
REMARK SMILES IDX 25 37 26 38 76 39 27 40 81 41 75 42 77 43 28 44 80 45 74 46
REMARK SMILES IDX 73 47 29 49 61 50 41 51 60 52 42 53 45 54 59 55 78 56 43 57
REMARK SMILES IDX 44 58 58 60 79 61 46 62 30 63 31 64 39 65 32 66 38 67 40 68
REMARK SMILES IDX 37 69 33 70 34 71 35 72 36 73 62 74 63 75 71 76 64 77 70 78
REMARK SMILES IDX 72 79 69 80 65 81 66 82 67 83 68 84 47 85 48 86 56 87 49 88
REMARK SMILES IDX 55 89 57 90 54 91 50 92 51 93 52 94 53 95
REMARK H PARENT 11 8 5 17 18 29 77 48 45 59
REMARK Flexibility Score: inf
ROOT
ATOM      1  C   UNL A   1      35.803  21.409  24.543  1.00  0.00     0.002 C 
ENDROOT
BRANCH   1   2
ATOM      2  C   UNL A   1      35.025  20.155  24.965  1.00  0.00     0.002 C 
BRANCH   2   3
ATOM      3  C   UNL A   1      33.521  20.375  25.193  1.00  0.00     0.021 C 
BRANCH   3   4
ATOM      4  C   UNL A   1      32.700  20.279  23.905  1.00  0.00     0.116 C 
BRANCH   4   5
ATOM      5  N   UNL A   1      32.767  21.533  23.182  1.00  0.00    -0.352 N 
ATOM      6  C   UNL A   1      32.322  22.804  23.407  1.00  0.00     0.251 C 
ATOM      7  O   UNL A   1      32.519  23.615  22.499  1.00  0.00    -0.269 OA
ATOM      8  H   UNL A   1      33.247  21.449  22.327  1.00  0.00     0.163 HD
BRANCH   6   9
ATOM      9  C   UNL A   1      31.669  23.287  24.658  1.00  0.00     0.046 A 
ATOM     10  C   UNL A   1      31.516  25.106  26.245  1.00  0.00     0.128 A 
ATOM     11  C   UNL A   1      32.065  24.558  25.093  1.00  0.00     0.060 A 
ATOM     12  N   UNL A   1      30.676  24.420  27.030  1.00  0.00    -0.219 NA
ATOM     13  C   UNL A   1      30.276  23.219  26.576  1.00  0.00     0.132 A 
ATOM     14  C   UNL A   1      30.694  22.632  25.395  1.00  0.00     0.055 A 
ATOM     15  Cl  UNL A   1      29.122  22.438  27.579  1.00  0.00    -0.062 Cl
BRANCH  10  16
ATOM     16  N   UNL A   1      31.732  26.446  26.586  1.00  0.00    -0.366 N 
ATOM     17  H   UNL A   1      31.731  26.727  27.530  1.00  0.00     0.162 HD
BRANCH  16  18
ATOM     18  C   UNL A   1      31.962  27.425  25.517  1.00  0.00     0.093 C 
ATOM     19  C   UNL A   1      31.126  29.752  24.807  1.00  0.00     0.014 C 
ATOM     20  C   UNL A   1      31.912  28.918  25.798  1.00  0.00    -0.008 C 
ATOM     21  C   UNL A   1      31.729  29.421  27.213  1.00  0.00     0.014 C 
ATOM     22  C   UNL A   1      33.231  28.235  25.382  1.00  0.00    -0.008 C 
ATOM     23  C   UNL A   1      33.768  28.432  23.979  1.00  0.00     0.014 C 
ATOM     24  C   UNL A   1      34.343  28.006  26.379  1.00  0.00     0.014 C 
ENDBRANCH  16  18
ENDBRANCH  10  16
ENDBRANCH   6   9
ENDBRANCH   4   5
ENDBRANCH   3   4
ENDBRANCH   2   3
ENDBRANCH   1   2
BRANCH   1  25
ATOM     25  C   UNL A   1      35.565  22.644  25.417  1.00  0.00     0.021 C 
BRANCH  25  26
ATOM     26  C   UNL A   1      36.826  23.207  26.067  1.00  0.00     0.116 C 
BRANCH  26  27
ATOM     27  N   UNL A   1      37.879  22.209  26.144  1.00  0.00    -0.352 N 
ATOM     28  C   UNL A   1      39.227  22.376  26.352  1.00  0.00     0.251 C 
ATOM     29  H   UNL A   1      37.585  21.277  26.030  1.00  0.00     0.163 HD
ATOM     30  O   UNL A   1      39.991  21.441  26.138  1.00  0.00    -0.269 OA
BRANCH  28  31
ATOM     31  C   UNL A   1      39.751  23.680  26.813  1.00  0.00     0.039 A 
ATOM     32  C   UNL A   1      39.952  24.696  25.876  1.00  0.00     0.014 A 
ATOM     33  C   UNL A   1      40.064  23.896  28.159  1.00  0.00     0.014 A 
ATOM     34  C   UNL A   1      40.415  25.945  26.297  1.00  0.00     0.010 A 
ATOM     35  C   UNL A   1      40.458  25.162  28.587  1.00  0.00     0.010 A 
ATOM     36  C   UNL A   1      40.640  26.200  27.661  1.00  0.00    -0.014 A 
BRANCH  36  37
ATOM     37  C   UNL A   1      41.056  27.548  28.127  1.00  0.00     0.031 A 
ATOM     38  C   UNL A   1      42.510  27.933  28.142  1.00  0.00     0.074 A 
ATOM     39  C   UNL A   1      40.124  28.407  28.583  1.00  0.00     0.049 A 
ATOM     40  N   UNL A   1      43.068  29.043  28.553  1.00  0.00    -0.248 NA
ATOM     41  C   UNL A   1      43.465  26.925  27.657  1.00  0.00     0.031 C 
ATOM     42  C   UNL A   1      38.687  28.130  28.659  1.00  0.00     0.029 A 
ATOM     43  N   UNL A   1      40.239  29.682  29.076  1.00  0.00    -0.354 N 
ATOM     44  C   UNL A   1      44.438  28.866  28.383  1.00  0.00     0.074 A 
ATOM     45  C   UNL A   1      44.626  27.517  27.892  1.00  0.00     0.031 C 
ATOM     46  C   UNL A   1      38.054  29.212  29.139  1.00  0.00     0.029 A 
ATOM     47  C   UNL A   1      39.039  30.242  29.450  1.00  0.00     0.049 A 
ATOM     48  H   UNL A   1      41.100  30.153  29.155  1.00  0.00     0.167 HD
ATOM     49  C   UNL A   1      45.442  29.754  28.594  1.00  0.00     0.034 A 
ATOM     50  C   UNL A   1      38.764  31.445  29.992  1.00  0.00     0.034 A 
ATOM     51  C   UNL A   1      45.233  31.098  29.079  1.00  0.00     0.049 A 
ATOM     52  C   UNL A   1      39.898  32.406  30.243  1.00  0.00     0.074 A 
ATOM     53  C   UNL A   1      46.170  32.098  29.277  1.00  0.00     0.029 A 
ATOM     54  N   UNL A   1      44.006  31.629  29.456  1.00  0.00    -0.354 N 
ATOM     55  N   UNL A   1      41.182  32.244  30.023  1.00  0.00    -0.248 NA
ATOM     56  C   UNL A   1      39.543  33.715  30.805  1.00  0.00     0.031 C 
ATOM     57  C   UNL A   1      45.522  33.204  29.839  1.00  0.00     0.029 A 
ATOM     58  C   UNL A   1      44.166  32.927  29.917  1.00  0.00     0.049 A 
ATOM     59  H   UNL A   1      43.146  31.152  29.403  1.00  0.00     0.167 HD
ATOM     60  C   UNL A   1      41.784  33.443  30.393  1.00  0.00     0.074 A 
ATOM     61  C   UNL A   1      40.719  34.322  30.832  1.00  0.00     0.031 C 
ATOM     62  C   UNL A   1      43.097  33.787  30.370  1.00  0.00     0.034 A 
BRANCH  49  63
ATOM     63  C   UNL A   1      46.854  29.285  28.327  1.00  0.00     0.023 A 
ATOM     64  C   UNL A   1      47.305  29.003  27.025  1.00  0.00     0.031 A 
ATOM     65  C   UNL A   1      47.756  29.096  29.389  1.00  0.00     0.131 A 
ATOM     66  C   UNL A   1      48.589  28.474  26.827  1.00  0.00     0.055 A 
ATOM     67  C   UNL A   1      49.062  28.648  29.176  1.00  0.00     0.041 A 
ATOM     68  F   UNL A   1      47.379  29.327  30.656  1.00  0.00    -0.206 F 
ATOM     69  C   UNL A   1      49.481  28.319  27.891  1.00  0.00     0.022 A 
BRANCH  66  70
ATOM     70  S   UNL A   1      49.024  27.850  25.179  1.00  0.00     0.124 S 
ATOM     71  O   UNL A   1      47.846  28.228  24.402  1.00  0.00    -0.237 OA
ATOM     72  O   UNL A   1      50.249  28.581  24.880  1.00  0.00    -0.237 OA
ATOM     73  O   UNL A   1      49.188  26.413  25.389  1.00  0.00    -0.744 OA
ENDBRANCH  66  70
ENDBRANCH  49  63
BRANCH  50  74
ATOM     74  C   UNL A   1      37.361  31.811  30.344  1.00  0.00     0.023 A 
ATOM     75  C   UNL A   1      36.484  32.328  29.377  1.00  0.00     0.031 A 
ATOM     76  C   UNL A   1      36.889  31.685  31.663  1.00  0.00     0.131 A 
ATOM     77  C   UNL A   1      35.197  32.742  29.752  1.00  0.00     0.055 A 
ATOM     78  C   UNL A   1      35.589  32.047  32.018  1.00  0.00     0.041 A 
ATOM     79  F   UNL A   1      37.685  31.191  32.625  1.00  0.00    -0.206 F 
ATOM     80  C   UNL A   1      34.738  32.593  31.063  1.00  0.00     0.022 A 
BRANCH  77  81
ATOM     81  S   UNL A   1      34.154  33.562  28.513  1.00  0.00     0.124 S 
ATOM     82  O   UNL A   1      33.635  32.424  27.762  1.00  0.00    -0.237 OA
ATOM     83  O   UNL A   1      33.192  34.270  29.350  1.00  0.00    -0.237 OA
ATOM     84  O   UNL A   1      35.094  34.414  27.789  1.00  0.00    -0.744 OA
ENDBRANCH  77  81
ENDBRANCH  50  74
BRANCH  62  85
ATOM     85  C   UNL A   1      43.442  35.194  30.801  1.00  0.00     0.023 A 
ATOM     86  C   UNL A   1      43.544  35.547  32.158  1.00  0.00     0.031 A 
ATOM     87  C   UNL A   1      43.650  36.198  29.838  1.00  0.00     0.131 A 
ATOM     88  C   UNL A   1      43.785  36.883  32.516  1.00  0.00     0.055 A 
ATOM     89  C   UNL A   1      43.952  37.512  30.201  1.00  0.00     0.041 A 
ATOM     90  F   UNL A   1      43.561  35.919  28.528  1.00  0.00    -0.206 F 
ATOM     91  C   UNL A   1      44.006  37.863  31.546  1.00  0.00     0.022 A 
BRANCH  88  92
ATOM     92  S   UNL A   1      43.701  37.343  34.269  1.00  0.00     0.124 S 
ATOM     93  O   UNL A   1      45.081  37.727  34.547  1.00  0.00    -0.237 OA
ATOM     94  O   UNL A   1      42.726  38.429  34.261  1.00  0.00    -0.237 OA
ATOM     95  O   UNL A   1      43.256  36.115  34.924  1.00  0.00    -0.744 OA
ENDBRANCH  88  92
ENDBRANCH  62  85
ENDBRANCH  36  37
ENDBRANCH  28  31
ENDBRANCH  26  27
ENDBRANCH  25  26
ENDBRANCH   1  25
TORSDOF 18
ENDMDL
MODEL 3
REMARK VINA RESULT:     -11.1      3.842      5.369
REMARK SMILES CC1(C)C(Nc2cc(C(=O)NCCCCCCNC(=O)c3ccc(-c4c5nc(c(-c6cc(S(=O)(=O)[O-])ccc6F)c6ccc([nH]6)c(-c6cc(S(=O)(=O)[O-])ccc6F)c6nc(c(-c7cc(S(=O)(=O)[O-])ccc7F)c7ccc4[nH]7)C=C6)C=C5)cc3)cc(Cl)n2)C1(C)C
REMARK SMILES IDX 15 1 14 2 13 3 12 4 11 5 9 6 10 7 8 9 6 10 7 11 87 12 85 13
REMARK SMILES IDX 84 14 86 15 5 16 4 18 1 19 2 20 3 21 88 22 89 23 90 24 16 25
REMARK SMILES IDX 17 26 18 27 19 28 20 30 21 31 22 32 83 33 23 34 82 35 24 36
REMARK SMILES IDX 25 37 26 38 76 39 27 40 81 41 75 42 77 43 28 44 80 45 74 46
REMARK SMILES IDX 73 47 29 49 61 50 41 51 60 52 42 53 45 54 59 55 78 56 43 57
REMARK SMILES IDX 44 58 58 60 79 61 46 62 30 63 31 64 39 65 32 66 38 67 40 68
REMARK SMILES IDX 37 69 33 70 34 71 35 72 36 73 62 74 63 75 71 76 64 77 70 78
REMARK SMILES IDX 72 79 69 80 65 81 66 82 67 83 68 84 47 85 48 86 56 87 49 88
REMARK SMILES IDX 55 89 57 90 54 91 50 92 51 93 52 94 53 95
REMARK H PARENT 11 8 5 17 18 29 77 48 45 59
REMARK Flexibility Score: inf
ROOT
ATOM      1  C   UNL A   1      41.394  21.499  27.659  1.00  0.00     0.002 C 
ENDROOT
BRANCH   1   2
ATOM      2  C   UNL A   1      40.263  22.459  27.267  1.00  0.00     0.002 C 
BRANCH   2   3
ATOM      3  C   UNL A   1      39.378  21.976  26.108  1.00  0.00     0.021 C 
BRANCH   3   4
ATOM      4  C   UNL A   1      38.048  22.726  26.017  1.00  0.00     0.116 C 
BRANCH   4   5
ATOM      5  N   UNL A   1      37.722  22.990  24.629  1.00  0.00    -0.352 N 
ATOM      6  C   UNL A   1      36.569  23.054  23.902  1.00  0.00     0.251 C 
ATOM      7  O   UNL A   1      36.703  23.244  22.691  1.00  0.00    -0.269 OA
ATOM      8  H   UNL A   1      38.522  23.166  24.083  1.00  0.00     0.163 HD
BRANCH   6   9
ATOM      9  C   UNL A   1      35.187  22.956  24.454  1.00  0.00     0.046 A 
ATOM     10  C   UNL A   1      33.421  24.137  25.609  1.00  0.00     0.128 A 
ATOM     11  C   UNL A   1      34.697  24.117  25.066  1.00  0.00     0.060 A 
ATOM     12  N   UNL A   1      32.651  23.043  25.663  1.00  0.00    -0.219 NA
ATOM     13  C   UNL A   1      33.120  21.949  25.036  1.00  0.00     0.132 A 
ATOM     14  C   UNL A   1      34.338  21.862  24.385  1.00  0.00     0.055 A 
ATOM     15  Cl  UNL A   1      32.042  20.614  25.054  1.00  0.00    -0.062 Cl
BRANCH  10  16
ATOM     16  N   UNL A   1      32.831  25.333  26.035  1.00  0.00    -0.366 N 
ATOM     17  H   UNL A   1      31.940  25.329  26.454  1.00  0.00     0.162 HD
BRANCH  16  18
ATOM     18  C   UNL A   1      33.559  26.594  25.847  1.00  0.00     0.093 C 
ATOM     19  C   UNL A   1      33.982  28.332  23.999  1.00  0.00     0.014 C 
ATOM     20  C   UNL A   1      33.002  27.697  24.964  1.00  0.00    -0.008 C 
ATOM     21  C   UNL A   1      31.628  27.557  24.346  1.00  0.00     0.014 C 
ATOM     22  C   UNL A   1      33.151  27.901  26.486  1.00  0.00    -0.008 C 
ATOM     23  C   UNL A   1      34.265  28.776  27.021  1.00  0.00     0.014 C 
ATOM     24  C   UNL A   1      31.945  27.913  27.396  1.00  0.00     0.014 C 
ENDBRANCH  16  18
ENDBRANCH  10  16
ENDBRANCH   6   9
ENDBRANCH   4   5
ENDBRANCH   3   4
ENDBRANCH   2   3
ENDBRANCH   1   2
BRANCH   1  25
ATOM     25  C   UNL A   1      41.321  20.113  27.010  1.00  0.00     0.021 C 
BRANCH  25  26
ATOM     26  C   UNL A   1      42.569  19.258  27.209  1.00  0.00     0.116 C 
BRANCH  26  27
ATOM     27  N   UNL A   1      43.189  18.913  25.941  1.00  0.00    -0.352 N 
ATOM     28  C   UNL A   1      43.795  19.727  25.016  1.00  0.00     0.251 C 
ATOM     29  H   UNL A   1      43.172  17.956  25.711  1.00  0.00     0.163 HD
ATOM     30  O   UNL A   1      44.038  19.291  23.895  1.00  0.00    -0.269 OA
BRANCH  28  31
ATOM     31  C   UNL A   1      44.134  21.124  25.365  1.00  0.00     0.039 A 
ATOM     32  C   UNL A   1      43.577  22.161  24.613  1.00  0.00     0.014 A 
ATOM     33  C   UNL A   1      45.014  21.412  26.413  1.00  0.00     0.014 A 
ATOM     34  C   UNL A   1      43.859  23.487  24.948  1.00  0.00     0.010 A 
ATOM     35  C   UNL A   1      45.238  22.735  26.790  1.00  0.00     0.010 A 
ATOM     36  C   UNL A   1      44.665  23.787  26.060  1.00  0.00    -0.014 A 
BRANCH  36  37
ATOM     37  C   UNL A   1      44.905  25.195  26.472  1.00  0.00     0.031 A 
ATOM     38  C   UNL A   1      46.269  25.811  26.313  1.00  0.00     0.074 A 
ATOM     39  C   UNL A   1      43.905  25.900  27.034  1.00  0.00     0.049 A 
ATOM     40  N   UNL A   1      46.681  27.005  26.653  1.00  0.00    -0.248 NA
ATOM     41  C   UNL A   1      47.312  24.962  25.720  1.00  0.00     0.031 C 
ATOM     42  C   UNL A   1      42.552  25.393  27.281  1.00  0.00     0.029 A 
ATOM     43  N   UNL A   1      43.866  27.187  27.508  1.00  0.00    -0.354 N 
ATOM     44  C   UNL A   1      48.031  27.050  26.322  1.00  0.00     0.074 A 
ATOM     45  C   UNL A   1      48.380  25.740  25.814  1.00  0.00     0.031 C 
ATOM     46  C   UNL A   1      41.811  26.368  27.831  1.00  0.00     0.029 A 
ATOM     47  C   UNL A   1      42.643  27.551  28.021  1.00  0.00     0.049 A 
ATOM     48  H   UNL A   1      44.641  27.793  27.483  1.00  0.00     0.167 HD
ATOM     49  C   UNL A   1      48.894  28.095  26.411  1.00  0.00     0.034 A 
ATOM     50  C   UNL A   1      42.239  28.704  28.591  1.00  0.00     0.034 A 
ATOM     51  C   UNL A   1      48.526  29.396  26.916  1.00  0.00     0.049 A 
ATOM     52  C   UNL A   1      43.222  29.842  28.704  1.00  0.00     0.074 A 
ATOM     53  C   UNL A   1      49.303  30.539  27.000  1.00  0.00     0.029 A 
ATOM     54  N   UNL A   1      47.281  29.728  27.436  1.00  0.00    -0.354 N 
ATOM     55  N   UNL A   1      44.481  29.886  28.333  1.00  0.00    -0.248 NA
ATOM     56  C   UNL A   1      42.725  31.087  29.302  1.00  0.00     0.031 C 
ATOM     57  C   UNL A   1      48.552  31.536  27.633  1.00  0.00     0.029 A 
ATOM     58  C   UNL A   1      47.278  31.044  27.873  1.00  0.00     0.049 A 
ATOM     59  H   UNL A   1      46.510  29.116  27.485  1.00  0.00     0.167 HD
ATOM     60  C   UNL A   1      44.917  31.175  28.627  1.00  0.00     0.074 A 
ATOM     61  C   UNL A   1      43.781  31.878  29.188  1.00  0.00     0.031 C 
ATOM     62  C   UNL A   1      46.143  31.728  28.448  1.00  0.00     0.034 A 
BRANCH  49  63
ATOM     63  C   UNL A   1      50.323  27.856  25.979  1.00  0.00     0.023 A 
ATOM     64  C   UNL A   1      50.696  27.868  24.623  1.00  0.00     0.031 A 
ATOM     65  C   UNL A   1      51.322  27.591  26.932  1.00  0.00     0.131 A 
ATOM     66  C   UNL A   1      52.010  27.543  24.255  1.00  0.00     0.055 A 
ATOM     67  C   UNL A   1      52.648  27.351  26.563  1.00  0.00     0.041 A 
ATOM     68  F   UNL A   1      51.025  27.546  28.240  1.00  0.00    -0.206 F 
ATOM     69  C   UNL A   1      52.996  27.310  25.217  1.00  0.00     0.022 A 
BRANCH  66  70
ATOM     70  S   UNL A   1      52.377  27.281  22.497  1.00  0.00     0.124 S 
ATOM     71  O   UNL A   1      51.038  27.095  21.941  1.00  0.00    -0.237 OA
ATOM     72  O   UNL A   1      53.056  28.517  22.130  1.00  0.00    -0.237 OA
ATOM     73  O   UNL A   1      53.215  26.084  22.496  1.00  0.00    -0.744 OA
ENDBRANCH  66  70
ENDBRANCH  49  63
BRANCH  50  74
ATOM     74  C   UNL A   1      40.847  28.844  29.106  1.00  0.00     0.023 A 
ATOM     75  C   UNL A   1      40.577  28.811  30.484  1.00  0.00     0.031 A 
ATOM     76  C   UNL A   1      39.758  28.976  28.225  1.00  0.00     0.131 A 
ATOM     77  C   UNL A   1      39.251  28.862  30.939  1.00  0.00     0.055 A 
ATOM     78  C   UNL A   1      38.445  29.081  28.686  1.00  0.00     0.041 A 
ATOM     79  F   UNL A   1      39.960  29.019  26.899  1.00  0.00    -0.206 F 
ATOM     80  C   UNL A   1      38.184  29.010  30.050  1.00  0.00     0.022 A 
BRANCH  77  81
ATOM     81  S   UNL A   1      38.932  28.644  32.712  1.00  0.00     0.124 S 
ATOM     82  O   UNL A   1      40.108  27.892  33.135  1.00  0.00    -0.237 OA
ATOM     83  O   UNL A   1      38.852  30.025  33.176  1.00  0.00    -0.237 OA
ATOM     84  O   UNL A   1      37.673  27.904  32.741  1.00  0.00    -0.744 OA
ENDBRANCH  77  81
ENDBRANCH  50  74
BRANCH  62  85
ATOM     85  C   UNL A   1      46.301  33.180  28.833  1.00  0.00     0.023 A 
ATOM     86  C   UNL A   1      46.019  34.220  27.929  1.00  0.00     0.031 A 
ATOM     87  C   UNL A   1      46.760  33.527  30.117  1.00  0.00     0.131 A 
ATOM     88  C   UNL A   1      46.258  35.552  28.299  1.00  0.00     0.055 A 
ATOM     89  C   UNL A   1      46.934  34.858  30.500  1.00  0.00     0.041 A 
ATOM     90  F   UNL A   1      47.048  32.576  31.019  1.00  0.00    -0.206 F 
ATOM     91  C   UNL A   1      46.697  35.878  29.584  1.00  0.00     0.022 A 
BRANCH  88  92
ATOM     92  S   UNL A   1      46.086  36.849  27.042  1.00  0.00     0.124 S 
ATOM     93  O   UNL A   1      46.804  37.962  27.655  1.00  0.00    -0.237 OA
ATOM     94  O   UNL A   1      46.724  36.243  25.878  1.00  0.00    -0.237 OA
ATOM     95  O   UNL A   1      44.640  37.030  26.932  1.00  0.00    -0.744 OA
ENDBRANCH  88  92
ENDBRANCH  62  85
ENDBRANCH  36  37
ENDBRANCH  28  31
ENDBRANCH  26  27
ENDBRANCH  25  26
ENDBRANCH   1  25
TORSDOF 18
ENDMDL
