MODEL 1
REMARK VINA RESULT:     -12.4      0.000      0.000
REMARK SMILES Cn1c(C(=O)N2CCC[C@@H](C(=O)NCCCCCCNC(=O)c3ccc(-c4c5nc(c(-c6cc(S(=O)(=O)[O-])ccc6F)c6ccc([nH]6)c(-c6cc(S(=O)(=O)[O-])ccc6F)c6nc(c(-c7cc(S(=O)(=O)[O-])ccc7F)c7ccc4[nH]7)C=C6)C=C5)cc3)C2)cc2sccc21
REMARK SMILES IDX 17 1 16 2 15 3 14 4 13 5 11 6 12 7 10 9 6 10 7 11 86 12 8 13
REMARK SMILES IDX 9 14 4 15 5 16 3 17 1 18 2 19 92 20 87 21 88 22 91 23 89 24
REMARK SMILES IDX 90 25 18 26 19 27 20 28 21 29 22 31 23 32 24 33 85 34 25 35
REMARK SMILES IDX 84 36 26 37 27 38 28 39 78 40 29 41 83 42 77 43 79 44 30 45
REMARK SMILES IDX 82 46 76 47 75 48 31 50 63 51 43 52 62 53 44 54 47 55 61 56
REMARK SMILES IDX 80 57 45 58 46 59 60 61 81 62 48 63 32 64 33 65 41 66 34 67
REMARK SMILES IDX 40 68 42 69 39 70 35 71 36 72 37 73 38 74 64 75 65 76 73 77
REMARK SMILES IDX 66 78 72 79 74 80 71 81 67 82 68 83 69 84 70 85 49 86 50 87
REMARK SMILES IDX 58 88 51 89 57 90 59 91 56 92 52 93 53 94 54 95 55 96
REMARK H PARENT 13 8 20 30 79 49 47 60
REMARK Flexibility Score: inf
ROOT
ATOM      1  C   UNL A   1      36.255  21.048  24.874  1.00  0.00     0.002 C 
ENDROOT
BRANCH   1   2
ATOM      2  C   UNL A   1      34.836  20.478  24.698  1.00  0.00     0.002 C 
BRANCH   2   3
ATOM      3  C   UNL A   1      33.895  20.682  25.895  1.00  0.00     0.021 C 
BRANCH   3   4
ATOM      4  C   UNL A   1      32.431  20.857  25.485  1.00  0.00     0.116 C 
BRANCH   4   5
ATOM      5  N   UNL A   1      31.756  21.761  26.388  1.00  0.00    -0.356 N 
ATOM      6  C   UNL A   1      31.770  23.112  26.502  1.00  0.00     0.224 C 
ATOM      7  O   UNL A   1      31.120  23.571  27.449  1.00  0.00    -0.275 OA
ATOM      8  H   UNL A   1      31.177  21.311  27.045  1.00  0.00     0.163 HD
BRANCH   6   9
ATOM      9  C   UNL A   1      32.429  24.039  25.472  1.00  0.00     0.098 C 
ATOM     10  N   UNL A   1      31.952  26.192  24.283  1.00  0.00    -0.337 N 
ATOM     11  C   UNL A   1      33.227  26.772  24.648  1.00  0.00     0.120 C 
ATOM     12  C   UNL A   1      31.407  25.170  25.173  1.00  0.00     0.133 C 
ATOM     13  C   UNL A   1      34.262  25.685  24.825  1.00  0.00     0.022 C 
ATOM     14  C   UNL A   1      33.785  24.659  25.854  1.00  0.00     0.017 C 
BRANCH  10  15
ATOM     15  C   UNL A   1      31.421  26.490  23.038  1.00  0.00     0.270 C 
ATOM     16  O   UNL A   1      31.784  25.864  22.045  1.00  0.00    -0.267 OA
BRANCH  15  17
ATOM     17  C   UNL A   1      30.568  27.677  22.968  1.00  0.00     0.108 A 
ATOM     18  C   UNL A   1      28.414  26.636  23.849  1.00  0.00     0.150 C 
ATOM     19  N   UNL A   1      29.225  27.699  23.307  1.00  0.00    -0.339 N 
ATOM     20  C   UNL A   1      28.685  28.909  22.924  1.00  0.00     0.059 A 
ATOM     21  C   UNL A   1      30.879  28.923  22.431  1.00  0.00     0.053 A 
ATOM     22  C   UNL A   1      29.678  29.676  22.403  1.00  0.00     0.053 A 
ATOM     23  C   UNL A   1      27.409  29.541  22.903  1.00  0.00     0.038 A 
ATOM     24  S   UNL A   1      29.115  31.225  21.876  1.00  0.00    -0.142 S 
ATOM     25  C   UNL A   1      27.518  30.797  22.345  1.00  0.00     0.068 A 
ENDBRANCH  15  17
ENDBRANCH  10  15
ENDBRANCH   6   9
ENDBRANCH   4   5
ENDBRANCH   3   4
ENDBRANCH   2   3
ENDBRANCH   1   2
BRANCH   1  26
ATOM     26  C   UNL A   1      37.389  20.014  24.938  1.00  0.00     0.021 C 
BRANCH  26  27
ATOM     27  C   UNL A   1      38.642  20.539  25.622  1.00  0.00     0.116 C 
BRANCH  27  28
ATOM     28  N   UNL A   1      39.669  19.507  25.734  1.00  0.00    -0.352 N 
ATOM     29  C   UNL A   1      41.026  19.662  25.938  1.00  0.00     0.251 C 
ATOM     30  H   UNL A   1      39.351  18.579  25.654  1.00  0.00     0.163 HD
ATOM     31  O   UNL A   1      41.802  18.778  25.611  1.00  0.00    -0.269 OA
BRANCH  29  32
ATOM     32  C   UNL A   1      41.512  20.910  26.558  1.00  0.00     0.039 A 
ATOM     33  C   UNL A   1      41.916  21.996  25.778  1.00  0.00     0.014 A 
ATOM     34  C   UNL A   1      41.549  20.984  27.949  1.00  0.00     0.014 A 
ATOM     35  C   UNL A   1      42.282  23.177  26.419  1.00  0.00     0.010 A 
ATOM     36  C   UNL A   1      41.753  22.190  28.570  1.00  0.00     0.010 A 
ATOM     37  C   UNL A   1      42.175  23.276  27.818  1.00  0.00    -0.014 A 
BRANCH  37  38
ATOM     38  C   UNL A   1      42.336  24.558  28.498  1.00  0.00     0.031 A 
ATOM     39  C   UNL A   1      41.182  25.469  28.302  1.00  0.00     0.074 A 
ATOM     40  C   UNL A   1      43.325  24.841  29.377  1.00  0.00     0.049 A 
ATOM     41  N   UNL A   1      41.135  26.486  27.509  1.00  0.00    -0.248 NA
ATOM     42  C   UNL A   1      39.873  25.102  28.868  1.00  0.00     0.031 C 
ATOM     43  C   UNL A   1      44.386  23.956  29.869  1.00  0.00     0.029 A 
ATOM     44  N   UNL A   1      43.536  25.976  30.099  1.00  0.00    -0.354 N 
ATOM     45  C   UNL A   1      39.892  27.064  27.715  1.00  0.00     0.074 A 
ATOM     46  C   UNL A   1      39.089  26.048  28.341  1.00  0.00     0.031 C 
ATOM     47  C   UNL A   1      44.971  24.505  30.958  1.00  0.00     0.029 A 
ATOM     48  C   UNL A   1      44.442  25.845  31.153  1.00  0.00     0.049 A 
ATOM     49  H   UNL A   1      43.084  26.827  29.892  1.00  0.00     0.167 HD
ATOM     50  C   UNL A   1      39.742  28.414  27.625  1.00  0.00     0.034 A 
ATOM     51  C   UNL A   1      44.735  26.764  32.118  1.00  0.00     0.034 A 
ATOM     52  C   UNL A   1      40.889  29.016  26.972  1.00  0.00     0.049 A 
ATOM     53  C   UNL A   1      44.400  28.090  31.539  1.00  0.00     0.074 A 
ATOM     54  C   UNL A   1      41.531  28.810  25.764  1.00  0.00     0.029 A 
ATOM     55  N   UNL A   1      41.804  29.684  27.760  1.00  0.00    -0.354 N 
ATOM     56  N   UNL A   1      45.031  28.594  30.513  1.00  0.00    -0.248 NA
ATOM     57  C   UNL A   1      43.055  28.604  31.751  1.00  0.00     0.031 C 
ATOM     58  C   UNL A   1      42.923  28.876  26.074  1.00  0.00     0.029 A 
ATOM     59  C   UNL A   1      43.057  29.233  27.417  1.00  0.00     0.049 A 
ATOM     60  H   UNL A   1      41.597  30.362  28.443  1.00  0.00     0.167 HD
ATOM     61  C   UNL A   1      44.032  29.108  29.701  1.00  0.00     0.074 A 
ATOM     62  C   UNL A   1      42.846  29.169  30.557  1.00  0.00     0.031 C 
ATOM     63  C   UNL A   1      44.174  29.159  28.342  1.00  0.00     0.034 A 
BRANCH  50  64
ATOM     64  C   UNL A   1      38.794  29.233  28.474  1.00  0.00     0.023 A 
ATOM     65  C   UNL A   1      39.063  29.282  29.855  1.00  0.00     0.031 A 
ATOM     66  C   UNL A   1      37.516  29.693  28.081  1.00  0.00     0.131 A 
ATOM     67  C   UNL A   1      38.063  29.640  30.772  1.00  0.00     0.055 A 
ATOM     68  C   UNL A   1      36.548  30.119  28.994  1.00  0.00     0.041 A 
ATOM     69  F   UNL A   1      37.090  29.671  26.814  1.00  0.00    -0.206 F 
ATOM     70  C   UNL A   1      36.804  30.058  30.352  1.00  0.00     0.022 A 
BRANCH  67  71
ATOM     71  S   UNL A   1      38.382  29.356  32.530  1.00  0.00     0.124 S 
ATOM     72  O   UNL A   1      37.430  28.290  32.827  1.00  0.00    -0.237 OA
ATOM     73  O   UNL A   1      39.791  28.979  32.522  1.00  0.00    -0.237 OA
ATOM     74  O   UNL A   1      38.085  30.649  33.140  1.00  0.00    -0.744 OA
ENDBRANCH  67  71
ENDBRANCH  50  64
BRANCH  51  75
ATOM     75  C   UNL A   1      44.943  26.529  33.583  1.00  0.00     0.023 A 
ATOM     76  C   UNL A   1      43.912  26.676  34.546  1.00  0.00     0.031 A 
ATOM     77  C   UNL A   1      46.121  25.888  34.028  1.00  0.00     0.131 A 
ATOM     78  C   UNL A   1      44.084  26.186  35.867  1.00  0.00     0.055 A 
ATOM     79  C   UNL A   1      46.282  25.402  35.328  1.00  0.00     0.041 A 
ATOM     80  F   UNL A   1      47.135  25.630  33.186  1.00  0.00    -0.206 F 
ATOM     81  C   UNL A   1      45.258  25.536  36.251  1.00  0.00     0.022 A 
BRANCH  78  82
ATOM     82  S   UNL A   1      42.741  26.292  37.102  1.00  0.00     0.124 S 
ATOM     83  O   UNL A   1      42.126  27.575  36.780  1.00  0.00    -0.237 OA
ATOM     84  O   UNL A   1      41.950  25.101  36.815  1.00  0.00    -0.237 OA
ATOM     85  O   UNL A   1      43.451  26.258  38.382  1.00  0.00    -0.744 OA
ENDBRANCH  78  82
ENDBRANCH  51  75
BRANCH  63  86
ATOM     86  C   UNL A   1      45.552  28.946  27.740  1.00  0.00     0.023 A 
ATOM     87  C   UNL A   1      45.998  27.771  27.090  1.00  0.00     0.031 A 
ATOM     88  C   UNL A   1      46.418  30.056  27.738  1.00  0.00     0.131 A 
ATOM     89  C   UNL A   1      47.273  27.740  26.484  1.00  0.00     0.055 A 
ATOM     90  C   UNL A   1      47.664  30.030  27.115  1.00  0.00     0.041 A 
ATOM     91  F   UNL A   1      46.049  31.209  28.320  1.00  0.00    -0.206 F 
ATOM     92  C   UNL A   1      48.100  28.868  26.491  1.00  0.00     0.022 A 
BRANCH  89  93
ATOM     93  S   UNL A   1      47.902  26.221  25.695  1.00  0.00     0.124 S 
ATOM     94  O   UNL A   1      47.279  26.237  24.377  1.00  0.00    -0.237 OA
ATOM     95  O   UNL A   1      49.348  26.424  25.722  1.00  0.00    -0.237 OA
ATOM     96  O   UNL A   1      47.423  25.155  26.579  1.00  0.00    -0.744 OA
ENDBRANCH  89  93
ENDBRANCH  63  86
ENDBRANCH  37  38
ENDBRANCH  29  32
ENDBRANCH  27  28
ENDBRANCH  26  27
ENDBRANCH   1  26
TORSDOF 18
ENDMDL
MODEL 2
REMARK VINA RESULT:     -12.1      2.590      7.114
REMARK SMILES Cn1c(C(=O)N2CCC[C@@H](C(=O)NCCCCCCNC(=O)c3ccc(-c4c5nc(c(-c6cc(S(=O)(=O)[O-])ccc6F)c6ccc([nH]6)c(-c6cc(S(=O)(=O)[O-])ccc6F)c6nc(c(-c7cc(S(=O)(=O)[O-])ccc7F)c7ccc4[nH]7)C=C6)C=C5)cc3)C2)cc2sccc21
REMARK SMILES IDX 17 1 16 2 15 3 14 4 13 5 11 6 12 7 10 9 6 10 7 11 86 12 8 13
REMARK SMILES IDX 9 14 4 15 5 16 3 17 1 18 2 19 92 20 87 21 88 22 91 23 89 24
REMARK SMILES IDX 90 25 18 26 19 27 20 28 21 29 22 31 23 32 24 33 85 34 25 35
REMARK SMILES IDX 84 36 26 37 27 38 28 39 78 40 29 41 83 42 77 43 79 44 30 45
REMARK SMILES IDX 82 46 76 47 75 48 31 50 63 51 43 52 62 53 44 54 47 55 61 56
REMARK SMILES IDX 80 57 45 58 46 59 60 61 81 62 48 63 32 64 33 65 41 66 34 67
REMARK SMILES IDX 40 68 42 69 39 70 35 71 36 72 37 73 38 74 64 75 65 76 73 77
REMARK SMILES IDX 66 78 72 79 74 80 71 81 67 82 68 83 69 84 70 85 49 86 50 87
REMARK SMILES IDX 58 88 51 89 57 90 59 91 56 92 52 93 53 94 54 95 55 96
REMARK H PARENT 13 8 20 30 79 49 47 60
REMARK Flexibility Score: inf
ROOT
ATOM      1  C   UNL A   1      41.160  20.539  26.766  1.00  0.00     0.002 C 
ENDROOT
BRANCH   1   2
ATOM      2  C   UNL A   1      40.701  21.835  26.076  1.00  0.00     0.002 C 
BRANCH   2   3
ATOM      3  C   UNL A   1      39.267  22.278  26.399  1.00  0.00     0.021 C 
BRANCH   3   4
ATOM      4  C   UNL A   1      38.206  21.485  25.631  1.00  0.00     0.116 C 
BRANCH   4   5
ATOM      5  N   UNL A   1      37.746  22.232  24.484  1.00  0.00    -0.356 N 
ATOM      6  C   UNL A   1      36.504  22.535  24.033  1.00  0.00     0.224 C 
ATOM      7  O   UNL A   1      36.464  23.144  22.958  1.00  0.00    -0.275 OA
ATOM      8  H   UNL A   1      38.472  22.590  23.923  1.00  0.00     0.163 HD
BRANCH   6   9
ATOM      9  C   UNL A   1      35.225  22.268  24.839  1.00  0.00     0.098 C 
ATOM     10  N   UNL A   1      32.850  23.059  24.940  1.00  0.00    -0.337 N 
ATOM     11  C   UNL A   1      32.314  21.716  24.887  1.00  0.00     0.120 C 
ATOM     12  C   UNL A   1      34.159  23.277  24.330  1.00  0.00     0.133 C 
ATOM     13  C   UNL A   1      33.296  20.739  25.490  1.00  0.00     0.022 C 
ATOM     14  C   UNL A   1      34.649  20.841  24.786  1.00  0.00     0.017 C 
BRANCH  10  15
ATOM     15  C   UNL A   1      32.198  24.003  25.718  1.00  0.00     0.270 C 
ATOM     16  O   UNL A   1      31.866  23.733  26.870  1.00  0.00    -0.267 OA
BRANCH  15  17
ATOM     17  C   UNL A   1      31.789  25.231  25.036  1.00  0.00     0.108 A 
ATOM     18  C   UNL A   1      33.542  26.801  26.019  1.00  0.00     0.150 C 
ATOM     19  N   UNL A   1      32.390  26.466  25.216  1.00  0.00    -0.339 N 
ATOM     20  C   UNL A   1      31.629  27.431  24.590  1.00  0.00     0.059 A 
ATOM     21  C   UNL A   1      30.677  25.428  24.222  1.00  0.00     0.053 A 
ATOM     22  C   UNL A   1      30.590  26.819  23.964  1.00  0.00     0.053 A 
ATOM     23  C   UNL A   1      31.623  28.848  24.447  1.00  0.00     0.038 A 
ATOM     24  S   UNL A   1      29.553  27.937  23.146  1.00  0.00    -0.142 S 
ATOM     25  C   UNL A   1      30.536  29.238  23.694  1.00  0.00     0.068 A 
ENDBRANCH  15  17
ENDBRANCH  10  15
ENDBRANCH   6   9
ENDBRANCH   4   5
ENDBRANCH   3   4
ENDBRANCH   2   3
ENDBRANCH   1   2
BRANCH   1  26
ATOM     26  C   UNL A   1      41.780  19.474  25.849  1.00  0.00     0.021 C 
BRANCH  26  27
ATOM     27  C   UNL A   1      43.230  19.163  26.185  1.00  0.00     0.116 C 
BRANCH  27  28
ATOM     28  N   UNL A   1      44.074  19.174  24.993  1.00  0.00    -0.352 N 
ATOM     29  C   UNL A   1      44.498  20.258  24.248  1.00  0.00     0.251 C 
ATOM     30  H   UNL A   1      44.382  18.294  24.680  1.00  0.00     0.163 HD
ATOM     31  O   UNL A   1      44.841  20.109  23.087  1.00  0.00    -0.269 OA
BRANCH  29  32
ATOM     32  C   UNL A   1      44.528  21.588  24.887  1.00  0.00     0.039 A 
ATOM     33  C   UNL A   1      43.713  22.628  24.434  1.00  0.00     0.014 A 
ATOM     34  C   UNL A   1      45.388  21.782  25.967  1.00  0.00     0.014 A 
ATOM     35  C   UNL A   1      43.722  23.834  25.131  1.00  0.00     0.010 A 
ATOM     36  C   UNL A   1      45.279  22.907  26.744  1.00  0.00     0.010 A 
ATOM     37  C   UNL A   1      44.491  23.959  26.303  1.00  0.00    -0.014 A 
BRANCH  37  38
ATOM     38  C   UNL A   1      44.353  25.123  27.174  1.00  0.00     0.031 A 
ATOM     39  C   UNL A   1      45.478  26.081  27.046  1.00  0.00     0.074 A 
ATOM     40  C   UNL A   1      43.240  25.422  27.883  1.00  0.00     0.049 A 
ATOM     41  N   UNL A   1      46.456  26.228  27.875  1.00  0.00    -0.248 NA
ATOM     42  C   UNL A   1      45.669  26.799  25.775  1.00  0.00     0.031 C 
ATOM     43  C   UNL A   1      41.957  24.712  27.906  1.00  0.00     0.029 A 
ATOM     44  N   UNL A   1      42.990  26.499  28.679  1.00  0.00    -0.354 N 
ATOM     45  C   UNL A   1      47.215  27.275  27.376  1.00  0.00     0.074 A 
ATOM     46  C   UNL A   1      46.843  27.401  25.993  1.00  0.00     0.031 C 
ATOM     47  C   UNL A   1      41.014  25.491  28.482  1.00  0.00     0.029 A 
ATOM     48  C   UNL A   1      41.647  26.688  29.009  1.00  0.00     0.049 A 
ATOM     49  H   UNL A   1      43.704  27.099  28.998  1.00  0.00     0.167 HD
ATOM     50  C   UNL A   1      47.849  28.127  28.229  1.00  0.00     0.034 A 
ATOM     51  C   UNL A   1      41.093  27.750  29.663  1.00  0.00     0.034 A 
ATOM     52  C   UNL A   1      47.897  27.571  29.568  1.00  0.00     0.049 A 
ATOM     53  C   UNL A   1      42.186  28.356  30.466  1.00  0.00     0.074 A 
ATOM     54  C   UNL A   1      48.356  26.381  30.104  1.00  0.00     0.029 A 
ATOM     55  N   UNL A   1      47.032  28.085  30.513  1.00  0.00    -0.354 N 
ATOM     56  N   UNL A   1      42.770  27.730  31.452  1.00  0.00    -0.248 NA
ATOM     57  C   UNL A   1      42.975  29.413  29.851  1.00  0.00     0.031 C 
ATOM     58  C   UNL A   1      47.359  26.000  31.053  1.00  0.00     0.029 A 
ATOM     59  C   UNL A   1      46.415  27.025  31.133  1.00  0.00     0.049 A 
ATOM     60  H   UNL A   1      46.884  29.039  30.708  1.00  0.00     0.167 HD
ATOM     61  C   UNL A   1      44.123  27.976  31.277  1.00  0.00     0.074 A 
ATOM     62  C   UNL A   1      44.181  29.093  30.331  1.00  0.00     0.031 C 
ATOM     63  C   UNL A   1      45.068  27.072  31.674  1.00  0.00     0.034 A 
BRANCH  50  64
ATOM     64  C   UNL A   1      48.049  29.606  27.977  1.00  0.00     0.023 A 
ATOM     65  C   UNL A   1      46.886  30.386  27.836  1.00  0.00     0.031 A 
ATOM     66  C   UNL A   1      49.255  30.222  27.571  1.00  0.00     0.131 A 
ATOM     67  C   UNL A   1      46.931  31.639  27.204  1.00  0.00     0.055 A 
ATOM     68  C   UNL A   1      49.303  31.500  27.010  1.00  0.00     0.041 A 
ATOM     69  F   UNL A   1      50.438  29.600  27.600  1.00  0.00    -0.206 F 
ATOM     70  C   UNL A   1      48.133  32.202  26.788  1.00  0.00     0.022 A 
BRANCH  67  71
ATOM     71  S   UNL A   1      45.362  32.423  26.761  1.00  0.00     0.124 S 
ATOM     72  O   UNL A   1      45.229  32.033  25.361  1.00  0.00    -0.237 OA
ATOM     73  O   UNL A   1      44.437  31.793  27.697  1.00  0.00    -0.237 OA
ATOM     74  O   UNL A   1      45.616  33.842  26.995  1.00  0.00    -0.744 OA
ENDBRANCH  67  71
ENDBRANCH  50  64
BRANCH  51  75
ATOM     75  C   UNL A   1      39.804  28.451  29.358  1.00  0.00     0.023 A 
ATOM     76  C   UNL A   1      38.954  28.982  30.361  1.00  0.00     0.031 A 
ATOM     77  C   UNL A   1      39.518  28.842  28.031  1.00  0.00     0.131 A 
ATOM     78  C   UNL A   1      37.896  29.863  30.017  1.00  0.00     0.055 A 
ATOM     79  C   UNL A   1      38.478  29.715  27.699  1.00  0.00     0.041 A 
ATOM     80  F   UNL A   1      40.297  28.459  27.007  1.00  0.00    -0.206 F 
ATOM     81  C   UNL A   1      37.670  30.241  28.693  1.00  0.00     0.022 A 
BRANCH  78  82
ATOM     82  S   UNL A   1      36.838  30.623  31.299  1.00  0.00     0.124 S 
ATOM     83  O   UNL A   1      35.780  31.236  30.504  1.00  0.00    -0.237 OA
ATOM     84  O   UNL A   1      36.456  29.477  32.117  1.00  0.00    -0.237 OA
ATOM     85  O   UNL A   1      37.734  31.573  31.962  1.00  0.00    -0.744 OA
ENDBRANCH  78  82
ENDBRANCH  51  75
BRANCH  63  86
ATOM     86  C   UNL A   1      44.657  25.939  32.597  1.00  0.00     0.023 A 
ATOM     87  C   UNL A   1      44.390  26.056  33.982  1.00  0.00     0.031 A 
ATOM     88  C   UNL A   1      44.419  24.689  31.995  1.00  0.00     0.131 A 
ATOM     89  C   UNL A   1      43.917  24.940  34.706  1.00  0.00     0.055 A 
ATOM     90  C   UNL A   1      43.927  23.598  32.709  1.00  0.00     0.041 A 
ATOM     91  F   UNL A   1      44.633  24.515  30.681  1.00  0.00    -0.206 F 
ATOM     92  C   UNL A   1      43.680  23.717  34.070  1.00  0.00     0.022 A 
BRANCH  89  93
ATOM     93  S   UNL A   1      43.625  25.042  36.504  1.00  0.00     0.124 S 
ATOM     94  O   UNL A   1      44.683  24.214  37.070  1.00  0.00    -0.237 OA
ATOM     95  O   UNL A   1      43.728  26.476  36.762  1.00  0.00    -0.237 OA
ATOM     96  O   UNL A   1      42.275  24.494  36.661  1.00  0.00    -0.744 OA
ENDBRANCH  89  93
ENDBRANCH  63  86
ENDBRANCH  37  38
ENDBRANCH  29  32
ENDBRANCH  27  28
ENDBRANCH  26  27
ENDBRANCH   1  26
TORSDOF 18
ENDMDL
MODEL 3
REMARK VINA RESULT:     -11.9      3.282      8.139
REMARK SMILES Cn1c(C(=O)N2CCC[C@@H](C(=O)NCCCCCCNC(=O)c3ccc(-c4c5nc(c(-c6cc(S(=O)(=O)[O-])ccc6F)c6ccc([nH]6)c(-c6cc(S(=O)(=O)[O-])ccc6F)c6nc(c(-c7cc(S(=O)(=O)[O-])ccc7F)c7ccc4[nH]7)C=C6)C=C5)cc3)C2)cc2sccc21
REMARK SMILES IDX 17 1 16 2 15 3 14 4 13 5 11 6 12 7 10 9 6 10 7 11 86 12 8 13
REMARK SMILES IDX 9 14 4 15 5 16 3 17 1 18 2 19 92 20 87 21 88 22 91 23 89 24
REMARK SMILES IDX 90 25 18 26 19 27 20 28 21 29 22 31 23 32 24 33 85 34 25 35
REMARK SMILES IDX 84 36 26 37 27 38 28 39 78 40 29 41 83 42 77 43 79 44 30 45
REMARK SMILES IDX 82 46 76 47 75 48 31 50 63 51 43 52 62 53 44 54 47 55 61 56
REMARK SMILES IDX 80 57 45 58 46 59 60 61 81 62 48 63 32 64 33 65 41 66 34 67
REMARK SMILES IDX 40 68 42 69 39 70 35 71 36 72 37 73 38 74 64 75 65 76 73 77
REMARK SMILES IDX 66 78 72 79 74 80 71 81 67 82 68 83 69 84 70 85 49 86 50 87
REMARK SMILES IDX 58 88 51 89 57 90 59 91 56 92 52 93 53 94 54 95 55 96
REMARK H PARENT 13 8 20 30 79 49 47 60
REMARK Flexibility Score: inf
ROOT
ATOM      1  C   UNL A   1      31.950  30.244  26.111  1.00  0.00     0.002 C 
ENDROOT
BRANCH   1   2
ATOM      2  C   UNL A   1      31.456  29.005  25.345  1.00  0.00     0.002 C 
BRANCH   2   3
ATOM      3  C   UNL A   1      31.398  29.158  23.818  1.00  0.00     0.021 C 
BRANCH   3   4
ATOM      4  C   UNL A   1      32.553  28.456  23.099  1.00  0.00     0.116 C 
BRANCH   4   5
ATOM      5  N   UNL A   1      32.059  27.669  21.993  1.00  0.00    -0.356 N 
ATOM      6  C   UNL A   1      31.788  26.347  21.866  1.00  0.00     0.224 C 
ATOM      7  O   UNL A   1      31.439  25.983  20.737  1.00  0.00    -0.275 OA
ATOM      8  H   UNL A   1      31.886  28.192  21.177  1.00  0.00     0.163 HD
BRANCH   6   9
ATOM      9  C   UNL A   1      31.782  25.369  23.049  1.00  0.00     0.098 C 
ATOM     10  N   UNL A   1      33.301  24.619  24.895  1.00  0.00    -0.337 N 
ATOM     11  C   UNL A   1      32.301  24.838  25.918  1.00  0.00     0.120 C 
ATOM     12  C   UNL A   1      33.200  25.426  23.682  1.00  0.00     0.133 C 
ATOM     13  C   UNL A   1      30.917  24.667  25.339  1.00  0.00     0.022 C 
ATOM     14  C   UNL A   1      30.722  25.597  24.141  1.00  0.00     0.017 C 
BRANCH  10  15
ATOM     15  C   UNL A   1      34.166  23.544  25.033  1.00  0.00     0.270 C 
ATOM     16  O   UNL A   1      35.376  23.732  25.133  1.00  0.00    -0.267 OA
BRANCH  15  17
ATOM     17  C   UNL A   1      33.573  22.216  24.876  1.00  0.00     0.108 A 
ATOM     18  C   UNL A   1      33.800  21.422  27.289  1.00  0.00     0.150 C 
ATOM     19  N   UNL A   1      33.454  21.284  25.895  1.00  0.00    -0.339 N 
ATOM     20  C   UNL A   1      33.051  20.080  25.356  1.00  0.00     0.059 A 
ATOM     21  C   UNL A   1      33.167  21.594  23.698  1.00  0.00     0.053 A 
ATOM     22  C   UNL A   1      32.854  20.249  24.023  1.00  0.00     0.053 A 
ATOM     23  C   UNL A   1      32.818  18.746  25.799  1.00  0.00     0.038 A 
ATOM     24  S   UNL A   1      32.352  18.794  23.233  1.00  0.00    -0.142 S 
ATOM     25  C   UNL A   1      32.446  17.957  24.731  1.00  0.00     0.068 A 
ENDBRANCH  15  17
ENDBRANCH  10  15
ENDBRANCH   6   9
ENDBRANCH   4   5
ENDBRANCH   3   4
ENDBRANCH   2   3
ENDBRANCH   1   2
BRANCH   1  26
ATOM     26  C   UNL A   1      32.893  29.971  27.293  1.00  0.00     0.021 C 
BRANCH  26  27
ATOM     27  C   UNL A   1      34.134  30.849  27.287  1.00  0.00     0.116 C 
BRANCH  27  28
ATOM     28  N   UNL A   1      34.147  31.772  28.420  1.00  0.00    -0.352 N 
ATOM     29  C   UNL A   1      34.988  31.777  29.515  1.00  0.00     0.251 C 
ATOM     30  H   UNL A   1      33.467  32.483  28.399  1.00  0.00     0.163 HD
ATOM     31  O   UNL A   1      34.645  32.323  30.551  1.00  0.00    -0.269 OA
BRANCH  29  32
ATOM     32  C   UNL A   1      36.303  31.115  29.403  1.00  0.00     0.039 A 
ATOM     33  C   UNL A   1      37.490  31.841  29.511  1.00  0.00     0.014 A 
ATOM     34  C   UNL A   1      36.330  29.737  29.195  1.00  0.00     0.014 A 
ATOM     35  C   UNL A   1      38.699  31.149  29.484  1.00  0.00     0.010 A 
ATOM     36  C   UNL A   1      37.506  29.043  29.328  1.00  0.00     0.010 A 
ATOM     37  C   UNL A   1      38.699  29.743  29.416  1.00  0.00    -0.014 A 
BRANCH  37  38
ATOM     38  C   UNL A   1      39.929  28.979  29.608  1.00  0.00     0.031 A 
ATOM     39  C   UNL A   1      40.243  28.732  31.036  1.00  0.00     0.074 A 
ATOM     40  C   UNL A   1      40.622  28.380  28.612  1.00  0.00     0.049 A 
ATOM     41  N   UNL A   1      41.131  29.347  31.742  1.00  0.00    -0.248 NA
ATOM     42  C   UNL A   1      39.346  27.877  31.831  1.00  0.00     0.031 C 
ATOM     43  C   UNL A   1      40.293  28.316  27.185  1.00  0.00     0.029 A 
ATOM     44  N   UNL A   1      41.742  27.608  28.687  1.00  0.00    -0.354 N 
ATOM     45  C   UNL A   1      41.110  28.734  32.986  1.00  0.00     0.074 A 
ATOM     46  C   UNL A   1      39.851  28.044  33.058  1.00  0.00     0.031 C 
ATOM     47  C   UNL A   1      41.052  27.372  26.583  1.00  0.00     0.029 A 
ATOM     48  C   UNL A   1      42.028  26.871  27.537  1.00  0.00     0.049 A 
ATOM     49  H   UNL A   1      42.308  27.574  29.492  1.00  0.00     0.167 HD
ATOM     50  C   UNL A   1      42.259  28.609  33.706  1.00  0.00     0.034 A 
ATOM     51  C   UNL A   1      42.990  25.917  27.377  1.00  0.00     0.034 A 
ATOM     52  C   UNL A   1      43.295  29.473  33.173  1.00  0.00     0.049 A 
ATOM     53  C   UNL A   1      44.032  26.210  28.394  1.00  0.00     0.074 A 
ATOM     54  C   UNL A   1      43.380  30.828  32.905  1.00  0.00     0.029 A 
ATOM     55  N   UNL A   1      44.302  28.892  32.430  1.00  0.00    -0.354 N 
ATOM     56  N   UNL A   1      44.753  27.299  28.376  1.00  0.00    -0.248 NA
ATOM     57  C   UNL A   1      43.910  25.571  29.696  1.00  0.00     0.031 C 
ATOM     58  C   UNL A   1      44.049  30.909  31.646  1.00  0.00     0.029 A 
ATOM     59  C   UNL A   1      44.441  29.622  31.274  1.00  0.00     0.049 A 
ATOM     60  H   UNL A   1      44.828  28.099  32.683  1.00  0.00     0.167 HD
ATOM     61  C   UNL A   1      44.773  27.732  29.693  1.00  0.00     0.074 A 
ATOM     62  C   UNL A   1      44.317  26.580  30.474  1.00  0.00     0.031 C 
ATOM     63  C   UNL A   1      44.869  29.060  30.005  1.00  0.00     0.034 A 
BRANCH  50  64
ATOM     64  C   UNL A   1      42.589  27.435  34.602  1.00  0.00     0.023 A 
ATOM     65  C   UNL A   1      43.437  26.449  34.066  1.00  0.00     0.031 A 
ATOM     66  C   UNL A   1      41.904  27.078  35.786  1.00  0.00     0.131 A 
ATOM     67  C   UNL A   1      43.477  25.156  34.613  1.00  0.00     0.055 A 
ATOM     68  C   UNL A   1      42.005  25.813  36.370  1.00  0.00     0.041 A 
ATOM     69  F   UNL A   1      41.029  27.885  36.395  1.00  0.00    -0.206 F 
ATOM     70  C   UNL A   1      42.765  24.830  35.762  1.00  0.00     0.022 A 
BRANCH  67  71
ATOM     71  S   UNL A   1      44.324  23.863  33.674  1.00  0.00     0.124 S 
ATOM     72  O   UNL A   1      45.624  24.482  33.438  1.00  0.00    -0.237 OA
ATOM     73  O   UNL A   1      44.303  22.748  34.615  1.00  0.00    -0.237 OA
ATOM     74  O   UNL A   1      43.484  23.698  32.491  1.00  0.00    -0.744 OA
ENDBRANCH  67  71
ENDBRANCH  50  64
BRANCH  51  75
ATOM     75  C   UNL A   1      42.882  24.608  26.656  1.00  0.00     0.023 A 
ATOM     76  C   UNL A   1      43.921  24.078  25.850  1.00  0.00     0.031 A 
ATOM     77  C   UNL A   1      41.827  23.723  26.971  1.00  0.00     0.131 A 
ATOM     78  C   UNL A   1      43.878  22.728  25.414  1.00  0.00     0.055 A 
ATOM     79  C   UNL A   1      41.793  22.392  26.544  1.00  0.00     0.041 A 
ATOM     80  F   UNL A   1      40.824  24.091  27.785  1.00  0.00    -0.206 F 
ATOM     81  C   UNL A   1      42.826  21.884  25.774  1.00  0.00     0.022 A 
BRANCH  78  82
ATOM     82  S   UNL A   1      45.244  22.000  24.443  1.00  0.00     0.124 S 
ATOM     83  O   UNL A   1      44.614  20.820  23.860  1.00  0.00    -0.237 OA
ATOM     84  O   UNL A   1      45.587  23.076  23.521  1.00  0.00    -0.237 OA
ATOM     85  O   UNL A   1      46.266  21.713  25.452  1.00  0.00    -0.744 OA
ENDBRANCH  78  82
ENDBRANCH  51  75
BRANCH  63  86
ATOM     86  C   UNL A   1      45.274  30.041  28.919  1.00  0.00     0.023 A 
ATOM     87  C   UNL A   1      46.601  30.396  28.580  1.00  0.00     0.031 A 
ATOM     88  C   UNL A   1      44.240  30.554  28.114  1.00  0.00     0.131 A 
ATOM     89  C   UNL A   1      46.845  31.246  27.480  1.00  0.00     0.055 A 
ATOM     90  C   UNL A   1      44.487  31.372  27.013  1.00  0.00     0.041 A 
ATOM     91  F   UNL A   1      42.960  30.240  28.368  1.00  0.00    -0.206 F 
ATOM     92  C   UNL A   1      45.791  31.726  26.695  1.00  0.00     0.022 A 
BRANCH  89  93
ATOM     93  S   UNL A   1      48.539  31.774  27.057  1.00  0.00     0.124 S 
ATOM     94  O   UNL A   1      49.143  30.571  26.497  1.00  0.00    -0.237 OA
ATOM     95  O   UNL A   1      48.305  32.869  26.118  1.00  0.00    -0.237 OA
ATOM     96  O   UNL A   1      49.097  32.191  28.346  1.00  0.00    -0.744 OA
ENDBRANCH  89  93
ENDBRANCH  63  86
ENDBRANCH  37  38
ENDBRANCH  29  32
ENDBRANCH  27  28
ENDBRANCH  26  27
ENDBRANCH   1  26
TORSDOF 18
ENDMDL
