MODEL 1
REMARK VINA RESULT:     -10.8      0.000      0.000
REMARK SMILES CCC[C@@H]1SC[C@H](C(=O)NCCCCCCNC(=O)c2ccc(-c3c4nc(c(-c5cc(S(=O)(=O)[O-])ccc5F)c5ccc([nH]5)c(-c5cc(S(=O)(=O)[O-])ccc5F)c5nc(c(-c6cc(S(=O)(=O)[O-])ccc6F)c6ccc3[nH]6)C=C5)C=C4)cc2)N1C(=O)C[NH+]1CCC([NH3+])CC1
REMARK SMILES IDX 13 1 12 2 11 3 10 4 8 5 9 6 7 8 4 9 5 10 83 11 6 12 3 13
REMARK SMILES IDX 2 14 1 15 84 16 85 17 86 18 87 19 88 20 93 21 89 23 92 24
REMARK SMILES IDX 90 25 91 26 14 30 15 31 16 32 17 33 18 34 19 36 20 37 21 38
REMARK SMILES IDX 82 39 22 40 81 41 23 42 24 43 25 44 75 45 26 46 80 47 74 48
REMARK SMILES IDX 76 49 27 50 79 51 73 52 72 53 28 55 60 56 40 57 59 58 41 59
REMARK SMILES IDX 44 60 58 61 77 62 42 63 43 64 57 66 78 67 45 68 29 69 30 70
REMARK SMILES IDX 38 71 31 72 37 73 39 74 36 75 32 76 33 77 34 78 35 79 61 80
REMARK SMILES IDX 62 81 70 82 63 83 69 84 71 85 68 86 64 87 65 88 66 89 67 90
REMARK SMILES IDX 46 91 47 92 55 93 48 94 54 95 56 96 53 97 49 98 50 99 51 100
REMARK SMILES IDX 52 101
REMARK H PARENT 10 7 87 22 91 27 91 28 91 29 17 35 76 54 44 65
REMARK Flexibility Score: inf
ROOT
ATOM      1  C   UNL A   1      34.996  29.230  27.287  1.00  0.00     0.002 C 
ENDROOT
BRANCH   1   2
ATOM      2  C   UNL A   1      33.849  28.811  26.368  1.00  0.00     0.021 C 
BRANCH   2   3
ATOM      3  C   UNL A   1      34.020  27.432  25.756  1.00  0.00     0.116 C 
BRANCH   3   4
ATOM      4  N   UNL A   1      33.410  27.277  24.436  1.00  0.00    -0.354 N 
ATOM      5  C   UNL A   1      32.732  26.183  23.930  1.00  0.00     0.243 C 
ATOM      6  O   UNL A   1      32.100  26.295  22.885  1.00  0.00    -0.273 OA
ATOM      7  H   UNL A   1      33.492  28.050  23.832  1.00  0.00     0.163 HD
BRANCH   5   8
ATOM      8  C   UNL A   1      32.784  24.910  24.777  1.00  0.00     0.185 C 
ATOM      9  C   UNL A   1      32.307  22.648  25.257  1.00  0.00     0.144 C 
ATOM     10  S   UNL A   1      30.697  23.454  25.644  1.00  0.00    -0.134 SA
ATOM     11  N   UNL A   1      32.767  23.533  24.220  1.00  0.00    -0.313 N 
ATOM     12  C   UNL A   1      31.550  25.022  25.735  1.00  0.00     0.107 C 
BRANCH   9  13
ATOM     13  C   UNL A   1      32.146  21.061  25.133  1.00  0.00     0.036 C 
BRANCH  13  14
ATOM     14  C   UNL A   1      32.602  19.493  23.791  1.00  0.00    -0.000 C 
ATOM     15  C   UNL A   1      33.379  18.042  23.763  1.00  0.00     0.004 C 
ENDBRANCH  13  14
ENDBRANCH   9  13
BRANCH  11  16
ATOM     16  C   UNL A   1      33.554  23.123  23.160  1.00  0.00     0.279 C 
ATOM     17  O   UNL A   1      33.065  22.838  22.065  1.00  0.00    -0.268 OA
BRANCH  16  18
ATOM     18  C   UNL A   1      35.076  22.984  23.413  1.00  0.00     0.363 C 
BRANCH  18  19
ATOM     19  N   UNL A   1      35.460  22.566  24.797  1.00  0.00    -0.327 N 
ATOM     20  C   UNL A   1      36.339  20.962  24.770  1.00  0.00     0.268 C 
ATOM     21  C   UNL A   1      36.161  23.990  25.775  1.00  0.00     0.268 C 
ATOM     22  H   UNL A   1      34.642  22.340  25.363  1.00  0.00     0.348 HD
ATOM     23  C   UNL A   1      38.133  20.754  25.429  1.00  0.00     0.126 C 
ATOM     24  C   UNL A   1      37.997  23.909  26.519  1.00  0.00     0.126 C 
ATOM     25  C   UNL A   1      39.008  22.228  26.318  1.00  0.00     0.192 C 
BRANCH  25  26
ATOM     26  N   UNL A   1      40.370  22.381  25.735  1.00  0.00    -0.355 N 
ATOM     27  H   UNL A   1      40.308  22.889  24.853  1.00  0.00     0.344 HD
ATOM     28  H   UNL A   1      40.774  21.459  25.570  1.00  0.00     0.344 HD
ATOM     29  H   UNL A   1      40.961  22.900  26.385  1.00  0.00     0.344 HD
ENDBRANCH  25  26
ENDBRANCH  18  19
ENDBRANCH  16  18
ENDBRANCH  11  16
ENDBRANCH   5   8
ENDBRANCH   3   4
ENDBRANCH   2   3
ENDBRANCH   1   2
BRANCH   1  30
ATOM     30  C   UNL A   1      34.832  30.594  27.967  1.00  0.00     0.002 C 
BRANCH  30  31
ATOM     31  C   UNL A   1      34.065  31.643  27.159  1.00  0.00     0.021 C 
BRANCH  31  32
ATOM     32  C   UNL A   1      32.770  32.122  27.803  1.00  0.00     0.116 C 
BRANCH  32  33
ATOM     33  N   UNL A   1      32.698  33.572  27.885  1.00  0.00    -0.352 N 
ATOM     34  C   UNL A   1      33.440  34.433  28.648  1.00  0.00     0.251 C 
ATOM     35  H   UNL A   1      32.019  33.995  27.310  1.00  0.00     0.163 HD
ATOM     36  O   UNL A   1      33.124  35.620  28.718  1.00  0.00    -0.269 OA
BRANCH  34  37
ATOM     37  C   UNL A   1      34.595  33.914  29.403  1.00  0.00     0.039 A 
ATOM     38  C   UNL A   1      34.363  33.092  30.507  1.00  0.00     0.014 A 
ATOM     39  C   UNL A   1      35.901  34.210  29.000  1.00  0.00     0.014 A 
ATOM     40  C   UNL A   1      35.445  32.519  31.173  1.00  0.00     0.010 A 
ATOM     41  C   UNL A   1      36.972  33.571  29.613  1.00  0.00     0.010 A 
ATOM     42  C   UNL A   1      36.756  32.722  30.708  1.00  0.00    -0.014 A 
BRANCH  42  43
ATOM     43  C   UNL A   1      37.909  32.053  31.363  1.00  0.00     0.031 A 
ATOM     44  C   UNL A   1      38.374  32.507  32.717  1.00  0.00     0.074 A 
ATOM     45  C   UNL A   1      38.560  31.067  30.713  1.00  0.00     0.049 A 
ATOM     46  N   UNL A   1      39.385  32.083  33.430  1.00  0.00    -0.248 NA
ATOM     47  C   UNL A   1      37.618  33.604  33.342  1.00  0.00     0.031 C 
ATOM     48  C   UNL A   1      38.220  30.568  29.378  1.00  0.00     0.029 A 
ATOM     49  N   UNL A   1      39.641  30.309  31.082  1.00  0.00    -0.354 N 
ATOM     50  C   UNL A   1      39.390  32.861  34.582  1.00  0.00     0.074 A 
ATOM     51  C   UNL A   1      38.325  33.829  34.439  1.00  0.00     0.031 C 
ATOM     52  C   UNL A   1      39.053  29.565  29.058  1.00  0.00     0.029 A 
ATOM     53  C   UNL A   1      40.019  29.385  30.136  1.00  0.00     0.049 A 
ATOM     54  H   UNL A   1      40.103  30.415  31.946  1.00  0.00     0.167 HD
ATOM     55  C   UNL A   1      40.194  32.758  35.670  1.00  0.00     0.034 A 
ATOM     56  C   UNL A   1      41.037  28.501  30.132  1.00  0.00     0.034 A 
ATOM     57  C   UNL A   1      41.249  31.783  35.793  1.00  0.00     0.049 A 
ATOM     58  C   UNL A   1      41.946  28.437  31.333  1.00  0.00     0.074 A 
ATOM     59  C   UNL A   1      42.092  31.559  36.868  1.00  0.00     0.029 A 
ATOM     60  N   UNL A   1      41.616  30.875  34.808  1.00  0.00    -0.354 N 
ATOM     61  N   UNL A   1      41.906  29.146  32.438  1.00  0.00    -0.248 NA
ATOM     62  C   UNL A   1      43.030  27.448  31.293  1.00  0.00     0.031 C 
ATOM     63  C   UNL A   1      43.019  30.578  36.501  1.00  0.00     0.029 A 
ATOM     64  C   UNL A   1      42.698  30.118  35.234  1.00  0.00     0.049 A 
ATOM     65  H   UNL A   1      41.173  30.782  33.933  1.00  0.00     0.167 HD
ATOM     66  C   UNL A   1      42.939  28.662  33.238  1.00  0.00     0.074 A 
ATOM     67  C   UNL A   1      43.570  27.592  32.493  1.00  0.00     0.031 C 
ATOM     68  C   UNL A   1      43.326  29.061  34.477  1.00  0.00     0.034 A 
BRANCH  55  69
ATOM     69  C   UNL A   1      39.976  33.746  36.792  1.00  0.00     0.023 A 
ATOM     70  C   UNL A   1      39.438  33.354  38.030  1.00  0.00     0.031 A 
ATOM     71  C   UNL A   1      40.290  35.106  36.615  1.00  0.00     0.131 A 
ATOM     72  C   UNL A   1      39.159  34.317  39.011  1.00  0.00     0.055 A 
ATOM     73  C   UNL A   1      40.093  36.046  37.628  1.00  0.00     0.041 A 
ATOM     74  F   UNL A   1      40.784  35.548  35.447  1.00  0.00    -0.206 F 
ATOM     75  C   UNL A   1      39.510  35.656  38.830  1.00  0.00     0.022 A 
BRANCH  72  76
ATOM     76  S   UNL A   1      38.189  33.820  40.461  1.00  0.00     0.124 S 
ATOM     77  O   UNL A   1      39.091  32.868  41.106  1.00  0.00    -0.237 OA
ATOM     78  O   UNL A   1      37.991  35.086  41.157  1.00  0.00    -0.237 OA
ATOM     79  O   UNL A   1      36.984  33.229  39.882  1.00  0.00    -0.744 OA
ENDBRANCH  72  76
ENDBRANCH  55  69
BRANCH  56  80
ATOM     80  C   UNL A   1      41.267  27.616  28.952  1.00  0.00     0.023 A 
ATOM     81  C   UNL A   1      42.243  27.927  27.992  1.00  0.00     0.031 A 
ATOM     82  C   UNL A   1      40.480  26.469  28.743  1.00  0.00     0.131 A 
ATOM     83  C   UNL A   1      42.369  27.134  26.841  1.00  0.00     0.055 A 
ATOM     84  C   UNL A   1      40.653  25.648  27.628  1.00  0.00     0.041 A 
ATOM     85  F   UNL A   1      39.533  26.123  29.630  1.00  0.00    -0.206 F 
ATOM     86  C   UNL A   1      41.592  25.988  26.660  1.00  0.00     0.022 A 
BRANCH  83  87
ATOM     87  S   UNL A   1      43.496  27.682  25.528  1.00  0.00     0.124 S 
ATOM     88  O   UNL A   1      42.562  28.027  24.463  1.00  0.00    -0.237 OA
ATOM     89  O   UNL A   1      44.184  28.798  26.167  1.00  0.00    -0.237 OA
ATOM     90  O   UNL A   1      44.322  26.503  25.278  1.00  0.00    -0.744 OA
ENDBRANCH  83  87
ENDBRANCH  56  80
BRANCH  68  91
ATOM     91  C   UNL A   1      44.460  28.299  35.123  1.00  0.00     0.023 A 
ATOM     92  C   UNL A   1      44.240  27.115  35.848  1.00  0.00     0.031 A 
ATOM     93  C   UNL A   1      45.779  28.774  35.016  1.00  0.00     0.131 A 
ATOM     94  C   UNL A   1      45.316  26.478  36.488  1.00  0.00     0.055 A 
ATOM     95  C   UNL A   1      46.854  28.099  35.596  1.00  0.00     0.041 A 
ATOM     96  F   UNL A   1      46.047  29.904  34.342  1.00  0.00    -0.206 F 
ATOM     97  C   UNL A   1      46.623  26.951  36.349  1.00  0.00     0.022 A 
BRANCH  94  98
ATOM     98  S   UNL A   1      44.968  25.083  37.592  1.00  0.00     0.124 S 
ATOM     99  O   UNL A   1      44.754  25.754  38.870  1.00  0.00    -0.237 OA
ATOM    100  O   UNL A   1      43.786  24.487  36.979  1.00  0.00    -0.237 OA
ATOM    101  O   UNL A   1      46.183  24.272  37.513  1.00  0.00    -0.744 OA
ENDBRANCH  94  98
ENDBRANCH  68  91
ENDBRANCH  42  43
ENDBRANCH  34  37
ENDBRANCH  32  33
ENDBRANCH  31  32
ENDBRANCH  30  31
ENDBRANCH   1  30
TORSDOF 22
ENDMDL
MODEL 2
REMARK VINA RESULT:     -10.8      0.949      7.687
REMARK SMILES CCC[C@@H]1SC[C@H](C(=O)NCCCCCCNC(=O)c2ccc(-c3c4nc(c(-c5cc(S(=O)(=O)[O-])ccc5F)c5ccc([nH]5)c(-c5cc(S(=O)(=O)[O-])ccc5F)c5nc(c(-c6cc(S(=O)(=O)[O-])ccc6F)c6ccc3[nH]6)C=C5)C=C4)cc2)N1C(=O)C[NH+]1CCC([NH3+])CC1
REMARK SMILES IDX 13 1 12 2 11 3 10 4 8 5 9 6 7 8 4 9 5 10 83 11 6 12 3 13
REMARK SMILES IDX 2 14 1 15 84 16 85 17 86 18 87 19 88 20 93 21 89 23 92 24
REMARK SMILES IDX 90 25 91 26 14 30 15 31 16 32 17 33 18 34 19 36 20 37 21 38
REMARK SMILES IDX 82 39 22 40 81 41 23 42 24 43 25 44 75 45 26 46 80 47 74 48
REMARK SMILES IDX 76 49 27 50 79 51 73 52 72 53 28 55 60 56 40 57 59 58 41 59
REMARK SMILES IDX 44 60 58 61 77 62 42 63 43 64 57 66 78 67 45 68 29 69 30 70
REMARK SMILES IDX 38 71 31 72 37 73 39 74 36 75 32 76 33 77 34 78 35 79 61 80
REMARK SMILES IDX 62 81 70 82 63 83 69 84 71 85 68 86 64 87 65 88 66 89 67 90
REMARK SMILES IDX 46 91 47 92 55 93 48 94 54 95 56 96 53 97 49 98 50 99 51 100
REMARK SMILES IDX 52 101
REMARK H PARENT 10 7 87 22 91 27 91 28 91 29 17 35 76 54 44 65
REMARK Flexibility Score: inf
ROOT
ATOM      1  C   UNL A   1      35.035  29.323  27.062  1.00  0.00     0.002 C 
ENDROOT
BRANCH   1   2
ATOM      2  C   UNL A   1      33.760  28.569  26.686  1.00  0.00     0.021 C 
BRANCH   2   3
ATOM      3  C   UNL A   1      33.984  27.104  26.354  1.00  0.00     0.116 C 
BRANCH   3   4
ATOM      4  N   UNL A   1      33.723  26.755  24.958  1.00  0.00    -0.354 N 
ATOM      5  C   UNL A   1      33.287  25.546  24.447  1.00  0.00     0.243 C 
ATOM      6  O   UNL A   1      32.916  25.483  23.279  1.00  0.00    -0.273 OA
ATOM      7  H   UNL A   1      33.877  27.470  24.300  1.00  0.00     0.163 HD
BRANCH   5   8
ATOM      8  C   UNL A   1      33.250  24.374  25.429  1.00  0.00     0.185 C 
ATOM      9  C   UNL A   1      33.185  22.090  26.022  1.00  0.00     0.144 C 
ATOM     10  S   UNL A   1      31.440  22.389  25.516  1.00  0.00    -0.134 SA
ATOM     11  N   UNL A   1      33.842  23.038  25.163  1.00  0.00    -0.313 N 
ATOM     12  C   UNL A   1      31.727  24.142  25.710  1.00  0.00     0.107 C 
BRANCH   9  13
ATOM     13  C   UNL A   1      33.504  20.523  26.108  1.00  0.00     0.036 C 
BRANCH  13  14
ATOM     14  C   UNL A   1      32.820  18.692  25.306  1.00  0.00    -0.000 C 
ATOM     15  C   UNL A   1      33.029  17.737  23.982  1.00  0.00     0.004 C 
ENDBRANCH  13  14
ENDBRANCH   9  13
BRANCH  11  16
ATOM     16  C   UNL A   1      35.110  22.849  24.644  1.00  0.00     0.279 C 
ATOM     17  O   UNL A   1      35.330  22.921  23.434  1.00  0.00    -0.268 OA
BRANCH  16  18
ATOM     18  C   UNL A   1      36.241  22.490  25.641  1.00  0.00     0.363 C 
BRANCH  18  19
ATOM     19  N   UNL A   1      37.574  22.208  25.024  1.00  0.00    -0.327 N 
ATOM     20  C   UNL A   1      38.884  23.197  25.830  1.00  0.00     0.268 C 
ATOM     21  C   UNL A   1      37.830  20.382  24.746  1.00  0.00     0.268 C 
ATOM     22  H   UNL A   1      37.624  22.548  24.063  1.00  0.00     0.348 HD
ATOM     23  C   UNL A   1      40.390  22.395  26.715  1.00  0.00     0.126 C 
ATOM     24  C   UNL A   1      39.346  19.426  25.593  1.00  0.00     0.126 C 
ATOM     25  C   UNL A   1      40.655  20.485  26.621  1.00  0.00     0.192 C 
BRANCH  25  26
ATOM     26  N   UNL A   1      40.926  19.984  27.996  1.00  0.00    -0.355 N 
ATOM     27  H   UNL A   1      41.933  19.939  28.151  1.00  0.00     0.344 HD
ATOM     28  H   UNL A   1      40.523  19.053  28.104  1.00  0.00     0.344 HD
ATOM     29  H   UNL A   1      40.504  20.616  28.678  1.00  0.00     0.344 HD
ENDBRANCH  25  26
ENDBRANCH  18  19
ENDBRANCH  16  18
ENDBRANCH  11  16
ENDBRANCH   5   8
ENDBRANCH   3   4
ENDBRANCH   2   3
ENDBRANCH   1   2
BRANCH   1  30
ATOM     30  C   UNL A   1      34.845  30.496  28.030  1.00  0.00     0.002 C 
BRANCH  30  31
ATOM     31  C   UNL A   1      34.389  31.810  27.391  1.00  0.00     0.021 C 
BRANCH  31  32
ATOM     32  C   UNL A   1      32.938  32.183  27.665  1.00  0.00     0.116 C 
BRANCH  32  33
ATOM     33  N   UNL A   1      32.752  33.620  27.790  1.00  0.00    -0.352 N 
ATOM     34  C   UNL A   1      33.375  34.502  28.630  1.00  0.00     0.251 C 
ATOM     35  H   UNL A   1      32.081  34.013  27.185  1.00  0.00     0.163 HD
ATOM     36  O   UNL A   1      32.966  35.660  28.718  1.00  0.00    -0.269 OA
BRANCH  34  37
ATOM     37  C   UNL A   1      34.514  34.041  29.445  1.00  0.00     0.039 A 
ATOM     38  C   UNL A   1      34.264  33.233  30.555  1.00  0.00     0.014 A 
ATOM     39  C   UNL A   1      35.824  34.376  29.092  1.00  0.00     0.014 A 
ATOM     40  C   UNL A   1      35.335  32.712  31.278  1.00  0.00     0.010 A 
ATOM     41  C   UNL A   1      36.890  33.789  29.764  1.00  0.00     0.010 A 
ATOM     42  C   UNL A   1      36.657  32.954  30.866  1.00  0.00    -0.014 A 
BRANCH  42  43
ATOM     43  C   UNL A   1      37.804  32.340  31.583  1.00  0.00     0.031 A 
ATOM     44  C   UNL A   1      38.589  31.233  30.940  1.00  0.00     0.074 A 
ATOM     45  C   UNL A   1      38.104  32.755  32.830  1.00  0.00     0.049 A 
ATOM     46  N   UNL A   1      39.590  30.542  31.420  1.00  0.00    -0.248 NA
ATOM     47  C   UNL A   1      38.176  30.830  29.586  1.00  0.00     0.031 C 
ATOM     48  C   UNL A   1      37.387  33.798  33.569  1.00  0.00     0.029 A 
ATOM     49  N   UNL A   1      39.087  32.353  33.699  1.00  0.00    -0.354 N 
ATOM     50  C   UNL A   1      39.924  29.621  30.433  1.00  0.00     0.074 A 
ATOM     51  C   UNL A   1      38.973  29.797  29.357  1.00  0.00     0.031 C 
ATOM     52  C   UNL A   1      37.976  33.976  34.762  1.00  0.00     0.029 A 
ATOM     53  C   UNL A   1      39.075  33.026  34.898  1.00  0.00     0.049 A 
ATOM     54  H   UNL A   1      39.740  31.649  33.482  1.00  0.00     0.167 HD
ATOM     55  C   UNL A   1      40.947  28.731  30.417  1.00  0.00     0.034 A 
ATOM     56  C   UNL A   1      39.854  32.885  35.989  1.00  0.00     0.034 A 
ATOM     57  C   UNL A   1      41.887  28.575  31.499  1.00  0.00     0.049 A 
ATOM     58  C   UNL A   1      40.957  31.856  35.965  1.00  0.00     0.074 A 
ATOM     59  C   UNL A   1      42.987  27.738  31.570  1.00  0.00     0.029 A 
ATOM     60  N   UNL A   1      41.834  29.260  32.707  1.00  0.00    -0.354 N 
ATOM     61  N   UNL A   1      41.292  31.028  35.002  1.00  0.00    -0.248 NA
ATOM     62  C   UNL A   1      41.791  31.750  37.167  1.00  0.00     0.031 C 
ATOM     63  C   UNL A   1      43.546  27.855  32.846  1.00  0.00     0.029 A 
ATOM     64  C   UNL A   1      42.857  28.835  33.543  1.00  0.00     0.049 A 
ATOM     65  H   UNL A   1      41.167  29.947  32.937  1.00  0.00     0.167 HD
ATOM     66  C   UNL A   1      42.400  30.327  35.474  1.00  0.00     0.074 A 
ATOM     67  C   UNL A   1      42.682  30.843  36.797  1.00  0.00     0.031 C 
ATOM     68  C   UNL A   1      43.121  29.350  34.865  1.00  0.00     0.034 A 
BRANCH  55  69
ATOM     69  C   UNL A   1      41.077  27.843  29.202  1.00  0.00     0.023 A 
ATOM     70  C   UNL A   1      42.089  28.040  28.245  1.00  0.00     0.031 A 
ATOM     71  C   UNL A   1      40.163  26.796  28.984  1.00  0.00     0.131 A 
ATOM     72  C   UNL A   1      42.116  27.257  27.082  1.00  0.00     0.055 A 
ATOM     73  C   UNL A   1      40.249  25.963  27.867  1.00  0.00     0.041 A 
ATOM     74  F   UNL A   1      39.159  26.572  29.847  1.00  0.00    -0.206 F 
ATOM     75  C   UNL A   1      41.221  26.200  26.899  1.00  0.00     0.022 A 
BRANCH  72  76
ATOM     76  S   UNL A   1      43.237  27.739  25.740  1.00  0.00     0.124 S 
ATOM     77  O   UNL A   1      43.972  26.497  25.510  1.00  0.00    -0.237 OA
ATOM     78  O   UNL A   1      42.313  28.141  24.686  1.00  0.00    -0.237 OA
ATOM     79  O   UNL A   1      44.026  28.821  26.326  1.00  0.00    -0.744 OA
ENDBRANCH  72  76
ENDBRANCH  55  69
BRANCH  56  80
ATOM     80  C   UNL A   1      39.618  33.723  37.202  1.00  0.00     0.023 A 
ATOM     81  C   UNL A   1      38.978  33.194  38.334  1.00  0.00     0.031 A 
ATOM     82  C   UNL A   1      39.987  35.080  37.228  1.00  0.00     0.131 A 
ATOM     83  C   UNL A   1      38.676  34.029  39.421  1.00  0.00     0.055 A 
ATOM     84  C   UNL A   1      39.742  35.890  38.338  1.00  0.00     0.041 A 
ATOM     85  F   UNL A   1      40.603  35.638  36.174  1.00  0.00    -0.206 F 
ATOM     86  C   UNL A   1      39.068  35.369  39.438  1.00  0.00     0.022 A 
BRANCH  83  87
ATOM     87  S   UNL A   1      37.670  33.361  40.775  1.00  0.00     0.124 S 
ATOM     88  O   UNL A   1      38.439  32.183  41.160  1.00  0.00    -0.237 OA
ATOM     89  O   UNL A   1      37.671  34.467  41.726  1.00  0.00    -0.237 OA
ATOM     90  O   UNL A   1      36.384  33.088  40.139  1.00  0.00    -0.744 OA
ENDBRANCH  83  87
ENDBRANCH  56  80
BRANCH  68  91
ATOM     91  C   UNL A   1      44.318  28.812  35.613  1.00  0.00     0.023 A 
ATOM     92  C   UNL A   1      44.211  27.736  36.512  1.00  0.00     0.031 A 
ATOM     93  C   UNL A   1      45.585  29.393  35.427  1.00  0.00     0.131 A 
ATOM     94  C   UNL A   1      45.338  27.314  37.235  1.00  0.00     0.055 A 
ATOM     95  C   UNL A   1      46.716  28.923  36.097  1.00  0.00     0.041 A 
ATOM     96  F   UNL A   1      45.747  30.427  34.587  1.00  0.00    -0.206 F 
ATOM     97  C   UNL A   1      46.593  27.887  37.018  1.00  0.00     0.022 A 
BRANCH  94  98
ATOM     98  S   UNL A   1      45.119  26.076  38.542  1.00  0.00     0.124 S 
ATOM     99  O   UNL A   1      46.493  25.653  38.791  1.00  0.00    -0.237 OA
ATOM    100  O   UNL A   1      44.488  26.851  39.604  1.00  0.00    -0.237 OA
ATOM    101  O   UNL A   1      44.262  25.068  37.918  1.00  0.00    -0.744 OA
ENDBRANCH  94  98
ENDBRANCH  68  91
ENDBRANCH  42  43
ENDBRANCH  34  37
ENDBRANCH  32  33
ENDBRANCH  31  32
ENDBRANCH  30  31
ENDBRANCH   1  30
TORSDOF 22
ENDMDL
MODEL 3
REMARK VINA RESULT:     -10.2      2.498      7.931
REMARK SMILES CCC[C@@H]1SC[C@H](C(=O)NCCCCCCNC(=O)c2ccc(-c3c4nc(c(-c5cc(S(=O)(=O)[O-])ccc5F)c5ccc([nH]5)c(-c5cc(S(=O)(=O)[O-])ccc5F)c5nc(c(-c6cc(S(=O)(=O)[O-])ccc6F)c6ccc3[nH]6)C=C5)C=C4)cc2)N1C(=O)C[NH+]1CCC([NH3+])CC1
REMARK SMILES IDX 13 1 12 2 11 3 10 4 8 5 9 6 7 8 4 9 5 10 83 11 6 12 3 13
REMARK SMILES IDX 2 14 1 15 84 16 85 17 86 18 87 19 88 20 93 21 89 23 92 24
REMARK SMILES IDX 90 25 91 26 14 30 15 31 16 32 17 33 18 34 19 36 20 37 21 38
REMARK SMILES IDX 82 39 22 40 81 41 23 42 24 43 25 44 75 45 26 46 80 47 74 48
REMARK SMILES IDX 76 49 27 50 79 51 73 52 72 53 28 55 60 56 40 57 59 58 41 59
REMARK SMILES IDX 44 60 58 61 77 62 42 63 43 64 57 66 78 67 45 68 29 69 30 70
REMARK SMILES IDX 38 71 31 72 37 73 39 74 36 75 32 76 33 77 34 78 35 79 61 80
REMARK SMILES IDX 62 81 70 82 63 83 69 84 71 85 68 86 64 87 65 88 66 89 67 90
REMARK SMILES IDX 46 91 47 92 55 93 48 94 54 95 56 96 53 97 49 98 50 99 51 100
REMARK SMILES IDX 52 101
REMARK H PARENT 10 7 87 22 91 27 91 28 91 29 17 35 76 54 44 65
REMARK Flexibility Score: inf
ROOT
ATOM      1  C   UNL A   1      31.640  27.736  26.632  1.00  0.00     0.002 C 
ENDROOT
BRANCH   1   2
ATOM      2  C   UNL A   1      31.743  26.213  26.561  1.00  0.00     0.021 C 
BRANCH   2   3
ATOM      3  C   UNL A   1      30.918  25.588  25.450  1.00  0.00     0.116 C 
BRANCH   3   4
ATOM      4  N   UNL A   1      30.177  24.393  25.846  1.00  0.00    -0.354 N 
ATOM      5  C   UNL A   1      30.680  23.160  26.223  1.00  0.00     0.243 C 
ATOM      6  O   UNL A   1      29.930  22.331  26.730  1.00  0.00    -0.273 OA
ATOM      7  H   UNL A   1      29.196  24.475  25.846  1.00  0.00     0.163 HD
BRANCH   5   8
ATOM      8  C   UNL A   1      32.182  22.958  26.024  1.00  0.00     0.185 C 
ATOM      9  C   UNL A   1      34.138  21.673  25.710  1.00  0.00     0.144 C 
ATOM     10  S   UNL A   1      33.824  21.432  27.508  1.00  0.00    -0.134 SA
ATOM     11  N   UNL A   1      32.782  21.837  25.257  1.00  0.00    -0.313 N 
ATOM     12  C   UNL A   1      32.765  22.872  27.475  1.00  0.00     0.107 C 
BRANCH   9  13
ATOM     13  C   UNL A   1      35.189  20.601  25.155  1.00  0.00     0.036 C 
BRANCH  13  14
ATOM     14  C   UNL A   1      35.267  18.573  24.568  1.00  0.00    -0.000 C 
ATOM     15  C   UNL A   1      34.258  17.317  24.230  1.00  0.00     0.004 C 
ENDBRANCH  13  14
ENDBRANCH   9  13
BRANCH  11  16
ATOM     16  C   UNL A   1      32.340  21.436  24.009  1.00  0.00     0.279 C 
ATOM     17  O   UNL A   1      32.266  20.244  23.703  1.00  0.00    -0.268 OA
BRANCH  16  18
ATOM     18  C   UNL A   1      31.988  22.545  22.987  1.00  0.00     0.363 C 
BRANCH  18  19
ATOM     19  N   UNL A   1      33.147  23.344  22.482  1.00  0.00    -0.327 N 
ATOM     20  C   UNL A   1      32.775  24.061  20.841  1.00  0.00     0.268 C 
ATOM     21  C   UNL A   1      33.876  24.419  23.819  1.00  0.00     0.268 C 
ATOM     22  H   UNL A   1      33.948  22.750  22.267  1.00  0.00     0.348 HD
ATOM     23  C   UNL A   1      32.784  25.955  20.513  1.00  0.00     0.126 C 
ATOM     24  C   UNL A   1      33.954  26.390  23.611  1.00  0.00     0.126 C 
ATOM     25  C   UNL A   1      33.371  27.168  21.895  1.00  0.00     0.192 C 
BRANCH  25  26
ATOM     26  N   UNL A   1      32.368  28.262  22.012  1.00  0.00    -0.355 N 
ATOM     27  H   UNL A   1      32.846  29.144  22.198  1.00  0.00     0.344 HD
ATOM     28  H   UNL A   1      31.726  28.054  22.777  1.00  0.00     0.344 HD
ATOM     29  H   UNL A   1      31.844  28.337  21.139  1.00  0.00     0.344 HD
ENDBRANCH  25  26
ENDBRANCH  18  19
ENDBRANCH  16  18
ENDBRANCH  11  16
ENDBRANCH   5   8
ENDBRANCH   3   4
ENDBRANCH   2   3
ENDBRANCH   1   2
BRANCH   1  30
ATOM     30  C   UNL A   1      31.174  28.425  25.345  1.00  0.00     0.002 C 
BRANCH  30  31
ATOM     31  C   UNL A   1      31.338  29.946  25.317  1.00  0.00     0.021 C 
BRANCH  31  32
ATOM     32  C   UNL A   1      32.371  30.494  26.294  1.00  0.00     0.116 C 
BRANCH  32  33
ATOM     33  N   UNL A   1      32.158  31.902  26.591  1.00  0.00    -0.352 N 
ATOM     34  C   UNL A   1      32.890  32.736  27.391  1.00  0.00     0.251 C 
ATOM     35  H   UNL A   1      31.376  32.313  26.154  1.00  0.00     0.163 HD
ATOM     36  O   UNL A   1      32.462  33.858  27.663  1.00  0.00    -0.269 OA
BRANCH  34  37
ATOM     37  C   UNL A   1      34.173  32.264  27.944  1.00  0.00     0.039 A 
ATOM     38  C   UNL A   1      35.219  33.177  28.091  1.00  0.00     0.014 A 
ATOM     39  C   UNL A   1      34.327  30.935  28.349  1.00  0.00     0.014 A 
ATOM     40  C   UNL A   1      36.404  32.767  28.699  1.00  0.00     0.010 A 
ATOM     41  C   UNL A   1      35.478  30.552  29.029  1.00  0.00     0.010 A 
ATOM     42  C   UNL A   1      36.529  31.463  29.208  1.00  0.00    -0.014 A 
BRANCH  42  43
ATOM     43  C   UNL A   1      37.758  31.040  29.927  1.00  0.00     0.031 A 
ATOM     44  C   UNL A   1      38.725  30.093  29.274  1.00  0.00     0.074 A 
ATOM     45  C   UNL A   1      37.974  31.476  31.184  1.00  0.00     0.049 A 
ATOM     46  N   UNL A   1      39.825  29.573  29.753  1.00  0.00    -0.248 NA
ATOM     47  C   UNL A   1      38.396  29.651  27.909  1.00  0.00     0.031 C 
ATOM     48  C   UNL A   1      37.085  32.369  31.932  1.00  0.00     0.029 A 
ATOM     49  N   UNL A   1      39.004  31.231  32.056  1.00  0.00    -0.354 N 
ATOM     50  C   UNL A   1      40.317  28.741  28.754  1.00  0.00     0.074 A 
ATOM     51  C   UNL A   1      39.358  28.772  27.671  1.00  0.00     0.031 C 
ATOM     52  C   UNL A   1      37.626  32.623  33.134  1.00  0.00     0.029 A 
ATOM     53  C   UNL A   1      38.870  31.871  33.266  1.00  0.00     0.049 A 
ATOM     54  H   UNL A   1      39.770  30.652  31.834  1.00  0.00     0.167 HD
ATOM     55  C   UNL A   1      41.477  28.038  28.734  1.00  0.00     0.034 A 
ATOM     56  C   UNL A   1      39.653  31.844  34.363  1.00  0.00     0.034 A 
ATOM     57  C   UNL A   1      42.421  28.023  29.823  1.00  0.00     0.049 A 
ATOM     58  C   UNL A   1      40.914  31.017  34.333  1.00  0.00     0.074 A 
ATOM     59  C   UNL A   1      43.646  27.383  29.891  1.00  0.00     0.029 A 
ATOM     60  N   UNL A   1      42.244  28.667  31.042  1.00  0.00    -0.354 N 
ATOM     61  N   UNL A   1      41.392  30.275  33.360  1.00  0.00    -0.248 NA
ATOM     62  C   UNL A   1      41.746  31.032  35.542  1.00  0.00     0.031 C 
ATOM     63  C   UNL A   1      44.169  27.571  31.175  1.00  0.00     0.029 A 
ATOM     64  C   UNL A   1      43.318  28.406  31.881  1.00  0.00     0.049 A 
ATOM     65  H   UNL A   1      41.468  29.226  31.276  1.00  0.00     0.167 HD
ATOM     66  C   UNL A   1      42.600  29.764  33.832  1.00  0.00     0.074 A 
ATOM     67  C   UNL A   1      42.780  30.296  35.166  1.00  0.00     0.031 C 
ATOM     68  C   UNL A   1      43.481  28.935  33.215  1.00  0.00     0.034 A 
BRANCH  55  69
ATOM     69  C   UNL A   1      41.765  27.206  27.506  1.00  0.00     0.023 A 
ATOM     70  C   UNL A   1      41.469  25.832  27.455  1.00  0.00     0.031 A 
ATOM     71  C   UNL A   1      42.367  27.789  26.376  1.00  0.00     0.131 A 
ATOM     72  C   UNL A   1      41.842  25.075  26.335  1.00  0.00     0.055 A 
ATOM     73  C   UNL A   1      42.654  27.047  25.229  1.00  0.00     0.041 A 
ATOM     74  F   UNL A   1      42.697  29.090  26.371  1.00  0.00    -0.206 F 
ATOM     75  C   UNL A   1      42.406  25.678  25.209  1.00  0.00     0.022 A 
BRANCH  72  76
ATOM     76  S   UNL A   1      41.722  23.268  26.434  1.00  0.00     0.124 S 
ATOM     77  O   UNL A   1      40.279  23.075  26.550  1.00  0.00    -0.237 OA
ATOM     78  O   UNL A   1      42.325  22.842  25.176  1.00  0.00    -0.237 OA
ATOM     79  O   UNL A   1      42.486  22.939  27.636  1.00  0.00    -0.744 OA
ENDBRANCH  72  76
ENDBRANCH  55  69
BRANCH  56  80
ATOM     80  C   UNL A   1      39.269  32.607  35.587  1.00  0.00     0.023 A 
ATOM     81  C   UNL A   1      39.734  33.914  35.801  1.00  0.00     0.031 A 
ATOM     82  C   UNL A   1      38.470  32.021  36.585  1.00  0.00     0.131 A 
ATOM     83  C   UNL A   1      39.442  34.571  37.007  1.00  0.00     0.055 A 
ATOM     84  C   UNL A   1      38.129  32.703  37.754  1.00  0.00     0.041 A 
ATOM     85  F   UNL A   1      37.997  30.774  36.432  1.00  0.00    -0.206 F 
ATOM     86  C   UNL A   1      38.630  33.981  37.977  1.00  0.00     0.022 A 
BRANCH  83  87
ATOM     87  S   UNL A   1      40.227  36.174  37.333  1.00  0.00     0.124 S 
ATOM     88  O   UNL A   1      39.189  36.860  38.094  1.00  0.00    -0.237 OA
ATOM     89  O   UNL A   1      41.418  35.782  38.080  1.00  0.00    -0.237 OA
ATOM     90  O   UNL A   1      40.478  36.707  35.996  1.00  0.00    -0.744 OA
ENDBRANCH  83  87
ENDBRANCH  56  80
BRANCH  68  91
ATOM     91  C   UNL A   1      44.746  28.593  33.966  1.00  0.00     0.023 A 
ATOM     92  C   UNL A   1      44.834  27.465  34.801  1.00  0.00     0.031 A 
ATOM     93  C   UNL A   1      45.879  29.418  33.849  1.00  0.00     0.131 A 
ATOM     94  C   UNL A   1      46.008  27.226  35.531  1.00  0.00     0.055 A 
ATOM     95  C   UNL A   1      47.068  29.136  34.524  1.00  0.00     0.041 A 
ATOM     96  F   UNL A   1      45.852  30.512  33.072  1.00  0.00    -0.206 F 
ATOM     97  C   UNL A   1      47.132  28.042  35.382  1.00  0.00     0.022 A 
BRANCH  94  98
ATOM     98  S   UNL A   1      46.011  25.893  36.761  1.00  0.00     0.124 S 
ATOM     99  O   UNL A   1      47.270  26.129  37.460  1.00  0.00    -0.237 OA
ATOM    100  O   UNL A   1      44.797  26.168  37.522  1.00  0.00    -0.237 OA
ATOM    101  O   UNL A   1      45.970  24.678  35.948  1.00  0.00    -0.744 OA
ENDBRANCH  94  98
ENDBRANCH  68  91
ENDBRANCH  42  43
ENDBRANCH  34  37
ENDBRANCH  32  33
ENDBRANCH  31  32
ENDBRANCH  30  31
ENDBRANCH   1  30
TORSDOF 22
ENDMDL
