MODEL 1
REMARK VINA RESULT:     -11.6      0.000      0.000
REMARK SMILES O=C1C[C@@H](C(=O)NCCCCCCNC(=O)c2ccc(-c3c4nc(c(-c5cc(S(=O)(=O)[O-])ccc5F)c5ccc([nH]5)c(-c5cc(S(=O)(=O)[O-])ccc5F)c5nc(c(-c6cc(S(=O)(=O)[O-])ccc6F)c6ccc3[nH]6)C=C5)C=C4)cc2)C2(CC[NH+](Cc3c[nH]nc3-c3ccc(Cl)cc3)CC2)N1
REMARK SMILES IDX 10 1 9 2 8 3 7 4 5 5 6 6 4 8 1 9 2 10 3 11 99 12 80 13 81 15
REMARK SMILES IDX 98 16 82 17 97 18 83 19 84 21 85 22 86 23 89 24 87 25 88 26
REMARK SMILES IDX 90 28 91 29 96 30 92 31 95 32 93 33 94 34 11 35 12 36 13 37
REMARK SMILES IDX 14 38 15 39 16 41 17 42 18 43 79 44 19 45 78 46 20 47 21 48
REMARK SMILES IDX 22 49 72 50 23 51 77 52 71 53 73 54 24 55 76 56 70 57 69 58
REMARK SMILES IDX 25 60 57 61 37 62 56 63 38 64 41 65 55 66 74 67 39 68 40 69
REMARK SMILES IDX 54 71 75 72 42 73 26 74 27 75 35 76 28 77 34 78 36 79 33 80
REMARK SMILES IDX 29 81 30 82 31 83 32 84 58 85 59 86 67 87 60 88 66 89 68 90
REMARK SMILES IDX 65 91 61 92 62 93 63 94 64 95 43 96 44 97 52 98 45 99 51 100
REMARK SMILES IDX 53 101 50 102 46 103 47 104 48 105 49 106
REMARK H PARENT 7 7 99 14 83 20 87 27 14 40 73 59 41 70
REMARK Flexibility Score: inf
ROOT
ATOM      1  C   UNL A   1      40.350  22.369  26.583  1.00  0.00     0.002 C 
ENDROOT
BRANCH   1   2
ATOM      2  C   UNL A   1      38.825  22.377  26.496  1.00  0.00     0.021 C 
BRANCH   2   3
ATOM      3  C   UNL A   1      38.239  23.638  25.857  1.00  0.00     0.116 C 
BRANCH   3   4
ATOM      4  N   UNL A   1      37.655  23.403  24.547  1.00  0.00    -0.356 N 
ATOM      5  C   UNL A   1      36.442  22.949  24.137  1.00  0.00     0.226 C 
ATOM      6  O   UNL A   1      36.283  22.832  22.916  1.00  0.00    -0.275 OA
ATOM      7  H   UNL A   1      38.264  23.617  23.802  1.00  0.00     0.163 HD
BRANCH   5   8
ATOM      8  C   UNL A   1      35.288  22.559  25.067  1.00  0.00     0.114 C 
ATOM      9  O   UNL A   1      33.459  19.613  24.197  1.00  0.00    -0.275 OA
ATOM     10  C   UNL A   1      33.877  20.721  24.470  1.00  0.00     0.221 C 
ATOM     11  C   UNL A   1      35.146  21.038  25.211  1.00  0.00     0.116 C 
ATOM     12  N   UNL A   1      33.267  21.906  24.125  1.00  0.00    -0.349 N 
ATOM     13  C   UNL A   1      33.869  23.081  24.740  1.00  0.00     0.063 C 
ATOM     14  H   UNL A   1      32.493  21.955  23.518  1.00  0.00     0.164 HD
ATOM     15  C   UNL A   1      33.858  24.278  23.779  1.00  0.00     0.091 C 
ATOM     16  C   UNL A   1      33.037  23.338  26.031  1.00  0.00     0.091 C 
ATOM     17  C   UNL A   1      33.865  25.634  24.464  1.00  0.00     0.264 C 
ATOM     18  C   UNL A   1      32.895  24.794  26.477  1.00  0.00     0.264 C 
ATOM     19  N   UNL A   1      32.781  25.775  25.412  1.00  0.00    -0.331 N 
ATOM     20  H   UNL A   1      32.902  26.668  25.887  1.00  0.00     0.348 HD
BRANCH  19  21
ATOM     21  C   UNL A   1      31.454  26.099  24.865  1.00  0.00     0.303 C 
BRANCH  21  22
ATOM     22  C   UNL A   1      31.395  27.220  23.871  1.00  0.00     0.052 A 
ATOM     23  C   UNL A   1      30.739  27.209  22.652  1.00  0.00     0.115 A 
ATOM     24  C   UNL A   1      31.859  28.580  23.988  1.00  0.00     0.101 A 
ATOM     25  N   UNL A   1      30.973  28.412  22.065  1.00  0.00    -0.285 N 
ATOM     26  N   UNL A   1      31.647  29.256  22.848  1.00  0.00    -0.175 NA
ATOM     27  H   UNL A   1      30.674  28.638  21.155  1.00  0.00     0.189 HD
BRANCH  24  28
ATOM     28  C   UNL A   1      32.441  29.293  25.127  1.00  0.00     0.003 A 
ATOM     29  C   UNL A   1      33.731  28.938  25.554  1.00  0.00     0.012 A 
ATOM     30  C   UNL A   1      31.751  30.280  25.836  1.00  0.00     0.012 A 
ATOM     31  C   UNL A   1      34.333  29.586  26.635  1.00  0.00     0.021 A 
ATOM     32  C   UNL A   1      32.353  30.939  26.915  1.00  0.00     0.021 A 
ATOM     33  C   UNL A   1      33.645  30.595  27.304  1.00  0.00     0.041 A 
ATOM     34  Cl  UNL A   1      34.389  31.417  28.618  1.00  0.00    -0.084 Cl
ENDBRANCH  24  28
ENDBRANCH  21  22
ENDBRANCH  19  21
ENDBRANCH   5   8
ENDBRANCH   3   4
ENDBRANCH   2   3
ENDBRANCH   1   2
BRANCH   1  35
ATOM     35  C   UNL A   1      40.906  21.524  27.731  1.00  0.00     0.002 C 
BRANCH  35  36
ATOM     36  C   UNL A   1      41.325  20.104  27.333  1.00  0.00     0.021 C 
BRANCH  36  37
ATOM     37  C   UNL A   1      41.406  19.873  25.829  1.00  0.00     0.116 C 
BRANCH  37  38
ATOM     38  N   UNL A   1      42.711  19.366  25.441  1.00  0.00    -0.352 N 
ATOM     39  C   UNL A   1      43.864  20.061  25.181  1.00  0.00     0.251 C 
ATOM     40  H   UNL A   1      42.776  18.387  25.353  1.00  0.00     0.163 HD
ATOM     41  O   UNL A   1      44.789  19.509  24.595  1.00  0.00    -0.269 OA
BRANCH  39  42
ATOM     42  C   UNL A   1      43.972  21.473  25.601  1.00  0.00     0.039 A 
ATOM     43  C   UNL A   1      44.408  21.762  26.895  1.00  0.00     0.014 A 
ATOM     44  C   UNL A   1      43.634  22.506  24.722  1.00  0.00     0.014 A 
ATOM     45  C   UNL A   1      44.544  23.093  27.293  1.00  0.00     0.010 A 
ATOM     46  C   UNL A   1      43.850  23.830  25.092  1.00  0.00     0.010 A 
ATOM     47  C   UNL A   1      44.293  24.138  26.387  1.00  0.00    -0.014 A 
BRANCH  47  48
ATOM     48  C   UNL A   1      44.478  25.556  26.787  1.00  0.00     0.031 A 
ATOM     49  C   UNL A   1      45.840  26.190  26.719  1.00  0.00     0.074 A 
ATOM     50  C   UNL A   1      43.428  26.254  27.260  1.00  0.00     0.049 A 
ATOM     51  N   UNL A   1      46.211  27.396  27.062  1.00  0.00    -0.248 NA
ATOM     52  C   UNL A   1      46.937  25.341  26.230  1.00  0.00     0.031 C 
ATOM     53  C   UNL A   1      42.070  25.727  27.423  1.00  0.00     0.029 A 
ATOM     54  N   UNL A   1      43.334  27.551  27.700  1.00  0.00    -0.354 N 
ATOM     55  C   UNL A   1      47.584  27.446  26.848  1.00  0.00     0.074 A 
ATOM     56  C   UNL A   1      47.986  26.127  26.409  1.00  0.00     0.031 C 
ATOM     57  C   UNL A   1      41.278  26.696  27.905  1.00  0.00     0.029 A 
ATOM     58  C   UNL A   1      42.075  27.896  28.134  1.00  0.00     0.049 A 
ATOM     59  H   UNL A   1      44.096  28.174  27.705  1.00  0.00     0.167 HD
ATOM     60  C   UNL A   1      48.426  28.502  26.982  1.00  0.00     0.034 A 
ATOM     61  C   UNL A   1      41.618  29.043  28.675  1.00  0.00     0.034 A 
ATOM     62  C   UNL A   1      47.997  29.810  27.420  1.00  0.00     0.049 A 
ATOM     63  C   UNL A   1      42.570  30.200  28.833  1.00  0.00     0.074 A 
ATOM     64  C   UNL A   1      48.745  30.970  27.524  1.00  0.00     0.029 A 
ATOM     65  N   UNL A   1      46.713  30.128  27.847  1.00  0.00    -0.354 N 
ATOM     66  N   UNL A   1      43.852  30.259  28.553  1.00  0.00    -0.248 NA
ATOM     67  C   UNL A   1      42.012  31.448  29.365  1.00  0.00     0.031 C 
ATOM     68  C   UNL A   1      47.939  31.960  28.099  1.00  0.00     0.029 A 
ATOM     69  C   UNL A   1      46.660  31.451  28.261  1.00  0.00     0.049 A 
ATOM     70  H   UNL A   1      45.951  29.503  27.856  1.00  0.00     0.167 HD
ATOM     71  C   UNL A   1      44.248  31.559  28.852  1.00  0.00     0.074 A 
ATOM     72  C   UNL A   1      43.063  32.253  29.317  1.00  0.00     0.031 C 
ATOM     73  C   UNL A   1      45.478  32.129  28.746  1.00  0.00     0.034 A 
BRANCH  60  74
ATOM     74  C   UNL A   1      49.892  28.263  26.694  1.00  0.00     0.023 A 
ATOM     75  C   UNL A   1      50.429  28.400  25.400  1.00  0.00     0.031 A 
ATOM     76  C   UNL A   1      50.760  27.845  27.719  1.00  0.00     0.131 A 
ATOM     77  C   UNL A   1      51.756  28.024  25.147  1.00  0.00     0.055 A 
ATOM     78  C   UNL A   1      52.108  27.567  27.479  1.00  0.00     0.041 A 
ATOM     79  F   UNL A   1      50.308  27.674  28.971  1.00  0.00    -0.206 F 
ATOM     80  C   UNL A   1      52.608  27.635  26.182  1.00  0.00     0.022 A 
BRANCH  77  81
ATOM     81  S   UNL A   1      52.297  27.868  23.421  1.00  0.00     0.124 S 
ATOM     82  O   UNL A   1      53.074  26.631  23.465  1.00  0.00    -0.237 OA
ATOM     83  O   UNL A   1      51.032  27.803  22.700  1.00  0.00    -0.237 OA
ATOM     84  O   UNL A   1      53.084  29.079  23.198  1.00  0.00    -0.744 OA
ENDBRANCH  77  81
ENDBRANCH  60  74
BRANCH  61  85
ATOM     85  C   UNL A   1      40.201  29.137  29.130  1.00  0.00     0.023 A 
ATOM     86  C   UNL A   1      39.855  29.026  30.486  1.00  0.00     0.031 A 
ATOM     87  C   UNL A   1      39.164  29.338  28.199  1.00  0.00     0.131 A 
ATOM     88  C   UNL A   1      38.504  29.083  30.869  1.00  0.00     0.055 A 
ATOM     89  C   UNL A   1      37.830  29.450  28.591  1.00  0.00     0.041 A 
ATOM     90  F   UNL A   1      39.441  29.455  26.891  1.00  0.00    -0.206 F 
ATOM     91  C   UNL A   1      37.492  29.313  29.932  1.00  0.00     0.022 A 
BRANCH  88  92
ATOM     92  S   UNL A   1      38.077  28.787  32.607  1.00  0.00     0.124 S 
ATOM     93  O   UNL A   1      36.713  29.299  32.668  1.00  0.00    -0.237 OA
ATOM     94  O   UNL A   1      38.224  27.340  32.714  1.00  0.00    -0.237 OA
ATOM     95  O   UNL A   1      39.072  29.569  33.339  1.00  0.00    -0.744 OA
ENDBRANCH  88  92
ENDBRANCH  61  85
BRANCH  73  96
ATOM     96  C   UNL A   1      45.591  33.592  29.106  1.00  0.00     0.023 A 
ATOM     97  C   UNL A   1      45.389  34.610  28.156  1.00  0.00     0.031 A 
ATOM     98  C   UNL A   1      45.919  33.973  30.420  1.00  0.00     0.131 A 
ATOM     99  C   UNL A   1      45.576  35.953  28.519  1.00  0.00     0.055 A 
ATOM    100  C   UNL A   1      46.030  35.313  30.793  1.00  0.00     0.041 A 
ATOM    101  F   UNL A   1      46.131  33.046  31.368  1.00  0.00    -0.206 F 
ATOM    102  C   UNL A   1      45.874  36.312  29.837  1.00  0.00     0.022 A 
BRANCH  99 103
ATOM    103  S   UNL A   1      45.535  37.220  27.223  1.00  0.00     0.124 S 
ATOM    104  O   UNL A   1      44.105  37.327  26.951  1.00  0.00    -0.237 OA
ATOM    105  O   UNL A   1      46.148  38.366  27.885  1.00  0.00    -0.237 OA
ATOM    106  O   UNL A   1      46.327  36.632  26.144  1.00  0.00    -0.744 OA
ENDBRANCH  99 103
ENDBRANCH  73  96
ENDBRANCH  47  48
ENDBRANCH  39  42
ENDBRANCH  37  38
ENDBRANCH  36  37
ENDBRANCH  35  36
ENDBRANCH   1  35
TORSDOF 19
ENDMDL
MODEL 2
REMARK VINA RESULT:     -10.9      1.771      2.093
REMARK SMILES O=C1C[C@@H](C(=O)NCCCCCCNC(=O)c2ccc(-c3c4nc(c(-c5cc(S(=O)(=O)[O-])ccc5F)c5ccc([nH]5)c(-c5cc(S(=O)(=O)[O-])ccc5F)c5nc(c(-c6cc(S(=O)(=O)[O-])ccc6F)c6ccc3[nH]6)C=C5)C=C4)cc2)C2(CC[NH+](Cc3c[nH]nc3-c3ccc(Cl)cc3)CC2)N1
REMARK SMILES IDX 10 1 9 2 8 3 7 4 5 5 6 6 4 8 1 9 2 10 3 11 99 12 80 13 81 15
REMARK SMILES IDX 98 16 82 17 97 18 83 19 84 21 85 22 86 23 89 24 87 25 88 26
REMARK SMILES IDX 90 28 91 29 96 30 92 31 95 32 93 33 94 34 11 35 12 36 13 37
REMARK SMILES IDX 14 38 15 39 16 41 17 42 18 43 79 44 19 45 78 46 20 47 21 48
REMARK SMILES IDX 22 49 72 50 23 51 77 52 71 53 73 54 24 55 76 56 70 57 69 58
REMARK SMILES IDX 25 60 57 61 37 62 56 63 38 64 41 65 55 66 74 67 39 68 40 69
REMARK SMILES IDX 54 71 75 72 42 73 26 74 27 75 35 76 28 77 34 78 36 79 33 80
REMARK SMILES IDX 29 81 30 82 31 83 32 84 58 85 59 86 67 87 60 88 66 89 68 90
REMARK SMILES IDX 65 91 61 92 62 93 63 94 64 95 43 96 44 97 52 98 45 99 51 100
REMARK SMILES IDX 53 101 50 102 46 103 47 104 48 105 49 106
REMARK H PARENT 7 7 99 14 83 20 87 27 14 40 73 59 41 70
REMARK Flexibility Score: inf
ROOT
ATOM      1  C   UNL A   1      40.423  22.200  26.488  1.00  0.00     0.002 C 
ENDROOT
BRANCH   1   2
ATOM      2  C   UNL A   1      38.925  22.383  26.723  1.00  0.00     0.021 C 
BRANCH   2   3
ATOM      3  C   UNL A   1      38.327  23.614  26.037  1.00  0.00     0.116 C 
BRANCH   3   4
ATOM      4  N   UNL A   1      37.782  23.333  24.719  1.00  0.00    -0.356 N 
ATOM      5  C   UNL A   1      36.598  22.819  24.293  1.00  0.00     0.226 C 
ATOM      6  O   UNL A   1      36.470  22.675  23.071  1.00  0.00    -0.275 OA
ATOM      7  H   UNL A   1      38.396  23.560  23.984  1.00  0.00     0.163 HD
BRANCH   5   8
ATOM      8  C   UNL A   1      35.442  22.395  25.206  1.00  0.00     0.114 C 
ATOM      9  O   UNL A   1      33.652  19.450  24.254  1.00  0.00    -0.275 OA
ATOM     10  C   UNL A   1      34.057  20.555  24.556  1.00  0.00     0.221 C 
ATOM     11  C   UNL A   1      35.317  20.869  25.313  1.00  0.00     0.116 C 
ATOM     12  N   UNL A   1      33.435  21.742  24.235  1.00  0.00    -0.349 N 
ATOM     13  C   UNL A   1      34.020  22.908  24.881  1.00  0.00     0.063 C 
ATOM     14  H   UNL A   1      32.664  21.796  23.624  1.00  0.00     0.164 HD
ATOM     15  C   UNL A   1      34.002  24.128  23.949  1.00  0.00     0.091 C 
ATOM     16  C   UNL A   1      33.177  23.126  26.173  1.00  0.00     0.091 C 
ATOM     17  C   UNL A   1      33.989  25.467  24.665  1.00  0.00     0.264 C 
ATOM     18  C   UNL A   1      33.016  24.569  26.652  1.00  0.00     0.264 C 
ATOM     19  N   UNL A   1      32.898  25.573  25.609  1.00  0.00    -0.331 N 
ATOM     20  H   UNL A   1      33.006  26.456  26.106  1.00  0.00     0.348 HD
BRANCH  19  21
ATOM     21  C   UNL A   1      31.570  25.895  25.061  1.00  0.00     0.303 C 
BRANCH  21  22
ATOM     22  C   UNL A   1      31.522  26.958  24.005  1.00  0.00     0.052 A 
ATOM     23  C   UNL A   1      30.877  26.880  22.783  1.00  0.00     0.115 A 
ATOM     24  C   UNL A   1      31.988  28.322  24.050  1.00  0.00     0.101 A 
ATOM     25  N   UNL A   1      31.117  28.048  22.132  1.00  0.00    -0.285 N 
ATOM     26  N   UNL A   1      31.787  28.933  22.871  1.00  0.00    -0.175 NA
ATOM     27  H   UNL A   1      30.827  28.223  21.208  1.00  0.00     0.189 HD
BRANCH  24  28
ATOM     28  C   UNL A   1      32.562  29.097  25.151  1.00  0.00     0.003 A 
ATOM     29  C   UNL A   1      31.800  30.137  25.709  1.00  0.00     0.012 A 
ATOM     30  C   UNL A   1      33.852  28.878  25.642  1.00  0.00     0.012 A 
ATOM     31  C   UNL A   1      32.299  30.908  26.762  1.00  0.00     0.021 A 
ATOM     32  C   UNL A   1      34.354  29.641  26.702  1.00  0.00     0.021 A 
ATOM     33  C   UNL A   1      33.572  30.647  27.264  1.00  0.00     0.041 A 
ATOM     34  Cl  UNL A   1      34.183  31.573  28.577  1.00  0.00    -0.084 Cl
ENDBRANCH  24  28
ENDBRANCH  21  22
ENDBRANCH  19  21
ENDBRANCH   5   8
ENDBRANCH   3   4
ENDBRANCH   2   3
ENDBRANCH   1   2
BRANCH   1  35
ATOM     35  C   UNL A   1      41.157  21.511  27.641  1.00  0.00     0.002 C 
BRANCH  35  36
ATOM     36  C   UNL A   1      41.727  20.131  27.299  1.00  0.00     0.021 C 
BRANCH  36  37
ATOM     37  C   UNL A   1      41.612  19.751  25.827  1.00  0.00     0.116 C 
BRANCH  37  38
ATOM     38  N   UNL A   1      42.882  19.282  25.301  1.00  0.00    -0.352 N 
ATOM     39  C   UNL A   1      43.991  20.008  24.949  1.00  0.00     0.251 C 
ATOM     40  H   UNL A   1      42.957  18.307  25.180  1.00  0.00     0.163 HD
ATOM     41  O   UNL A   1      44.865  19.491  24.261  1.00  0.00    -0.269 OA
BRANCH  39  42
ATOM     42  C   UNL A   1      44.113  21.411  25.394  1.00  0.00     0.039 A 
ATOM     43  C   UNL A   1      44.686  21.679  26.638  1.00  0.00     0.014 A 
ATOM     44  C   UNL A   1      43.652  22.457  24.588  1.00  0.00     0.014 A 
ATOM     45  C   UNL A   1      44.835  23.003  27.056  1.00  0.00     0.010 A 
ATOM     46  C   UNL A   1      43.877  23.776  24.969  1.00  0.00     0.010 A 
ATOM     47  C   UNL A   1      44.458  24.063  26.214  1.00  0.00    -0.014 A 
BRANCH  47  48
ATOM     48  C   UNL A   1      44.653  25.475  26.631  1.00  0.00     0.031 A 
ATOM     49  C   UNL A   1      46.024  26.093  26.588  1.00  0.00     0.074 A 
ATOM     50  C   UNL A   1      43.605  26.180  27.097  1.00  0.00     0.049 A 
ATOM     51  N   UNL A   1      46.404  27.291  26.948  1.00  0.00    -0.248 NA
ATOM     52  C   UNL A   1      47.118  25.236  26.105  1.00  0.00     0.031 C 
ATOM     53  C   UNL A   1      42.240  25.667  27.235  1.00  0.00     0.029 A 
ATOM     54  N   UNL A   1      43.521  27.473  27.549  1.00  0.00    -0.354 N 
ATOM     55  C   UNL A   1      47.780  27.328  26.753  1.00  0.00     0.074 A 
ATOM     56  C   UNL A   1      48.173  26.008  26.307  1.00  0.00     0.031 C 
ATOM     57  C   UNL A   1      41.452  26.640  27.717  1.00  0.00     0.029 A 
ATOM     58  C   UNL A   1      42.260  27.829  27.969  1.00  0.00     0.049 A 
ATOM     59  H   UNL A   1      44.289  28.087  27.570  1.00  0.00     0.167 HD
ATOM     60  C   UNL A   1      48.632  28.372  26.910  1.00  0.00     0.034 A 
ATOM     61  C   UNL A   1      41.808  28.976  28.516  1.00  0.00     0.034 A 
ATOM     62  C   UNL A   1      48.213  29.680  27.355  1.00  0.00     0.049 A 
ATOM     63  C   UNL A   1      42.771  30.119  28.698  1.00  0.00     0.074 A 
ATOM     64  C   UNL A   1      48.972  30.831  27.481  1.00  0.00     0.029 A 
ATOM     65  N   UNL A   1      46.926  30.009  27.768  1.00  0.00    -0.354 N 
ATOM     66  N   UNL A   1      44.058  30.167  28.436  1.00  0.00    -0.248 NA
ATOM     67  C   UNL A   1      42.220  31.369  29.235  1.00  0.00     0.031 C 
ATOM     68  C   UNL A   1      48.170  31.824  28.055  1.00  0.00     0.029 A 
ATOM     69  C   UNL A   1      46.883  31.329  28.194  1.00  0.00     0.049 A 
ATOM     70  H   UNL A   1      46.158  29.394  27.760  1.00  0.00     0.167 HD
ATOM     71  C   UNL A   1      44.464  31.459  28.753  1.00  0.00     0.074 A 
ATOM     72  C   UNL A   1      43.281  32.162  29.209  1.00  0.00     0.031 C 
ATOM     73  C   UNL A   1      45.702  32.015  28.670  1.00  0.00     0.034 A 
BRANCH  60  74
ATOM     74  C   UNL A   1      50.099  28.120  26.639  1.00  0.00     0.023 A 
ATOM     75  C   UNL A   1      51.030  27.944  27.680  1.00  0.00     0.031 A 
ATOM     76  C   UNL A   1      50.586  28.103  25.320  1.00  0.00     0.131 A 
ATOM     77  C   UNL A   1      52.400  27.864  27.391  1.00  0.00     0.055 A 
ATOM     78  C   UNL A   1      51.942  27.923  25.034  1.00  0.00     0.041 A 
ATOM     79  F   UNL A   1      49.756  28.286  24.282  1.00  0.00    -0.206 F 
ATOM     80  C   UNL A   1      52.861  27.823  26.074  1.00  0.00     0.022 A 
BRANCH  77  81
ATOM     81  S   UNL A   1      53.582  28.004  28.761  1.00  0.00     0.124 S 
ATOM     82  O   UNL A   1      53.730  26.609  29.169  1.00  0.00    -0.237 OA
ATOM     83  O   UNL A   1      54.742  28.608  28.116  1.00  0.00    -0.237 OA
ATOM     84  O   UNL A   1      52.890  28.856  29.726  1.00  0.00    -0.744 OA
ENDBRANCH  77  81
ENDBRANCH  60  74
BRANCH  61  85
ATOM     85  C   UNL A   1      40.386  29.082  28.952  1.00  0.00     0.023 A 
ATOM     86  C   UNL A   1      40.026  29.008  30.306  1.00  0.00     0.031 A 
ATOM     87  C   UNL A   1      39.360  29.256  28.004  1.00  0.00     0.131 A 
ATOM     88  C   UNL A   1      38.671  29.076  30.672  1.00  0.00     0.055 A 
ATOM     89  C   UNL A   1      38.021  29.378  28.378  1.00  0.00     0.041 A 
ATOM     90  F   UNL A   1      39.651  29.337  26.696  1.00  0.00    -0.206 F 
ATOM     91  C   UNL A   1      37.669  29.278  29.719  1.00  0.00     0.022 A 
BRANCH  88  92
ATOM     92  S   UNL A   1      38.225  28.828  32.413  1.00  0.00     0.124 S 
ATOM     93  O   UNL A   1      39.027  29.851  33.073  1.00  0.00    -0.237 OA
ATOM     94  O   UNL A   1      36.784  29.057  32.394  1.00  0.00    -0.237 OA
ATOM     95  O   UNL A   1      38.631  27.449  32.676  1.00  0.00    -0.744 OA
ENDBRANCH  88  92
ENDBRANCH  61  85
BRANCH  73  96
ATOM     96  C   UNL A   1      45.827  33.473  29.046  1.00  0.00     0.023 A 
ATOM     97  C   UNL A   1      46.139  33.881  30.356  1.00  0.00     0.031 A 
ATOM     98  C   UNL A   1      45.620  34.473  28.077  1.00  0.00     0.131 A 
ATOM     99  C   UNL A   1      46.174  35.247  30.674  1.00  0.00     0.055 A 
ATOM    100  C   UNL A   1      45.729  35.830  28.384  1.00  0.00     0.041 A 
ATOM    101  F   UNL A   1      45.312  34.146  26.813  1.00  0.00    -0.206 F 
ATOM    102  C   UNL A   1      45.992  36.224  29.691  1.00  0.00     0.022 A 
BRANCH  99 103
ATOM    103  S   UNL A   1      46.348  35.733  32.412  1.00  0.00     0.124 S 
ATOM    104  O   UNL A   1      44.984  35.581  32.907  1.00  0.00    -0.237 OA
ATOM    105  O   UNL A   1      47.320  34.767  32.912  1.00  0.00    -0.237 OA
ATOM    106  O   UNL A   1      46.829  37.112  32.337  1.00  0.00    -0.744 OA
ENDBRANCH  99 103
ENDBRANCH  73  96
ENDBRANCH  47  48
ENDBRANCH  39  42
ENDBRANCH  37  38
ENDBRANCH  36  37
ENDBRANCH  35  36
ENDBRANCH   1  35
TORSDOF 19
ENDMDL
MODEL 3
REMARK VINA RESULT:     -10.4      1.842      2.238
REMARK SMILES O=C1C[C@@H](C(=O)NCCCCCCNC(=O)c2ccc(-c3c4nc(c(-c5cc(S(=O)(=O)[O-])ccc5F)c5ccc([nH]5)c(-c5cc(S(=O)(=O)[O-])ccc5F)c5nc(c(-c6cc(S(=O)(=O)[O-])ccc6F)c6ccc3[nH]6)C=C5)C=C4)cc2)C2(CC[NH+](Cc3c[nH]nc3-c3ccc(Cl)cc3)CC2)N1
REMARK SMILES IDX 10 1 9 2 8 3 7 4 5 5 6 6 4 8 1 9 2 10 3 11 99 12 80 13 81 15
REMARK SMILES IDX 98 16 82 17 97 18 83 19 84 21 85 22 86 23 89 24 87 25 88 26
REMARK SMILES IDX 90 28 91 29 96 30 92 31 95 32 93 33 94 34 11 35 12 36 13 37
REMARK SMILES IDX 14 38 15 39 16 41 17 42 18 43 79 44 19 45 78 46 20 47 21 48
REMARK SMILES IDX 22 49 72 50 23 51 77 52 71 53 73 54 24 55 76 56 70 57 69 58
REMARK SMILES IDX 25 60 57 61 37 62 56 63 38 64 41 65 55 66 74 67 39 68 40 69
REMARK SMILES IDX 54 71 75 72 42 73 26 74 27 75 35 76 28 77 34 78 36 79 33 80
REMARK SMILES IDX 29 81 30 82 31 83 32 84 58 85 59 86 67 87 60 88 66 89 68 90
REMARK SMILES IDX 65 91 61 92 62 93 63 94 64 95 43 96 44 97 52 98 45 99 51 100
REMARK SMILES IDX 53 101 50 102 46 103 47 104 48 105 49 106
REMARK H PARENT 7 7 99 14 83 20 87 27 14 40 73 59 41 70
REMARK Flexibility Score: inf
ROOT
ATOM      1  C   UNL A   1      38.787  23.543  26.694  1.00  0.00     0.002 C 
ENDROOT
BRANCH   1   2
ATOM      2  C   UNL A   1      37.542  22.833  26.168  1.00  0.00     0.021 C 
BRANCH   2   3
ATOM      3  C   UNL A   1      36.421  23.777  25.722  1.00  0.00     0.116 C 
BRANCH   3   4
ATOM      4  N   UNL A   1      36.134  23.701  24.300  1.00  0.00    -0.356 N 
ATOM      5  C   UNL A   1      35.057  23.273  23.590  1.00  0.00     0.226 C 
ATOM      6  O   UNL A   1      35.161  23.313  22.358  1.00  0.00    -0.275 OA
ATOM      7  H   UNL A   1      36.872  24.026  23.733  1.00  0.00     0.163 HD
BRANCH   5   8
ATOM      8  C   UNL A   1      33.758  22.735  24.200  1.00  0.00     0.114 C 
ATOM      9  O   UNL A   1      31.616  20.883  22.018  1.00  0.00    -0.275 OA
ATOM     10  C   UNL A   1      32.163  21.654  22.781  1.00  0.00     0.221 C 
ATOM     11  C   UNL A   1      33.372  21.365  23.628  1.00  0.00     0.116 C 
ATOM     12  N   UNL A   1      31.784  22.960  22.996  1.00  0.00    -0.349 N 
ATOM     13  C   UNL A   1      32.483  23.604  24.099  1.00  0.00     0.063 C 
ATOM     14  H   UNL A   1      31.101  23.417  22.453  1.00  0.00     0.164 HD
ATOM     15  C   UNL A   1      32.764  25.081  23.793  1.00  0.00     0.091 C 
ATOM     16  C   UNL A   1      31.556  23.412  25.337  1.00  0.00     0.091 C 
ATOM     17  C   UNL A   1      32.898  25.964  25.021  1.00  0.00     0.264 C 
ATOM     18  C   UNL A   1      31.586  24.517  26.394  1.00  0.00     0.264 C 
ATOM     19  N   UNL A   1      31.746  25.870  25.892  1.00  0.00    -0.331 N 
ATOM     20  H   UNL A   1      31.946  26.420  26.727  1.00  0.00     0.348 HD
BRANCH  19  21
ATOM     21  C   UNL A   1      30.555  26.646  25.510  1.00  0.00     0.303 C 
BRANCH  21  22
ATOM     22  C   UNL A   1      30.704  27.566  24.335  1.00  0.00     0.052 A 
ATOM     23  C   UNL A   1      30.114  27.420  23.092  1.00  0.00     0.115 A 
ATOM     24  C   UNL A   1      31.349  28.852  24.250  1.00  0.00     0.101 A 
ATOM     25  N   UNL A   1      30.543  28.456  22.325  1.00  0.00    -0.285 N 
ATOM     26  N   UNL A   1      31.291  29.332  22.997  1.00  0.00    -0.175 NA
ATOM     27  H   UNL A   1      30.324  28.551  21.370  1.00  0.00     0.189 HD
BRANCH  24  28
ATOM     28  C   UNL A   1      31.970  29.678  25.288  1.00  0.00     0.003 A 
ATOM     29  C   UNL A   1      33.237  29.310  25.770  1.00  0.00     0.012 A 
ATOM     30  C   UNL A   1      31.337  30.789  25.852  1.00  0.00     0.012 A 
ATOM     31  C   UNL A   1      33.874  30.063  26.760  1.00  0.00     0.021 A 
ATOM     32  C   UNL A   1      31.975  31.551  26.838  1.00  0.00     0.021 A 
ATOM     33  C   UNL A   1      33.245  31.190  27.281  1.00  0.00     0.041 A 
ATOM     34  Cl  UNL A   1      34.033  32.138  28.479  1.00  0.00    -0.084 Cl
ENDBRANCH  24  28
ENDBRANCH  21  22
ENDBRANCH  19  21
ENDBRANCH   5   8
ENDBRANCH   3   4
ENDBRANCH   2   3
ENDBRANCH   1   2
BRANCH   1  35
ATOM     35  C   UNL A   1      40.009  22.634  26.842  1.00  0.00     0.002 C 
BRANCH  35  36
ATOM     36  C   UNL A   1      39.881  21.275  26.145  1.00  0.00     0.021 C 
BRANCH  36  37
ATOM     37  C   UNL A   1      40.399  20.099  26.964  1.00  0.00     0.116 C 
BRANCH  37  38
ATOM     38  N   UNL A   1      41.427  19.366  26.245  1.00  0.00    -0.352 N 
ATOM     39  C   UNL A   1      42.574  19.837  25.661  1.00  0.00     0.251 C 
ATOM     40  H   UNL A   1      41.278  18.395  26.166  1.00  0.00     0.163 HD
ATOM     41  O   UNL A   1      43.180  19.138  24.856  1.00  0.00    -0.269 OA
BRANCH  39  42
ATOM     42  C   UNL A   1      43.059  21.191  26.000  1.00  0.00     0.039 A 
ATOM     43  C   UNL A   1      43.083  22.170  25.006  1.00  0.00     0.014 A 
ATOM     44  C   UNL A   1      43.498  21.487  27.295  1.00  0.00     0.014 A 
ATOM     45  C   UNL A   1      43.510  23.461  25.323  1.00  0.00     0.010 A 
ATOM     46  C   UNL A   1      43.842  22.793  27.628  1.00  0.00     0.010 A 
ATOM     47  C   UNL A   1      43.866  23.791  26.642  1.00  0.00    -0.014 A 
BRANCH  47  48
ATOM     48  C   UNL A   1      44.279  25.172  26.997  1.00  0.00     0.031 A 
ATOM     49  C   UNL A   1      45.662  25.658  26.661  1.00  0.00     0.074 A 
ATOM     50  C   UNL A   1      43.425  25.969  27.668  1.00  0.00     0.049 A 
ATOM     51  N   UNL A   1      46.223  26.809  26.924  1.00  0.00    -0.248 NA
ATOM     52  C   UNL A   1      46.543  24.707  25.965  1.00  0.00     0.031 C 
ATOM     53  C   UNL A   1      42.077  25.586  28.096  1.00  0.00     0.029 A 
ATOM     54  N   UNL A   1      43.562  27.258  28.118  1.00  0.00    -0.354 N 
ATOM     55  C   UNL A   1      47.524  26.717  26.442  1.00  0.00     0.074 A 
ATOM     56  C   UNL A   1      47.686  25.372  25.934  1.00  0.00     0.031 C 
ATOM     57  C   UNL A   1      41.506  26.624  28.725  1.00  0.00     0.029 A 
ATOM     58  C   UNL A   1      42.458  27.727  28.792  1.00  0.00     0.049 A 
ATOM     59  H   UNL A   1      44.373  27.796  27.971  1.00  0.00     0.167 HD
ATOM     60  C   UNL A   1      48.486  27.674  26.408  1.00  0.00     0.034 A 
ATOM     61  C   UNL A   1      42.244  28.904  29.412  1.00  0.00     0.034 A 
ATOM     62  C   UNL A   1      48.297  29.010  26.921  1.00  0.00     0.049 A 
ATOM     63  C   UNL A   1      43.329  29.949  29.379  1.00  0.00     0.074 A 
ATOM     64  C   UNL A   1      49.173  30.081  26.875  1.00  0.00     0.029 A 
ATOM     65  N   UNL A   1      47.165  29.455  27.593  1.00  0.00    -0.354 N 
ATOM     66  N   UNL A   1      44.530  29.876  28.850  1.00  0.00    -0.248 NA
ATOM     67  C   UNL A   1      43.026  31.238  30.010  1.00  0.00     0.031 C 
ATOM     68  C   UNL A   1      48.609  31.139  27.597  1.00  0.00     0.029 A 
ATOM     69  C   UNL A   1      47.338  30.767  28.009  1.00  0.00     0.049 A 
ATOM     70  H   UNL A   1      46.356  28.915  27.753  1.00  0.00     0.167 HD
ATOM     71  C   UNL A   1      45.116  31.120  29.065  1.00  0.00     0.074 A 
ATOM     72  C   UNL A   1      44.129  31.927  29.755  1.00  0.00     0.031 C 
ATOM     73  C   UNL A   1      46.356  31.557  28.718  1.00  0.00     0.034 A 
BRANCH  60  74
ATOM     74  C   UNL A   1      49.832  27.286  25.835  1.00  0.00     0.023 A 
ATOM     75  C   UNL A   1      50.899  26.871  26.654  1.00  0.00     0.031 A 
ATOM     76  C   UNL A   1      50.070  27.379  24.452  1.00  0.00     0.131 A 
ATOM     77  C   UNL A   1      52.172  26.666  26.100  1.00  0.00     0.055 A 
ATOM     78  C   UNL A   1      51.315  27.077  23.894  1.00  0.00     0.041 A 
ATOM     79  F   UNL A   1      49.103  27.789  23.617  1.00  0.00    -0.206 F 
ATOM     80  C   UNL A   1      52.381  26.739  24.722  1.00  0.00     0.022 A 
BRANCH  77  81
ATOM     81  S   UNL A   1      53.586  26.492  27.224  1.00  0.00     0.124 S 
ATOM     82  O   UNL A   1      52.925  26.464  28.528  1.00  0.00    -0.237 OA
ATOM     83  O   UNL A   1      54.184  25.237  26.784  1.00  0.00    -0.237 OA
ATOM     84  O   UNL A   1      54.381  27.690  26.964  1.00  0.00    -0.744 OA
ENDBRANCH  77  81
ENDBRANCH  60  74
BRANCH  61  85
ATOM     85  C   UNL A   1      40.963  29.140  30.138  1.00  0.00     0.023 A 
ATOM     86  C   UNL A   1      39.822  29.620  29.478  1.00  0.00     0.031 A 
ATOM     87  C   UNL A   1      40.869  28.888  31.520  1.00  0.00     0.131 A 
ATOM     88  C   UNL A   1      38.645  29.864  30.206  1.00  0.00     0.055 A 
ATOM     89  C   UNL A   1      39.682  29.080  32.227  1.00  0.00     0.041 A 
ATOM     90  F   UNL A   1      41.930  28.425  32.199  1.00  0.00    -0.206 F 
ATOM     91  C   UNL A   1      38.562  29.580  31.572  1.00  0.00     0.022 A 
BRANCH  88  92
ATOM     92  S   UNL A   1      37.235  30.623  29.354  1.00  0.00     0.124 S 
ATOM     93  O   UNL A   1      37.038  31.840  30.133  1.00  0.00    -0.237 OA
ATOM     94  O   UNL A   1      37.755  30.803  28.004  1.00  0.00    -0.237 OA
ATOM     95  O   UNL A   1      36.179  29.621  29.485  1.00  0.00    -0.744 OA
ENDBRANCH  88  92
ENDBRANCH  61  85
BRANCH  73  96
ATOM     96  C   UNL A   1      46.697  32.991  29.048  1.00  0.00     0.023 A 
ATOM     97  C   UNL A   1      46.429  34.045  28.155  1.00  0.00     0.031 A 
ATOM     98  C   UNL A   1      47.311  33.308  30.274  1.00  0.00     0.131 A 
ATOM     99  C   UNL A   1      46.829  35.351  28.474  1.00  0.00     0.055 A 
ATOM    100  C   UNL A   1      47.639  34.620  30.617  1.00  0.00     0.041 A 
ATOM    101  F   UNL A   1      47.599  32.344  31.163  1.00  0.00    -0.206 F 
ATOM    102  C   UNL A   1      47.413  35.649  29.708  1.00  0.00     0.022 A 
BRANCH  99 103
ATOM    103  S   UNL A   1      46.679  36.642  27.209  1.00  0.00     0.124 S 
ATOM    104  O   UNL A   1      48.009  37.243  27.231  1.00  0.00    -0.237 OA
ATOM    105  O   UNL A   1      46.345  35.873  26.015  1.00  0.00    -0.237 OA
ATOM    106  O   UNL A   1      45.606  37.496  27.715  1.00  0.00    -0.744 OA
ENDBRANCH  99 103
ENDBRANCH  73  96
ENDBRANCH  47  48
ENDBRANCH  39  42
ENDBRANCH  37  38
ENDBRANCH  36  37
ENDBRANCH  35  36
ENDBRANCH   1  35
TORSDOF 19
ENDMDL
