MODEL 1
REMARK VINA RESULT:     -12.0      0.000      0.000
REMARK SMILES O=C(NCCCCCCNC(=O)[C@H]1C[N@H+](Cc2cccc(Cl)c2)CC12CCCCC2)c1ccc(-c2c3nc(c(-c4cc(S(=O)(=O)[O-])ccc4F)c4ccc([nH]4)c(-c4cc(S(=O)(=O)[O-])ccc4F)c4nc(c(-c5cc(S(=O)(=O)[O-])ccc5F)c5ccc2[nH]5)C=C4)C=C3)cc1
REMARK SMILES IDX 6 1 5 2 4 3 3 4 1 5 2 6 31 8 32 9 93 10 33 11 92 12 34 13
REMARK SMILES IDX 35 14 36 15 86 16 37 17 91 18 85 19 87 20 38 21 90 22 84 23
REMARK SMILES IDX 83 24 39 26 71 27 51 28 70 29 52 30 55 31 69 32 88 33 53 34
REMARK SMILES IDX 54 35 68 37 89 38 56 39 40 40 41 41 49 42 42 43 48 44 50 45
REMARK SMILES IDX 47 46 43 47 44 48 45 49 46 50 72 51 73 52 81 53 74 54 80 55
REMARK SMILES IDX 82 56 79 57 75 58 76 59 77 60 78 61 57 62 58 63 66 64 59 65
REMARK SMILES IDX 65 66 67 67 64 68 60 69 61 70 62 71 63 72 7 73 8 74 9 75
REMARK SMILES IDX 10 76 11 77 12 79 13 80 14 81 25 82 15 83 24 84 26 85 30 86
REMARK SMILES IDX 27 88 29 89 28 90 16 91 17 92 18 93 23 94 19 95 21 96 20 97
REMARK SMILES IDX 22 98
REMARK H PARENT 3 7 87 25 55 36 10 78 15 87
REMARK Flexibility Score: inf
ROOT
ATOM      1  C   UNL A   1      31.757  30.451  25.871  1.00  0.00     0.002 C 
ENDROOT
BRANCH   1   2
ATOM      2  C   UNL A   1      31.487  31.807  26.525  1.00  0.00     0.021 C 
BRANCH   2   3
ATOM      3  C   UNL A   1      32.680  32.419  27.248  1.00  0.00     0.116 C 
BRANCH   3   4
ATOM      4  N   UNL A   1      32.455  33.808  27.614  1.00  0.00    -0.352 N 
ATOM      5  O   UNL A   1      32.657  35.676  28.863  1.00  0.00    -0.269 OA
ATOM      6  C   UNL A   1      33.083  34.560  28.577  1.00  0.00     0.251 C 
ATOM      7  H   UNL A   1      31.758  34.275  27.100  1.00  0.00     0.163 HD
BRANCH   6   8
ATOM      8  C   UNL A   1      34.262  34.010  29.281  1.00  0.00     0.039 A 
ATOM      9  C   UNL A   1      35.554  34.347  28.869  1.00  0.00     0.014 A 
ATOM     10  C   UNL A   1      34.072  33.138  30.355  1.00  0.00     0.014 A 
ATOM     11  C   UNL A   1      36.647  33.701  29.435  1.00  0.00     0.010 A 
ATOM     12  C   UNL A   1      35.178  32.558  30.983  1.00  0.00     0.010 A 
ATOM     13  C   UNL A   1      36.475  32.809  30.505  1.00  0.00    -0.014 A 
BRANCH  13  14
ATOM     14  C   UNL A   1      37.672  32.186  31.129  1.00  0.00     0.031 A 
ATOM     15  C   UNL A   1      38.173  32.636  32.474  1.00  0.00     0.074 A 
ATOM     16  C   UNL A   1      38.282  31.173  30.481  1.00  0.00     0.049 A 
ATOM     17  N   UNL A   1      39.175  32.172  33.179  1.00  0.00    -0.248 NA
ATOM     18  C   UNL A   1      37.467  33.759  33.104  1.00  0.00     0.031 C 
ATOM     19  C   UNL A   1      37.886  30.658  29.167  1.00  0.00     0.029 A 
ATOM     20  N   UNL A   1      39.338  30.379  30.844  1.00  0.00    -0.354 N 
ATOM     21  C   UNL A   1      39.235  32.959  34.325  1.00  0.00     0.074 A 
ATOM     22  C   UNL A   1      38.186  33.950  34.201  1.00  0.00     0.031 C 
ATOM     23  C   UNL A   1      38.648  29.599  28.863  1.00  0.00     0.029 A 
ATOM     24  C   UNL A   1      39.630  29.399  29.923  1.00  0.00     0.049 A 
ATOM     25  H   UNL A   1      39.840  30.496  31.682  1.00  0.00     0.167 HD
ATOM     26  C   UNL A   1      40.080  32.856  35.382  1.00  0.00     0.034 A 
ATOM     27  C   UNL A   1      40.586  28.452  29.923  1.00  0.00     0.034 A 
ATOM     28  C   UNL A   1      41.115  31.852  35.489  1.00  0.00     0.049 A 
ATOM     29  C   UNL A   1      41.529  28.379  31.093  1.00  0.00     0.074 A 
ATOM     30  C   UNL A   1      41.998  31.631  36.532  1.00  0.00     0.029 A 
ATOM     31  N   UNL A   1      41.415  30.908  34.513  1.00  0.00    -0.354 N 
ATOM     32  N   UNL A   1      41.555  29.115  32.181  1.00  0.00    -0.248 NA
ATOM     33  C   UNL A   1      42.567  27.344  31.036  1.00  0.00     0.031 C 
ATOM     34  C   UNL A   1      42.873  30.602  36.160  1.00  0.00     0.029 A 
ATOM     35  C   UNL A   1      42.490  30.127  34.915  1.00  0.00     0.049 A 
ATOM     36  H   UNL A   1      40.935  30.808  33.660  1.00  0.00     0.167 HD
ATOM     37  C   UNL A   1      42.603  28.616  32.947  1.00  0.00     0.074 A 
ATOM     38  C   UNL A   1      43.166  27.504  32.207  1.00  0.00     0.031 C 
ATOM     39  C   UNL A   1      43.056  29.036  34.156  1.00  0.00     0.034 A 
BRANCH  26  40
ATOM     40  C   UNL A   1      39.950  33.887  36.480  1.00  0.00     0.023 A 
ATOM     41  C   UNL A   1      39.487  33.553  37.765  1.00  0.00     0.031 A 
ATOM     42  C   UNL A   1      40.268  35.234  36.228  1.00  0.00     0.131 A 
ATOM     43  C   UNL A   1      39.281  34.559  38.721  1.00  0.00     0.055 A 
ATOM     44  C   UNL A   1      40.138  36.219  37.209  1.00  0.00     0.041 A 
ATOM     45  F   UNL A   1      40.697  35.619  35.016  1.00  0.00    -0.206 F 
ATOM     46  C   UNL A   1      39.626  35.887  38.460  1.00  0.00     0.022 A 
BRANCH  43  47
ATOM     47  S   UNL A   1      38.416  34.133  40.259  1.00  0.00     0.124 S 
ATOM     48  O   UNL A   1      38.202  35.450  40.854  1.00  0.00    -0.237 OA
ATOM     49  O   UNL A   1      37.222  33.453  39.771  1.00  0.00    -0.237 OA
ATOM     50  O   UNL A   1      39.372  33.286  40.969  1.00  0.00    -0.744 OA
ENDBRANCH  43  47
ENDBRANCH  26  40
BRANCH  27  51
ATOM     51  C   UNL A   1      40.713  27.512  28.774  1.00  0.00     0.023 A 
ATOM     52  C   UNL A   1      41.688  27.708  27.785  1.00  0.00     0.031 A 
ATOM     53  C   UNL A   1      39.845  26.413  28.640  1.00  0.00     0.131 A 
ATOM     54  C   UNL A   1      41.749  26.839  26.684  1.00  0.00     0.055 A 
ATOM     55  C   UNL A   1      39.944  25.522  27.571  1.00  0.00     0.041 A 
ATOM     56  F   UNL A   1      38.899  26.178  29.564  1.00  0.00    -0.206 F 
ATOM     57  C   UNL A   1      40.894  25.740  26.579  1.00  0.00     0.022 A 
BRANCH  54  58
ATOM     58  S   UNL A   1      42.922  27.209  25.352  1.00  0.00     0.124 S 
ATOM     59  O   UNL A   1      44.118  27.578  26.102  1.00  0.00    -0.237 OA
ATOM     60  O   UNL A   1      42.979  25.938  24.638  1.00  0.00    -0.237 OA
ATOM     61  O   UNL A   1      42.278  28.301  24.626  1.00  0.00    -0.744 OA
ENDBRANCH  54  58
ENDBRANCH  27  51
BRANCH  39  62
ATOM     62  C   UNL A   1      44.199  28.254  34.757  1.00  0.00     0.023 A 
ATOM     63  C   UNL A   1      43.977  27.125  35.565  1.00  0.00     0.031 A 
ATOM     64  C   UNL A   1      45.525  28.672  34.552  1.00  0.00     0.131 A 
ATOM     65  C   UNL A   1      45.060  26.493  36.194  1.00  0.00     0.055 A 
ATOM     66  C   UNL A   1      46.603  28.000  35.131  1.00  0.00     0.041 A 
ATOM     67  F   UNL A   1      45.795  29.745  33.792  1.00  0.00    -0.206 F 
ATOM     68  C   UNL A   1      46.373  26.914  35.970  1.00  0.00     0.022 A 
BRANCH  65  69
ATOM     69  S   UNL A   1      44.720  25.178  37.398  1.00  0.00     0.124 S 
ATOM     70  O   UNL A   1      44.635  23.998  36.544  1.00  0.00    -0.237 OA
ATOM     71  O   UNL A   1      45.885  25.250  38.274  1.00  0.00    -0.237 OA
ATOM     72  O   UNL A   1      43.459  25.593  38.010  1.00  0.00    -0.744 OA
ENDBRANCH  65  69
ENDBRANCH  39  62
ENDBRANCH  13  14
ENDBRANCH   6   8
ENDBRANCH   3   4
ENDBRANCH   2   3
ENDBRANCH   1   2
BRANCH   1  73
ATOM     73  C   UNL A   1      31.781  29.255  26.827  1.00  0.00     0.002 C 
BRANCH  73  74
ATOM     74  C   UNL A   1      33.138  28.564  26.980  1.00  0.00     0.021 C 
BRANCH  74  75
ATOM     75  C   UNL A   1      33.088  27.044  26.874  1.00  0.00     0.116 C 
BRANCH  75  76
ATOM     76  N   UNL A   1      31.720  26.561  26.892  1.00  0.00    -0.356 N 
ATOM     77  C   UNL A   1      31.060  25.770  25.999  1.00  0.00     0.229 C 
ATOM     78  H   UNL A   1      31.187  26.848  27.668  1.00  0.00     0.163 HD
ATOM     79  O   UNL A   1      29.883  25.489  26.236  1.00  0.00    -0.275 OA
BRANCH  77  80
ATOM     80  C   UNL A   1      31.788  25.276  24.760  1.00  0.00     0.145 C 
ATOM     81  C   UNL A   1      31.080  24.058  24.173  1.00  0.00     0.276 C 
ATOM     82  C   UNL A   1      31.940  26.266  23.569  1.00  0.00     0.037 C 
ATOM     83  N   UNL A   1      31.538  23.974  22.791  1.00  0.00    -0.330 N 
ATOM     84  C   UNL A   1      31.680  25.356  22.329  1.00  0.00     0.270 C 
ATOM     85  C   UNL A   1      30.940  27.450  23.617  1.00  0.00     0.014 C 
ATOM     86  C   UNL A   1      33.362  26.875  23.542  1.00  0.00     0.014 C 
ATOM     87  H   UNL A   1      30.845  23.491  22.219  1.00  0.00     0.348 HD
ATOM     88  C   UNL A   1      31.154  28.471  22.492  1.00  0.00     0.001 C 
ATOM     89  C   UNL A   1      33.594  27.840  22.383  1.00  0.00     0.001 C 
ATOM     90  C   UNL A   1      32.591  28.982  22.433  1.00  0.00     0.000 C 
BRANCH  83  91
ATOM     91  C   UNL A   1      32.647  23.051  22.514  1.00  0.00     0.299 C 
BRANCH  91  92
ATOM     92  C   UNL A   1      33.468  22.529  23.676  1.00  0.00     0.008 A 
ATOM     93  C   UNL A   1      33.093  21.368  24.370  1.00  0.00     0.009 A 
ATOM     94  C   UNL A   1      34.620  23.215  24.095  1.00  0.00     0.030 A 
ATOM     95  C   UNL A   1      33.791  20.956  25.510  1.00  0.00     0.002 A 
ATOM     96  C   UNL A   1      35.322  22.794  25.228  1.00  0.00     0.041 A 
ATOM     97  C   UNL A   1      34.901  21.678  25.946  1.00  0.00     0.020 A 
ATOM     98  Cl  UNL A   1      36.677  23.702  25.772  1.00  0.00    -0.084 Cl
ENDBRANCH  91  92
ENDBRANCH  83  91
ENDBRANCH  77  80
ENDBRANCH  75  76
ENDBRANCH  74  75
ENDBRANCH  73  74
ENDBRANCH   1  73
TORSDOF 18
ENDMDL
MODEL 2
REMARK VINA RESULT:     -11.8      2.245      3.856
REMARK SMILES O=C(NCCCCCCNC(=O)[C@H]1C[N@H+](Cc2cccc(Cl)c2)CC12CCCCC2)c1ccc(-c2c3nc(c(-c4cc(S(=O)(=O)[O-])ccc4F)c4ccc([nH]4)c(-c4cc(S(=O)(=O)[O-])ccc4F)c4nc(c(-c5cc(S(=O)(=O)[O-])ccc5F)c5ccc2[nH]5)C=C4)C=C3)cc1
REMARK SMILES IDX 6 1 5 2 4 3 3 4 1 5 2 6 31 8 32 9 93 10 33 11 92 12 34 13
REMARK SMILES IDX 35 14 36 15 86 16 37 17 91 18 85 19 87 20 38 21 90 22 84 23
REMARK SMILES IDX 83 24 39 26 71 27 51 28 70 29 52 30 55 31 69 32 88 33 53 34
REMARK SMILES IDX 54 35 68 37 89 38 56 39 40 40 41 41 49 42 42 43 48 44 50 45
REMARK SMILES IDX 47 46 43 47 44 48 45 49 46 50 72 51 73 52 81 53 74 54 80 55
REMARK SMILES IDX 82 56 79 57 75 58 76 59 77 60 78 61 57 62 58 63 66 64 59 65
REMARK SMILES IDX 65 66 67 67 64 68 60 69 61 70 62 71 63 72 7 73 8 74 9 75
REMARK SMILES IDX 10 76 11 77 12 79 13 80 14 81 25 82 15 83 24 84 26 85 30 86
REMARK SMILES IDX 27 88 29 89 28 90 16 91 17 92 18 93 23 94 19 95 21 96 20 97
REMARK SMILES IDX 22 98
REMARK H PARENT 3 7 87 25 55 36 10 78 15 87
REMARK Flexibility Score: inf
ROOT
ATOM      1  C   UNL A   1      34.956  31.563  27.654  1.00  0.00     0.002 C 
ENDROOT
BRANCH   1   2
ATOM      2  C   UNL A   1      33.749  32.361  28.150  1.00  0.00     0.021 C 
BRANCH   2   3
ATOM      3  C   UNL A   1      33.784  33.847  27.819  1.00  0.00     0.116 C 
BRANCH   3   4
ATOM      4  N   UNL A   1      33.113  34.656  28.824  1.00  0.00    -0.352 N 
ATOM      5  O   UNL A   1      32.606  35.370  30.903  1.00  0.00    -0.269 OA
ATOM      6  C   UNL A   1      33.378  34.759  30.168  1.00  0.00     0.251 C 
ATOM      7  H   UNL A   1      32.366  35.206  28.496  1.00  0.00     0.163 HD
BRANCH   6   8
ATOM      8  C   UNL A   1      34.585  34.114  30.727  1.00  0.00     0.039 A 
ATOM      9  C   UNL A   1      35.857  34.594  30.407  1.00  0.00     0.014 A 
ATOM     10  C   UNL A   1      34.442  33.009  31.570  1.00  0.00     0.014 A 
ATOM     11  C   UNL A   1      36.982  33.884  30.810  1.00  0.00     0.010 A 
ATOM     12  C   UNL A   1      35.578  32.349  32.047  1.00  0.00     0.010 A 
ATOM     13  C   UNL A   1      36.859  32.761  31.643  1.00  0.00    -0.014 A 
BRANCH  13  14
ATOM     14  C   UNL A   1      38.087  32.065  32.107  1.00  0.00     0.031 A 
ATOM     15  C   UNL A   1      38.703  32.377  33.444  1.00  0.00     0.074 A 
ATOM     16  C   UNL A   1      38.623  31.110  31.321  1.00  0.00     0.049 A 
ATOM     17  N   UNL A   1      39.746  31.834  34.019  1.00  0.00    -0.248 NA
ATOM     18  C   UNL A   1      38.072  33.445  34.231  1.00  0.00     0.031 C 
ATOM     19  C   UNL A   1      38.114  30.729  30.000  1.00  0.00     0.029 A 
ATOM     20  N   UNL A   1      39.686  30.269  31.520  1.00  0.00    -0.354 N 
ATOM     21  C   UNL A   1      39.913  32.507  35.226  1.00  0.00     0.074 A 
ATOM     22  C   UNL A   1      38.879  33.520  35.280  1.00  0.00     0.031 C 
ATOM     23  C   UNL A   1      38.826  29.692  29.537  1.00  0.00     0.029 A 
ATOM     24  C   UNL A   1      39.883  29.378  30.491  1.00  0.00     0.049 A 
ATOM     25  H   UNL A   1      40.255  30.300  32.323  1.00  0.00     0.167 HD
ATOM     26  C   UNL A   1      40.836  32.291  36.197  1.00  0.00     0.034 A 
ATOM     27  C   UNL A   1      40.816  28.422  30.326  1.00  0.00     0.034 A 
ATOM     28  C   UNL A   1      41.854  31.267  36.126  1.00  0.00     0.049 A 
ATOM     29  C   UNL A   1      41.846  28.224  31.404  1.00  0.00     0.074 A 
ATOM     30  C   UNL A   1      42.812  30.935  37.069  1.00  0.00     0.029 A 
ATOM     31  N   UNL A   1      42.056  30.417  35.045  1.00  0.00    -0.354 N 
ATOM     32  N   UNL A   1      41.973  28.852  32.551  1.00  0.00    -0.248 NA
ATOM     33  C   UNL A   1      42.853  27.185  31.167  1.00  0.00     0.031 C 
ATOM     34  C   UNL A   1      43.632  29.934  36.533  1.00  0.00     0.029 A 
ATOM     35  C   UNL A   1      43.142  29.586  35.284  1.00  0.00     0.049 A 
ATOM     36  H   UNL A   1      41.508  30.406  34.227  1.00  0.00     0.167 HD
ATOM     37  C   UNL A   1      43.067  28.268  33.180  1.00  0.00     0.074 A 
ATOM     38  C   UNL A   1      43.546  27.224  32.296  1.00  0.00     0.031 C 
ATOM     39  C   UNL A   1      43.623  28.564  34.383  1.00  0.00     0.034 A 
BRANCH  26  40
ATOM     40  C   UNL A   1      40.815  33.215  37.394  1.00  0.00     0.023 A 
ATOM     41  C   UNL A   1      40.020  32.953  38.524  1.00  0.00     0.031 A 
ATOM     42  C   UNL A   1      41.584  34.393  37.393  1.00  0.00     0.131 A 
ATOM     43  C   UNL A   1      39.950  33.889  39.566  1.00  0.00     0.055 A 
ATOM     44  C   UNL A   1      41.572  35.282  38.469  1.00  0.00     0.041 A 
ATOM     45  F   UNL A   1      42.348  34.709  36.337  1.00  0.00    -0.206 F 
ATOM     46  C   UNL A   1      40.739  35.042  39.558  1.00  0.00     0.022 A 
BRANCH  43  47
ATOM     47  S   UNL A   1      38.701  33.655  40.862  1.00  0.00     0.124 S 
ATOM     48  O   UNL A   1      38.306  35.033  41.147  1.00  0.00    -0.237 OA
ATOM     49  O   UNL A   1      37.702  32.832  40.193  1.00  0.00    -0.237 OA
ATOM     50  O   UNL A   1      39.439  32.994  41.937  1.00  0.00    -0.744 OA
ENDBRANCH  43  47
ENDBRANCH  26  40
BRANCH  27  51
ATOM     51  C   UNL A   1      40.831  27.594  29.087  1.00  0.00     0.023 A 
ATOM     52  C   UNL A   1      41.742  27.859  28.053  1.00  0.00     0.031 A 
ATOM     53  C   UNL A   1      39.920  26.537  28.912  1.00  0.00     0.131 A 
ATOM     54  C   UNL A   1      41.698  27.099  26.874  1.00  0.00     0.055 A 
ATOM     55  C   UNL A   1      39.915  25.751  27.760  1.00  0.00     0.041 A 
ATOM     56  F   UNL A   1      39.033  26.240  29.876  1.00  0.00    -0.206 F 
ATOM     57  C   UNL A   1      40.801  26.039  26.727  1.00  0.00     0.022 A 
BRANCH  54  58
ATOM     58  S   UNL A   1      42.788  27.565  25.502  1.00  0.00     0.124 S 
ATOM     59  O   UNL A   1      42.121  28.754  24.982  1.00  0.00    -0.237 OA
ATOM     60  O   UNL A   1      44.057  27.787  26.185  1.00  0.00    -0.237 OA
ATOM     61  O   UNL A   1      42.750  26.395  24.627  1.00  0.00    -0.744 OA
ENDBRANCH  54  58
ENDBRANCH  27  51
BRANCH  39  62
ATOM     62  C   UNL A   1      44.792  27.712  34.813  1.00  0.00     0.023 A 
ATOM     63  C   UNL A   1      44.612  26.537  35.564  1.00  0.00     0.031 A 
ATOM     64  C   UNL A   1      46.105  28.107  34.505  1.00  0.00     0.131 A 
ATOM     65  C   UNL A   1      45.730  25.834  36.038  1.00  0.00     0.055 A 
ATOM     66  C   UNL A   1      47.212  27.369  34.928  1.00  0.00     0.041 A 
ATOM     67  F   UNL A   1      46.335  29.222  33.794  1.00  0.00    -0.206 F 
ATOM     68  C   UNL A   1      47.028  26.234  35.712  1.00  0.00     0.022 A 
BRANCH  65  69
ATOM     69  S   UNL A   1      45.466  24.450  37.182  1.00  0.00     0.124 S 
ATOM     70  O   UNL A   1      44.904  23.430  36.301  1.00  0.00    -0.237 OA
ATOM     71  O   UNL A   1      46.814  24.193  37.677  1.00  0.00    -0.237 OA
ATOM     72  O   UNL A   1      44.537  24.995  38.171  1.00  0.00    -0.744 OA
ENDBRANCH  65  69
ENDBRANCH  39  62
ENDBRANCH  13  14
ENDBRANCH   6   8
ENDBRANCH   3   4
ENDBRANCH   2   3
ENDBRANCH   1   2
BRANCH   1  73
ATOM     73  C   UNL A   1      35.058  30.131  28.186  1.00  0.00     0.002 C 
BRANCH  73  74
ATOM     74  C   UNL A   1      34.312  29.073  27.369  1.00  0.00     0.021 C 
BRANCH  74  75
ATOM     75  C   UNL A   1      33.469  29.635  26.229  1.00  0.00     0.116 C 
BRANCH  75  76
ATOM     76  N   UNL A   1      34.021  29.267  24.938  1.00  0.00    -0.356 N 
ATOM     77  C   UNL A   1      33.413  28.705  23.855  1.00  0.00     0.229 C 
ATOM     78  H   UNL A   1      34.981  29.452  24.828  1.00  0.00     0.163 HD
ATOM     79  O   UNL A   1      34.100  28.484  22.856  1.00  0.00    -0.275 OA
BRANCH  77  80
ATOM     80  C   UNL A   1      31.932  28.372  23.921  1.00  0.00     0.145 C 
ATOM     81  C   UNL A   1      31.277  28.567  22.556  1.00  0.00     0.276 C 
ATOM     82  C   UNL A   1      31.534  26.931  24.356  1.00  0.00     0.037 C 
ATOM     83  N   UNL A   1      30.046  27.788  22.603  1.00  0.00    -0.330 N 
ATOM     84  C   UNL A   1      30.355  26.594  23.394  1.00  0.00     0.270 C 
ATOM     85  C   UNL A   1      32.685  25.902  24.216  1.00  0.00     0.014 C 
ATOM     86  C   UNL A   1      31.086  26.910  25.837  1.00  0.00     0.014 C 
ATOM     87  H   UNL A   1      29.767  27.512  21.661  1.00  0.00     0.348 HD
ATOM     88  C   UNL A   1      32.318  24.505  24.731  1.00  0.00     0.001 C 
ATOM     89  C   UNL A   1      30.656  25.532  26.328  1.00  0.00     0.001 C 
ATOM     90  C   UNL A   1      31.790  24.531  26.163  1.00  0.00     0.000 C 
BRANCH  83  91
ATOM     91  C   UNL A   1      28.812  28.515  22.931  1.00  0.00     0.299 C 
BRANCH  91  92
ATOM     92  C   UNL A   1      28.759  30.008  22.683  1.00  0.00     0.008 A 
ATOM     93  C   UNL A   1      29.018  30.929  23.712  1.00  0.00     0.009 A 
ATOM     94  C   UNL A   1      28.429  30.505  21.411  1.00  0.00     0.030 A 
ATOM     95  C   UNL A   1      28.858  32.302  23.503  1.00  0.00     0.002 A 
ATOM     96  C   UNL A   1      28.280  31.879  21.203  1.00  0.00     0.041 A 
ATOM     97  C   UNL A   1      28.476  32.777  22.249  1.00  0.00     0.020 A 
ATOM     98  Cl  UNL A   1      27.788  32.455  19.659  1.00  0.00    -0.084 Cl
ENDBRANCH  91  92
ENDBRANCH  83  91
ENDBRANCH  77  80
ENDBRANCH  75  76
ENDBRANCH  74  75
ENDBRANCH  73  74
ENDBRANCH   1  73
TORSDOF 18
ENDMDL
MODEL 3
REMARK VINA RESULT:     -11.7      2.679      4.260
REMARK SMILES O=C(NCCCCCCNC(=O)[C@H]1C[N@H+](Cc2cccc(Cl)c2)CC12CCCCC2)c1ccc(-c2c3nc(c(-c4cc(S(=O)(=O)[O-])ccc4F)c4ccc([nH]4)c(-c4cc(S(=O)(=O)[O-])ccc4F)c4nc(c(-c5cc(S(=O)(=O)[O-])ccc5F)c5ccc2[nH]5)C=C4)C=C3)cc1
REMARK SMILES IDX 6 1 5 2 4 3 3 4 1 5 2 6 31 8 32 9 93 10 33 11 92 12 34 13
REMARK SMILES IDX 35 14 36 15 86 16 37 17 91 18 85 19 87 20 38 21 90 22 84 23
REMARK SMILES IDX 83 24 39 26 71 27 51 28 70 29 52 30 55 31 69 32 88 33 53 34
REMARK SMILES IDX 54 35 68 37 89 38 56 39 40 40 41 41 49 42 42 43 48 44 50 45
REMARK SMILES IDX 47 46 43 47 44 48 45 49 46 50 72 51 73 52 81 53 74 54 80 55
REMARK SMILES IDX 82 56 79 57 75 58 76 59 77 60 78 61 57 62 58 63 66 64 59 65
REMARK SMILES IDX 65 66 67 67 64 68 60 69 61 70 62 71 63 72 7 73 8 74 9 75
REMARK SMILES IDX 10 76 11 77 12 79 13 80 14 81 25 82 15 83 24 84 26 85 30 86
REMARK SMILES IDX 27 88 29 89 28 90 16 91 17 92 18 93 23 94 19 95 21 96 20 97
REMARK SMILES IDX 22 98
REMARK H PARENT 3 7 87 25 55 36 10 78 15 87
REMARK Flexibility Score: inf
ROOT
ATOM      1  C   UNL A   1      35.007  31.586  27.646  1.00  0.00     0.002 C 
ENDROOT
BRANCH   1   2
ATOM      2  C   UNL A   1      33.772  32.411  28.013  1.00  0.00     0.021 C 
BRANCH   2   3
ATOM      3  C   UNL A   1      33.971  33.920  27.962  1.00  0.00     0.116 C 
BRANCH   3   4
ATOM      4  N   UNL A   1      33.271  34.610  29.033  1.00  0.00    -0.352 N 
ATOM      5  O   UNL A   1      32.737  35.113  31.167  1.00  0.00    -0.269 OA
ATOM      6  C   UNL A   1      33.530  34.598  30.383  1.00  0.00     0.251 C 
ATOM      7  H   UNL A   1      32.506  35.162  28.754  1.00  0.00     0.163 HD
BRANCH   6   8
ATOM      8  C   UNL A   1      34.758  33.946  30.885  1.00  0.00     0.039 A 
ATOM      9  C   UNL A   1      36.015  34.486  30.601  1.00  0.00     0.014 A 
ATOM     10  C   UNL A   1      34.651  32.774  31.639  1.00  0.00     0.014 A 
ATOM     11  C   UNL A   1      37.161  33.779  30.943  1.00  0.00     0.010 A 
ATOM     12  C   UNL A   1      35.808  32.112  32.059  1.00  0.00     0.010 A 
ATOM     13  C   UNL A   1      37.074  32.591  31.686  1.00  0.00    -0.014 A 
BRANCH  13  14
ATOM     14  C   UNL A   1      38.324  31.895  32.090  1.00  0.00     0.031 A 
ATOM     15  C   UNL A   1      39.002  32.207  33.396  1.00  0.00     0.074 A 
ATOM     16  C   UNL A   1      38.822  30.942  31.278  1.00  0.00     0.049 A 
ATOM     17  N   UNL A   1      40.072  31.665  33.921  1.00  0.00    -0.248 NA
ATOM     18  C   UNL A   1      38.409  33.274  34.214  1.00  0.00     0.031 C 
ATOM     19  C   UNL A   1      38.251  30.560  29.983  1.00  0.00     0.029 A 
ATOM     20  N   UNL A   1      39.894  30.102  31.426  1.00  0.00    -0.354 N 
ATOM     21  C   UNL A   1      40.296  32.337  35.119  1.00  0.00     0.074 A 
ATOM     22  C   UNL A   1      39.265  33.349  35.223  1.00  0.00     0.031 C 
ATOM     23  C   UNL A   1      38.941  29.525  29.485  1.00  0.00     0.029 A 
ATOM     24  C   UNL A   1      40.043  29.212  30.388  1.00  0.00     0.049 A 
ATOM     25  H   UNL A   1      40.501  30.132  32.201  1.00  0.00     0.167 HD
ATOM     26  C   UNL A   1      41.264  32.122  36.044  1.00  0.00     0.034 A 
ATOM     27  C   UNL A   1      40.968  28.257  30.178  1.00  0.00     0.034 A 
ATOM     28  C   UNL A   1      42.279  31.099  35.924  1.00  0.00     0.049 A 
ATOM     29  C   UNL A   1      42.049  28.059  31.205  1.00  0.00     0.074 A 
ATOM     30  C   UNL A   1      43.281  30.767  36.820  1.00  0.00     0.029 A 
ATOM     31  N   UNL A   1      42.430  30.249  34.833  1.00  0.00    -0.354 N 
ATOM     32  N   UNL A   1      42.230  28.687  32.345  1.00  0.00    -0.248 NA
ATOM     33  C   UNL A   1      43.045  27.022  30.920  1.00  0.00     0.031 C 
ATOM     34  C   UNL A   1      44.076  29.768  36.245  1.00  0.00     0.029 A 
ATOM     35  C   UNL A   1      43.527  29.420  35.020  1.00  0.00     0.049 A 
ATOM     36  H   UNL A   1      41.844  30.239  34.043  1.00  0.00     0.167 HD
ATOM     37  C   UNL A   1      43.353  28.103  32.921  1.00  0.00     0.074 A 
ATOM     38  C   UNL A   1      43.790  27.060  32.014  1.00  0.00     0.031 C 
ATOM     39  C   UNL A   1      43.965  28.399  34.096  1.00  0.00     0.034 A 
BRANCH  26  40
ATOM     40  C   UNL A   1      41.300  33.045  37.242  1.00  0.00     0.023 A 
ATOM     41  C   UNL A   1      40.568  32.775  38.412  1.00  0.00     0.031 A 
ATOM     42  C   UNL A   1      42.057  34.229  37.201  1.00  0.00     0.131 A 
ATOM     43  C   UNL A   1      40.546  33.711  39.458  1.00  0.00     0.055 A 
ATOM     44  C   UNL A   1      42.096  35.118  38.277  1.00  0.00     0.041 A 
ATOM     45  F   UNL A   1      42.762  34.552  36.105  1.00  0.00    -0.206 F 
ATOM     46  C   UNL A   1      41.324  34.870  39.408  1.00  0.00     0.022 A 
BRANCH  43  47
ATOM     47  S   UNL A   1      39.371  33.465  40.818  1.00  0.00     0.124 S 
ATOM     48  O   UNL A   1      39.487  32.028  41.056  1.00  0.00    -0.237 OA
ATOM     49  O   UNL A   1      39.911  34.328  41.862  1.00  0.00    -0.237 OA
ATOM     50  O   UNL A   1      38.093  33.892  40.252  1.00  0.00    -0.744 OA
ENDBRANCH  43  47
ENDBRANCH  26  40
BRANCH  27  51
ATOM     51  C   UNL A   1      40.925  27.430  28.939  1.00  0.00     0.023 A 
ATOM     52  C   UNL A   1      41.869  27.610  27.918  1.00  0.00     0.031 A 
ATOM     53  C   UNL A   1      39.925  26.459  28.752  1.00  0.00     0.131 A 
ATOM     54  C   UNL A   1      41.773  26.857  26.738  1.00  0.00     0.055 A 
ATOM     55  C   UNL A   1      39.864  25.676  27.599  1.00  0.00     0.041 A 
ATOM     56  F   UNL A   1      39.002  26.244  29.703  1.00  0.00    -0.206 F 
ATOM     57  C   UNL A   1      40.786  25.881  26.578  1.00  0.00     0.022 A 
BRANCH  54  58
ATOM     58  S   UNL A   1      42.918  27.220  25.380  1.00  0.00     0.124 S 
ATOM     59  O   UNL A   1      42.221  28.294  24.681  1.00  0.00    -0.237 OA
ATOM     60  O   UNL A   1      44.128  27.603  26.100  1.00  0.00    -0.237 OA
ATOM     61  O   UNL A   1      43.000  25.953  24.656  1.00  0.00    -0.744 OA
ENDBRANCH  54  58
ENDBRANCH  27  51
BRANCH  39  62
ATOM     62  C   UNL A   1      45.155  27.548  34.470  1.00  0.00     0.023 A 
ATOM     63  C   UNL A   1      46.462  27.900  34.091  1.00  0.00     0.031 A 
ATOM     64  C   UNL A   1      44.970  26.347  35.177  1.00  0.00     0.131 A 
ATOM     65  C   UNL A   1      47.526  27.027  34.363  1.00  0.00     0.055 A 
ATOM     66  C   UNL A   1      46.042  25.513  35.499  1.00  0.00     0.041 A 
ATOM     67  F   UNL A   1      43.743  25.961  35.561  1.00  0.00    -0.206 F 
ATOM     68  C   UNL A   1      47.326  25.843  35.077  1.00  0.00     0.022 A 
BRANCH  65  69
ATOM     69  S   UNL A   1      49.161  27.406  33.671  1.00  0.00     0.124 S 
ATOM     70  O   UNL A   1      49.768  28.192  34.741  1.00  0.00    -0.237 OA
ATOM     71  O   UNL A   1      49.725  26.077  33.457  1.00  0.00    -0.237 OA
ATOM     72  O   UNL A   1      48.852  28.151  32.452  1.00  0.00    -0.744 OA
ENDBRANCH  65  69
ENDBRANCH  39  62
ENDBRANCH  13  14
ENDBRANCH   6   8
ENDBRANCH   3   4
ENDBRANCH   2   3
ENDBRANCH   1   2
BRANCH   1  73
ATOM     73  C   UNL A   1      35.018  30.151  28.178  1.00  0.00     0.002 C 
BRANCH  73  74
ATOM     74  C   UNL A   1      34.865  29.057  27.119  1.00  0.00     0.021 C 
BRANCH  74  75
ATOM     75  C   UNL A   1      33.712  29.279  26.144  1.00  0.00     0.116 C 
BRANCH  75  76
ATOM     76  N   UNL A   1      34.136  29.066  24.773  1.00  0.00    -0.356 N 
ATOM     77  C   UNL A   1      33.411  28.693  23.681  1.00  0.00     0.229 C 
ATOM     78  H   UNL A   1      35.095  29.213  24.606  1.00  0.00     0.163 HD
ATOM     79  O   UNL A   1      34.002  28.578  22.606  1.00  0.00    -0.275 OA
BRANCH  77  80
ATOM     80  C   UNL A   1      31.921  28.433  23.829  1.00  0.00     0.145 C 
ATOM     81  C   UNL A   1      31.193  28.720  22.519  1.00  0.00     0.276 C 
ATOM     82  C   UNL A   1      31.475  26.997  24.230  1.00  0.00     0.037 C 
ATOM     83  N   UNL A   1      29.928  28.003  22.614  1.00  0.00    -0.330 N 
ATOM     84  C   UNL A   1      30.222  26.761  23.333  1.00  0.00     0.270 C 
ATOM     85  C   UNL A   1      32.559  25.918  23.975  1.00  0.00     0.014 C 
ATOM     86  C   UNL A   1      31.121  26.933  25.735  1.00  0.00     0.014 C 
ATOM     87  H   UNL A   1      29.576  27.783  21.682  1.00  0.00     0.348 HD
ATOM     88  C   UNL A   1      32.151  24.520  24.455  1.00  0.00     0.001 C 
ATOM     89  C   UNL A   1      30.650  25.558  26.197  1.00  0.00     0.001 C 
ATOM     90  C   UNL A   1      31.716  24.510  25.919  1.00  0.00     0.000 C 
BRANCH  83  91
ATOM     91  C   UNL A   1      28.757  28.776  23.050  1.00  0.00     0.299 C 
BRANCH  91  92
ATOM     92  C   UNL A   1      28.521  30.144  22.443  1.00  0.00     0.008 A 
ATOM     93  C   UNL A   1      27.993  30.287  21.150  1.00  0.00     0.009 A 
ATOM     94  C   UNL A   1      28.846  31.306  23.164  1.00  0.00     0.030 A 
ATOM     95  C   UNL A   1      27.883  31.548  20.555  1.00  0.00     0.002 A 
ATOM     96  C   UNL A   1      28.724  32.565  22.570  1.00  0.00     0.041 A 
ATOM     97  C   UNL A   1      28.262  32.688  21.263  1.00  0.00     0.020 A 
ATOM     98  Cl  UNL A   1      29.214  33.964  23.441  1.00  0.00    -0.084 Cl
ENDBRANCH  91  92
ENDBRANCH  83  91
ENDBRANCH  77  80
ENDBRANCH  75  76
ENDBRANCH  74  75
ENDBRANCH  73  74
ENDBRANCH   1  73
TORSDOF 18
ENDMDL
