MODEL 1
REMARK VINA RESULT:     -11.7      0.000      0.000
REMARK SMILES CCc1nc(COC)cc(N2CCCC[C@H]2C(=O)NCCCCCCNC(=O)c2ccc(-c3c4nc(c(-c5cc(S(=O)(=O)[O-])ccc5F)c5ccc([nH]5)c(-c5cc(S(=O)(=O)[O-])ccc5F)c5nc(c(-c6cc(S(=O)(=O)[O-])ccc6F)c6ccc3[nH]6)C=C5)C=C4)cc2)n1
REMARK SMILES IDX 22 1 21 2 20 3 19 4 17 5 18 6 16 8 11 9 12 10 13 11 15 12
REMARK SMILES IDX 14 13 10 14 3 15 4 16 92 17 5 18 9 19 2 20 1 21 6 22 7 23
REMARK SMILES IDX 8 24 23 25 24 26 25 27 26 28 27 29 28 31 29 32 30 33 91 34
REMARK SMILES IDX 31 35 90 36 32 37 33 38 34 39 84 40 35 41 89 42 83 43 85 44
REMARK SMILES IDX 36 45 88 46 82 47 81 48 37 50 69 51 49 52 68 53 50 54 53 55
REMARK SMILES IDX 67 56 86 57 51 58 52 59 66 61 87 62 54 63 38 64 39 65 47 66
REMARK SMILES IDX 40 67 46 68 48 69 45 70 41 71 42 72 43 73 44 74 70 75 71 76
REMARK SMILES IDX 79 77 72 78 78 79 80 80 77 81 73 82 74 83 75 84 76 85 55 86
REMARK SMILES IDX 56 87 64 88 57 89 63 90 65 91 62 92 58 93 59 94 60 95 61 96
REMARK H PARENT 19 7 26 30 85 49 53 60
REMARK Flexibility Score: inf
ROOT
ATOM      1  C   UNL A   1      32.710  28.862  26.691  1.00  0.00     0.002 C 
ENDROOT
BRANCH   1   2
ATOM      2  C   UNL A   1      31.519  27.990  27.091  1.00  0.00     0.021 C 
BRANCH   2   3
ATOM      3  C   UNL A   1      31.102  26.966  26.037  1.00  0.00     0.116 C 
BRANCH   3   4
ATOM      4  N   UNL A   1      30.820  25.670  26.613  1.00  0.00    -0.354 N 
ATOM      5  C   UNL A   1      31.527  24.518  26.723  1.00  0.00     0.242 C 
ATOM      6  O   UNL A   1      30.951  23.618  27.360  1.00  0.00    -0.273 OA
ATOM      7  H   UNL A   1      29.922  25.611  27.010  1.00  0.00     0.163 HD
BRANCH   5   8
ATOM      8  C   UNL A   1      32.916  24.211  26.089  1.00  0.00     0.173 C 
ATOM      9  N   UNL A   1      32.765  23.282  24.956  1.00  0.00    -0.344 N 
ATOM     10  C   UNL A   1      32.582  23.822  23.622  1.00  0.00     0.119 C 
ATOM     11  C   UNL A   1      33.703  24.781  23.261  1.00  0.00     0.022 C 
ATOM     12  C   UNL A   1      33.927  25.315  25.757  1.00  0.00     0.035 C 
ATOM     13  C   UNL A   1      33.906  25.855  24.321  1.00  0.00     0.004 C 
BRANCH   9  14
ATOM     14  C   UNL A   1      33.374  22.040  25.029  1.00  0.00     0.133 A 
ATOM     15  C   UNL A   1      35.296  20.773  24.943  1.00  0.00     0.130 A 
ATOM     16  N   UNL A   1      34.623  19.615  24.860  1.00  0.00    -0.235 NA
ATOM     17  N   UNL A   1      34.714  21.980  25.019  1.00  0.00    -0.216 NA
ATOM     18  C   UNL A   1      33.275  19.696  24.839  1.00  0.00     0.072 A 
ATOM     19  C   UNL A   1      32.606  20.897  24.977  1.00  0.00     0.073 A 
BRANCH  15  20
ATOM     20  C   UNL A   1      36.800  20.760  24.947  1.00  0.00     0.074 C 
ATOM     21  C   UNL A   1      37.445  22.105  24.650  1.00  0.00     0.012 C 
ENDBRANCH  15  20
BRANCH  18  22
ATOM     22  C   UNL A   1      32.501  18.441  24.503  1.00  0.00     0.216 C 
BRANCH  22  23
ATOM     23  O   UNL A   1      32.340  17.556  25.622  1.00  0.00    -0.378 OA
ATOM     24  C   UNL A   1      32.644  16.200  25.320  1.00  0.00     0.195 C 
ENDBRANCH  22  23
ENDBRANCH  18  22
ENDBRANCH   9  14
ENDBRANCH   5   8
ENDBRANCH   3   4
ENDBRANCH   2   3
ENDBRANCH   1   2
BRANCH   1  25
ATOM     25  C   UNL A   1      32.359  30.044  25.782  1.00  0.00     0.002 C 
BRANCH  25  26
ATOM     26  C   UNL A   1      31.832  31.288  26.504  1.00  0.00     0.021 C 
BRANCH  26  27
ATOM     27  C   UNL A   1      32.780  31.865  27.552  1.00  0.00     0.116 C 
BRANCH  27  28
ATOM     28  N   UNL A   1      32.641  33.310  27.659  1.00  0.00    -0.352 N 
ATOM     29  C   UNL A   1      33.249  34.171  28.535  1.00  0.00     0.251 C 
ATOM     30  H   UNL A   1      32.025  33.725  27.014  1.00  0.00     0.163 HD
ATOM     31  O   UNL A   1      32.807  35.313  28.678  1.00  0.00    -0.269 OA
BRANCH  29  32
ATOM     32  C   UNL A   1      34.423  33.722  29.309  1.00  0.00     0.039 A 
ATOM     33  C   UNL A   1      34.241  32.868  30.400  1.00  0.00     0.014 A 
ATOM     34  C   UNL A   1      35.705  34.153  28.959  1.00  0.00     0.014 A 
ATOM     35  C   UNL A   1      35.355  32.396  31.101  1.00  0.00     0.010 A 
ATOM     36  C   UNL A   1      36.816  33.628  29.614  1.00  0.00     0.010 A 
ATOM     37  C   UNL A   1      36.652  32.745  30.692  1.00  0.00    -0.014 A 
BRANCH  37  38
ATOM     38  C   UNL A   1      37.857  32.208  31.378  1.00  0.00     0.031 A 
ATOM     39  C   UNL A   1      38.648  31.096  30.743  1.00  0.00     0.074 A 
ATOM     40  C   UNL A   1      38.188  32.663  32.603  1.00  0.00     0.049 A 
ATOM     41  N   UNL A   1      39.648  30.408  31.230  1.00  0.00    -0.248 NA
ATOM     42  C   UNL A   1      38.235  30.686  29.392  1.00  0.00     0.031 C 
ATOM     43  C   UNL A   1      37.480  33.719  33.331  1.00  0.00     0.029 A 
ATOM     44  N   UNL A   1      39.192  32.287  33.461  1.00  0.00    -0.354 N 
ATOM     45  C   UNL A   1      39.973  29.472  30.254  1.00  0.00     0.074 A 
ATOM     46  C   UNL A   1      39.026  29.646  29.174  1.00  0.00     0.031 C 
ATOM     47  C   UNL A   1      38.080  33.913  34.516  1.00  0.00     0.029 A 
ATOM     48  C   UNL A   1      39.180  32.965  34.659  1.00  0.00     0.049 A 
ATOM     49  H   UNL A   1      39.859  31.597  33.239  1.00  0.00     0.167 HD
ATOM     50  C   UNL A   1      40.982  28.566  30.251  1.00  0.00     0.034 A 
ATOM     51  C   UNL A   1      39.951  32.821  35.755  1.00  0.00     0.034 A 
ATOM     52  C   UNL A   1      41.924  28.416  31.334  1.00  0.00     0.049 A 
ATOM     53  C   UNL A   1      41.042  31.780  35.745  1.00  0.00     0.074 A 
ATOM     54  C   UNL A   1      43.017  27.570  31.414  1.00  0.00     0.029 A 
ATOM     55  N   UNL A   1      41.881  29.120  32.531  1.00  0.00    -0.354 N 
ATOM     56  N   UNL A   1      41.366  30.932  34.796  1.00  0.00    -0.248 NA
ATOM     57  C   UNL A   1      41.876  31.681  36.951  1.00  0.00     0.031 C 
ATOM     58  C   UNL A   1      43.587  27.708  32.683  1.00  0.00     0.029 A 
ATOM     59  C   UNL A   1      42.905  28.702  33.367  1.00  0.00     0.049 A 
ATOM     60  H   UNL A   1      41.219  29.815  32.753  1.00  0.00     0.167 HD
ATOM     61  C   UNL A   1      42.464  30.224  35.279  1.00  0.00     0.074 A 
ATOM     62  C   UNL A   1      42.752  30.751  36.597  1.00  0.00     0.031 C 
ATOM     63  C   UNL A   1      43.175  29.234  34.683  1.00  0.00     0.034 A 
BRANCH  50  64
ATOM     64  C   UNL A   1      41.096  27.650  29.055  1.00  0.00     0.023 A 
ATOM     65  C   UNL A   1      42.074  27.844  28.064  1.00  0.00     0.031 A 
ATOM     66  C   UNL A   1      40.199  26.578  28.891  1.00  0.00     0.131 A 
ATOM     67  C   UNL A   1      42.085  27.032  26.920  1.00  0.00     0.055 A 
ATOM     68  C   UNL A   1      40.270  25.721  27.792  1.00  0.00     0.041 A 
ATOM     69  F   UNL A   1      39.230  26.354  29.791  1.00  0.00    -0.206 F 
ATOM     70  C   UNL A   1      41.207  25.954  26.790  1.00  0.00     0.022 A 
BRANCH  67  71
ATOM     71  S   UNL A   1      43.164  27.497  25.540  1.00  0.00     0.124 S 
ATOM     72  O   UNL A   1      42.230  28.196  24.658  1.00  0.00    -0.237 OA
ATOM     73  O   UNL A   1      44.170  28.328  26.190  1.00  0.00    -0.237 OA
ATOM     74  O   UNL A   1      43.645  26.214  25.032  1.00  0.00    -0.744 OA
ENDBRANCH  67  71
ENDBRANCH  50  64
BRANCH  51  75
ATOM     75  C   UNL A   1      39.712  33.665  36.963  1.00  0.00     0.023 A 
ATOM     76  C   UNL A   1      39.025  33.156  38.075  1.00  0.00     0.031 A 
ATOM     77  C   UNL A   1      40.131  35.008  37.004  1.00  0.00     0.131 A 
ATOM     78  C   UNL A   1      38.733  33.997  39.161  1.00  0.00     0.055 A 
ATOM     79  C   UNL A   1      39.888  35.823  38.111  1.00  0.00     0.041 A 
ATOM     80  F   UNL A   1      40.796  35.544  35.968  1.00  0.00    -0.206 F 
ATOM     81  C   UNL A   1      39.172  35.322  39.192  1.00  0.00     0.022 A 
BRANCH  78  82
ATOM     82  S   UNL A   1      37.685  33.357  40.496  1.00  0.00     0.124 S 
ATOM     83  O   UNL A   1      37.435  34.562  41.280  1.00  0.00    -0.237 OA
ATOM     84  O   UNL A   1      36.545  32.824  39.757  1.00  0.00    -0.237 OA
ATOM     85  O   UNL A   1      38.531  32.356  41.142  1.00  0.00    -0.744 OA
ENDBRANCH  78  82
ENDBRANCH  51  75
BRANCH  63  86
ATOM     86  C   UNL A   1      44.369  28.692  35.433  1.00  0.00     0.023 A 
ATOM     87  C   UNL A   1      44.241  27.688  36.407  1.00  0.00     0.031 A 
ATOM     88  C   UNL A   1      45.656  29.188  35.158  1.00  0.00     0.131 A 
ATOM     89  C   UNL A   1      45.375  27.244  37.105  1.00  0.00     0.055 A 
ATOM     90  C   UNL A   1      46.787  28.700  35.812  1.00  0.00     0.041 A 
ATOM     91  F   UNL A   1      45.835  30.151  34.240  1.00  0.00    -0.206 F 
ATOM     92  C   UNL A   1      46.649  27.730  36.800  1.00  0.00     0.022 A 
BRANCH  89  93
ATOM     93  S   UNL A   1      45.155  26.077  38.476  1.00  0.00     0.124 S 
ATOM     94  O   UNL A   1      44.356  26.859  39.414  1.00  0.00    -0.237 OA
ATOM     95  O   UNL A   1      44.470  24.962  37.831  1.00  0.00    -0.237 OA
ATOM     96  O   UNL A   1      46.522  25.796  38.911  1.00  0.00    -0.744 OA
ENDBRANCH  89  93
ENDBRANCH  63  86
ENDBRANCH  37  38
ENDBRANCH  29  32
ENDBRANCH  27  28
ENDBRANCH  26  27
ENDBRANCH  25  26
ENDBRANCH   1  25
TORSDOF 20
ENDMDL
MODEL 2
REMARK VINA RESULT:     -11.3      1.700      2.126
REMARK SMILES CCc1nc(COC)cc(N2CCCC[C@H]2C(=O)NCCCCCCNC(=O)c2ccc(-c3c4nc(c(-c5cc(S(=O)(=O)[O-])ccc5F)c5ccc([nH]5)c(-c5cc(S(=O)(=O)[O-])ccc5F)c5nc(c(-c6cc(S(=O)(=O)[O-])ccc6F)c6ccc3[nH]6)C=C5)C=C4)cc2)n1
REMARK SMILES IDX 22 1 21 2 20 3 19 4 17 5 18 6 16 8 11 9 12 10 13 11 15 12
REMARK SMILES IDX 14 13 10 14 3 15 4 16 92 17 5 18 9 19 2 20 1 21 6 22 7 23
REMARK SMILES IDX 8 24 23 25 24 26 25 27 26 28 27 29 28 31 29 32 30 33 91 34
REMARK SMILES IDX 31 35 90 36 32 37 33 38 34 39 84 40 35 41 89 42 83 43 85 44
REMARK SMILES IDX 36 45 88 46 82 47 81 48 37 50 69 51 49 52 68 53 50 54 53 55
REMARK SMILES IDX 67 56 86 57 51 58 52 59 66 61 87 62 54 63 38 64 39 65 47 66
REMARK SMILES IDX 40 67 46 68 48 69 45 70 41 71 42 72 43 73 44 74 70 75 71 76
REMARK SMILES IDX 79 77 72 78 78 79 80 80 77 81 73 82 74 83 75 84 76 85 55 86
REMARK SMILES IDX 56 87 64 88 57 89 63 90 65 91 62 92 58 93 59 94 60 95 61 96
REMARK H PARENT 19 7 26 30 85 49 53 60
REMARK Flexibility Score: inf
ROOT
ATOM      1  C   UNL A   1      31.158  29.452  24.870  1.00  0.00     0.002 C 
ENDROOT
BRANCH   1   2
ATOM      2  C   UNL A   1      32.015  29.102  23.653  1.00  0.00     0.021 C 
BRANCH   2   3
ATOM      3  C   UNL A   1      33.194  28.178  23.955  1.00  0.00     0.116 C 
BRANCH   3   4
ATOM      4  N   UNL A   1      33.508  27.307  22.843  1.00  0.00    -0.354 N 
ATOM      5  C   UNL A   1      33.155  26.040  22.513  1.00  0.00     0.242 C 
ATOM      6  O   UNL A   1      33.588  25.654  21.414  1.00  0.00    -0.273 OA
ATOM      7  H   UNL A   1      34.107  27.726  22.183  1.00  0.00     0.163 HD
BRANCH   5   8
ATOM      8  C   UNL A   1      32.341  25.041  23.388  1.00  0.00     0.173 C 
ATOM      9  N   UNL A   1      33.104  24.684  24.596  1.00  0.00    -0.344 N 
ATOM     10  C   UNL A   1      32.918  25.466  25.804  1.00  0.00     0.119 C 
ATOM     11  C   UNL A   1      31.454  25.516  26.204  1.00  0.00     0.022 C 
ATOM     12  C   UNL A   1      30.861  25.263  23.724  1.00  0.00     0.035 C 
ATOM     13  C   UNL A   1      30.558  25.960  25.056  1.00  0.00     0.004 C 
BRANCH   9  14
ATOM     14  C   UNL A   1      33.475  23.362  24.781  1.00  0.00     0.133 A 
ATOM     15  C   UNL A   1      35.113  21.818  25.268  1.00  0.00     0.130 A 
ATOM     16  N   UNL A   1      34.364  20.779  24.869  1.00  0.00    -0.235 NA
ATOM     17  N   UNL A   1      34.711  23.098  25.231  1.00  0.00    -0.216 NA
ATOM     18  C   UNL A   1      33.135  21.066  24.389  1.00  0.00     0.072 A 
ATOM     19  C   UNL A   1      32.628  22.352  24.378  1.00  0.00     0.073 A 
BRANCH  15  20
ATOM     20  C   UNL A   1      36.503  21.575  25.792  1.00  0.00     0.074 C 
ATOM     21  C   UNL A   1      37.570  21.441  24.717  1.00  0.00     0.012 C 
ENDBRANCH  15  20
BRANCH  18  22
ATOM     22  C   UNL A   1      32.368  19.952  23.711  1.00  0.00     0.216 C 
BRANCH  22  23
ATOM     23  O   UNL A   1      32.867  18.645  24.029  1.00  0.00    -0.378 OA
ATOM     24  C   UNL A   1      32.821  17.739  22.932  1.00  0.00     0.195 C 
ENDBRANCH  22  23
ENDBRANCH  18  22
ENDBRANCH   9  14
ENDBRANCH   5   8
ENDBRANCH   3   4
ENDBRANCH   2   3
ENDBRANCH   1   2
BRANCH   1  25
ATOM     25  C   UNL A   1      31.949  29.931  26.091  1.00  0.00     0.002 C 
BRANCH  25  26
ATOM     26  C   UNL A   1      31.771  31.411  26.445  1.00  0.00     0.021 C 
BRANCH  26  27
ATOM     27  C   UNL A   1      32.896  32.003  27.289  1.00  0.00     0.116 C 
BRANCH  27  28
ATOM     28  N   UNL A   1      32.715  33.433  27.491  1.00  0.00    -0.352 N 
ATOM     29  C   UNL A   1      33.272  34.245  28.445  1.00  0.00     0.251 C 
ATOM     30  H   UNL A   1      32.109  33.877  26.857  1.00  0.00     0.163 HD
ATOM     31  O   UNL A   1      32.796  35.363  28.651  1.00  0.00    -0.269 OA
BRANCH  29  32
ATOM     32  C   UNL A   1      34.432  33.772  29.225  1.00  0.00     0.039 A 
ATOM     33  C   UNL A   1      34.225  32.939  30.328  1.00  0.00     0.014 A 
ATOM     34  C   UNL A   1      35.727  34.158  28.868  1.00  0.00     0.014 A 
ATOM     35  C   UNL A   1      35.324  32.444  31.035  1.00  0.00     0.010 A 
ATOM     36  C   UNL A   1      36.821  33.609  29.531  1.00  0.00     0.010 A 
ATOM     37  C   UNL A   1      36.631  32.747  30.622  1.00  0.00    -0.014 A 
BRANCH  37  38
ATOM     38  C   UNL A   1      37.819  32.183  31.315  1.00  0.00     0.031 A 
ATOM     39  C   UNL A   1      38.594  31.059  30.682  1.00  0.00     0.074 A 
ATOM     40  C   UNL A   1      38.149  32.626  32.545  1.00  0.00     0.049 A 
ATOM     41  N   UNL A   1      39.576  30.349  31.173  1.00  0.00    -0.248 NA
ATOM     42  C   UNL A   1      38.185  30.664  29.325  1.00  0.00     0.031 C 
ATOM     43  C   UNL A   1      37.455  33.691  33.273  1.00  0.00     0.029 A 
ATOM     44  N   UNL A   1      39.137  32.226  33.409  1.00  0.00    -0.354 N 
ATOM     45  C   UNL A   1      39.891  29.412  30.195  1.00  0.00     0.074 A 
ATOM     46  C   UNL A   1      38.957  29.610  29.108  1.00  0.00     0.031 C 
ATOM     47  C   UNL A   1      38.049  33.868  34.464  1.00  0.00     0.029 A 
ATOM     48  C   UNL A   1      39.128  32.898  34.611  1.00  0.00     0.049 A 
ATOM     49  H   UNL A   1      39.793  31.525  33.190  1.00  0.00     0.167 HD
ATOM     50  C   UNL A   1      40.883  28.486  30.196  1.00  0.00     0.034 A 
ATOM     51  C   UNL A   1      39.887  32.734  35.713  1.00  0.00     0.034 A 
ATOM     52  C   UNL A   1      41.813  28.313  31.287  1.00  0.00     0.049 A 
ATOM     53  C   UNL A   1      40.958  31.671  35.707  1.00  0.00     0.074 A 
ATOM     54  C   UNL A   1      42.888  27.446  31.371  1.00  0.00     0.029 A 
ATOM     55  N   UNL A   1      41.773  29.012  32.486  1.00  0.00    -0.354 N 
ATOM     56  N   UNL A   1      41.273  30.822  34.756  1.00  0.00    -0.248 NA
ATOM     57  C   UNL A   1      41.779  31.550  36.919  1.00  0.00     0.031 C 
ATOM     58  C   UNL A   1      43.450  27.566  32.646  1.00  0.00     0.029 A 
ATOM     59  C   UNL A   1      42.781  28.570  33.329  1.00  0.00     0.049 A 
ATOM     60  H   UNL A   1      41.123  29.718  32.707  1.00  0.00     0.167 HD
ATOM     61  C   UNL A   1      42.354  30.091  35.245  1.00  0.00     0.074 A 
ATOM     62  C   UNL A   1      42.640  30.606  36.568  1.00  0.00     0.031 C 
ATOM     63  C   UNL A   1      43.050  29.090  34.650  1.00  0.00     0.034 A 
BRANCH  50  64
ATOM     64  C   UNL A   1      40.989  27.575  28.997  1.00  0.00     0.023 A 
ATOM     65  C   UNL A   1      41.978  27.756  28.014  1.00  0.00     0.031 A 
ATOM     66  C   UNL A   1      40.074  26.520  28.821  1.00  0.00     0.131 A 
ATOM     67  C   UNL A   1      41.983  26.949  26.866  1.00  0.00     0.055 A 
ATOM     68  C   UNL A   1      40.138  25.667  27.718  1.00  0.00     0.041 A 
ATOM     69  F   UNL A   1      39.094  26.310  29.712  1.00  0.00    -0.206 F 
ATOM     70  C   UNL A   1      41.086  25.888  26.724  1.00  0.00     0.022 A 
BRANCH  67  71
ATOM     71  S   UNL A   1      43.081  27.401  25.496  1.00  0.00     0.124 S 
ATOM     72  O   UNL A   1      42.244  28.332  24.742  1.00  0.00    -0.237 OA
ATOM     73  O   UNL A   1      44.223  27.986  26.187  1.00  0.00    -0.237 OA
ATOM     74  O   UNL A   1      43.339  26.127  24.829  1.00  0.00    -0.744 OA
ENDBRANCH  67  71
ENDBRANCH  50  64
BRANCH  51  75
ATOM     75  C   UNL A   1      39.655  33.576  36.923  1.00  0.00     0.023 A 
ATOM     76  C   UNL A   1      40.457  34.696  37.189  1.00  0.00     0.031 A 
ATOM     77  C   UNL A   1      38.652  33.247  37.854  1.00  0.00     0.131 A 
ATOM     78  C   UNL A   1      40.278  35.417  38.381  1.00  0.00     0.055 A 
ATOM     79  C   UNL A   1      38.441  34.003  39.008  1.00  0.00     0.041 A 
ATOM     80  F   UNL A   1      37.853  32.188  37.647  1.00  0.00    -0.206 F 
ATOM     81  C   UNL A   1      39.266  35.087  39.284  1.00  0.00     0.022 A 
BRANCH  78  82
ATOM     82  S   UNL A   1      41.452  36.742  38.777  1.00  0.00     0.124 S 
ATOM     83  O   UNL A   1      42.116  36.942  37.494  1.00  0.00    -0.237 OA
ATOM     84  O   UNL A   1      40.563  37.813  39.214  1.00  0.00    -0.237 OA
ATOM     85  O   UNL A   1      42.283  36.157  39.827  1.00  0.00    -0.744 OA
ENDBRANCH  78  82
ENDBRANCH  51  75
BRANCH  63  86
ATOM     86  C   UNL A   1      44.226  28.521  35.407  1.00  0.00     0.023 A 
ATOM     87  C   UNL A   1      44.073  27.500  36.360  1.00  0.00     0.031 A 
ATOM     88  C   UNL A   1      45.522  29.010  35.162  1.00  0.00     0.131 A 
ATOM     89  C   UNL A   1      45.192  27.030  37.066  1.00  0.00     0.055 A 
ATOM     90  C   UNL A   1      46.638  28.497  35.823  1.00  0.00     0.041 A 
ATOM     91  F   UNL A   1      45.726  29.988  34.266  1.00  0.00    -0.206 F 
ATOM     92  C   UNL A   1      46.475  27.509  36.790  1.00  0.00     0.022 A 
BRANCH  89  93
ATOM     93  S   UNL A   1      44.939  25.839  38.410  1.00  0.00     0.124 S 
ATOM     94  O   UNL A   1      46.310  25.561  38.829  1.00  0.00    -0.237 OA
ATOM     95  O   UNL A   1      44.126  26.599  39.353  1.00  0.00    -0.237 OA
ATOM     96  O   UNL A   1      44.254  24.725  37.757  1.00  0.00    -0.744 OA
ENDBRANCH  89  93
ENDBRANCH  63  86
ENDBRANCH  37  38
ENDBRANCH  29  32
ENDBRANCH  27  28
ENDBRANCH  26  27
ENDBRANCH  25  26
ENDBRANCH   1  25
TORSDOF 20
ENDMDL
MODEL 3
REMARK VINA RESULT:     -11.3      1.504      1.906
REMARK SMILES CCc1nc(COC)cc(N2CCCC[C@H]2C(=O)NCCCCCCNC(=O)c2ccc(-c3c4nc(c(-c5cc(S(=O)(=O)[O-])ccc5F)c5ccc([nH]5)c(-c5cc(S(=O)(=O)[O-])ccc5F)c5nc(c(-c6cc(S(=O)(=O)[O-])ccc6F)c6ccc3[nH]6)C=C5)C=C4)cc2)n1
REMARK SMILES IDX 22 1 21 2 20 3 19 4 17 5 18 6 16 8 11 9 12 10 13 11 15 12
REMARK SMILES IDX 14 13 10 14 3 15 4 16 92 17 5 18 9 19 2 20 1 21 6 22 7 23
REMARK SMILES IDX 8 24 23 25 24 26 25 27 26 28 27 29 28 31 29 32 30 33 91 34
REMARK SMILES IDX 31 35 90 36 32 37 33 38 34 39 84 40 35 41 89 42 83 43 85 44
REMARK SMILES IDX 36 45 88 46 82 47 81 48 37 50 69 51 49 52 68 53 50 54 53 55
REMARK SMILES IDX 67 56 86 57 51 58 52 59 66 61 87 62 54 63 38 64 39 65 47 66
REMARK SMILES IDX 40 67 46 68 48 69 45 70 41 71 42 72 43 73 44 74 70 75 71 76
REMARK SMILES IDX 79 77 72 78 78 79 80 80 77 81 73 82 74 83 75 84 76 85 55 86
REMARK SMILES IDX 56 87 64 88 57 89 63 90 65 91 62 92 58 93 59 94 60 95 61 96
REMARK H PARENT 19 7 26 30 85 49 53 60
REMARK Flexibility Score: inf
ROOT
ATOM      1  C   UNL A   1      32.147  29.507  26.983  1.00  0.00     0.002 C 
ENDROOT
BRANCH   1   2
ATOM      2  C   UNL A   1      33.579  29.187  26.551  1.00  0.00     0.021 C 
BRANCH   2   3
ATOM      3  C   UNL A   1      33.794  27.746  26.092  1.00  0.00     0.116 C 
BRANCH   3   4
ATOM      4  N   UNL A   1      32.783  26.850  26.609  1.00  0.00    -0.354 N 
ATOM      5  C   UNL A   1      32.356  25.612  26.256  1.00  0.00     0.242 C 
ATOM      6  O   UNL A   1      31.488  25.133  27.006  1.00  0.00    -0.273 OA
ATOM      7  H   UNL A   1      32.302  27.218  27.385  1.00  0.00     0.163 HD
BRANCH   5   8
ATOM      8  C   UNL A   1      32.794  24.797  25.003  1.00  0.00     0.173 C 
ATOM      9  N   UNL A   1      32.099  23.498  24.973  1.00  0.00    -0.344 N 
ATOM     10  C   UNL A   1      30.839  23.390  24.263  1.00  0.00     0.119 C 
ATOM     11  C   UNL A   1      30.981  23.850  22.822  1.00  0.00     0.022 C 
ATOM     12  C   UNL A   1      32.853  25.416  23.602  1.00  0.00     0.035 C 
ATOM     13  C   UNL A   1      31.613  25.231  22.718  1.00  0.00     0.004 C 
BRANCH   9  14
ATOM     14  C   UNL A   1      32.855  22.339  25.049  1.00  0.00     0.133 A 
ATOM     15  C   UNL A   1      34.919  21.320  25.013  1.00  0.00     0.130 A 
ATOM     16  N   UNL A   1      34.398  20.090  24.886  1.00  0.00    -0.235 NA
ATOM     17  N   UNL A   1      34.191  22.444  25.087  1.00  0.00    -0.216 NA
ATOM     18  C   UNL A   1      33.052  20.005  24.818  1.00  0.00     0.072 A 
ATOM     19  C   UNL A   1      32.235  21.112  24.950  1.00  0.00     0.073 A 
BRANCH  15  20
ATOM     20  C   UNL A   1      36.413  21.491  25.072  1.00  0.00     0.074 C 
ATOM     21  C   UNL A   1      37.006  22.280  23.915  1.00  0.00     0.012 C 
ENDBRANCH  15  20
BRANCH  18  22
ATOM     22  C   UNL A   1      32.451  18.671  24.433  1.00  0.00     0.216 C 
BRANCH  22  23
ATOM     23  O   UNL A   1      32.150  17.837  25.561  1.00  0.00    -0.378 OA
ATOM     24  C   UNL A   1      33.001  16.701  25.668  1.00  0.00     0.195 C 
ENDBRANCH  22  23
ENDBRANCH  18  22
ENDBRANCH   9  14
ENDBRANCH   5   8
ENDBRANCH   3   4
ENDBRANCH   2   3
ENDBRANCH   1   2
BRANCH   1  25
ATOM     25  C   UNL A   1      31.408  30.486  26.066  1.00  0.00     0.002 C 
BRANCH  25  26
ATOM     26  C   UNL A   1      31.346  31.932  26.569  1.00  0.00     0.021 C 
BRANCH  26  27
ATOM     27  C   UNL A   1      32.699  32.536  26.935  1.00  0.00     0.116 C 
BRANCH  27  28
ATOM     28  N   UNL A   1      32.549  33.843  27.557  1.00  0.00    -0.352 N 
ATOM     29  C   UNL A   1      33.194  34.354  28.654  1.00  0.00     0.251 C 
ATOM     30  H   UNL A   1      31.894  34.442  27.133  1.00  0.00     0.163 HD
ATOM     31  O   UNL A   1      32.748  35.356  29.216  1.00  0.00    -0.269 OA
BRANCH  29  32
ATOM     32  C   UNL A   1      34.414  33.695  29.161  1.00  0.00     0.039 A 
ATOM     33  C   UNL A   1      35.666  34.216  28.827  1.00  0.00     0.014 A 
ATOM     34  C   UNL A   1      34.318  32.554  29.963  1.00  0.00     0.014 A 
ATOM     35  C   UNL A   1      36.821  33.629  29.350  1.00  0.00     0.010 A 
ATOM     36  C   UNL A   1      35.464  32.013  30.538  1.00  0.00     0.010 A 
ATOM     37  C   UNL A   1      36.728  32.544  30.237  1.00  0.00    -0.014 A 
BRANCH  37  38
ATOM     38  C   UNL A   1      37.935  31.939  30.859  1.00  0.00     0.031 A 
ATOM     39  C   UNL A   1      38.707  30.880  30.120  1.00  0.00     0.074 A 
ATOM     40  C   UNL A   1      38.284  32.283  32.115  1.00  0.00     0.049 A 
ATOM     41  N   UNL A   1      39.706  30.143  30.532  1.00  0.00    -0.248 NA
ATOM     42  C   UNL A   1      38.275  30.593  28.743  1.00  0.00     0.031 C 
ATOM     43  C   UNL A   1      37.595  33.276  32.941  1.00  0.00     0.029 A 
ATOM     44  N   UNL A   1      39.294  31.824  32.924  1.00  0.00    -0.354 N 
ATOM     45  C   UNL A   1      40.011  29.293  29.474  1.00  0.00     0.074 A 
ATOM     46  C   UNL A   1      39.053  29.569  28.425  1.00  0.00     0.031 C 
ATOM     47  C   UNL A   1      38.211  33.362  34.131  1.00  0.00     0.029 A 
ATOM     48  C   UNL A   1      39.303  32.395  34.176  1.00  0.00     0.049 A 
ATOM     49  H   UNL A   1      39.952  31.151  32.634  1.00  0.00     0.167 HD
ATOM     50  C   UNL A   1      41.011  28.381  29.380  1.00  0.00     0.034 A 
ATOM     51  C   UNL A   1      40.085  32.149  35.247  1.00  0.00     0.034 A 
ATOM     52  C   UNL A   1      41.964  28.129  30.435  1.00  0.00     0.049 A 
ATOM     53  C   UNL A   1      41.166  31.103  35.133  1.00  0.00     0.074 A 
ATOM     54  C   UNL A   1      43.049  27.270  30.427  1.00  0.00     0.029 A 
ATOM     55  N   UNL A   1      41.941  28.727  31.688  1.00  0.00    -0.354 N 
ATOM     56  N   UNL A   1      41.471  30.338  34.109  1.00  0.00    -0.248 NA
ATOM     57  C   UNL A   1      42.013  30.892  36.315  1.00  0.00     0.031 C 
ATOM     58  C   UNL A   1      43.635  27.292  31.696  1.00  0.00     0.029 A 
ATOM     59  C   UNL A   1      42.970  28.229  32.472  1.00  0.00     0.049 A 
ATOM     60  H   UNL A   1      41.289  29.406  31.978  1.00  0.00     0.167 HD
ATOM     61  C   UNL A   1      42.567  29.582  34.515  1.00  0.00     0.074 A 
ATOM     62  C   UNL A   1      42.875  29.989  35.870  1.00  0.00     0.031 C 
ATOM     63  C   UNL A   1      43.261  28.641  33.826  1.00  0.00     0.034 A 
BRANCH  50  64
ATOM     64  C   UNL A   1      41.102  27.573  28.108  1.00  0.00     0.023 A 
ATOM     65  C   UNL A   1      40.721  26.220  28.061  1.00  0.00     0.031 A 
ATOM     66  C   UNL A   1      41.595  28.157  26.926  1.00  0.00     0.131 A 
ATOM     67  C   UNL A   1      40.912  25.478  26.886  1.00  0.00     0.055 A 
ATOM     68  C   UNL A   1      41.703  27.435  25.737  1.00  0.00     0.041 A 
ATOM     69  F   UNL A   1      41.995  29.438  26.912  1.00  0.00    -0.206 F 
ATOM     70  C   UNL A   1      41.375  26.083  25.715  1.00  0.00     0.022 A 
BRANCH  67  71
ATOM     71  S   UNL A   1      40.688  23.680  26.953  1.00  0.00     0.124 S 
ATOM     72  O   UNL A   1      40.780  23.425  28.389  1.00  0.00    -0.237 OA
ATOM     73  O   UNL A   1      39.370  23.503  26.357  1.00  0.00    -0.237 OA
ATOM     74  O   UNL A   1      41.806  23.165  26.164  1.00  0.00    -0.744 OA
ENDBRANCH  67  71
ENDBRANCH  50  64
BRANCH  51  75
ATOM     75  C   UNL A   1      39.869  32.886  36.526  1.00  0.00     0.023 A 
ATOM     76  C   UNL A   1      38.977  32.404  37.496  1.00  0.00     0.031 A 
ATOM     77  C   UNL A   1      40.519  34.109  36.778  1.00  0.00     0.131 A 
ATOM     78  C   UNL A   1      38.722  33.162  38.650  1.00  0.00     0.055 A 
ATOM     79  C   UNL A   1      40.305  34.830  37.953  1.00  0.00     0.041 A 
ATOM     80  F   UNL A   1      41.385  34.614  35.885  1.00  0.00    -0.206 F 
ATOM     81  C   UNL A   1      39.391  34.364  38.892  1.00  0.00     0.022 A 
BRANCH  78  82
ATOM     82  S   UNL A   1      37.429  32.598  39.790  1.00  0.00     0.124 S 
ATOM     83  O   UNL A   1      36.298  32.413  38.887  1.00  0.00    -0.237 OA
ATOM     84  O   UNL A   1      38.019  31.380  40.337  1.00  0.00    -0.237 OA
ATOM     85  O   UNL A   1      37.301  33.705  40.735  1.00  0.00    -0.744 OA
ENDBRANCH  78  82
ENDBRANCH  51  75
BRANCH  63  86
ATOM     86  C   UNL A   1      44.458  28.025  34.511  1.00  0.00     0.023 A 
ATOM     87  C   UNL A   1      44.343  26.888  35.328  1.00  0.00     0.031 A 
ATOM     88  C   UNL A   1      45.735  28.587  34.334  1.00  0.00     0.131 A 
ATOM     89  C   UNL A   1      45.478  26.375  35.975  1.00  0.00     0.055 A 
ATOM     90  C   UNL A   1      46.869  28.037  34.931  1.00  0.00     0.041 A 
ATOM     91  F   UNL A   1      45.902  29.677  33.568  1.00  0.00    -0.206 F 
ATOM     92  C   UNL A   1      46.743  26.931  35.766  1.00  0.00     0.022 A 
BRANCH  89  93
ATOM     93  S   UNL A   1      45.270  25.016  37.158  1.00  0.00     0.124 S 
ATOM     94  O   UNL A   1      45.976  25.526  38.330  1.00  0.00    -0.237 OA
ATOM     95  O   UNL A   1      43.819  24.925  37.277  1.00  0.00    -0.237 OA
ATOM     96  O   UNL A   1      45.910  23.882  36.494  1.00  0.00    -0.744 OA
ENDBRANCH  89  93
ENDBRANCH  63  86
ENDBRANCH  37  38
ENDBRANCH  29  32
ENDBRANCH  27  28
ENDBRANCH  26  27
ENDBRANCH  25  26
ENDBRANCH   1  25
TORSDOF 20
ENDMDL
