MODEL 1
REMARK VINA RESULT:     -11.5      0.000      0.000
REMARK SMILES O=C(C[C@H]1S/C(=[NH+]/N=C/c2cccc(Cl)c2)NC1=O)NCCCCCCNC(=O)c1ccc(-c2c3nc(c(-c4cc(S(=O)(=O)[O-])ccc4F)c4ccc([nH]4)c(-c4cc(S(=O)(=O)[O-])ccc4F)c4nc(c(-c5cc(S(=O)(=O)[O-])ccc5F)c5ccc2[nH]5)C=C4)C=C3)cc1
REMARK SMILES IDX 23 1 22 2 21 3 20 4 1 5 2 6 3 8 4 9 5 10 18 11 6 12 17 13
REMARK SMILES IDX 19 14 7 15 8 18 9 19 10 20 11 21 16 22 12 23 14 24 13 25
REMARK SMILES IDX 15 26 24 27 25 28 26 29 27 30 28 31 29 33 30 34 31 35 92 36
REMARK SMILES IDX 32 37 91 38 33 39 34 40 35 41 85 42 36 43 90 44 84 45 86 46
REMARK SMILES IDX 37 47 89 48 83 49 82 50 38 52 70 53 50 54 69 55 51 56 54 57
REMARK SMILES IDX 68 58 87 59 52 60 53 61 67 63 88 64 55 65 39 66 40 67 48 68
REMARK SMILES IDX 41 69 47 70 49 71 46 72 42 73 43 74 44 75 45 76 71 77 72 78
REMARK SMILES IDX 80 79 73 80 79 81 81 82 78 83 74 84 75 85 76 86 77 87 56 88
REMARK SMILES IDX 57 89 65 90 58 91 64 92 66 93 63 94 59 95 60 96 61 97 62 98
REMARK H PARENT 20 7 17 16 7 17 27 32 86 51 54 62
REMARK Flexibility Score: inf
ROOT
ATOM      1  C   UNL A   1      37.218  21.891  24.302  1.00  0.00     0.002 C 
ENDROOT
BRANCH   1   2
ATOM      2  C   UNL A   1      35.986  22.798  24.182  1.00  0.00     0.021 C 
BRANCH   2   3
ATOM      3  C   UNL A   1      36.044  24.078  25.017  1.00  0.00     0.116 C 
BRANCH   3   4
ATOM      4  N   UNL A   1      34.779  24.344  25.675  1.00  0.00    -0.356 N 
ATOM      5  O   UNL A   1      34.154  26.084  24.314  1.00  0.00    -0.275 OA
ATOM      6  C   UNL A   1      33.919  25.323  25.247  1.00  0.00     0.221 C 
ATOM      7  H   UNL A   1      34.527  23.801  26.458  1.00  0.00     0.163 HD
BRANCH   6   8
ATOM      8  C   UNL A   1      32.658  25.472  26.069  1.00  0.00     0.127 C 
BRANCH   8   9
ATOM      9  C   UNL A   1      31.636  24.349  25.952  1.00  0.00     0.183 C 
ATOM     10  S   UNL A   1      31.536  23.751  24.217  1.00  0.00    -0.020 SA
ATOM     11  C   UNL A   1      31.887  23.103  26.784  1.00  0.00     0.322 C 
ATOM     12  C   UNL A   1      31.889  22.115  24.672  1.00  0.00     0.337 C 
ATOM     13  N   UNL A   1      32.059  22.000  26.008  1.00  0.00    -0.202 N 
ATOM     14  O   UNL A   1      31.848  23.064  28.006  1.00  0.00    -0.246 OA
ATOM     15  N   UNL A   1      31.959  21.138  23.833  1.00  0.00    -0.142 N 
ATOM     16  H   UNL A   1      32.303  21.136  26.411  1.00  0.00     0.316 HD
ATOM     17  H   UNL A   1      31.882  21.247  22.858  1.00  0.00     0.343 HD
BRANCH  15  18
ATOM     18  N   UNL A   1      32.160  19.905  24.467  1.00  0.00    -0.093 NA
ATOM     19  C   UNL A   1      33.198  19.298  23.987  1.00  0.00     0.166 C 
BRANCH  19  20
ATOM     20  C   UNL A   1      33.594  17.957  24.452  1.00  0.00    -0.002 A 
ATOM     21  C   UNL A   1      34.938  17.568  24.449  1.00  0.00     0.010 A 
ATOM     22  C   UNL A   1      32.604  17.085  24.909  1.00  0.00     0.030 A 
ATOM     23  C   UNL A   1      35.295  16.298  24.904  1.00  0.00     0.002 A 
ATOM     24  C   UNL A   1      32.971  15.814  25.352  1.00  0.00     0.041 A 
ATOM     25  C   UNL A   1      34.309  15.418  25.354  1.00  0.00     0.020 A 
ATOM     26  Cl  UNL A   1      31.759  14.723  25.902  1.00  0.00    -0.084 Cl
ENDBRANCH  19  20
ENDBRANCH  15  18
ENDBRANCH   8   9
ENDBRANCH   6   8
ENDBRANCH   3   4
ENDBRANCH   2   3
ENDBRANCH   1   2
BRANCH   1  27
ATOM     27  C   UNL A   1      36.964  20.508  24.911  1.00  0.00     0.002 C 
BRANCH  27  28
ATOM     28  C   UNL A   1      38.180  19.581  24.964  1.00  0.00     0.021 C 
BRANCH  28  29
ATOM     29  C   UNL A   1      39.210  19.914  26.040  1.00  0.00     0.116 C 
BRANCH  29  30
ATOM     30  N   UNL A   1      40.419  19.113  25.930  1.00  0.00    -0.352 N 
ATOM     31  C   UNL A   1      41.735  19.505  26.009  1.00  0.00     0.251 C 
ATOM     32  H   UNL A   1      40.274  18.151  25.777  1.00  0.00     0.163 HD
ATOM     33  O   UNL A   1      42.625  18.704  25.737  1.00  0.00    -0.269 OA
BRANCH  31  34
ATOM     34  C   UNL A   1      42.073  20.897  26.385  1.00  0.00     0.039 A 
ATOM     35  C   UNL A   1      42.345  21.188  27.724  1.00  0.00     0.014 A 
ATOM     36  C   UNL A   1      42.131  21.909  25.423  1.00  0.00     0.014 A 
ATOM     37  C   UNL A   1      42.754  22.474  28.085  1.00  0.00     0.010 A 
ATOM     38  C   UNL A   1      42.602  23.172  25.774  1.00  0.00     0.010 A 
ATOM     39  C   UNL A   1      42.929  23.465  27.107  1.00  0.00    -0.014 A 
BRANCH  39  40
ATOM     40  C   UNL A   1      43.477  24.805  27.452  1.00  0.00     0.031 A 
ATOM     41  C   UNL A   1      42.562  25.899  27.929  1.00  0.00     0.074 A 
ATOM     42  C   UNL A   1      44.785  25.060  27.253  1.00  0.00     0.049 A 
ATOM     43  N   UNL A   1      42.831  27.154  28.179  1.00  0.00    -0.248 NA
ATOM     44  C   UNL A   1      41.151  25.535  28.120  1.00  0.00     0.031 C 
ATOM     45  C   UNL A   1      45.765  24.096  26.749  1.00  0.00     0.029 A 
ATOM     46  N   UNL A   1      45.514  26.210  27.429  1.00  0.00    -0.354 N 
ATOM     47  C   UNL A   1      41.621  27.736  28.546  1.00  0.00     0.074 A 
ATOM     48  C   UNL A   1      40.611  26.704  28.425  1.00  0.00     0.031 C 
ATOM     49  C   UNL A   1      46.965  24.692  26.662  1.00  0.00     0.029 A 
ATOM     50  C   UNL A   1      46.834  26.090  27.059  1.00  0.00     0.049 A 
ATOM     51  H   UNL A   1      45.128  27.042  27.787  1.00  0.00     0.167 HD
ATOM     52  C   UNL A   1      41.380  29.004  28.966  1.00  0.00     0.034 A 
ATOM     53  C   UNL A   1      47.822  27.006  27.018  1.00  0.00     0.034 A 
ATOM     54  C   UNL A   1      42.401  30.019  29.081  1.00  0.00     0.049 A 
ATOM     55  C   UNL A   1      47.530  28.417  27.460  1.00  0.00     0.074 A 
ATOM     56  C   UNL A   1      42.281  31.315  29.554  1.00  0.00     0.029 A 
ATOM     57  N   UNL A   1      43.730  29.859  28.706  1.00  0.00    -0.354 N 
ATOM     58  N   UNL A   1      46.393  28.935  27.863  1.00  0.00    -0.248 NA
ATOM     59  C   UNL A   1      48.654  29.361  27.451  1.00  0.00     0.031 C 
ATOM     60  C   UNL A   1      43.515  31.957  29.398  1.00  0.00     0.029 A 
ATOM     61  C   UNL A   1      44.428  31.042  28.901  1.00  0.00     0.049 A 
ATOM     62  H   UNL A   1      44.119  29.027  28.352  1.00  0.00     0.167 HD
ATOM     63  C   UNL A   1      46.672  30.264  28.176  1.00  0.00     0.074 A 
ATOM     64  C   UNL A   1      48.087  30.459  27.930  1.00  0.00     0.031 C 
ATOM     65  C   UNL A   1      45.835  31.231  28.630  1.00  0.00     0.034 A 
BRANCH  52  66
ATOM     66  C   UNL A   1      39.950  29.362  29.300  1.00  0.00     0.023 A 
ATOM     67  C   UNL A   1      39.509  29.470  30.631  1.00  0.00     0.031 A 
ATOM     68  C   UNL A   1      39.004  29.556  28.278  1.00  0.00     0.131 A 
ATOM     69  C   UNL A   1      38.148  29.671  30.905  1.00  0.00     0.055 A 
ATOM     70  C   UNL A   1      37.666  29.844  28.558  1.00  0.00     0.041 A 
ATOM     71  F   UNL A   1      39.358  29.449  26.988  1.00  0.00    -0.206 F 
ATOM     72  C   UNL A   1      37.227  29.883  29.877  1.00  0.00     0.022 A 
BRANCH  69  73
ATOM     73  S   UNL A   1      37.575  29.482  32.616  1.00  0.00     0.124 S 
ATOM     74  O   UNL A   1      36.219  30.019  32.535  1.00  0.00    -0.237 OA
ATOM     75  O   UNL A   1      37.680  28.044  32.827  1.00  0.00    -0.237 OA
ATOM     76  O   UNL A   1      38.514  30.298  33.384  1.00  0.00    -0.744 OA
ENDBRANCH  69  73
ENDBRANCH  52  66
BRANCH  53  77
ATOM     77  C   UNL A   1      49.172  26.627  26.514  1.00  0.00     0.023 A 
ATOM     78  C   UNL A   1      49.629  27.063  25.260  1.00  0.00     0.031 A 
ATOM     79  C   UNL A   1      50.019  25.802  27.275  1.00  0.00     0.131 A 
ATOM     80  C   UNL A   1      50.883  26.641  24.789  1.00  0.00     0.055 A 
ATOM     81  C   UNL A   1      51.284  25.425  26.823  1.00  0.00     0.041 A 
ATOM     82  F   UNL A   1      49.632  25.363  28.483  1.00  0.00    -0.206 F 
ATOM     83  C   UNL A   1      51.718  25.837  25.567  1.00  0.00     0.022 A 
BRANCH  80  84
ATOM     84  S   UNL A   1      51.382  27.110  23.109  1.00  0.00     0.124 S 
ATOM     85  O   UNL A   1      50.177  26.806  22.345  1.00  0.00    -0.237 OA
ATOM     86  O   UNL A   1      51.701  28.524  23.270  1.00  0.00    -0.237 OA
ATOM     87  O   UNL A   1      52.527  26.242  22.840  1.00  0.00    -0.744 OA
ENDBRANCH  80  84
ENDBRANCH  53  77
BRANCH  65  88
ATOM     88  C   UNL A   1      46.444  32.582  28.920  1.00  0.00     0.023 A 
ATOM     89  C   UNL A   1      46.454  33.610  27.961  1.00  0.00     0.031 A 
ATOM     90  C   UNL A   1      47.031  32.838  30.171  1.00  0.00     0.131 A 
ATOM     91  C   UNL A   1      47.081  34.832  28.252  1.00  0.00     0.055 A 
ATOM     92  C   UNL A   1      47.602  34.075  30.476  1.00  0.00     0.041 A 
ATOM     93  F   UNL A   1      47.053  31.892  31.123  1.00  0.00    -0.206 F 
ATOM     94  C   UNL A   1      47.640  35.076  29.509  1.00  0.00     0.022 A 
BRANCH  91  95
ATOM     95  S   UNL A   1      47.229  36.073  26.938  1.00  0.00     0.124 S 
ATOM     96  O   UNL A   1      48.057  37.091  27.575  1.00  0.00    -0.237 OA
ATOM     97  O   UNL A   1      47.863  35.316  25.863  1.00  0.00    -0.237 OA
ATOM     98  O   UNL A   1      45.846  36.470  26.683  1.00  0.00    -0.744 OA
ENDBRANCH  91  95
ENDBRANCH  65  88
ENDBRANCH  39  40
ENDBRANCH  31  34
ENDBRANCH  29  30
ENDBRANCH  28  29
ENDBRANCH  27  28
ENDBRANCH   1  27
TORSDOF 19
ENDMDL
MODEL 2
REMARK VINA RESULT:     -10.9      5.860      9.831
REMARK SMILES O=C(C[C@H]1S/C(=[NH+]/N=C/c2cccc(Cl)c2)NC1=O)NCCCCCCNC(=O)c1ccc(-c2c3nc(c(-c4cc(S(=O)(=O)[O-])ccc4F)c4ccc([nH]4)c(-c4cc(S(=O)(=O)[O-])ccc4F)c4nc(c(-c5cc(S(=O)(=O)[O-])ccc5F)c5ccc2[nH]5)C=C4)C=C3)cc1
REMARK SMILES IDX 23 1 22 2 21 3 20 4 1 5 2 6 3 8 4 9 5 10 18 11 6 12 17 13
REMARK SMILES IDX 19 14 7 15 8 18 9 19 10 20 11 21 16 22 12 23 14 24 13 25
REMARK SMILES IDX 15 26 24 27 25 28 26 29 27 30 28 31 29 33 30 34 31 35 92 36
REMARK SMILES IDX 32 37 91 38 33 39 34 40 35 41 85 42 36 43 90 44 84 45 86 46
REMARK SMILES IDX 37 47 89 48 83 49 82 50 38 52 70 53 50 54 69 55 51 56 54 57
REMARK SMILES IDX 68 58 87 59 52 60 53 61 67 63 88 64 55 65 39 66 40 67 48 68
REMARK SMILES IDX 41 69 47 70 49 71 46 72 42 73 43 74 44 75 45 76 71 77 72 78
REMARK SMILES IDX 80 79 73 80 79 81 81 82 78 83 74 84 75 85 76 86 77 87 56 88
REMARK SMILES IDX 57 89 65 90 58 91 64 92 66 93 63 94 59 95 60 96 61 97 62 98
REMARK H PARENT 20 7 17 16 7 17 27 32 86 51 54 62
REMARK Flexibility Score: inf
ROOT
ATOM      1  C   UNL A   1      35.140  31.320  28.468  1.00  0.00     0.002 C 
ENDROOT
BRANCH   1   2
ATOM      2  C   UNL A   1      34.704  30.368  27.346  1.00  0.00     0.021 C 
BRANCH   2   3
ATOM      3  C   UNL A   1      33.200  30.333  27.078  1.00  0.00     0.116 C 
BRANCH   3   4
ATOM      4  N   UNL A   1      32.856  29.324  26.093  1.00  0.00    -0.356 N 
ATOM      5  O   UNL A   1      31.060  30.446  25.208  1.00  0.00    -0.275 OA
ATOM      6  C   UNL A   1      31.815  29.479  25.215  1.00  0.00     0.221 C 
ATOM      7  H   UNL A   1      33.391  28.498  26.054  1.00  0.00     0.163 HD
BRANCH   6   8
ATOM      8  C   UNL A   1      31.590  28.315  24.276  1.00  0.00     0.127 C 
BRANCH   8   9
ATOM      9  C   UNL A   1      31.460  26.940  24.920  1.00  0.00     0.183 C 
ATOM     10  S   UNL A   1      30.246  25.913  23.999  1.00  0.00    -0.020 SA
ATOM     11  C   UNL A   1      32.719  26.093  24.989  1.00  0.00     0.322 C 
ATOM     12  C   UNL A   1      31.396  24.643  23.732  1.00  0.00     0.337 C 
ATOM     13  N   UNL A   1      32.592  24.936  24.287  1.00  0.00    -0.202 N 
ATOM     14  O   UNL A   1      33.701  26.362  25.669  1.00  0.00    -0.246 OA
ATOM     15  N   UNL A   1      31.124  23.554  23.097  1.00  0.00    -0.142 N 
ATOM     16  H   UNL A   1      33.357  24.325  24.184  1.00  0.00     0.316 HD
ATOM     17  H   UNL A   1      30.262  23.377  22.656  1.00  0.00     0.343 HD
BRANCH  15  18
ATOM     18  N   UNL A   1      32.196  22.651  23.106  1.00  0.00    -0.093 NA
ATOM     19  C   UNL A   1      31.970  21.669  23.919  1.00  0.00     0.166 C 
BRANCH  19  20
ATOM     20  C   UNL A   1      32.969  20.610  24.148  1.00  0.00    -0.002 A 
ATOM     21  C   UNL A   1      34.214  20.913  24.711  1.00  0.00     0.010 A 
ATOM     22  C   UNL A   1      32.648  19.296  23.806  1.00  0.00     0.030 A 
ATOM     23  C   UNL A   1      35.143  19.896  24.932  1.00  0.00     0.002 A 
ATOM     24  C   UNL A   1      33.588  18.289  24.021  1.00  0.00     0.041 A 
ATOM     25  C   UNL A   1      34.830  18.581  24.584  1.00  0.00     0.020 A 
ATOM     26  Cl  UNL A   1      33.210  16.666  23.587  1.00  0.00    -0.084 Cl
ENDBRANCH  19  20
ENDBRANCH  15  18
ENDBRANCH   8   9
ENDBRANCH   6   8
ENDBRANCH   3   4
ENDBRANCH   2   3
ENDBRANCH   1   2
BRANCH   1  27
ATOM     27  C   UNL A   1      35.838  32.605  28.012  1.00  0.00     0.002 C 
BRANCH  27  28
ATOM     28  C   UNL A   1      35.019  33.888  28.172  1.00  0.00     0.021 C 
BRANCH  28  29
ATOM     29  C   UNL A   1      33.572  33.690  28.613  1.00  0.00     0.116 C 
BRANCH  29  30
ATOM     30  N   UNL A   1      33.117  34.721  29.532  1.00  0.00    -0.352 N 
ATOM     31  C   UNL A   1      33.533  34.991  30.815  1.00  0.00     0.251 C 
ATOM     32  H   UNL A   1      32.409  35.312  29.186  1.00  0.00     0.163 HD
ATOM     33  O   UNL A   1      32.920  35.812  31.493  1.00  0.00    -0.269 OA
BRANCH  31  34
ATOM     34  C   UNL A   1      34.692  34.268  31.386  1.00  0.00     0.039 A 
ATOM     35  C   UNL A   1      34.480  33.032  32.002  1.00  0.00     0.014 A 
ATOM     36  C   UNL A   1      35.982  34.799  31.307  1.00  0.00     0.014 A 
ATOM     37  C   UNL A   1      35.571  32.292  32.465  1.00  0.00     0.010 A 
ATOM     38  C   UNL A   1      37.073  34.032  31.710  1.00  0.00     0.010 A 
ATOM     39  C   UNL A   1      36.880  32.765  32.283  1.00  0.00    -0.014 A 
BRANCH  39  40
ATOM     40  C   UNL A   1      38.061  31.942  32.661  1.00  0.00     0.031 A 
ATOM     41  C   UNL A   1      38.821  32.241  33.923  1.00  0.00     0.074 A 
ATOM     42  C   UNL A   1      38.497  30.981  31.823  1.00  0.00     0.049 A 
ATOM     43  N   UNL A   1      39.929  31.707  34.370  1.00  0.00    -0.248 NA
ATOM     44  C   UNL A   1      38.276  33.303  34.780  1.00  0.00     0.031 C 
ATOM     45  C   UNL A   1      37.873  30.628  30.547  1.00  0.00     0.029 A 
ATOM     46  N   UNL A   1      39.578  30.139  31.906  1.00  0.00    -0.354 N 
ATOM     47  C   UNL A   1      40.223  32.376  35.555  1.00  0.00     0.074 A 
ATOM     48  C   UNL A   1      39.205  33.394  35.719  1.00  0.00     0.031 C 
ATOM     49  C   UNL A   1      38.577  29.641  29.970  1.00  0.00     0.029 A 
ATOM     50  C   UNL A   1      39.727  29.321  30.810  1.00  0.00     0.049 A 
ATOM     51  H   UNL A   1      40.189  30.121  32.678  1.00  0.00     0.167 HD
ATOM     52  C   UNL A   1      41.232  32.147  36.433  1.00  0.00     0.034 A 
ATOM     53  C   UNL A   1      40.691  28.431  30.501  1.00  0.00     0.034 A 
ATOM     54  C   UNL A   1      42.237  31.126  36.251  1.00  0.00     0.049 A 
ATOM     55  C   UNL A   1      41.820  28.211  31.474  1.00  0.00     0.074 A 
ATOM     56  C   UNL A   1      43.266  30.766  37.105  1.00  0.00     0.029 A 
ATOM     57  N   UNL A   1      42.351  30.310  35.132  1.00  0.00    -0.354 N 
ATOM     58  N   UNL A   1      42.049  28.809  32.620  1.00  0.00    -0.248 NA
ATOM     59  C   UNL A   1      42.813  27.191  31.117  1.00  0.00     0.031 C 
ATOM     60  C   UNL A   1      44.040  29.786  36.474  1.00  0.00     0.029 A 
ATOM     61  C   UNL A   1      43.453  29.476  35.258  1.00  0.00     0.049 A 
ATOM     62  H   UNL A   1      41.738  30.322  34.362  1.00  0.00     0.167 HD
ATOM     63  C   UNL A   1      43.204  28.220  33.130  1.00  0.00     0.074 A 
ATOM     64  C   UNL A   1      43.612  27.210  32.174  1.00  0.00     0.031 C 
ATOM     65  C   UNL A   1      43.863  28.488  34.287  1.00  0.00     0.034 A 
BRANCH  52  66
ATOM     66  C   UNL A   1      41.306  33.041  37.649  1.00  0.00     0.023 A 
ATOM     67  C   UNL A   1      40.656  32.709  38.850  1.00  0.00     0.031 A 
ATOM     68  C   UNL A   1      42.000  34.264  37.596  1.00  0.00     0.131 A 
ATOM     69  C   UNL A   1      40.634  33.623  39.913  1.00  0.00     0.055 A 
ATOM     70  C   UNL A   1      42.049  35.131  38.691  1.00  0.00     0.041 A 
ATOM     71  F   UNL A   1      42.627  34.647  36.473  1.00  0.00    -0.206 F 
ATOM     72  C   UNL A   1      41.347  34.822  39.851  1.00  0.00     0.022 A 
BRANCH  69  73
ATOM     73  S   UNL A   1      39.523  33.296  41.310  1.00  0.00     0.124 S 
ATOM     74  O   UNL A   1      40.376  33.625  42.449  1.00  0.00    -0.237 OA
ATOM     75  O   UNL A   1      38.418  34.211  41.055  1.00  0.00    -0.237 OA
ATOM     76  O   UNL A   1      39.205  31.876  41.170  1.00  0.00    -0.744 OA
ENDBRANCH  69  73
ENDBRANCH  52  66
BRANCH  53  77
ATOM     77  C   UNL A   1      40.648  27.703  29.201  1.00  0.00     0.023 A 
ATOM     78  C   UNL A   1      41.535  28.022  28.160  1.00  0.00     0.031 A 
ATOM     79  C   UNL A   1      39.701  26.689  28.975  1.00  0.00     0.131 A 
ATOM     80  C   UNL A   1      41.431  27.357  26.928  1.00  0.00     0.055 A 
ATOM     81  C   UNL A   1      39.634  25.998  27.765  1.00  0.00     0.041 A 
ATOM     82  F   UNL A   1      38.836  26.342  29.941  1.00  0.00    -0.206 F 
ATOM     83  C   UNL A   1      40.496  26.338  26.728  1.00  0.00     0.022 A 
BRANCH  80  84
ATOM     84  S   UNL A   1      42.499  27.889  25.561  1.00  0.00     0.124 S 
ATOM     85  O   UNL A   1      43.757  28.149  26.250  1.00  0.00    -0.237 OA
ATOM     86  O   UNL A   1      42.474  26.723  24.685  1.00  0.00    -0.237 OA
ATOM     87  O   UNL A   1      41.817  29.072  25.038  1.00  0.00    -0.744 OA
ENDBRANCH  80  84
ENDBRANCH  53  77
BRANCH  65  88
ATOM     88  C   UNL A   1      45.079  27.646  34.592  1.00  0.00     0.023 A 
ATOM     89  C   UNL A   1      44.975  26.400  35.234  1.00  0.00     0.031 A 
ATOM     90  C   UNL A   1      46.361  28.106  34.242  1.00  0.00     0.131 A 
ATOM     91  C   UNL A   1      46.136  25.677  35.550  1.00  0.00     0.055 A 
ATOM     92  C   UNL A   1      47.508  27.356  34.506  1.00  0.00     0.041 A 
ATOM     93  F   UNL A   1      46.520  29.291  33.631  1.00  0.00    -0.206 F 
ATOM     94  C   UNL A   1      47.400  26.139  35.174  1.00  0.00     0.022 A 
BRANCH  91  95
ATOM     95  S   UNL A   1      45.980  24.159  36.529  1.00  0.00     0.124 S 
ATOM     96  O   UNL A   1      44.574  23.820  36.342  1.00  0.00    -0.237 OA
ATOM     97  O   UNL A   1      46.941  23.270  35.884  1.00  0.00    -0.237 OA
ATOM     98  O   UNL A   1      46.342  24.584  37.881  1.00  0.00    -0.744 OA
ENDBRANCH  91  95
ENDBRANCH  65  88
ENDBRANCH  39  40
ENDBRANCH  31  34
ENDBRANCH  29  30
ENDBRANCH  28  29
ENDBRANCH  27  28
ENDBRANCH   1  27
TORSDOF 19
ENDMDL
MODEL 3
REMARK VINA RESULT:     -10.7      6.606     10.971
REMARK SMILES O=C(C[C@H]1S/C(=[NH+]/N=C/c2cccc(Cl)c2)NC1=O)NCCCCCCNC(=O)c1ccc(-c2c3nc(c(-c4cc(S(=O)(=O)[O-])ccc4F)c4ccc([nH]4)c(-c4cc(S(=O)(=O)[O-])ccc4F)c4nc(c(-c5cc(S(=O)(=O)[O-])ccc5F)c5ccc2[nH]5)C=C4)C=C3)cc1
REMARK SMILES IDX 23 1 22 2 21 3 20 4 1 5 2 6 3 8 4 9 5 10 18 11 6 12 17 13
REMARK SMILES IDX 19 14 7 15 8 18 9 19 10 20 11 21 16 22 12 23 14 24 13 25
REMARK SMILES IDX 15 26 24 27 25 28 26 29 27 30 28 31 29 33 30 34 31 35 92 36
REMARK SMILES IDX 32 37 91 38 33 39 34 40 35 41 85 42 36 43 90 44 84 45 86 46
REMARK SMILES IDX 37 47 89 48 83 49 82 50 38 52 70 53 50 54 69 55 51 56 54 57
REMARK SMILES IDX 68 58 87 59 52 60 53 61 67 63 88 64 55 65 39 66 40 67 48 68
REMARK SMILES IDX 41 69 47 70 49 71 46 72 42 73 43 74 44 75 45 76 71 77 72 78
REMARK SMILES IDX 80 79 73 80 79 81 81 82 78 83 74 84 75 85 76 86 77 87 56 88
REMARK SMILES IDX 57 89 65 90 58 91 64 92 66 93 63 94 59 95 60 96 61 97 62 98
REMARK H PARENT 20 7 17 16 7 17 27 32 86 51 54 62
REMARK Flexibility Score: inf
ROOT
ATOM      1  C   UNL A   1      35.229  34.019  28.824  1.00  0.00     0.002 C 
ENDROOT
BRANCH   1   2
ATOM      2  C   UNL A   1      34.819  32.655  28.253  1.00  0.00     0.021 C 
BRANCH   2   3
ATOM      3  C   UNL A   1      33.321  32.485  27.998  1.00  0.00     0.116 C 
BRANCH   3   4
ATOM      4  N   UNL A   1      33.031  31.228  27.335  1.00  0.00    -0.356 N 
ATOM      5  O   UNL A   1      31.074  31.915  26.351  1.00  0.00    -0.275 OA
ATOM      6  C   UNL A   1      31.929  31.055  26.538  1.00  0.00     0.221 C 
ATOM      7  H   UNL A   1      33.649  30.471  27.461  1.00  0.00     0.163 HD
BRANCH   6   8
ATOM      8  C   UNL A   1      31.776  29.670  25.948  1.00  0.00     0.127 C 
BRANCH   8   9
ATOM      9  C   UNL A   1      32.421  28.528  26.723  1.00  0.00     0.183 C 
ATOM     10  S   UNL A   1      31.628  26.929  26.288  1.00  0.00    -0.020 SA
ATOM     11  C   UNL A   1      33.907  28.303  26.504  1.00  0.00     0.322 C 
ATOM     12  C   UNL A   1      33.136  26.213  25.817  1.00  0.00     0.337 C 
ATOM     13  N   UNL A   1      34.162  27.077  25.975  1.00  0.00    -0.202 N 
ATOM     14  O   UNL A   1      34.786  29.083  26.845  1.00  0.00    -0.246 OA
ATOM     15  N   UNL A   1      33.250  25.003  25.387  1.00  0.00    -0.142 N 
ATOM     16  H   UNL A   1      35.077  26.825  25.711  1.00  0.00     0.316 HD
ATOM     17  H   UNL A   1      32.486  24.402  25.230  1.00  0.00     0.343 HD
BRANCH  15  18
ATOM     18  N   UNL A   1      34.586  24.639  25.168  1.00  0.00    -0.093 NA
ATOM     19  C   UNL A   1      34.893  23.572  25.835  1.00  0.00     0.166 C 
BRANCH  19  20
ATOM     20  C   UNL A   1      36.257  23.014  25.815  1.00  0.00    -0.002 A 
ATOM     21  C   UNL A   1      37.351  23.790  26.212  1.00  0.00     0.010 A 
ATOM     22  C   UNL A   1      36.436  21.692  25.406  1.00  0.00     0.030 A 
ATOM     23  C   UNL A   1      38.634  23.241  26.198  1.00  0.00     0.002 A 
ATOM     24  C   UNL A   1      37.724  21.157  25.386  1.00  0.00     0.041 A 
ATOM     25  C   UNL A   1      38.821  21.922  25.782  1.00  0.00     0.020 A 
ATOM     26  Cl  UNL A   1      37.962  19.533  24.867  1.00  0.00    -0.084 Cl
ENDBRANCH  19  20
ENDBRANCH  15  18
ENDBRANCH   8   9
ENDBRANCH   6   8
ENDBRANCH   3   4
ENDBRANCH   2   3
ENDBRANCH   1   2
BRANCH   1  27
ATOM     27  C   UNL A   1      34.675  35.240  28.082  1.00  0.00     0.002 C 
BRANCH  27  28
ATOM     28  C   UNL A   1      33.721  36.122  28.891  1.00  0.00     0.021 C 
BRANCH  28  29
ATOM     29  C   UNL A   1      32.797  35.378  29.850  1.00  0.00     0.116 C 
BRANCH  29  30
ATOM     30  N   UNL A   1      32.509  36.138  31.057  1.00  0.00    -0.352 N 
ATOM     31  C   UNL A   1      33.068  36.032  32.309  1.00  0.00     0.251 C 
ATOM     32  H   UNL A   1      31.813  36.828  30.964  1.00  0.00     0.163 HD
ATOM     33  O   UNL A   1      32.584  36.660  33.247  1.00  0.00    -0.269 OA
BRANCH  31  34
ATOM     34  C   UNL A   1      34.226  35.135  32.530  1.00  0.00     0.039 A 
ATOM     35  C   UNL A   1      35.507  35.597  32.220  1.00  0.00     0.014 A 
ATOM     36  C   UNL A   1      34.052  33.850  33.050  1.00  0.00     0.014 A 
ATOM     37  C   UNL A   1      36.620  34.802  32.506  1.00  0.00     0.010 A 
ATOM     38  C   UNL A   1      35.165  33.086  33.395  1.00  0.00     0.010 A 
ATOM     39  C   UNL A   1      36.461  33.558  33.137  1.00  0.00    -0.014 A 
BRANCH  39  40
ATOM     40  C   UNL A   1      37.636  32.748  33.558  1.00  0.00     0.031 A 
ATOM     41  C   UNL A   1      38.371  33.079  34.827  1.00  0.00     0.074 A 
ATOM     42  C   UNL A   1      38.092  31.768  32.751  1.00  0.00     0.049 A 
ATOM     43  N   UNL A   1      39.471  32.560  35.307  1.00  0.00    -0.248 NA
ATOM     44  C   UNL A   1      37.806  34.160  35.647  1.00  0.00     0.031 C 
ATOM     45  C   UNL A   1      37.493  31.383  31.472  1.00  0.00     0.029 A 
ATOM     46  N   UNL A   1      39.173  30.932  32.876  1.00  0.00    -0.354 N 
ATOM     47  C   UNL A   1      39.740  33.257  36.481  1.00  0.00     0.074 A 
ATOM     48  C   UNL A   1      38.716  34.276  36.601  1.00  0.00     0.031 C 
ATOM     49  C   UNL A   1      38.211  30.385  30.933  1.00  0.00     0.029 A 
ATOM     50  C   UNL A   1      39.345  30.088  31.802  1.00  0.00     0.049 A 
ATOM     51  H   UNL A   1      39.769  30.935  33.660  1.00  0.00     0.167 HD
ATOM     52  C   UNL A   1      40.732  33.053  37.384  1.00  0.00     0.034 A 
ATOM     53  C   UNL A   1      40.318  29.194  31.534  1.00  0.00     0.034 A 
ATOM     54  C   UNL A   1      41.744  32.031  37.247  1.00  0.00     0.049 A 
ATOM     55  C   UNL A   1      41.429  29.001  32.533  1.00  0.00     0.074 A 
ATOM     56  C   UNL A   1      42.756  31.695  38.129  1.00  0.00     0.029 A 
ATOM     57  N   UNL A   1      41.881  31.189  36.150  1.00  0.00    -0.354 N 
ATOM     58  N   UNL A   1      41.633  29.627  33.669  1.00  0.00    -0.248 NA
ATOM     59  C   UNL A   1      42.431  27.976  32.220  1.00  0.00     0.031 C 
ATOM     60  C   UNL A   1      43.545  30.702  37.537  1.00  0.00     0.029 A 
ATOM     61  C   UNL A   1      42.983  30.361  36.317  1.00  0.00     0.049 A 
ATOM     62  H   UNL A   1      41.284  31.180  35.368  1.00  0.00     0.167 HD
ATOM     63  C   UNL A   1      42.780  29.054  34.216  1.00  0.00     0.074 A 
ATOM     64  C   UNL A   1      43.209  28.023  33.292  1.00  0.00     0.031 C 
ATOM     65  C   UNL A   1      43.415  29.352  35.379  1.00  0.00     0.034 A 
BRANCH  52  66
ATOM     66  C   UNL A   1      40.780  33.976  38.579  1.00  0.00     0.023 A 
ATOM     67  C   UNL A   1      40.028  33.720  39.740  1.00  0.00     0.031 A 
ATOM     68  C   UNL A   1      41.553  35.151  38.546  1.00  0.00     0.131 A 
ATOM     69  C   UNL A   1      39.993  34.665  40.776  1.00  0.00     0.055 A 
ATOM     70  C   UNL A   1      41.583  36.045  39.619  1.00  0.00     0.041 A 
ATOM     71  F   UNL A   1      42.279  35.461  37.460  1.00  0.00    -0.206 F 
ATOM     72  C   UNL A   1      40.784  35.814  40.734  1.00  0.00     0.022 A 
BRANCH  69  73
ATOM     73  S   UNL A   1      38.770  34.450  42.098  1.00  0.00     0.124 S 
ATOM     74  O   UNL A   1      38.095  33.224  41.680  1.00  0.00    -0.237 OA
ATOM     75  O   UNL A   1      39.606  34.344  43.287  1.00  0.00    -0.237 OA
ATOM     76  O   UNL A   1      37.954  35.660  42.012  1.00  0.00    -0.744 OA
ENDBRANCH  69  73
ENDBRANCH  52  66
BRANCH  53  77
ATOM     77  C   UNL A   1      40.303  28.436  30.250  1.00  0.00     0.023 A 
ATOM     78  C   UNL A   1      41.157  28.781  29.192  1.00  0.00     0.031 A 
ATOM     79  C   UNL A   1      39.414  27.363  30.060  1.00  0.00     0.131 A 
ATOM     80  C   UNL A   1      41.078  28.083  27.976  1.00  0.00     0.055 A 
ATOM     81  C   UNL A   1      39.373  26.642  28.867  1.00  0.00     0.041 A 
ATOM     82  F   UNL A   1      38.581  26.989  31.044  1.00  0.00    -0.206 F 
ATOM     83  C   UNL A   1      40.202  27.008  27.811  1.00  0.00     0.022 A 
BRANCH  80  84
ATOM     84  S   UNL A   1      42.098  28.645  26.584  1.00  0.00     0.124 S 
ATOM     85  O   UNL A   1      42.818  27.427  26.232  1.00  0.00    -0.237 OA
ATOM     86  O   UNL A   1      41.089  29.093  25.631  1.00  0.00    -0.237 OA
ATOM     87  O   UNL A   1      42.915  29.707  27.168  1.00  0.00    -0.744 OA
ENDBRANCH  80  84
ENDBRANCH  53  77
BRANCH  65  88
ATOM     88  C   UNL A   1      44.627  28.522  35.727  1.00  0.00     0.023 A 
ATOM     89  C   UNL A   1      44.522  27.338  36.479  1.00  0.00     0.031 A 
ATOM     90  C   UNL A   1      45.906  28.929  35.308  1.00  0.00     0.131 A 
ATOM     91  C   UNL A   1      45.681  26.628  36.829  1.00  0.00     0.055 A 
ATOM     92  C   UNL A   1      47.049  28.188  35.610  1.00  0.00     0.041 A 
ATOM     93  F   UNL A   1      46.065  30.054  34.591  1.00  0.00    -0.206 F 
ATOM     94  C   UNL A   1      46.942  27.036  36.385  1.00  0.00     0.022 A 
BRANCH  91  95
ATOM     95  S   UNL A   1      45.531  25.203  37.941  1.00  0.00     0.124 S 
ATOM     96  O   UNL A   1      46.486  24.265  37.363  1.00  0.00    -0.237 OA
ATOM     97  O   UNL A   1      45.900  25.775  39.232  1.00  0.00    -0.237 OA
ATOM     98  O   UNL A   1      44.127  24.816  37.815  1.00  0.00    -0.744 OA
ENDBRANCH  91  95
ENDBRANCH  65  88
ENDBRANCH  39  40
ENDBRANCH  31  34
ENDBRANCH  29  30
ENDBRANCH  28  29
ENDBRANCH  27  28
ENDBRANCH   1  27
TORSDOF 19
ENDMDL
