MODEL 1
REMARK VINA RESULT:     -11.2      0.000      0.000
REMARK SMILES N#Cc1ccc(C(=O)NCCCCCCNC(=O)c2ccc(-c3c4nc(c(-c5cc(S(=O)(=O)[O-])ccc5F)c5ccc([nH]5)c(-c5cc(S(=O)(=O)[O-])ccc5F)c5nc(c(-c6cc(S(=O)(=O)[O-])ccc6F)c6ccc3[nH]6)C=C5)C=C4)cc2)nc1/C=C/c1ccc(O)c(Cl)c1
REMARK SMILES IDX 12 1 11 2 10 3 9 4 7 5 8 6 6 8 3 9 4 10 83 11 5 12 82 13
REMARK SMILES IDX 2 14 1 15 84 16 85 17 86 18 87 19 93 20 88 21 91 22 89 23
REMARK SMILES IDX 92 24 90 25 13 27 14 28 15 29 16 30 17 31 18 33 19 34 20 35
REMARK SMILES IDX 81 36 21 37 80 38 22 39 23 40 24 41 74 42 25 43 79 44 73 45
REMARK SMILES IDX 75 46 26 47 78 48 72 49 71 50 27 52 59 53 39 54 58 55 40 56
REMARK SMILES IDX 43 57 57 58 76 59 41 60 42 61 56 63 77 64 44 65 28 66 29 67
REMARK SMILES IDX 37 68 30 69 36 70 38 71 35 72 31 73 32 74 33 75 34 76 60 77
REMARK SMILES IDX 61 78 69 79 62 80 68 81 70 82 67 83 63 84 64 85 65 86 66 87
REMARK SMILES IDX 45 88 46 89 54 90 47 91 53 92 55 93 52 94 48 95 49 96 50 97
REMARK SMILES IDX 51 98
REMARK H PARENT 9 7 90 26 16 32 75 51 43 62
REMARK Flexibility Score: inf
ROOT
ATOM      1  C   UNL A   1      33.990  21.995  23.755  1.00  0.00     0.002 C 
ENDROOT
BRANCH   1   2
ATOM      2  C   UNL A   1      33.477  21.373  25.052  1.00  0.00     0.021 C 
BRANCH   2   3
ATOM      3  C   UNL A   1      31.987  21.056  25.093  1.00  0.00     0.116 C 
BRANCH   3   4
ATOM      4  N   UNL A   1      31.259  21.806  26.097  1.00  0.00    -0.351 N 
ATOM      5  C   UNL A   1      31.018  23.157  26.258  1.00  0.00     0.269 C 
ATOM      6  O   UNL A   1      30.385  23.490  27.263  1.00  0.00    -0.268 OA
ATOM      7  H   UNL A   1      30.859  21.245  26.801  1.00  0.00     0.163 HD
BRANCH   5   8
ATOM      8  C   UNL A   1      31.510  24.213  25.298  1.00  0.00     0.128 A 
ATOM      9  C   UNL A   1      32.669  26.104  23.656  1.00  0.00     0.078 A 
ATOM     10  C   UNL A   1      31.730  25.216  23.135  1.00  0.00     0.024 A 
ATOM     11  C   UNL A   1      32.909  26.073  25.030  1.00  0.00     0.082 A 
ATOM     12  C   UNL A   1      31.092  24.313  23.980  1.00  0.00     0.035 A 
ATOM     13  N   UNL A   1      32.383  25.111  25.833  1.00  0.00    -0.242 NA
BRANCH   9  14
ATOM     14  C   UNL A   1      33.295  27.046  22.782  1.00  0.00     0.101 C 
ATOM     15  N   UNL A   1      33.808  27.808  22.069  1.00  0.00    -0.192 NA
ENDBRANCH   9  14
BRANCH  11  16
ATOM     16  C   UNL A   1      33.627  27.169  25.711  1.00  0.00     0.030 C 
ATOM     17  C   UNL A   1      33.066  28.044  26.563  1.00  0.00     0.010 C 
BRANCH  17  18
ATOM     18  C   UNL A   1      33.805  29.224  27.030  1.00  0.00    -0.024 A 
ATOM     19  C   UNL A   1      33.137  30.435  27.241  1.00  0.00     0.012 A 
ATOM     20  C   UNL A   1      35.195  29.164  27.231  1.00  0.00     0.032 A 
ATOM     21  C   UNL A   1      33.835  31.559  27.692  1.00  0.00     0.048 A 
ATOM     22  C   UNL A   1      35.888  30.284  27.682  1.00  0.00     0.083 A 
ATOM     23  C   UNL A   1      35.205  31.477  27.920  1.00  0.00     0.134 A 
ATOM     24  Cl  UNL A   1      37.589  30.182  27.947  1.00  0.00    -0.080 Cl
BRANCH  23  25
ATOM     25  O   UNL A   1      35.843  32.596  28.378  1.00  0.00    -0.506 OA
ATOM     26  H   UNL A   1      36.756  32.562  28.588  1.00  0.00     0.293 HD
ENDBRANCH  23  25
ENDBRANCH  17  18
ENDBRANCH  11  16
ENDBRANCH   5   8
ENDBRANCH   3   4
ENDBRANCH   2   3
ENDBRANCH   1   2
BRANCH   1  27
ATOM     27  C   UNL A   1      35.407  22.572  23.813  1.00  0.00     0.002 C 
BRANCH  27  28
ATOM     28  C   UNL A   1      35.617  23.722  24.800  1.00  0.00     0.021 C 
BRANCH  28  29
ATOM     29  C   UNL A   1      36.286  23.329  26.113  1.00  0.00     0.116 C 
BRANCH  29  30
ATOM     30  N   UNL A   1      37.127  22.155  25.963  1.00  0.00    -0.352 N 
ATOM     31  C   UNL A   1      38.490  22.039  26.081  1.00  0.00     0.251 C 
ATOM     32  H   UNL A   1      36.651  21.321  25.745  1.00  0.00     0.163 HD
ATOM     33  O   UNL A   1      39.050  21.023  25.685  1.00  0.00    -0.269 OA
BRANCH  31  34
ATOM     34  C   UNL A   1      39.274  23.150  26.665  1.00  0.00     0.039 A 
ATOM     35  C   UNL A   1      40.339  22.850  27.517  1.00  0.00     0.014 A 
ATOM     36  C   UNL A   1      38.958  24.481  26.378  1.00  0.00     0.014 A 
ATOM     37  C   UNL A   1      41.121  23.884  28.033  1.00  0.00     0.010 A 
ATOM     38  C   UNL A   1      39.791  25.504  26.823  1.00  0.00     0.010 A 
ATOM     39  C   UNL A   1      40.880  25.218  27.660  1.00  0.00    -0.014 A 
BRANCH  39  40
ATOM     40  C   UNL A   1      41.755  26.320  28.140  1.00  0.00     0.031 A 
ATOM     41  C   UNL A   1      41.214  27.361  29.082  1.00  0.00     0.074 A 
ATOM     42  C   UNL A   1      43.026  26.402  27.698  1.00  0.00     0.049 A 
ATOM     43  N   UNL A   1      41.804  28.424  29.566  1.00  0.00    -0.248 NA
ATOM     44  C   UNL A   1      39.818  27.200  29.520  1.00  0.00     0.031 C 
ATOM     45  C   UNL A   1      43.655  25.467  26.762  1.00  0.00     0.029 A 
ATOM     46  N   UNL A   1      44.018  27.309  27.972  1.00  0.00    -0.354 N 
ATOM     47  C   UNL A   1      40.855  29.056  30.362  1.00  0.00     0.074 A 
ATOM     48  C   UNL A   1      39.631  28.296  30.240  1.00  0.00     0.031 C 
ATOM     49  C   UNL A   1      44.932  25.829  26.568  1.00  0.00     0.029 A 
ATOM     50  C   UNL A   1      45.201  27.056  27.312  1.00  0.00     0.049 A 
ATOM     51  H   UNL A   1      43.898  28.071  28.583  1.00  0.00     0.167 HD
ATOM     52  C   UNL A   1      41.001  30.156  31.143  1.00  0.00     0.034 A 
ATOM     53  C   UNL A   1      46.361  27.742  27.291  1.00  0.00     0.034 A 
ATOM     54  C   UNL A   1      42.229  30.902  31.254  1.00  0.00     0.049 A 
ATOM     55  C   UNL A   1      46.475  29.000  28.118  1.00  0.00     0.074 A 
ATOM     56  C   UNL A   1      42.494  32.009  32.043  1.00  0.00     0.029 A 
ATOM     57  N   UNL A   1      43.395  30.631  30.550  1.00  0.00    -0.354 N 
ATOM     58  N   UNL A   1      45.578  29.559  28.899  1.00  0.00    -0.248 NA
ATOM     59  C   UNL A   1      47.757  29.713  28.070  1.00  0.00     0.031 C 
ATOM     60  C   UNL A   1      43.784  32.459  31.749  1.00  0.00     0.029 A 
ATOM     61  C   UNL A   1      44.366  31.575  30.856  1.00  0.00     0.049 A 
ATOM     62  H   UNL A   1      43.515  29.880  29.925  1.00  0.00     0.167 HD
ATOM     63  C   UNL A   1      46.206  30.667  29.463  1.00  0.00     0.074 A 
ATOM     64  C   UNL A   1      47.559  30.684  28.947  1.00  0.00     0.031 C 
ATOM     65  C   UNL A   1      45.711  31.585  30.332  1.00  0.00     0.034 A 
BRANCH  52  66
ATOM     66  C   UNL A   1      39.794  30.630  31.918  1.00  0.00     0.023 A 
ATOM     67  C   UNL A   1      38.924  31.607  31.405  1.00  0.00     0.031 A 
ATOM     68  C   UNL A   1      39.507  30.093  33.186  1.00  0.00     0.131 A 
ATOM     69  C   UNL A   1      37.848  32.064  32.181  1.00  0.00     0.055 A 
ATOM     70  C   UNL A   1      38.384  30.489  33.916  1.00  0.00     0.041 A 
ATOM     71  F   UNL A   1      40.316  29.177  33.741  1.00  0.00    -0.206 F 
ATOM     72  C   UNL A   1      37.554  31.490  33.419  1.00  0.00     0.022 A 
BRANCH  69  73
ATOM     73  S   UNL A   1      36.926  33.516  31.610  1.00  0.00     0.124 S 
ATOM     74  O   UNL A   1      37.708  33.920  30.443  1.00  0.00    -0.237 OA
ATOM     75  O   UNL A   1      35.605  32.964  31.335  1.00  0.00    -0.237 OA
ATOM     76  O   UNL A   1      36.997  34.435  32.745  1.00  0.00    -0.744 OA
ENDBRANCH  69  73
ENDBRANCH  52  66
BRANCH  53  77
ATOM     77  C   UNL A   1      47.501  27.287  26.440  1.00  0.00     0.023 A 
ATOM     78  C   UNL A   1      47.630  27.713  25.110  1.00  0.00     0.031 A 
ATOM     79  C   UNL A   1      48.439  26.356  26.924  1.00  0.00     0.131 A 
ATOM     80  C   UNL A   1      48.626  27.161  24.290  1.00  0.00     0.055 A 
ATOM     81  C   UNL A   1      49.475  25.867  26.126  1.00  0.00     0.041 A 
ATOM     82  F   UNL A   1      48.365  25.908  28.187  1.00  0.00    -0.206 F 
ATOM     83  C   UNL A   1      49.561  26.255  24.794  1.00  0.00     0.022 A 
BRANCH  80  84
ATOM     84  S   UNL A   1      48.598  27.540  22.515  1.00  0.00     0.124 S 
ATOM     85  O   UNL A   1      48.682  26.208  21.929  1.00  0.00    -0.237 OA
ATOM     86  O   UNL A   1      47.317  28.226  22.373  1.00  0.00    -0.237 OA
ATOM     87  O   UNL A   1      49.779  28.380  22.329  1.00  0.00    -0.744 OA
ENDBRANCH  80  84
ENDBRANCH  53  77
BRANCH  65  88
ATOM     88  C   UNL A   1      46.658  32.655  30.824  1.00  0.00     0.023 A 
ATOM     89  C   UNL A   1      46.798  33.887  30.161  1.00  0.00     0.031 A 
ATOM     90  C   UNL A   1      47.437  32.432  31.973  1.00  0.00     0.131 A 
ATOM     91  C   UNL A   1      47.742  34.820  30.615  1.00  0.00     0.055 A 
ATOM     92  C   UNL A   1      48.317  33.396  32.465  1.00  0.00     0.041 A 
ATOM     93  F   UNL A   1      47.352  31.272  32.644  1.00  0.00    -0.206 F 
ATOM     94  C   UNL A   1      48.485  34.593  31.776  1.00  0.00     0.022 A 
BRANCH  91  95
ATOM     95  S   UNL A   1      48.070  36.287  29.599  1.00  0.00     0.124 S 
ATOM     96  O   UNL A   1      47.709  37.369  30.507  1.00  0.00    -0.237 OA
ATOM     97  O   UNL A   1      49.493  36.151  29.303  1.00  0.00    -0.237 OA
ATOM     98  O   UNL A   1      47.180  36.114  28.452  1.00  0.00    -0.744 OA
ENDBRANCH  91  95
ENDBRANCH  65  88
ENDBRANCH  39  40
ENDBRANCH  31  34
ENDBRANCH  29  30
ENDBRANCH  28  29
ENDBRANCH  27  28
ENDBRANCH   1  27
TORSDOF 20
ENDMDL
MODEL 2
REMARK VINA RESULT:     -11.0      3.768      8.264
REMARK SMILES N#Cc1ccc(C(=O)NCCCCCCNC(=O)c2ccc(-c3c4nc(c(-c5cc(S(=O)(=O)[O-])ccc5F)c5ccc([nH]5)c(-c5cc(S(=O)(=O)[O-])ccc5F)c5nc(c(-c6cc(S(=O)(=O)[O-])ccc6F)c6ccc3[nH]6)C=C5)C=C4)cc2)nc1/C=C/c1ccc(O)c(Cl)c1
REMARK SMILES IDX 12 1 11 2 10 3 9 4 7 5 8 6 6 8 3 9 4 10 83 11 5 12 82 13
REMARK SMILES IDX 2 14 1 15 84 16 85 17 86 18 87 19 93 20 88 21 91 22 89 23
REMARK SMILES IDX 92 24 90 25 13 27 14 28 15 29 16 30 17 31 18 33 19 34 20 35
REMARK SMILES IDX 81 36 21 37 80 38 22 39 23 40 24 41 74 42 25 43 79 44 73 45
REMARK SMILES IDX 75 46 26 47 78 48 72 49 71 50 27 52 59 53 39 54 58 55 40 56
REMARK SMILES IDX 43 57 57 58 76 59 41 60 42 61 56 63 77 64 44 65 28 66 29 67
REMARK SMILES IDX 37 68 30 69 36 70 38 71 35 72 31 73 32 74 33 75 34 76 60 77
REMARK SMILES IDX 61 78 69 79 62 80 68 81 70 82 67 83 63 84 64 85 65 86 66 87
REMARK SMILES IDX 45 88 46 89 54 90 47 91 53 92 55 93 52 94 48 95 49 96 50 97
REMARK SMILES IDX 51 98
REMARK H PARENT 9 7 90 26 16 32 75 51 43 62
REMARK Flexibility Score: inf
ROOT
ATOM      1  C   UNL A   1      34.329  23.256  23.082  1.00  0.00     0.002 C 
ENDROOT
BRANCH   1   2
ATOM      2  C   UNL A   1      33.043  22.458  23.284  1.00  0.00     0.021 C 
BRANCH   2   3
ATOM      3  C   UNL A   1      31.748  23.260  23.225  1.00  0.00     0.116 C 
BRANCH   3   4
ATOM      4  N   UNL A   1      30.978  23.214  24.453  1.00  0.00    -0.351 N 
ATOM      5  C   UNL A   1      30.872  24.085  25.519  1.00  0.00     0.269 C 
ATOM      6  O   UNL A   1      30.149  23.731  26.453  1.00  0.00    -0.268 OA
ATOM      7  H   UNL A   1      30.425  22.405  24.545  1.00  0.00     0.163 HD
BRANCH   5   8
ATOM      8  C   UNL A   1      31.608  25.400  25.598  1.00  0.00     0.128 A 
ATOM      9  C   UNL A   1      32.718  27.914  25.862  1.00  0.00     0.078 A 
ATOM     10  C   UNL A   1      33.481  26.786  26.156  1.00  0.00     0.024 A 
ATOM     11  C   UNL A   1      31.440  27.722  25.335  1.00  0.00     0.082 A 
ATOM     12  C   UNL A   1      32.944  25.518  25.951  1.00  0.00     0.035 A 
ATOM     13  N   UNL A   1      30.870  26.492  25.253  1.00  0.00    -0.242 NA
BRANCH   9  14
ATOM     14  C   UNL A   1      33.292  29.209  26.050  1.00  0.00     0.101 C 
ATOM     15  N   UNL A   1      33.758  30.264  26.196  1.00  0.00    -0.192 NA
ENDBRANCH   9  14
BRANCH  11  16
ATOM     16  C   UNL A   1      30.696  28.829  24.700  1.00  0.00     0.030 C 
ATOM     17  C   UNL A   1      29.787  28.683  23.721  1.00  0.00     0.010 C 
BRANCH  17  18
ATOM     18  C   UNL A   1      29.251  29.849  23.007  1.00  0.00    -0.024 A 
ATOM     19  C   UNL A   1      28.541  29.678  21.814  1.00  0.00     0.012 A 
ATOM     20  C   UNL A   1      29.479  31.149  23.489  1.00  0.00     0.032 A 
ATOM     21  C   UNL A   1      28.022  30.784  21.135  1.00  0.00     0.048 A 
ATOM     22  C   UNL A   1      28.960  32.250  22.812  1.00  0.00     0.083 A 
ATOM     23  C   UNL A   1      28.226  32.064  21.640  1.00  0.00     0.134 A 
ATOM     24  Cl  UNL A   1      29.230  33.836  23.434  1.00  0.00    -0.080 Cl
BRANCH  23  25
ATOM     25  O   UNL A   1      27.686  33.115  20.952  1.00  0.00    -0.506 OA
ATOM     26  H   UNL A   1      26.783  33.337  21.071  1.00  0.00     0.293 HD
ENDBRANCH  23  25
ENDBRANCH  17  18
ENDBRANCH  11  16
ENDBRANCH   5   8
ENDBRANCH   3   4
ENDBRANCH   2   3
ENDBRANCH   1   2
BRANCH   1  27
ATOM     27  C   UNL A   1      35.596  22.629  23.671  1.00  0.00     0.002 C 
BRANCH  27  28
ATOM     28  C   UNL A   1      36.471  23.563  24.510  1.00  0.00     0.021 C 
BRANCH  28  29
ATOM     29  C   UNL A   1      36.656  23.138  25.963  1.00  0.00     0.116 C 
BRANCH  29  30
ATOM     30  N   UNL A   1      37.814  22.279  26.134  1.00  0.00    -0.352 N 
ATOM     31  C   UNL A   1      39.114  22.616  26.415  1.00  0.00     0.251 C 
ATOM     32  H   UNL A   1      37.640  21.315  26.034  1.00  0.00     0.163 HD
ATOM     33  O   UNL A   1      40.000  21.778  26.286  1.00  0.00    -0.269 OA
BRANCH  31  34
ATOM     34  C   UNL A   1      39.440  23.992  26.850  1.00  0.00     0.039 A 
ATOM     35  C   UNL A   1      39.251  24.340  28.188  1.00  0.00     0.014 A 
ATOM     36  C   UNL A   1      39.925  24.936  25.940  1.00  0.00     0.014 A 
ATOM     37  C   UNL A   1      39.604  25.619  28.625  1.00  0.00     0.010 A 
ATOM     38  C   UNL A   1      40.356  26.180  26.394  1.00  0.00     0.010 A 
ATOM     39  C   UNL A   1      40.196  26.538  27.741  1.00  0.00    -0.014 A 
BRANCH  39  40
ATOM     40  C   UNL A   1      40.648  27.873  28.212  1.00  0.00     0.031 A 
ATOM     41  C   UNL A   1      42.111  28.226  28.198  1.00  0.00     0.074 A 
ATOM     42  C   UNL A   1      39.744  28.753  28.688  1.00  0.00     0.049 A 
ATOM     43  N   UNL A   1      42.703  29.315  28.619  1.00  0.00    -0.248 NA
ATOM     44  C   UNL A   1      43.034  27.213  27.662  1.00  0.00     0.031 C 
ATOM     45  C   UNL A   1      38.301  28.514  28.777  1.00  0.00     0.029 A 
ATOM     46  N   UNL A   1      39.897  30.022  29.186  1.00  0.00    -0.354 N 
ATOM     47  C   UNL A   1      44.061  29.119  28.400  1.00  0.00     0.074 A 
ATOM     48  C   UNL A   1      44.212  27.780  27.874  1.00  0.00     0.031 C 
ATOM     49  C   UNL A   1      37.702  29.611  29.264  1.00  0.00     0.029 A 
ATOM     50  C   UNL A   1      38.717  30.610  29.583  1.00  0.00     0.049 A 
ATOM     51  H   UNL A   1      40.770  30.472  29.254  1.00  0.00     0.167 HD
ATOM     52  C   UNL A   1      45.086  29.986  28.595  1.00  0.00     0.034 A 
ATOM     53  C   UNL A   1      38.479  31.807  30.157  1.00  0.00     0.034 A 
ATOM     54  C   UNL A   1      44.917  31.319  29.121  1.00  0.00     0.049 A 
ATOM     55  C   UNL A   1      39.645  32.727  30.424  1.00  0.00     0.074 A 
ATOM     56  C   UNL A   1      45.883  32.290  29.323  1.00  0.00     0.029 A 
ATOM     57  N   UNL A   1      43.711  31.867  29.536  1.00  0.00    -0.354 N 
ATOM     58  N   UNL A   1      40.920  32.540  30.170  1.00  0.00    -0.248 NA
ATOM     59  C   UNL A   1      39.341  34.022  31.046  1.00  0.00     0.031 C 
ATOM     60  C   UNL A   1      45.278  33.386  29.945  1.00  0.00     0.029 A 
ATOM     61  C   UNL A   1      43.917  33.146  30.033  1.00  0.00     0.049 A 
ATOM     62  H   UNL A   1      42.839  31.415  29.486  1.00  0.00     0.167 HD
ATOM     63  C   UNL A   1      41.562  33.711  30.567  1.00  0.00     0.074 A 
ATOM     64  C   UNL A   1      40.531  34.602  31.057  1.00  0.00     0.031 C 
ATOM     65  C   UNL A   1      42.882  34.025  30.525  1.00  0.00     0.034 A 
BRANCH  52  66
ATOM     66  C   UNL A   1      46.480  29.511  28.263  1.00  0.00     0.023 A 
ATOM     67  C   UNL A   1      47.292  28.878  29.220  1.00  0.00     0.031 A 
ATOM     68  C   UNL A   1      47.003  29.688  26.970  1.00  0.00     0.131 A 
ATOM     69  C   UNL A   1      48.603  28.505  28.890  1.00  0.00     0.055 A 
ATOM     70  C   UNL A   1      48.277  29.234  26.623  1.00  0.00     0.041 A 
ATOM     71  F   UNL A   1      46.287  30.309  26.021  1.00  0.00    -0.206 F 
ATOM     72  C   UNL A   1      49.091  28.650  27.590  1.00  0.00     0.022 A 
BRANCH  69  73
ATOM     73  S   UNL A   1      49.708  27.959  30.220  1.00  0.00     0.124 S 
ATOM     74  O   UNL A   1      50.712  27.202  29.475  1.00  0.00    -0.237 OA
ATOM     75  O   UNL A   1      50.157  29.220  30.797  1.00  0.00    -0.237 OA
ATOM     76  O   UNL A   1      48.841  27.152  31.075  1.00  0.00    -0.744 OA
ENDBRANCH  69  73
ENDBRANCH  52  66
BRANCH  53  77
ATOM     77  C   UNL A   1      37.094  32.202  30.551  1.00  0.00     0.023 A 
ATOM     78  C   UNL A   1      36.204  32.757  29.619  1.00  0.00     0.031 A 
ATOM     79  C   UNL A   1      36.664  32.101  31.887  1.00  0.00     0.131 A 
ATOM     80  C   UNL A   1      34.961  33.251  30.044  1.00  0.00     0.055 A 
ATOM     81  C   UNL A   1      35.397  32.525  32.291  1.00  0.00     0.041 A 
ATOM     82  F   UNL A   1      37.473  31.583  32.825  1.00  0.00    -0.206 F 
ATOM     83  C   UNL A   1      34.544  33.123  31.370  1.00  0.00     0.022 A 
BRANCH  80  84
ATOM     84  S   UNL A   1      33.952  34.191  28.864  1.00  0.00     0.124 S 
ATOM     85  O   UNL A   1      34.921  35.153  28.352  1.00  0.00    -0.237 OA
ATOM     86  O   UNL A   1      33.526  33.150  27.934  1.00  0.00    -0.237 OA
ATOM     87  O   UNL A   1      32.893  34.754  29.698  1.00  0.00    -0.744 OA
ENDBRANCH  80  84
ENDBRANCH  53  77
BRANCH  65  88
ATOM     88  C   UNL A   1      43.280  35.412  30.972  1.00  0.00     0.023 A 
ATOM     89  C   UNL A   1      43.496  35.724  32.326  1.00  0.00     0.031 A 
ATOM     90  C   UNL A   1      43.437  36.440  30.025  1.00  0.00     0.131 A 
ATOM     91  C   UNL A   1      43.794  37.043  32.699  1.00  0.00     0.055 A 
ATOM     92  C   UNL A   1      43.811  37.732  30.395  1.00  0.00     0.041 A 
ATOM     93  F   UNL A   1      43.236  36.204  28.718  1.00  0.00    -0.206 F 
ATOM     94  C   UNL A   1      43.976  38.044  31.740  1.00  0.00     0.022 A 
BRANCH  91  95
ATOM     95  S   UNL A   1      43.825  37.460  34.464  1.00  0.00     0.124 S 
ATOM     96  O   UNL A   1      42.403  37.510  34.787  1.00  0.00    -0.237 OA
ATOM     97  O   UNL A   1      44.569  36.343  35.036  1.00  0.00    -0.237 OA
ATOM     98  O   UNL A   1      44.516  38.748  34.499  1.00  0.00    -0.744 OA
ENDBRANCH  91  95
ENDBRANCH  65  88
ENDBRANCH  39  40
ENDBRANCH  31  34
ENDBRANCH  29  30
ENDBRANCH  28  29
ENDBRANCH  27  28
ENDBRANCH   1  27
TORSDOF 20
ENDMDL
MODEL 3
REMARK VINA RESULT:     -11.0      3.220      8.158
REMARK SMILES N#Cc1ccc(C(=O)NCCCCCCNC(=O)c2ccc(-c3c4nc(c(-c5cc(S(=O)(=O)[O-])ccc5F)c5ccc([nH]5)c(-c5cc(S(=O)(=O)[O-])ccc5F)c5nc(c(-c6cc(S(=O)(=O)[O-])ccc6F)c6ccc3[nH]6)C=C5)C=C4)cc2)nc1/C=C/c1ccc(O)c(Cl)c1
REMARK SMILES IDX 12 1 11 2 10 3 9 4 7 5 8 6 6 8 3 9 4 10 83 11 5 12 82 13
REMARK SMILES IDX 2 14 1 15 84 16 85 17 86 18 87 19 93 20 88 21 91 22 89 23
REMARK SMILES IDX 92 24 90 25 13 27 14 28 15 29 16 30 17 31 18 33 19 34 20 35
REMARK SMILES IDX 81 36 21 37 80 38 22 39 23 40 24 41 74 42 25 43 79 44 73 45
REMARK SMILES IDX 75 46 26 47 78 48 72 49 71 50 27 52 59 53 39 54 58 55 40 56
REMARK SMILES IDX 43 57 57 58 76 59 41 60 42 61 56 63 77 64 44 65 28 66 29 67
REMARK SMILES IDX 37 68 30 69 36 70 38 71 35 72 31 73 32 74 33 75 34 76 60 77
REMARK SMILES IDX 61 78 69 79 62 80 68 81 70 82 67 83 63 84 64 85 65 86 66 87
REMARK SMILES IDX 45 88 46 89 54 90 47 91 53 92 55 93 52 94 48 95 49 96 50 97
REMARK SMILES IDX 51 98
REMARK H PARENT 9 7 90 26 16 32 75 51 43 62
REMARK Flexibility Score: inf
ROOT
ATOM      1  C   UNL A   1      34.374  23.451  23.160  1.00  0.00     0.002 C 
ENDROOT
BRANCH   1   2
ATOM      2  C   UNL A   1      33.198  22.536  23.491  1.00  0.00     0.021 C 
BRANCH   2   3
ATOM      3  C   UNL A   1      31.812  23.145  23.314  1.00  0.00     0.116 C 
BRANCH   3   4
ATOM      4  N   UNL A   1      31.015  23.142  24.525  1.00  0.00    -0.351 N 
ATOM      5  C   UNL A   1      30.883  24.052  25.555  1.00  0.00     0.269 C 
ATOM      6  O   UNL A   1      30.140  23.731  26.486  1.00  0.00    -0.268 OA
ATOM      7  H   UNL A   1      30.463  22.335  24.636  1.00  0.00     0.163 HD
BRANCH   5   8
ATOM      8  C   UNL A   1      31.613  25.373  25.601  1.00  0.00     0.128 A 
ATOM      9  C   UNL A   1      32.715  27.895  25.811  1.00  0.00     0.078 A 
ATOM     10  C   UNL A   1      33.494  26.773  26.088  1.00  0.00     0.024 A 
ATOM     11  C   UNL A   1      31.422  27.691  25.326  1.00  0.00     0.082 A 
ATOM     12  C   UNL A   1      32.959  25.501  25.910  1.00  0.00     0.035 A 
ATOM     13  N   UNL A   1      30.857  26.457  25.272  1.00  0.00    -0.242 NA
BRANCH   9  14
ATOM     14  C   UNL A   1      33.287  29.194  25.970  1.00  0.00     0.101 C 
ATOM     15  N   UNL A   1      33.755  30.251  26.106  1.00  0.00    -0.192 NA
ENDBRANCH   9  14
BRANCH  11  16
ATOM     16  C   UNL A   1      30.651  28.789  24.708  1.00  0.00     0.030 C 
ATOM     17  C   UNL A   1      29.867  28.662  23.624  1.00  0.00     0.010 C 
BRANCH  17  18
ATOM     18  C   UNL A   1      29.304  29.842  22.955  1.00  0.00    -0.024 A 
ATOM     19  C   UNL A   1      28.561  29.697  21.779  1.00  0.00     0.012 A 
ATOM     20  C   UNL A   1      29.540  31.131  23.463  1.00  0.00     0.032 A 
ATOM     21  C   UNL A   1      28.017  30.817  21.143  1.00  0.00     0.048 A 
ATOM     22  C   UNL A   1      28.996  32.246  22.829  1.00  0.00     0.083 A 
ATOM     23  C   UNL A   1      28.230  32.085  21.675  1.00  0.00     0.134 A 
ATOM     24  Cl  UNL A   1      29.276  33.817  23.483  1.00  0.00    -0.080 Cl
BRANCH  23  25
ATOM     25  O   UNL A   1      27.664  33.150  21.029  1.00  0.00    -0.506 OA
ATOM     26  H   UNL A   1      27.523  33.115  20.103  1.00  0.00     0.293 HD
ENDBRANCH  23  25
ENDBRANCH  17  18
ENDBRANCH  11  16
ENDBRANCH   5   8
ENDBRANCH   3   4
ENDBRANCH   2   3
ENDBRANCH   1   2
BRANCH   1  27
ATOM     27  C   UNL A   1      35.763  22.881  23.461  1.00  0.00     0.002 C 
BRANCH  27  28
ATOM     28  C   UNL A   1      36.578  23.638  24.513  1.00  0.00     0.021 C 
BRANCH  28  29
ATOM     29  C   UNL A   1      36.570  23.012  25.904  1.00  0.00     0.116 C 
BRANCH  29  30
ATOM     30  N   UNL A   1      37.711  22.139  26.113  1.00  0.00    -0.352 N 
ATOM     31  C   UNL A   1      39.014  22.462  26.397  1.00  0.00     0.251 C 
ATOM     32  H   UNL A   1      37.521  21.175  26.041  1.00  0.00     0.163 HD
ATOM     33  O   UNL A   1      39.887  21.605  26.302  1.00  0.00    -0.269 OA
BRANCH  31  34
ATOM     34  C   UNL A   1      39.360  23.845  26.793  1.00  0.00     0.039 A 
ATOM     35  C   UNL A   1      39.129  24.249  28.108  1.00  0.00     0.014 A 
ATOM     36  C   UNL A   1      39.905  24.741  25.868  1.00  0.00     0.014 A 
ATOM     37  C   UNL A   1      39.500  25.533  28.511  1.00  0.00     0.010 A 
ATOM     38  C   UNL A   1      40.351  25.990  26.292  1.00  0.00     0.010 A 
ATOM     39  C   UNL A   1      40.150  26.403  27.617  1.00  0.00    -0.014 A 
BRANCH  39  40
ATOM     40  C   UNL A   1      40.619  27.743  28.056  1.00  0.00     0.031 A 
ATOM     41  C   UNL A   1      42.079  28.098  27.977  1.00  0.00     0.074 A 
ATOM     42  C   UNL A   1      39.734  28.626  28.561  1.00  0.00     0.049 A 
ATOM     43  N   UNL A   1      42.686  29.192  28.362  1.00  0.00    -0.248 NA
ATOM     44  C   UNL A   1      42.980  27.081  27.412  1.00  0.00     0.031 C 
ATOM     45  C   UNL A   1      38.296  28.387  28.713  1.00  0.00     0.029 A 
ATOM     46  N   UNL A   1      39.906  29.901  29.039  1.00  0.00    -0.354 N 
ATOM     47  C   UNL A   1      44.034  28.995  28.087  1.00  0.00     0.074 A 
ATOM     48  C   UNL A   1      44.166  27.651  27.569  1.00  0.00     0.031 C 
ATOM     49  C   UNL A   1      37.717  29.488  29.214  1.00  0.00     0.029 A 
ATOM     50  C   UNL A   1      38.743  30.491  29.480  1.00  0.00     0.049 A 
ATOM     51  H   UNL A   1      40.781  30.353  29.066  1.00  0.00     0.167 HD
ATOM     52  C   UNL A   1      45.065  29.865  28.231  1.00  0.00     0.034 A 
ATOM     53  C   UNL A   1      38.528  31.693  30.052  1.00  0.00     0.034 A 
ATOM     54  C   UNL A   1      44.917  31.203  28.749  1.00  0.00     0.049 A 
ATOM     55  C   UNL A   1      39.703  32.617  30.261  1.00  0.00     0.074 A 
ATOM     56  C   UNL A   1      45.889  32.177  28.902  1.00  0.00     0.029 A 
ATOM     57  N   UNL A   1      43.729  31.754  29.210  1.00  0.00    -0.354 N 
ATOM     58  N   UNL A   1      40.966  32.430  29.955  1.00  0.00    -0.248 NA
ATOM     59  C   UNL A   1      39.423  33.918  30.882  1.00  0.00     0.031 C 
ATOM     60  C   UNL A   1      45.309  33.279  29.537  1.00  0.00     0.029 A 
ATOM     61  C   UNL A   1      43.953  33.038  29.686  1.00  0.00     0.049 A 
ATOM     62  H   UNL A   1      42.855  31.300  29.201  1.00  0.00     0.167 HD
ATOM     63  C   UNL A   1      41.622  33.605  30.313  1.00  0.00     0.074 A 
ATOM     64  C   UNL A   1      40.611  34.500  30.837  1.00  0.00     0.031 C 
ATOM     65  C   UNL A   1      42.938  33.920  30.212  1.00  0.00     0.034 A 
BRANCH  52  66
ATOM     66  C   UNL A   1      46.445  29.389  27.845  1.00  0.00     0.023 A 
ATOM     67  C   UNL A   1      46.741  28.961  26.539  1.00  0.00     0.031 A 
ATOM     68  C   UNL A   1      47.482  29.366  28.795  1.00  0.00     0.131 A 
ATOM     69  C   UNL A   1      48.019  28.470  26.236  1.00  0.00     0.055 A 
ATOM     70  C   UNL A   1      48.775  28.958  28.464  1.00  0.00     0.041 A 
ATOM     71  F   UNL A   1      47.254  29.735  30.066  1.00  0.00    -0.206 F 
ATOM     72  C   UNL A   1      49.047  28.494  27.180  1.00  0.00     0.022 A 
BRANCH  69  73
ATOM     73  S   UNL A   1      48.278  27.666  24.631  1.00  0.00     0.124 S 
ATOM     74  O   UNL A   1      47.829  26.304  24.909  1.00  0.00    -0.237 OA
ATOM     75  O   UNL A   1      47.428  28.451  23.743  1.00  0.00    -0.237 OA
ATOM     76  O   UNL A   1      49.715  27.806  24.407  1.00  0.00    -0.744 OA
ENDBRANCH  69  73
ENDBRANCH  52  66
BRANCH  53  77
ATOM     77  C   UNL A   1      37.159  32.091  30.501  1.00  0.00     0.023 A 
ATOM     78  C   UNL A   1      36.252  32.693  29.616  1.00  0.00     0.031 A 
ATOM     79  C   UNL A   1      36.766  31.943  31.843  1.00  0.00     0.131 A 
ATOM     80  C   UNL A   1      35.028  33.187  30.095  1.00  0.00     0.055 A 
ATOM     81  C   UNL A   1      35.516  32.368  32.299  1.00  0.00     0.041 A 
ATOM     82  F   UNL A   1      37.593  31.380  32.737  1.00  0.00    -0.206 F 
ATOM     83  C   UNL A   1      34.647  33.012  31.426  1.00  0.00     0.022 A 
BRANCH  80  84
ATOM     84  S   UNL A   1      34.000  34.185  28.981  1.00  0.00     0.124 S 
ATOM     85  O   UNL A   1      34.995  35.054  28.365  1.00  0.00    -0.237 OA
ATOM     86  O   UNL A   1      33.412  33.166  28.117  1.00  0.00    -0.237 OA
ATOM     87  O   UNL A   1      33.065  34.848  29.887  1.00  0.00    -0.744 OA
ENDBRANCH  80  84
ENDBRANCH  53  77
BRANCH  65  88
ATOM     88  C   UNL A   1      43.353  35.312  30.629  1.00  0.00     0.023 A 
ATOM     89  C   UNL A   1      43.366  36.387  29.723  1.00  0.00     0.031 A 
ATOM     90  C   UNL A   1      43.747  35.563  31.955  1.00  0.00     0.131 A 
ATOM     91  C   UNL A   1      43.827  37.645  30.140  1.00  0.00     0.055 A 
ATOM     92  C   UNL A   1      44.129  36.834  32.383  1.00  0.00     0.041 A 
ATOM     93  F   UNL A   1      43.762  34.574  32.864  1.00  0.00    -0.206 F 
ATOM     94  C   UNL A   1      44.185  37.881  31.469  1.00  0.00     0.022 A 
BRANCH  91  95
ATOM     95  S   UNL A   1      44.063  38.940  28.891  1.00  0.00     0.124 S 
ATOM     96  O   UNL A   1      45.517  39.005  28.794  1.00  0.00    -0.237 OA
ATOM     97  O   UNL A   1      43.370  38.387  27.732  1.00  0.00    -0.237 OA
ATOM     98  O   UNL A   1      43.427  40.112  29.491  1.00  0.00    -0.744 OA
ENDBRANCH  91  95
ENDBRANCH  65  88
ENDBRANCH  39  40
ENDBRANCH  31  34
ENDBRANCH  29  30
ENDBRANCH  28  29
ENDBRANCH  27  28
ENDBRANCH   1  27
TORSDOF 20
ENDMDL
