MODEL 1
REMARK VINA RESULT:     -12.1      0.000      0.000
REMARK SMILES CC1(C)C(NC(=O)c2cc(F)c(F)cc2C(=O)NCCCCCCNC(=O)c2ccc(-c3c4nc(c(-c5cc(S(=O)(=O)[O-])ccc5F)c5ccc([nH]5)c(-c5cc(S(=O)(=O)[O-])ccc5F)c5nc(c(-c6cc(S(=O)(=O)[O-])ccc6F)c6ccc3[nH]6)C=C5)C=C4)cc2)C1(C)C
REMARK SMILES IDX 22 1 21 2 20 3 19 4 18 5 16 6 17 7 15 9 8 10 9 11 10 12
REMARK SMILES IDX 14 13 11 14 12 15 13 16 6 17 5 18 7 20 4 21 1 22 2 23 3 24
REMARK SMILES IDX 91 25 92 26 93 27 23 28 24 29 25 30 26 31 27 33 28 34 29 35
REMARK SMILES IDX 90 36 30 37 89 38 31 39 32 40 33 41 83 42 34 43 88 44 82 45
REMARK SMILES IDX 84 46 35 47 87 48 81 49 80 50 36 52 68 53 48 54 67 55 49 56
REMARK SMILES IDX 52 57 66 58 85 59 50 60 51 61 65 63 86 64 53 65 37 66 38 67
REMARK SMILES IDX 46 68 39 69 45 70 47 71 44 72 40 73 41 74 42 75 43 76 69 77
REMARK SMILES IDX 70 78 78 79 71 80 77 81 79 82 76 83 72 84 73 85 74 86 75 87
REMARK SMILES IDX 54 88 55 89 63 90 56 91 62 92 64 93 61 94 57 95 58 96 59 97
REMARK SMILES IDX 60 98
REMARK H PARENT 18 8 5 19 25 32 84 51 52 62
REMARK Flexibility Score: inf
ROOT
ATOM      1  C   UNL A   1      31.924  29.831  26.497  1.00  0.00     0.002 C 
ENDROOT
BRANCH   1   2
ATOM      2  C   UNL A   1      31.905  29.114  25.143  1.00  0.00     0.002 C 
BRANCH   2   3
ATOM      3  C   UNL A   1      33.066  29.350  24.169  1.00  0.00     0.021 C 
BRANCH   3   4
ATOM      4  C   UNL A   1      32.826  29.022  22.701  1.00  0.00     0.116 C 
BRANCH   4   5
ATOM      5  N   UNL A   1      33.328  27.747  22.256  1.00  0.00    -0.352 N 
ATOM      6  C   UNL A   1      32.978  26.467  22.598  1.00  0.00     0.252 C 
ATOM      7  O   UNL A   1      33.567  25.561  21.999  1.00  0.00    -0.269 OA
ATOM      8  H   UNL A   1      34.048  27.805  21.588  1.00  0.00     0.163 HD
BRANCH   6   9
ATOM      9  C   UNL A   1      32.027  26.056  23.678  1.00  0.00     0.055 A 
ATOM     10  C   UNL A   1      32.296  25.731  25.019  1.00  0.00     0.055 A 
ATOM     11  C   UNL A   1      31.246  25.570  25.949  1.00  0.00     0.057 A 
ATOM     12  C   UNL A   1      29.927  25.641  25.533  1.00  0.00     0.159 A 
ATOM     13  C   UNL A   1      30.667  26.133  23.294  1.00  0.00     0.057 A 
ATOM     14  F   UNL A   1      28.942  25.432  26.416  1.00  0.00    -0.204 F 
ATOM     15  C   UNL A   1      29.638  25.910  24.207  1.00  0.00     0.159 A 
ATOM     16  F   UNL A   1      28.365  25.974  23.796  1.00  0.00    -0.204 F 
BRANCH  10  17
ATOM     17  C   UNL A   1      33.640  25.568  25.582  1.00  0.00     0.252 C 
ATOM     18  N   UNL A   1      34.234  24.315  25.515  1.00  0.00    -0.348 N 
ATOM     19  H   UNL A   1      35.172  24.266  25.810  1.00  0.00     0.164 HD
ATOM     20  O   UNL A   1      34.199  26.533  26.090  1.00  0.00    -0.269 OA
BRANCH  18  21
ATOM     21  C   UNL A   1      33.649  23.081  25.070  1.00  0.00     0.094 C 
ATOM     22  C   UNL A   1      33.951  20.652  24.238  1.00  0.00     0.014 C 
ATOM     23  C   UNL A   1      34.133  21.672  25.348  1.00  0.00    -0.007 C 
ATOM     24  C   UNL A   1      35.417  21.436  26.108  1.00  0.00     0.014 C 
ATOM     25  C   UNL A   1      32.887  22.226  26.069  1.00  0.00    -0.007 C 
ATOM     26  C   UNL A   1      31.478  21.861  25.652  1.00  0.00     0.014 C 
ATOM     27  C   UNL A   1      32.966  22.523  27.554  1.00  0.00     0.014 C 
ENDBRANCH  18  21
ENDBRANCH  10  17
ENDBRANCH   6   9
ENDBRANCH   4   5
ENDBRANCH   3   4
ENDBRANCH   2   3
ENDBRANCH   1   2
BRANCH   1  28
ATOM     28  C   UNL A   1      31.843  31.359  26.513  1.00  0.00     0.021 C 
BRANCH  28  29
ATOM     29  C   UNL A   1      32.956  32.109  27.234  1.00  0.00     0.116 C 
BRANCH  29  30
ATOM     30  N   UNL A   1      32.618  33.485  27.552  1.00  0.00    -0.352 N 
ATOM     31  C   UNL A   1      33.210  34.348  28.445  1.00  0.00     0.251 C 
ATOM     32  H   UNL A   1      31.853  33.854  27.055  1.00  0.00     0.163 HD
ATOM     33  O   UNL A   1      32.714  35.455  28.637  1.00  0.00    -0.269 OA
BRANCH  31  34
ATOM     34  C   UNL A   1      34.417  33.936  29.202  1.00  0.00     0.039 A 
ATOM     35  C   UNL A   1      34.259  33.119  30.326  1.00  0.00     0.014 A 
ATOM     36  C   UNL A   1      35.695  34.347  28.816  1.00  0.00     0.014 A 
ATOM     37  C   UNL A   1      35.383  32.650  31.015  1.00  0.00     0.010 A 
ATOM     38  C   UNL A   1      36.816  33.832  29.466  1.00  0.00     0.010 A 
ATOM     39  C   UNL A   1      36.674  32.970  30.567  1.00  0.00    -0.014 A 
BRANCH  39  40
ATOM     40  C   UNL A   1      37.891  32.418  31.222  1.00  0.00     0.031 A 
ATOM     41  C   UNL A   1      38.651  31.297  30.566  1.00  0.00     0.074 A 
ATOM     42  C   UNL A   1      38.251  32.853  32.448  1.00  0.00     0.049 A 
ATOM     43  N   UNL A   1      39.626  30.565  31.043  1.00  0.00    -0.248 NA
ATOM     44  C   UNL A   1      38.238  30.932  29.202  1.00  0.00     0.031 C 
ATOM     45  C   UNL A   1      37.581  33.918  33.198  1.00  0.00     0.029 A 
ATOM     46  N   UNL A   1      39.250  32.435  33.293  1.00  0.00    -0.354 N 
ATOM     47  C   UNL A   1      39.918  29.631  30.055  1.00  0.00     0.074 A 
ATOM     48  C   UNL A   1      38.998  29.872  28.964  1.00  0.00     0.031 C 
ATOM     49  C   UNL A   1      38.185  34.065  34.389  1.00  0.00     0.029 A 
ATOM     50  C   UNL A   1      39.249  33.074  34.514  1.00  0.00     0.049 A 
ATOM     51  H   UNL A   1      39.907  31.742  33.049  1.00  0.00     0.167 HD
ATOM     52  C   UNL A   1      40.871  28.666  30.059  1.00  0.00     0.034 A 
ATOM     53  C   UNL A   1      39.996  32.866  35.617  1.00  0.00     0.034 A 
ATOM     54  C   UNL A   1      41.808  28.465  31.137  1.00  0.00     0.049 A 
ATOM     55  C   UNL A   1      41.045  31.779  35.595  1.00  0.00     0.074 A 
ATOM     56  C   UNL A   1      42.869  27.579  31.200  1.00  0.00     0.029 A 
ATOM     57  N   UNL A   1      41.794  29.153  32.342  1.00  0.00    -0.354 N 
ATOM     58  N   UNL A   1      41.345  30.943  34.629  1.00  0.00    -0.248 NA
ATOM     59  C   UNL A   1      41.859  31.612  36.807  1.00  0.00     0.031 C 
ATOM     60  C   UNL A   1      43.454  27.682  32.466  1.00  0.00     0.029 A 
ATOM     61  C   UNL A   1      42.804  28.684  33.167  1.00  0.00     0.049 A 
ATOM     62  H   UNL A   1      41.159  29.868  32.577  1.00  0.00     0.167 HD
ATOM     63  C   UNL A   1      42.409  30.179  35.106  1.00  0.00     0.074 A 
ATOM     64  C   UNL A   1      42.701  30.658  36.440  1.00  0.00     0.031 C 
ATOM     65  C   UNL A   1      43.088  29.178  34.493  1.00  0.00     0.034 A 
BRANCH  52  66
ATOM     66  C   UNL A   1      40.929  27.728  28.879  1.00  0.00     0.023 A 
ATOM     67  C   UNL A   1      41.935  27.820  27.903  1.00  0.00     0.031 A 
ATOM     68  C   UNL A   1      39.964  26.714  28.740  1.00  0.00     0.131 A 
ATOM     69  C   UNL A   1      41.920  26.951  26.801  1.00  0.00     0.055 A 
ATOM     70  C   UNL A   1      39.997  25.807  27.680  1.00  0.00     0.041 A 
ATOM     71  F   UNL A   1      38.969  26.592  29.632  1.00  0.00    -0.206 F 
ATOM     72  C   UNL A   1      40.973  25.929  26.696  1.00  0.00     0.022 A 
BRANCH  69  73
ATOM     73  S   UNL A   1      43.093  27.242  25.450  1.00  0.00     0.124 S 
ATOM     74  O   UNL A   1      43.301  25.887  24.944  1.00  0.00    -0.237 OA
ATOM     75  O   UNL A   1      42.352  28.144  24.576  1.00  0.00    -0.237 OA
ATOM     76  O   UNL A   1      44.249  27.833  26.121  1.00  0.00    -0.744 OA
ENDBRANCH  69  73
ENDBRANCH  52  66
BRANCH  53  77
ATOM     77  C   UNL A   1      39.766  33.664  36.857  1.00  0.00     0.023 A 
ATOM     78  C   UNL A   1      39.102  33.109  37.962  1.00  0.00     0.031 A 
ATOM     79  C   UNL A   1      40.144  35.017  36.929  1.00  0.00     0.131 A 
ATOM     80  C   UNL A   1      38.778  33.917  39.063  1.00  0.00     0.055 A 
ATOM     81  C   UNL A   1      39.873  35.801  38.053  1.00  0.00     0.041 A 
ATOM     82  F   UNL A   1      40.782  35.601  35.902  1.00  0.00    -0.206 F 
ATOM     83  C   UNL A   1      39.170  35.254  39.123  1.00  0.00     0.022 A 
BRANCH  80  84
ATOM     84  S   UNL A   1      37.728  33.220  40.369  1.00  0.00     0.124 S 
ATOM     85  O   UNL A   1      36.522  32.872  39.626  1.00  0.00    -0.237 OA
ATOM     86  O   UNL A   1      38.536  32.102  40.841  1.00  0.00    -0.237 OA
ATOM     87  O   UNL A   1      37.582  34.325  41.314  1.00  0.00    -0.744 OA
ENDBRANCH  80  84
ENDBRANCH  53  77
BRANCH  65  88
ATOM     88  C   UNL A   1      44.255  28.579  35.235  1.00  0.00     0.023 A 
ATOM     89  C   UNL A   1      44.076  27.683  36.302  1.00  0.00     0.031 A 
ATOM     90  C   UNL A   1      45.569  28.904  34.855  1.00  0.00     0.131 A 
ATOM     91  C   UNL A   1      45.195  27.172  36.979  1.00  0.00     0.055 A 
ATOM     92  C   UNL A   1      46.678  28.354  35.497  1.00  0.00     0.041 A 
ATOM     93  F   UNL A   1      45.795  29.757  33.842  1.00  0.00    -0.206 F 
ATOM     94  C   UNL A   1      46.494  27.489  36.572  1.00  0.00     0.022 A 
BRANCH  91  95
ATOM     95  S   UNL A   1      44.931  26.128  38.439  1.00  0.00     0.124 S 
ATOM     96  O   UNL A   1      43.481  26.181  38.592  1.00  0.00    -0.237 OA
ATOM     97  O   UNL A   1      45.480  24.846  38.010  1.00  0.00    -0.237 OA
ATOM     98  O   UNL A   1      45.692  26.806  39.486  1.00  0.00    -0.744 OA
ENDBRANCH  91  95
ENDBRANCH  65  88
ENDBRANCH  39  40
ENDBRANCH  31  34
ENDBRANCH  29  30
ENDBRANCH  28  29
ENDBRANCH   1  28
TORSDOF 18
ENDMDL
MODEL 2
REMARK VINA RESULT:     -12.1      1.677      2.166
REMARK SMILES CC1(C)C(NC(=O)c2cc(F)c(F)cc2C(=O)NCCCCCCNC(=O)c2ccc(-c3c4nc(c(-c5cc(S(=O)(=O)[O-])ccc5F)c5ccc([nH]5)c(-c5cc(S(=O)(=O)[O-])ccc5F)c5nc(c(-c6cc(S(=O)(=O)[O-])ccc6F)c6ccc3[nH]6)C=C5)C=C4)cc2)C1(C)C
REMARK SMILES IDX 22 1 21 2 20 3 19 4 18 5 16 6 17 7 15 9 8 10 9 11 10 12
REMARK SMILES IDX 14 13 11 14 12 15 13 16 6 17 5 18 7 20 4 21 1 22 2 23 3 24
REMARK SMILES IDX 91 25 92 26 93 27 23 28 24 29 25 30 26 31 27 33 28 34 29 35
REMARK SMILES IDX 90 36 30 37 89 38 31 39 32 40 33 41 83 42 34 43 88 44 82 45
REMARK SMILES IDX 84 46 35 47 87 48 81 49 80 50 36 52 68 53 48 54 67 55 49 56
REMARK SMILES IDX 52 57 66 58 85 59 50 60 51 61 65 63 86 64 53 65 37 66 38 67
REMARK SMILES IDX 46 68 39 69 45 70 47 71 44 72 40 73 41 74 42 75 43 76 69 77
REMARK SMILES IDX 70 78 78 79 71 80 77 81 79 82 76 83 72 84 73 85 74 86 75 87
REMARK SMILES IDX 54 88 55 89 63 90 56 91 62 92 64 93 61 94 57 95 58 96 59 97
REMARK SMILES IDX 60 98
REMARK H PARENT 18 8 5 19 25 32 84 51 52 62
REMARK Flexibility Score: inf
ROOT
ATOM      1  C   UNL A   1      32.253  30.473  27.035  1.00  0.00     0.002 C 
ENDROOT
BRANCH   1   2
ATOM      2  C   UNL A   1      33.670  30.209  27.557  1.00  0.00     0.002 C 
BRANCH   2   3
ATOM      3  C   UNL A   1      34.383  28.920  27.132  1.00  0.00     0.021 C 
BRANCH   3   4
ATOM      4  C   UNL A   1      33.532  27.823  26.505  1.00  0.00     0.116 C 
BRANCH   4   5
ATOM      5  N   UNL A   1      33.923  27.408  25.183  1.00  0.00    -0.352 N 
ATOM      6  C   UNL A   1      33.185  26.974  24.114  1.00  0.00     0.252 C 
ATOM      7  O   UNL A   1      33.813  26.732  23.077  1.00  0.00    -0.269 OA
ATOM      8  H   UNL A   1      34.893  27.445  25.017  1.00  0.00     0.163 HD
BRANCH   6   9
ATOM      9  C   UNL A   1      31.717  26.678  24.099  1.00  0.00     0.055 A 
ATOM     10  C   UNL A   1      30.993  25.749  24.867  1.00  0.00     0.055 A 
ATOM     11  C   UNL A   1      29.581  25.755  24.868  1.00  0.00     0.057 A 
ATOM     12  C   UNL A   1      28.886  26.621  24.040  1.00  0.00     0.159 A 
ATOM     13  C   UNL A   1      30.971  27.555  23.277  1.00  0.00     0.057 A 
ATOM     14  F   UNL A   1      27.548  26.578  24.012  1.00  0.00    -0.204 F 
ATOM     15  C   UNL A   1      29.579  27.511  23.239  1.00  0.00     0.159 A 
ATOM     16  F   UNL A   1      28.913  28.346  22.431  1.00  0.00    -0.204 F 
BRANCH  10  17
ATOM     17  C   UNL A   1      31.600  24.739  25.741  1.00  0.00     0.252 C 
ATOM     18  N   UNL A   1      32.244  23.661  25.152  1.00  0.00    -0.348 N 
ATOM     19  H   UNL A   1      32.726  23.059  25.766  1.00  0.00     0.164 HD
ATOM     20  O   UNL A   1      31.523  24.875  26.956  1.00  0.00    -0.269 OA
BRANCH  18  21
ATOM     21  C   UNL A   1      32.296  23.313  23.759  1.00  0.00     0.094 C 
ATOM     22  C   UNL A   1      33.373  23.626  21.430  1.00  0.00     0.014 C 
ATOM     23  C   UNL A   1      33.524  23.194  22.878  1.00  0.00    -0.007 C 
ATOM     24  C   UNL A   1      34.892  23.538  23.416  1.00  0.00     0.014 C 
ATOM     25  C   UNL A   1      32.786  21.930  23.365  1.00  0.00    -0.007 C 
ATOM     26  C   UNL A   1      31.841  21.149  22.477  1.00  0.00     0.014 C 
ATOM     27  C   UNL A   1      33.458  21.032  24.385  1.00  0.00     0.014 C 
ENDBRANCH  18  21
ENDBRANCH  10  17
ENDBRANCH   6   9
ENDBRANCH   4   5
ENDBRANCH   3   4
ENDBRANCH   2   3
ENDBRANCH   1   2
BRANCH   1  28
ATOM     28  C   UNL A   1      31.786  31.923  26.898  1.00  0.00     0.021 C 
BRANCH  28  29
ATOM     29  C   UNL A   1      32.861  33.003  26.876  1.00  0.00     0.116 C 
BRANCH  29  30
ATOM     30  N   UNL A   1      32.535  34.164  27.684  1.00  0.00    -0.352 N 
ATOM     31  C   UNL A   1      33.138  34.632  28.828  1.00  0.00     0.251 C 
ATOM     32  H   UNL A   1      31.769  34.695  27.365  1.00  0.00     0.163 HD
ATOM     33  O   UNL A   1      32.651  35.591  29.421  1.00  0.00    -0.269 OA
BRANCH  31  34
ATOM     34  C   UNL A   1      34.346  33.964  29.369  1.00  0.00     0.039 A 
ATOM     35  C   UNL A   1      35.605  34.427  28.973  1.00  0.00     0.014 A 
ATOM     36  C   UNL A   1      34.250  32.890  30.258  1.00  0.00     0.014 A 
ATOM     37  C   UNL A   1      36.763  33.869  29.525  1.00  0.00     0.010 A 
ATOM     38  C   UNL A   1      35.401  32.375  30.853  1.00  0.00     0.010 A 
ATOM     39  C   UNL A   1      36.670  32.864  30.500  1.00  0.00    -0.014 A 
BRANCH  39  40
ATOM     40  C   UNL A   1      37.877  32.309  31.173  1.00  0.00     0.031 A 
ATOM     41  C   UNL A   1      38.641  31.183  30.531  1.00  0.00     0.074 A 
ATOM     42  C   UNL A   1      38.221  32.746  32.402  1.00  0.00     0.049 A 
ATOM     43  N   UNL A   1      39.605  30.449  31.024  1.00  0.00    -0.248 NA
ATOM     44  C   UNL A   1      38.245  30.815  29.163  1.00  0.00     0.031 C 
ATOM     45  C   UNL A   1      37.546  33.817  33.140  1.00  0.00     0.029 A 
ATOM     46  N   UNL A   1      39.207  32.326  33.263  1.00  0.00    -0.354 N 
ATOM     47  C   UNL A   1      39.907  29.510  30.043  1.00  0.00     0.074 A 
ATOM     48  C   UNL A   1      39.003  29.752  28.938  1.00  0.00     0.031 C 
ATOM     49  C   UNL A   1      38.134  33.965  34.339  1.00  0.00     0.029 A 
ATOM     50  C   UNL A   1      39.192  32.970  34.481  1.00  0.00     0.049 A 
ATOM     51  H   UNL A   1      39.864  31.630  33.030  1.00  0.00     0.167 HD
ATOM     52  C   UNL A   1      40.856  28.541  30.063  1.00  0.00     0.034 A 
ATOM     53  C   UNL A   1      39.922  32.761  35.595  1.00  0.00     0.034 A 
ATOM     54  C   UNL A   1      41.777  28.340  31.154  1.00  0.00     0.049 A 
ATOM     55  C   UNL A   1      40.967  31.670  35.591  1.00  0.00     0.074 A 
ATOM     56  C   UNL A   1      42.834  27.449  31.234  1.00  0.00     0.029 A 
ATOM     57  N   UNL A   1      41.750  29.032  32.357  1.00  0.00    -0.354 N 
ATOM     58  N   UNL A   1      41.277  30.830  34.631  1.00  0.00    -0.248 NA
ATOM     59  C   UNL A   1      41.764  31.504  36.815  1.00  0.00     0.031 C 
ATOM     60  C   UNL A   1      43.401  27.554  32.507  1.00  0.00     0.029 A 
ATOM     61  C   UNL A   1      42.746  28.561  33.197  1.00  0.00     0.049 A 
ATOM     62  H   UNL A   1      41.115  29.750  32.581  1.00  0.00     0.167 HD
ATOM     63  C   UNL A   1      42.331  30.063  35.125  1.00  0.00     0.074 A 
ATOM     64  C   UNL A   1      42.607  30.545  36.462  1.00  0.00     0.031 C 
ATOM     65  C   UNL A   1      43.014  29.057  34.525  1.00  0.00     0.034 A 
BRANCH  52  66
ATOM     66  C   UNL A   1      40.927  27.600  28.886  1.00  0.00     0.023 A 
ATOM     67  C   UNL A   1      41.919  27.714  27.898  1.00  0.00     0.031 A 
ATOM     68  C   UNL A   1      39.988  26.559  28.763  1.00  0.00     0.131 A 
ATOM     69  C   UNL A   1      41.916  26.839  26.801  1.00  0.00     0.055 A 
ATOM     70  C   UNL A   1      40.034  25.648  27.707  1.00  0.00     0.041 A 
ATOM     71  F   UNL A   1      39.007  26.414  29.667  1.00  0.00    -0.206 F 
ATOM     72  C   UNL A   1      40.995  25.791  26.711  1.00  0.00     0.022 A 
BRANCH  69  73
ATOM     73  S   UNL A   1      43.065  27.156  25.435  1.00  0.00     0.124 S 
ATOM     74  O   UNL A   1      44.204  27.741  26.139  1.00  0.00    -0.237 OA
ATOM     75  O   UNL A   1      43.273  25.822  24.881  1.00  0.00    -0.237 OA
ATOM     76  O   UNL A   1      42.330  28.081  24.575  1.00  0.00    -0.744 OA
ENDBRANCH  69  73
ENDBRANCH  52  66
BRANCH  53  77
ATOM     77  C   UNL A   1      39.678  33.564  36.830  1.00  0.00     0.023 A 
ATOM     78  C   UNL A   1      40.457  34.695  37.122  1.00  0.00     0.031 A 
ATOM     79  C   UNL A   1      38.711  33.170  37.772  1.00  0.00     0.131 A 
ATOM     80  C   UNL A   1      40.300  35.354  38.352  1.00  0.00     0.055 A 
ATOM     81  C   UNL A   1      38.516  33.867  38.966  1.00  0.00     0.041 A 
ATOM     82  F   UNL A   1      37.937  32.096  37.544  1.00  0.00    -0.206 F 
ATOM     83  C   UNL A   1      39.327  34.957  39.269  1.00  0.00     0.022 A 
BRANCH  80  84
ATOM     84  S   UNL A   1      41.472  36.670  38.785  1.00  0.00     0.124 S 
ATOM     85  O   UNL A   1      42.180  36.862  37.524  1.00  0.00    -0.237 OA
ATOM     86  O   UNL A   1      40.578  37.749  39.190  1.00  0.00    -0.237 OA
ATOM     87  O   UNL A   1      42.263  36.079  39.861  1.00  0.00    -0.744 OA
ENDBRANCH  80  84
ENDBRANCH  53  77
BRANCH  65  88
ATOM     88  C   UNL A   1      44.168  28.456  35.285  1.00  0.00     0.023 A 
ATOM     89  C   UNL A   1      44.041  27.253  35.999  1.00  0.00     0.031 A 
ATOM     90  C   UNL A   1      45.421  29.095  35.280  1.00  0.00     0.131 A 
ATOM     91  C   UNL A   1      45.138  26.746  36.713  1.00  0.00     0.055 A 
ATOM     92  C   UNL A   1      46.522  28.561  35.948  1.00  0.00     0.041 A 
ATOM     93  F   UNL A   1      45.595  30.248  34.613  1.00  0.00    -0.206 F 
ATOM     94  C   UNL A   1      46.382  27.383  36.677  1.00  0.00     0.022 A 
BRANCH  91  95
ATOM     95  S   UNL A   1      44.907  25.268  37.738  1.00  0.00     0.124 S 
ATOM     96  O   UNL A   1      45.131  25.792  39.081  1.00  0.00    -0.237 OA
ATOM     97  O   UNL A   1      43.534  24.883  37.426  1.00  0.00    -0.237 OA
ATOM     98  O   UNL A   1      45.931  24.348  37.251  1.00  0.00    -0.744 OA
ENDBRANCH  91  95
ENDBRANCH  65  88
ENDBRANCH  39  40
ENDBRANCH  31  34
ENDBRANCH  29  30
ENDBRANCH  28  29
ENDBRANCH   1  28
TORSDOF 18
ENDMDL
MODEL 3
REMARK VINA RESULT:     -12.0      5.507     11.342
REMARK SMILES CC1(C)C(NC(=O)c2cc(F)c(F)cc2C(=O)NCCCCCCNC(=O)c2ccc(-c3c4nc(c(-c5cc(S(=O)(=O)[O-])ccc5F)c5ccc([nH]5)c(-c5cc(S(=O)(=O)[O-])ccc5F)c5nc(c(-c6cc(S(=O)(=O)[O-])ccc6F)c6ccc3[nH]6)C=C5)C=C4)cc2)C1(C)C
REMARK SMILES IDX 22 1 21 2 20 3 19 4 18 5 16 6 17 7 15 9 8 10 9 11 10 12
REMARK SMILES IDX 14 13 11 14 12 15 13 16 6 17 5 18 7 20 4 21 1 22 2 23 3 24
REMARK SMILES IDX 91 25 92 26 93 27 23 28 24 29 25 30 26 31 27 33 28 34 29 35
REMARK SMILES IDX 90 36 30 37 89 38 31 39 32 40 33 41 83 42 34 43 88 44 82 45
REMARK SMILES IDX 84 46 35 47 87 48 81 49 80 50 36 52 68 53 48 54 67 55 49 56
REMARK SMILES IDX 52 57 66 58 85 59 50 60 51 61 65 63 86 64 53 65 37 66 38 67
REMARK SMILES IDX 46 68 39 69 45 70 47 71 44 72 40 73 41 74 42 75 43 76 69 77
REMARK SMILES IDX 70 78 78 79 71 80 77 81 79 82 76 83 72 84 73 85 74 86 75 87
REMARK SMILES IDX 54 88 55 89 63 90 56 91 62 92 64 93 61 94 57 95 58 96 59 97
REMARK SMILES IDX 60 98
REMARK H PARENT 18 8 5 19 25 32 84 51 52 62
REMARK Flexibility Score: inf
ROOT
ATOM      1  C   UNL A   1      37.209  20.265  24.892  1.00  0.00     0.002 C 
ENDROOT
BRANCH   1   2
ATOM      2  C   UNL A   1      37.478  21.768  25.028  1.00  0.00     0.002 C 
BRANCH   2   3
ATOM      3  C   UNL A   1      36.695  22.740  24.137  1.00  0.00     0.021 C 
BRANCH   3   4
ATOM      4  C   UNL A   1      36.284  24.074  24.747  1.00  0.00     0.116 C 
BRANCH   4   5
ATOM      5  N   UNL A   1      35.258  24.009  25.755  1.00  0.00    -0.352 N 
ATOM      6  C   UNL A   1      34.003  23.461  25.736  1.00  0.00     0.252 C 
ATOM      7  O   UNL A   1      33.363  23.522  26.791  1.00  0.00    -0.269 OA
ATOM      8  H   UNL A   1      35.502  24.432  26.610  1.00  0.00     0.163 HD
BRANCH   6   9
ATOM      9  C   UNL A   1      33.297  22.879  24.551  1.00  0.00     0.055 A 
ATOM     10  C   UNL A   1      33.027  23.468  23.304  1.00  0.00     0.055 A 
ATOM     11  C   UNL A   1      32.535  22.695  22.229  1.00  0.00     0.057 A 
ATOM     12  C   UNL A   1      32.225  21.358  22.415  1.00  0.00     0.159 A 
ATOM     13  C   UNL A   1      32.980  21.508  24.698  1.00  0.00     0.057 A 
ATOM     14  F   UNL A   1      31.708  20.651  21.401  1.00  0.00    -0.204 F 
ATOM     15  C   UNL A   1      32.436  20.769  23.649  1.00  0.00     0.159 A 
ATOM     16  F   UNL A   1      32.133  19.478  23.838  1.00  0.00    -0.204 F 
BRANCH  10  17
ATOM     17  C   UNL A   1      33.251  24.882  22.985  1.00  0.00     0.252 C 
ATOM     18  N   UNL A   1      32.348  25.817  23.470  1.00  0.00    -0.348 N 
ATOM     19  H   UNL A   1      32.585  26.762  23.323  1.00  0.00     0.164 HD
ATOM     20  O   UNL A   1      34.222  25.196  22.307  1.00  0.00    -0.269 OA
BRANCH  18  21
ATOM     21  C   UNL A   1      31.110  25.578  24.158  1.00  0.00     0.094 C 
ATOM     22  C   UNL A   1      29.860  25.011  26.349  1.00  0.00     0.014 C 
ATOM     23  C   UNL A   1      30.746  25.971  25.576  1.00  0.00    -0.007 C 
ATOM     24  C   UNL A   1      31.766  26.626  26.478  1.00  0.00     0.014 C 
ATOM     25  C   UNL A   1      30.155  26.739  24.376  1.00  0.00    -0.007 C 
ATOM     26  C   UNL A   1      28.744  26.506  23.879  1.00  0.00     0.014 C 
ATOM     27  C   UNL A   1      30.604  28.164  24.120  1.00  0.00     0.014 C 
ENDBRANCH  18  21
ENDBRANCH  10  17
ENDBRANCH   6   9
ENDBRANCH   4   5
ENDBRANCH   3   4
ENDBRANCH   2   3
ENDBRANCH   1   2
BRANCH   1  28
ATOM     28  C   UNL A   1      38.328  19.289  25.259  1.00  0.00     0.021 C 
BRANCH  28  29
ATOM     29  C   UNL A   1      39.522  19.851  26.021  1.00  0.00     0.116 C 
BRANCH  29  30
ATOM     30  N   UNL A   1      40.742  19.087  25.835  1.00  0.00    -0.352 N 
ATOM     31  C   UNL A   1      42.052  19.497  25.915  1.00  0.00     0.251 C 
ATOM     32  H   UNL A   1      40.612  18.135  25.621  1.00  0.00     0.163 HD
ATOM     33  O   UNL A   1      42.952  18.710  25.632  1.00  0.00    -0.269 OA
BRANCH  31  34
ATOM     34  C   UNL A   1      42.382  20.890  26.302  1.00  0.00     0.039 A 
ATOM     35  C   UNL A   1      42.602  21.178  27.653  1.00  0.00     0.014 A 
ATOM     36  C   UNL A   1      42.477  21.908  25.350  1.00  0.00     0.014 A 
ATOM     37  C   UNL A   1      42.992  22.464  28.040  1.00  0.00     0.010 A 
ATOM     38  C   UNL A   1      42.923  23.174  25.730  1.00  0.00     0.010 A 
ATOM     39  C   UNL A   1      43.194  23.465  27.077  1.00  0.00    -0.014 A 
BRANCH  39  40
ATOM     40  C   UNL A   1      43.693  24.819  27.444  1.00  0.00     0.031 A 
ATOM     41  C   UNL A   1      42.735  25.851  27.974  1.00  0.00     0.074 A 
ATOM     42  C   UNL A   1      44.979  25.149  27.203  1.00  0.00     0.049 A 
ATOM     43  N   UNL A   1      42.927  27.128  28.189  1.00  0.00    -0.248 NA
ATOM     44  C   UNL A   1      41.371  25.390  28.275  1.00  0.00     0.031 C 
ATOM     45  C   UNL A   1      45.999  24.243  26.669  1.00  0.00     0.029 A 
ATOM     46  N   UNL A   1      45.643  26.343  27.348  1.00  0.00    -0.354 N 
ATOM     47  C   UNL A   1      41.702  27.630  28.614  1.00  0.00     0.074 A 
ATOM     48  C   UNL A   1      40.767  26.525  28.600  1.00  0.00     0.031 C 
ATOM     49  C   UNL A   1      47.154  24.915  26.529  1.00  0.00     0.029 A 
ATOM     50  C   UNL A   1      46.949  26.309  26.910  1.00  0.00     0.049 A 
ATOM     51  H   UNL A   1      45.224  27.149  27.730  1.00  0.00     0.167 HD
ATOM     52  C   UNL A   1      41.390  28.896  28.987  1.00  0.00     0.034 A 
ATOM     53  C   UNL A   1      47.865  27.292  26.799  1.00  0.00     0.034 A 
ATOM     54  C   UNL A   1      42.343  29.977  29.036  1.00  0.00     0.049 A 
ATOM     55  C   UNL A   1      47.488  28.694  27.215  1.00  0.00     0.074 A 
ATOM     56  C   UNL A   1      42.152  31.272  29.487  1.00  0.00     0.029 A 
ATOM     57  N   UNL A   1      43.663  29.895  28.615  1.00  0.00    -0.354 N 
ATOM     58  N   UNL A   1      46.339  29.138  27.669  1.00  0.00    -0.248 NA
ATOM     59  C   UNL A   1      48.530  29.725  27.110  1.00  0.00     0.031 C 
ATOM     60  C   UNL A   1      43.333  31.990  29.275  1.00  0.00     0.029 A 
ATOM     61  C   UNL A   1      44.284  31.125  28.761  1.00  0.00     0.049 A 
ATOM     62  H   UNL A   1      44.094  29.083  28.262  1.00  0.00     0.167 HD
ATOM     63  C   UNL A   1      46.536  30.491  27.940  1.00  0.00     0.074 A 
ATOM     64  C   UNL A   1      47.913  30.787  27.605  1.00  0.00     0.031 C 
ATOM     65  C   UNL A   1      45.661  31.403  28.429  1.00  0.00     0.034 A 
BRANCH  52  66
ATOM     66  C   UNL A   1      39.954  29.194  29.339  1.00  0.00     0.023 A 
ATOM     67  C   UNL A   1      39.522  29.316  30.670  1.00  0.00     0.031 A 
ATOM     68  C   UNL A   1      39.004  29.372  28.317  1.00  0.00     0.131 A 
ATOM     69  C   UNL A   1      38.167  29.552  30.946  1.00  0.00     0.055 A 
ATOM     70  C   UNL A   1      37.671  29.678  28.597  1.00  0.00     0.041 A 
ATOM     71  F   UNL A   1      39.356  29.248  27.028  1.00  0.00    -0.206 F 
ATOM     72  C   UNL A   1      37.242  29.759  29.918  1.00  0.00     0.022 A 
BRANCH  69  73
ATOM     73  S   UNL A   1      37.605  29.477  32.667  1.00  0.00     0.124 S 
ATOM     74  O   UNL A   1      37.618  28.038  32.919  1.00  0.00    -0.237 OA
ATOM     75  O   UNL A   1      38.621  30.257  33.366  1.00  0.00    -0.237 OA
ATOM     76  O   UNL A   1      36.276  30.084  32.622  1.00  0.00    -0.744 OA
ENDBRANCH  69  73
ENDBRANCH  52  66
BRANCH  53  77
ATOM     77  C   UNL A   1      49.219  27.013  26.234  1.00  0.00     0.023 A 
ATOM     78  C   UNL A   1      49.553  27.406  24.929  1.00  0.00     0.031 A 
ATOM     79  C   UNL A   1      50.175  26.286  26.967  1.00  0.00     0.131 A 
ATOM     80  C   UNL A   1      50.782  27.017  24.372  1.00  0.00     0.055 A 
ATOM     81  C   UNL A   1      51.420  25.953  26.430  1.00  0.00     0.041 A 
ATOM     82  F   UNL A   1      49.909  25.884  28.220  1.00  0.00    -0.206 F 
ATOM     83  C   UNL A   1      51.722  26.305  25.118  1.00  0.00     0.022 A 
BRANCH  80  84
ATOM     84  S   UNL A   1      51.081  27.352  22.615  1.00  0.00     0.124 S 
ATOM     85  O   UNL A   1      51.077  28.811  22.587  1.00  0.00    -0.237 OA
ATOM     86  O   UNL A   1      52.374  26.710  22.402  1.00  0.00    -0.237 OA
ATOM     87  O   UNL A   1      49.950  26.711  21.949  1.00  0.00    -0.744 OA
ENDBRANCH  80  84
ENDBRANCH  53  77
BRANCH  65  88
ATOM     88  C   UNL A   1      46.185  32.791  28.693  1.00  0.00     0.023 A 
ATOM     89  C   UNL A   1      46.040  33.830  27.757  1.00  0.00     0.031 A 
ATOM     90  C   UNL A   1      46.828  33.079  29.910  1.00  0.00     0.131 A 
ATOM     91  C   UNL A   1      46.568  35.100  28.038  1.00  0.00     0.055 A 
ATOM     92  C   UNL A   1      47.305  34.356  30.205  1.00  0.00     0.041 A 
ATOM     93  F   UNL A   1      46.992  32.122  30.837  1.00  0.00    -0.206 F 
ATOM     94  C   UNL A   1      47.184  35.373  29.262  1.00  0.00     0.022 A 
BRANCH  91  95
ATOM     95  S   UNL A   1      46.490  36.381  26.757  1.00  0.00     0.124 S 
ATOM     96  O   UNL A   1      46.594  35.593  25.533  1.00  0.00    -0.237 OA
ATOM     97  O   UNL A   1      45.192  36.998  27.010  1.00  0.00    -0.237 OA
ATOM     98  O   UNL A   1      47.644  37.229  27.049  1.00  0.00    -0.744 OA
ENDBRANCH  91  95
ENDBRANCH  65  88
ENDBRANCH  39  40
ENDBRANCH  31  34
ENDBRANCH  29  30
ENDBRANCH  28  29
ENDBRANCH   1  28
TORSDOF 18
ENDMDL
