MODEL 1
REMARK VINA RESULT:     -12.1      0.000      0.000
REMARK SMILES Cc1cc(C(=O)NCCCCCCNC(=O)c2ccc(-c3c4nc(c(-c5cc(S(=O)(=O)[O-])ccc5F)c5ccc([nH]5)c(-c5cc(S(=O)(=O)[O-])ccc5F)c5nc(c(-c6cc(S(=O)(=O)[O-])ccc6F)c6ccc3[nH]6)C=C5)C=C4)cc2)ccc1NS(=O)(=O)c1ccc(C#N)cc1C
REMARK SMILES IDX 10 1 9 2 8 3 7 4 5 5 6 6 4 8 1 9 2 10 3 11 82 12 81 13 80 14
REMARK SMILES IDX 83 15 84 17 85 18 86 19 87 20 88 21 94 22 89 23 93 24 95 25
REMARK SMILES IDX 90 26 91 27 92 28 11 29 12 30 13 31 14 32 15 33 16 35 17 36
REMARK SMILES IDX 18 37 79 38 19 39 78 40 20 41 21 42 22 43 72 44 23 45 77 46
REMARK SMILES IDX 71 47 73 48 24 49 76 50 70 51 69 52 25 54 57 55 37 56 56 57
REMARK SMILES IDX 38 58 41 59 55 60 74 61 39 62 40 63 54 65 75 66 42 67 26 68
REMARK SMILES IDX 27 69 35 70 28 71 34 72 36 73 33 74 29 75 30 76 31 77 32 78
REMARK SMILES IDX 58 79 59 80 67 81 60 82 66 83 68 84 65 85 61 86 62 87 63 88
REMARK SMILES IDX 64 89 43 90 44 91 52 92 45 93 51 94 53 95 50 96 46 97 47 98
REMARK SMILES IDX 48 99 49 100
REMARK H PARENT 7 7 83 16 14 34 73 53 41 64
REMARK Flexibility Score: inf
ROOT
ATOM      1  C   UNL A   1      34.271  28.945  27.443  1.00  0.00     0.002 C 
ENDROOT
BRANCH   1   2
ATOM      2  C   UNL A   1      33.777  28.201  26.196  1.00  0.00     0.021 C 
BRANCH   2   3
ATOM      3  C   UNL A   1      33.168  29.113  25.132  1.00  0.00     0.116 C 
BRANCH   3   4
ATOM      4  N   UNL A   1      33.832  28.957  23.850  1.00  0.00    -0.352 N 
ATOM      5  C   UNL A   1      33.665  28.027  22.853  1.00  0.00     0.251 C 
ATOM      6  O   UNL A   1      34.224  28.201  21.771  1.00  0.00    -0.269 OA
ATOM      7  H   UNL A   1      34.521  29.634  23.664  1.00  0.00     0.163 HD
BRANCH   5   8
ATOM      8  C   UNL A   1      32.747  26.867  23.013  1.00  0.00     0.040 A 
ATOM      9  C   UNL A   1      29.095  26.401  23.876  1.00  0.00     0.046 C 
ATOM     10  C   UNL A   1      30.559  26.081  23.737  1.00  0.00    -0.026 A 
ATOM     11  C   UNL A   1      31.418  27.126  23.359  1.00  0.00     0.019 A 
ATOM     12  C   UNL A   1      31.082  24.782  23.864  1.00  0.00     0.052 A 
ATOM     13  C   UNL A   1      32.296  24.500  23.243  1.00  0.00     0.028 A 
ATOM     14  C   UNL A   1      33.126  25.542  22.816  1.00  0.00     0.016 A 
BRANCH  12  15
ATOM     15  N   UNL A   1      30.603  23.989  24.955  1.00  0.00    -0.279 N 
ATOM     16  H   UNL A   1      29.775  23.486  24.786  1.00  0.00     0.180 HD
BRANCH  15  17
ATOM     17  S   UNL A   1      31.265  23.803  26.481  1.00  0.00     0.262 S 
ATOM     18  O   UNL A   1      31.611  25.152  26.889  1.00  0.00    -0.201 OA
ATOM     19  O   UNL A   1      30.340  23.005  27.255  1.00  0.00    -0.201 OA
BRANCH  17  20
ATOM     20  C   UNL A   1      32.822  22.901  26.417  1.00  0.00     0.090 A 
ATOM     21  C   UNL A   1      33.964  23.374  27.073  1.00  0.00     0.024 A 
ATOM     22  C   UNL A   1      32.936  21.796  25.543  1.00  0.00    -0.029 A 
ATOM     23  C   UNL A   1      35.233  22.891  26.718  1.00  0.00     0.021 A 
ATOM     24  C   UNL A   1      34.220  21.314  25.211  1.00  0.00     0.024 A 
ATOM     25  C   UNL A   1      31.762  21.025  24.999  1.00  0.00     0.046 C 
ATOM     26  C   UNL A   1      35.367  21.892  25.754  1.00  0.00     0.052 A 
BRANCH  26  27
ATOM     27  C   UNL A   1      36.674  21.457  25.331  1.00  0.00     0.099 C 
ATOM     28  N   UNL A   1      37.723  21.115  24.997  1.00  0.00    -0.192 NA
ENDBRANCH  26  27
ENDBRANCH  17  20
ENDBRANCH  15  17
ENDBRANCH  12  15
ENDBRANCH   5   8
ENDBRANCH   3   4
ENDBRANCH   2   3
ENDBRANCH   1   2
BRANCH   1  29
ATOM     29  C   UNL A   1      35.487  29.859  27.232  1.00  0.00     0.002 C 
BRANCH  29  30
ATOM     30  C   UNL A   1      35.291  31.312  27.646  1.00  0.00     0.021 C 
BRANCH  30  31
ATOM     31  C   UNL A   1      35.029  31.495  29.130  1.00  0.00     0.116 C 
BRANCH  31  32
ATOM     32  N   UNL A   1      34.321  32.720  29.471  1.00  0.00    -0.352 N 
ATOM     33  C   UNL A   1      34.566  33.616  30.498  1.00  0.00     0.251 C 
ATOM     34  H   UNL A   1      33.557  32.942  28.889  1.00  0.00     0.163 HD
ATOM     35  O   UNL A   1      33.719  34.440  30.838  1.00  0.00    -0.269 OA
BRANCH  33  36
ATOM     36  C   UNL A   1      35.951  33.758  31.029  1.00  0.00     0.039 A 
ATOM     37  C   UNL A   1      36.918  34.160  30.090  1.00  0.00     0.014 A 
ATOM     38  C   UNL A   1      36.342  33.077  32.170  1.00  0.00     0.014 A 
ATOM     39  C   UNL A   1      38.168  33.565  30.116  1.00  0.00     0.010 A 
ATOM     40  C   UNL A   1      37.482  32.334  32.095  1.00  0.00     0.010 A 
ATOM     41  C   UNL A   1      38.355  32.541  31.030  1.00  0.00    -0.014 A 
BRANCH  41  42
ATOM     42  C   UNL A   1      39.540  31.730  31.134  1.00  0.00     0.031 A 
ATOM     43  C   UNL A   1      39.431  30.425  30.472  1.00  0.00     0.074 A 
ATOM     44  C   UNL A   1      40.660  32.339  31.579  1.00  0.00     0.049 A 
ATOM     45  N   UNL A   1      40.223  29.445  30.664  1.00  0.00    -0.248 NA
ATOM     46  C   UNL A   1      38.339  30.094  29.546  1.00  0.00     0.031 C 
ATOM     47  C   UNL A   1      42.055  31.934  31.483  1.00  0.00     0.029 A 
ATOM     48  N   UNL A   1      40.690  33.417  32.468  1.00  0.00    -0.354 N 
ATOM     49  C   UNL A   1      39.987  28.531  29.659  1.00  0.00     0.074 A 
ATOM     50  C   UNL A   1      38.721  28.900  29.090  1.00  0.00     0.031 C 
ATOM     51  C   UNL A   1      42.738  32.501  32.499  1.00  0.00     0.029 A 
ATOM     52  C   UNL A   1      41.766  33.172  33.348  1.00  0.00     0.049 A 
ATOM     53  H   UNL A   1      40.082  34.192  32.477  1.00  0.00     0.167 HD
ATOM     54  C   UNL A   1      40.999  27.685  29.338  1.00  0.00     0.034 A 
ATOM     55  C   UNL A   1      41.468  32.834  34.643  1.00  0.00     0.034 A 
ATOM     56  C   UNL A   1      42.120  27.914  30.254  1.00  0.00     0.049 A 
ATOM     57  C   UNL A   1      41.758  31.363  34.921  1.00  0.00     0.074 A 
ATOM     58  C   UNL A   1      43.259  28.696  30.202  1.00  0.00     0.029 A 
ATOM     59  N   UNL A   1      41.915  27.623  31.584  1.00  0.00    -0.354 N 
ATOM     60  N   UNL A   1      42.009  30.474  33.994  1.00  0.00    -0.248 NA
ATOM     61  C   UNL A   1      41.770  30.778  36.258  1.00  0.00     0.031 C 
ATOM     62  C   UNL A   1      43.673  28.941  31.552  1.00  0.00     0.029 A 
ATOM     63  C   UNL A   1      42.801  28.283  32.403  1.00  0.00     0.049 A 
ATOM     64  H   UNL A   1      41.216  27.012  31.911  1.00  0.00     0.167 HD
ATOM     65  C   UNL A   1      42.246  29.253  34.560  1.00  0.00     0.074 A 
ATOM     66  C   UNL A   1      42.018  29.485  35.982  1.00  0.00     0.031 C 
ATOM     67  C   UNL A   1      42.619  28.147  33.839  1.00  0.00     0.034 A 
BRANCH  54  68
ATOM     68  C   UNL A   1      41.120  26.813  28.121  1.00  0.00     0.023 A 
ATOM     69  C   UNL A   1      41.318  25.438  28.351  1.00  0.00     0.031 A 
ATOM     70  C   UNL A   1      41.082  27.199  26.768  1.00  0.00     0.131 A 
ATOM     71  C   UNL A   1      41.505  24.528  27.304  1.00  0.00     0.055 A 
ATOM     72  C   UNL A   1      41.277  26.290  25.715  1.00  0.00     0.041 A 
ATOM     73  F   UNL A   1      40.828  28.453  26.383  1.00  0.00    -0.206 F 
ATOM     74  C   UNL A   1      41.493  24.945  25.979  1.00  0.00     0.022 A 
BRANCH  71  75
ATOM     75  S   UNL A   1      41.769  22.790  27.728  1.00  0.00     0.124 S 
ATOM     76  O   UNL A   1      42.417  22.889  29.032  1.00  0.00    -0.237 OA
ATOM     77  O   UNL A   1      40.409  22.262  27.721  1.00  0.00    -0.237 OA
ATOM     78  O   UNL A   1      42.627  22.306  26.648  1.00  0.00    -0.744 OA
ENDBRANCH  71  75
ENDBRANCH  54  68
BRANCH  55  79
ATOM     79  C   UNL A   1      40.282  33.632  35.134  1.00  0.00     0.023 A 
ATOM     80  C   UNL A   1      39.221  32.877  35.700  1.00  0.00     0.031 A 
ATOM     81  C   UNL A   1      40.433  34.957  35.562  1.00  0.00     0.131 A 
ATOM     82  C   UNL A   1      38.579  33.339  36.863  1.00  0.00     0.055 A 
ATOM     83  C   UNL A   1      39.692  35.455  36.644  1.00  0.00     0.041 A 
ATOM     84  F   UNL A   1      41.405  35.734  35.062  1.00  0.00    -0.206 F 
ATOM     85  C   UNL A   1      38.823  34.621  37.349  1.00  0.00     0.022 A 
BRANCH  82  86
ATOM     86  S   UNL A   1      37.722  32.118  37.908  1.00  0.00     0.124 S 
ATOM     87  O   UNL A   1      36.402  32.717  38.067  1.00  0.00    -0.237 OA
ATOM     88  O   UNL A   1      37.780  30.910  37.086  1.00  0.00    -0.237 OA
ATOM     89  O   UNL A   1      38.533  32.054  39.124  1.00  0.00    -0.744 OA
ENDBRANCH  82  86
ENDBRANCH  55  79
BRANCH  67  90
ATOM     90  C   UNL A   1      42.822  26.794  34.470  1.00  0.00     0.023 A 
ATOM     91  C   UNL A   1      44.106  26.271  34.617  1.00  0.00     0.031 A 
ATOM     92  C   UNL A   1      41.760  25.975  34.926  1.00  0.00     0.131 A 
ATOM     93  C   UNL A   1      44.314  25.102  35.356  1.00  0.00     0.055 A 
ATOM     94  C   UNL A   1      41.964  24.737  35.532  1.00  0.00     0.041 A 
ATOM     95  F   UNL A   1      40.476  26.355  34.872  1.00  0.00    -0.206 F 
ATOM     96  C   UNL A   1      43.253  24.311  35.792  1.00  0.00     0.022 A 
BRANCH  93  97
ATOM     97  S   UNL A   1      46.002  24.747  35.883  1.00  0.00     0.124 S 
ATOM     98  O   UNL A   1      45.816  24.261  37.245  1.00  0.00    -0.237 OA
ATOM     99  O   UNL A   1      46.405  23.739  34.902  1.00  0.00    -0.237 OA
ATOM    100  O   UNL A   1      46.678  26.036  35.762  1.00  0.00    -0.744 OA
ENDBRANCH  93  97
ENDBRANCH  67  90
ENDBRANCH  41  42
ENDBRANCH  33  36
ENDBRANCH  31  32
ENDBRANCH  30  31
ENDBRANCH  29  30
ENDBRANCH   1  29
TORSDOF 20
ENDMDL
MODEL 2
REMARK VINA RESULT:     -11.3      1.880      2.439
REMARK SMILES Cc1cc(C(=O)NCCCCCCNC(=O)c2ccc(-c3c4nc(c(-c5cc(S(=O)(=O)[O-])ccc5F)c5ccc([nH]5)c(-c5cc(S(=O)(=O)[O-])ccc5F)c5nc(c(-c6cc(S(=O)(=O)[O-])ccc6F)c6ccc3[nH]6)C=C5)C=C4)cc2)ccc1NS(=O)(=O)c1ccc(C#N)cc1C
REMARK SMILES IDX 10 1 9 2 8 3 7 4 5 5 6 6 4 8 1 9 2 10 3 11 82 12 81 13 80 14
REMARK SMILES IDX 83 15 84 17 85 18 86 19 87 20 88 21 94 22 89 23 93 24 95 25
REMARK SMILES IDX 90 26 91 27 92 28 11 29 12 30 13 31 14 32 15 33 16 35 17 36
REMARK SMILES IDX 18 37 79 38 19 39 78 40 20 41 21 42 22 43 72 44 23 45 77 46
REMARK SMILES IDX 71 47 73 48 24 49 76 50 70 51 69 52 25 54 57 55 37 56 56 57
REMARK SMILES IDX 38 58 41 59 55 60 74 61 39 62 40 63 54 65 75 66 42 67 26 68
REMARK SMILES IDX 27 69 35 70 28 71 34 72 36 73 33 74 29 75 30 76 31 77 32 78
REMARK SMILES IDX 58 79 59 80 67 81 60 82 66 83 68 84 65 85 61 86 62 87 63 88
REMARK SMILES IDX 64 89 43 90 44 91 52 92 45 93 51 94 53 95 50 96 46 97 47 98
REMARK SMILES IDX 48 99 49 100
REMARK H PARENT 7 7 83 16 14 34 73 53 41 64
REMARK Flexibility Score: inf
ROOT
ATOM      1  C   UNL A   1      32.976  29.390  26.518  1.00  0.00     0.002 C 
ENDROOT
BRANCH   1   2
ATOM      2  C   UNL A   1      33.225  29.219  25.015  1.00  0.00     0.021 C 
BRANCH   2   3
ATOM      3  C   UNL A   1      31.959  28.946  24.204  1.00  0.00     0.116 C 
BRANCH   3   4
ATOM      4  N   UNL A   1      31.002  28.155  24.957  1.00  0.00    -0.352 N 
ATOM      5  C   UNL A   1      30.991  26.821  25.284  1.00  0.00     0.251 C 
ATOM      6  O   UNL A   1      30.157  26.406  26.088  1.00  0.00    -0.269 OA
ATOM      7  H   UNL A   1      30.228  28.661  25.292  1.00  0.00     0.163 HD
BRANCH   5   8
ATOM      8  C   UNL A   1      32.025  25.882  24.768  1.00  0.00     0.040 A 
ATOM      9  C   UNL A   1      33.014  24.537  21.375  1.00  0.00     0.046 C 
ATOM     10  C   UNL A   1      32.854  24.602  22.870  1.00  0.00    -0.026 A 
ATOM     11  C   UNL A   1      32.057  25.633  23.394  1.00  0.00     0.019 A 
ATOM     12  C   UNL A   1      33.540  23.754  23.759  1.00  0.00     0.052 A 
ATOM     13  C   UNL A   1      33.731  24.191  25.067  1.00  0.00     0.028 A 
ATOM     14  C   UNL A   1      32.975  25.255  25.571  1.00  0.00     0.016 A 
BRANCH  12  15
ATOM     15  N   UNL A   1      33.595  22.364  23.423  1.00  0.00    -0.279 N 
ATOM     16  H   UNL A   1      34.491  22.005  23.234  1.00  0.00     0.180 HD
BRANCH  15  17
ATOM     17  S   UNL A   1      32.336  21.266  23.311  1.00  0.00     0.262 S 
ATOM     18  O   UNL A   1      31.406  21.680  24.346  1.00  0.00    -0.201 OA
ATOM     19  O   UNL A   1      31.932  21.219  21.923  1.00  0.00    -0.201 OA
BRANCH  17  20
ATOM     20  C   UNL A   1      32.867  19.607  23.768  1.00  0.00     0.090 A 
ATOM     21  C   UNL A   1      32.791  18.544  22.861  1.00  0.00     0.024 A 
ATOM     22  C   UNL A   1      33.194  19.342  25.117  1.00  0.00    -0.029 A 
ATOM     23  C   UNL A   1      32.840  17.219  23.322  1.00  0.00     0.021 A 
ATOM     24  C   UNL A   1      33.255  18.003  25.557  1.00  0.00     0.024 A 
ATOM     25  C   UNL A   1      33.576  20.402  26.117  1.00  0.00     0.046 C 
ATOM     26  C   UNL A   1      33.027  16.947  24.677  1.00  0.00     0.052 A 
BRANCH  26  27
ATOM     27  C   UNL A   1      32.992  15.589  25.159  1.00  0.00     0.099 C 
ATOM     28  N   UNL A   1      32.960  14.505  25.551  1.00  0.00    -0.192 NA
ENDBRANCH  26  27
ENDBRANCH  17  20
ENDBRANCH  15  17
ENDBRANCH  12  15
ENDBRANCH   5   8
ENDBRANCH   3   4
ENDBRANCH   2   3
ENDBRANCH   1   2
BRANCH   1  29
ATOM     29  C   UNL A   1      34.173  29.081  27.430  1.00  0.00     0.002 C 
BRANCH  29  30
ATOM     30  C   UNL A   1      35.176  30.216  27.596  1.00  0.00     0.021 C 
BRANCH  30  31
ATOM     31  C   UNL A   1      35.202  30.810  28.992  1.00  0.00     0.116 C 
BRANCH  31  32
ATOM     32  N   UNL A   1      34.461  32.055  29.132  1.00  0.00    -0.352 N 
ATOM     33  C   UNL A   1      34.704  33.129  29.972  1.00  0.00     0.251 C 
ATOM     34  H   UNL A   1      33.674  32.146  28.546  1.00  0.00     0.163 HD
ATOM     35  O   UNL A   1      33.838  33.976  30.187  1.00  0.00    -0.269 OA
BRANCH  33  36
ATOM     36  C   UNL A   1      36.098  33.405  30.421  1.00  0.00     0.039 A 
ATOM     37  C   UNL A   1      36.997  33.770  29.405  1.00  0.00     0.014 A 
ATOM     38  C   UNL A   1      36.578  32.863  31.603  1.00  0.00     0.014 A 
ATOM     39  C   UNL A   1      38.283  33.257  29.428  1.00  0.00     0.010 A 
ATOM     40  C   UNL A   1      37.758  32.185  31.544  1.00  0.00     0.010 A 
ATOM     41  C   UNL A   1      38.572  32.339  30.425  1.00  0.00    -0.014 A 
BRANCH  41  42
ATOM     42  C   UNL A   1      39.810  31.615  30.550  1.00  0.00     0.031 A 
ATOM     43  C   UNL A   1      39.753  30.242  30.034  1.00  0.00     0.074 A 
ATOM     44  C   UNL A   1      40.908  32.332  30.869  1.00  0.00     0.049 A 
ATOM     45  N   UNL A   1      40.615  29.337  30.284  1.00  0.00    -0.248 NA
ATOM     46  C   UNL A   1      38.643  29.751  29.206  1.00  0.00     0.031 C 
ATOM     47  C   UNL A   1      42.320  32.002  30.741  1.00  0.00     0.029 A 
ATOM     48  N   UNL A   1      40.911  33.499  31.637  1.00  0.00    -0.354 N 
ATOM     49  C   UNL A   1      40.390  28.308  29.394  1.00  0.00     0.074 A 
ATOM     50  C   UNL A   1      39.078  28.539  28.858  1.00  0.00     0.031 C 
ATOM     51  C   UNL A   1      43.013  32.713  31.655  1.00  0.00     0.029 A 
ATOM     52  C   UNL A   1      42.041  33.413  32.480  1.00  0.00     0.049 A 
ATOM     53  H   UNL A   1      40.257  34.234  31.599  1.00  0.00     0.167 HD
ATOM     54  C   UNL A   1      41.439  27.493  29.109  1.00  0.00     0.034 A 
ATOM     55  C   UNL A   1      41.826  33.199  33.817  1.00  0.00     0.034 A 
ATOM     56  C   UNL A   1      42.584  27.884  29.935  1.00  0.00     0.049 A 
ATOM     57  C   UNL A   1      42.222  31.786  34.231  1.00  0.00     0.074 A 
ATOM     58  C   UNL A   1      43.667  28.721  29.742  1.00  0.00     0.029 A 
ATOM     59  N   UNL A   1      42.461  27.725  31.297  1.00  0.00    -0.354 N 
ATOM     60  N   UNL A   1      42.485  30.819  33.389  1.00  0.00    -0.248 NA
ATOM     61  C   UNL A   1      42.333  31.349  35.619  1.00  0.00     0.031 C 
ATOM     62  C   UNL A   1      44.127  29.132  31.035  1.00  0.00     0.029 A 
ATOM     63  C   UNL A   1      43.339  28.520  31.995  1.00  0.00     0.049 A 
ATOM     64  H   UNL A   1      41.817  27.113  31.723  1.00  0.00     0.167 HD
ATOM     65  C   UNL A   1      42.825  29.681  34.066  1.00  0.00     0.074 A 
ATOM     66  C   UNL A   1      42.650  30.051  35.466  1.00  0.00     0.031 C 
ATOM     67  C   UNL A   1      43.234  28.528  33.445  1.00  0.00     0.034 A 
BRANCH  54  68
ATOM     68  C   UNL A   1      41.558  26.504  27.984  1.00  0.00     0.023 A 
ATOM     69  C   UNL A   1      41.834  25.172  28.347  1.00  0.00     0.031 A 
ATOM     70  C   UNL A   1      41.450  26.743  26.601  1.00  0.00     0.131 A 
ATOM     71  C   UNL A   1      42.027  24.166  27.392  1.00  0.00     0.055 A 
ATOM     72  C   UNL A   1      41.650  25.738  25.641  1.00  0.00     0.041 A 
ATOM     73  F   UNL A   1      41.119  27.937  26.100  1.00  0.00    -0.206 F 
ATOM     74  C   UNL A   1      41.944  24.440  26.033  1.00  0.00     0.022 A 
BRANCH  71  75
ATOM     75  S   UNL A   1      42.394  22.496  27.982  1.00  0.00     0.124 S 
ATOM     76  O   UNL A   1      43.189  22.763  29.176  1.00  0.00    -0.237 OA
ATOM     77  O   UNL A   1      41.060  21.948  28.203  1.00  0.00    -0.237 OA
ATOM     78  O   UNL A   1      43.131  21.901  26.869  1.00  0.00    -0.744 OA
ENDBRANCH  71  75
ENDBRANCH  54  68
BRANCH  55  79
ATOM     79  C   UNL A   1      40.616  33.974  34.285  1.00  0.00     0.023 A 
ATOM     80  C   UNL A   1      39.546  33.197  34.802  1.00  0.00     0.031 A 
ATOM     81  C   UNL A   1      40.738  35.292  34.743  1.00  0.00     0.131 A 
ATOM     82  C   UNL A   1      38.862  33.629  35.952  1.00  0.00     0.055 A 
ATOM     83  C   UNL A   1      39.957  35.761  35.810  1.00  0.00     0.041 A 
ATOM     84  F   UNL A   1      41.716  36.089  34.289  1.00  0.00    -0.206 F 
ATOM     85  C   UNL A   1      39.075  34.904  36.471  1.00  0.00     0.022 A 
BRANCH  82  86
ATOM     86  S   UNL A   1      37.985  32.379  36.946  1.00  0.00     0.124 S 
ATOM     87  O   UNL A   1      37.759  31.314  35.976  1.00  0.00    -0.237 OA
ATOM     88  O   UNL A   1      38.954  32.086  38.001  1.00  0.00    -0.237 OA
ATOM     89  O   UNL A   1      36.783  33.070  37.412  1.00  0.00    -0.744 OA
ENDBRANCH  82  86
ENDBRANCH  55  79
BRANCH  67  90
ATOM     90  C   UNL A   1      43.552  27.264  34.201  1.00  0.00     0.023 A 
ATOM     91  C   UNL A   1      44.876  26.870  34.389  1.00  0.00     0.031 A 
ATOM     92  C   UNL A   1      42.564  26.405  34.741  1.00  0.00     0.131 A 
ATOM     93  C   UNL A   1      45.183  25.800  35.235  1.00  0.00     0.055 A 
ATOM     94  C   UNL A   1      42.873  25.253  35.462  1.00  0.00     0.041 A 
ATOM     95  F   UNL A   1      41.252  26.666  34.659  1.00  0.00    -0.206 F 
ATOM     96  C   UNL A   1      44.194  24.966  35.753  1.00  0.00     0.022 A 
BRANCH  93  97
ATOM     97  S   UNL A   1      46.895  25.643  35.782  1.00  0.00     0.124 S 
ATOM     98  O   UNL A   1      46.824  26.064  37.177  1.00  0.00    -0.237 OA
ATOM     99  O   UNL A   1      47.139  24.218  35.564  1.00  0.00    -0.237 OA
ATOM    100  O   UNL A   1      47.623  26.542  34.891  1.00  0.00    -0.744 OA
ENDBRANCH  93  97
ENDBRANCH  67  90
ENDBRANCH  41  42
ENDBRANCH  33  36
ENDBRANCH  31  32
ENDBRANCH  30  31
ENDBRANCH  29  30
ENDBRANCH   1  29
TORSDOF 20
ENDMDL
MODEL 3
REMARK VINA RESULT:     -11.1      1.665      2.538
REMARK SMILES Cc1cc(C(=O)NCCCCCCNC(=O)c2ccc(-c3c4nc(c(-c5cc(S(=O)(=O)[O-])ccc5F)c5ccc([nH]5)c(-c5cc(S(=O)(=O)[O-])ccc5F)c5nc(c(-c6cc(S(=O)(=O)[O-])ccc6F)c6ccc3[nH]6)C=C5)C=C4)cc2)ccc1NS(=O)(=O)c1ccc(C#N)cc1C
REMARK SMILES IDX 10 1 9 2 8 3 7 4 5 5 6 6 4 8 1 9 2 10 3 11 82 12 81 13 80 14
REMARK SMILES IDX 83 15 84 17 85 18 86 19 87 20 88 21 94 22 89 23 93 24 95 25
REMARK SMILES IDX 90 26 91 27 92 28 11 29 12 30 13 31 14 32 15 33 16 35 17 36
REMARK SMILES IDX 18 37 79 38 19 39 78 40 20 41 21 42 22 43 72 44 23 45 77 46
REMARK SMILES IDX 71 47 73 48 24 49 76 50 70 51 69 52 25 54 57 55 37 56 56 57
REMARK SMILES IDX 38 58 41 59 55 60 74 61 39 62 40 63 54 65 75 66 42 67 26 68
REMARK SMILES IDX 27 69 35 70 28 71 34 72 36 73 33 74 29 75 30 76 31 77 32 78
REMARK SMILES IDX 58 79 59 80 67 81 60 82 66 83 68 84 65 85 61 86 62 87 63 88
REMARK SMILES IDX 64 89 43 90 44 91 52 92 45 93 51 94 53 95 50 96 46 97 47 98
REMARK SMILES IDX 48 99 49 100
REMARK H PARENT 7 7 83 16 14 34 73 53 41 64
REMARK Flexibility Score: inf
ROOT
ATOM      1  C   UNL A   1      32.926  29.331  26.547  1.00  0.00     0.002 C 
ENDROOT
BRANCH   1   2
ATOM      2  C   UNL A   1      33.108  29.178  25.032  1.00  0.00     0.021 C 
BRANCH   2   3
ATOM      3  C   UNL A   1      31.963  28.439  24.342  1.00  0.00     0.116 C 
BRANCH   3   4
ATOM      4  N   UNL A   1      31.198  27.641  25.283  1.00  0.00    -0.352 N 
ATOM      5  C   UNL A   1      31.242  26.300  25.577  1.00  0.00     0.251 C 
ATOM      6  O   UNL A   1      30.614  25.876  26.546  1.00  0.00    -0.269 OA
ATOM      7  H   UNL A   1      30.533  28.148  25.801  1.00  0.00     0.163 HD
BRANCH   5   8
ATOM      8  C   UNL A   1      32.109  25.362  24.813  1.00  0.00     0.040 A 
ATOM      9  C   UNL A   1      32.139  21.642  24.133  1.00  0.00     0.046 C 
ATOM     10  C   UNL A   1      32.657  23.044  24.304  1.00  0.00    -0.026 A 
ATOM     11  C   UNL A   1      31.770  24.006  24.816  1.00  0.00     0.019 A 
ATOM     12  C   UNL A   1      33.935  23.453  23.884  1.00  0.00     0.052 A 
ATOM     13  C   UNL A   1      34.138  24.804  23.615  1.00  0.00     0.028 A 
ATOM     14  C   UNL A   1      33.223  25.757  24.077  1.00  0.00     0.016 A 
BRANCH  12  15
ATOM     15  N   UNL A   1      35.031  22.583  24.187  1.00  0.00    -0.279 N 
ATOM     16  H   UNL A   1      35.433  22.119  23.418  1.00  0.00     0.180 HD
BRANCH  15  17
ATOM     17  S   UNL A   1      35.720  22.251  25.676  1.00  0.00     0.262 S 
ATOM     18  O   UNL A   1      35.867  23.552  26.301  1.00  0.00    -0.201 OA
ATOM     19  O   UNL A   1      34.923  21.214  26.294  1.00  0.00    -0.201 OA
BRANCH  17  20
ATOM     20  C   UNL A   1      37.391  21.604  25.498  1.00  0.00     0.090 A 
ATOM     21  C   UNL A   1      37.623  20.315  25.006  1.00  0.00     0.024 A 
ATOM     22  C   UNL A   1      38.470  22.343  26.033  1.00  0.00    -0.029 A 
ATOM     23  C   UNL A   1      38.860  19.689  25.222  1.00  0.00     0.021 A 
ATOM     24  C   UNL A   1      39.711  21.702  26.228  1.00  0.00     0.024 A 
ATOM     25  C   UNL A   1      38.415  23.818  26.336  1.00  0.00     0.046 C 
ATOM     26  C   UNL A   1      39.892  20.365  25.874  1.00  0.00     0.052 A 
BRANCH  26  27
ATOM     27  C   UNL A   1      41.132  19.693  26.169  1.00  0.00     0.099 C 
ATOM     28  N   UNL A   1      42.125  19.160  26.413  1.00  0.00    -0.192 NA
ENDBRANCH  26  27
ENDBRANCH  17  20
ENDBRANCH  15  17
ENDBRANCH  12  15
ENDBRANCH   5   8
ENDBRANCH   3   4
ENDBRANCH   2   3
ENDBRANCH   1   2
BRANCH   1  29
ATOM     29  C   UNL A   1      34.176  29.058  27.397  1.00  0.00     0.002 C 
BRANCH  29  30
ATOM     30  C   UNL A   1      35.164  30.214  27.493  1.00  0.00     0.021 C 
BRANCH  30  31
ATOM     31  C   UNL A   1      35.262  30.822  28.880  1.00  0.00     0.116 C 
BRANCH  31  32
ATOM     32  N   UNL A   1      34.500  32.049  29.057  1.00  0.00    -0.352 N 
ATOM     33  C   UNL A   1      34.716  33.094  29.940  1.00  0.00     0.251 C 
ATOM     34  H   UNL A   1      33.719  32.151  28.465  1.00  0.00     0.163 HD
ATOM     35  O   UNL A   1      33.836  33.920  30.175  1.00  0.00    -0.269 OA
BRANCH  33  36
ATOM     36  C   UNL A   1      36.100  33.373  30.417  1.00  0.00     0.039 A 
ATOM     37  C   UNL A   1      37.014  33.759  29.422  1.00  0.00     0.014 A 
ATOM     38  C   UNL A   1      36.564  32.819  31.599  1.00  0.00     0.014 A 
ATOM     39  C   UNL A   1      38.303  33.255  29.459  1.00  0.00     0.010 A 
ATOM     40  C   UNL A   1      37.751  32.150  31.552  1.00  0.00     0.010 A 
ATOM     41  C   UNL A   1      38.582  32.326  30.448  1.00  0.00    -0.014 A 
BRANCH  41  42
ATOM     42  C   UNL A   1      39.823  31.608  30.585  1.00  0.00     0.031 A 
ATOM     43  C   UNL A   1      39.786  30.244  30.046  1.00  0.00     0.074 A 
ATOM     44  C   UNL A   1      40.910  32.329  30.935  1.00  0.00     0.049 A 
ATOM     45  N   UNL A   1      40.650  29.341  30.298  1.00  0.00    -0.248 NA
ATOM     46  C   UNL A   1      38.695  29.758  29.190  1.00  0.00     0.031 C 
ATOM     47  C   UNL A   1      42.326  32.011  30.829  1.00  0.00     0.029 A 
ATOM     48  N   UNL A   1      40.890  33.483  31.722  1.00  0.00    -0.354 N 
ATOM     49  C   UNL A   1      40.449  28.325  29.387  1.00  0.00     0.074 A 
ATOM     50  C   UNL A   1      39.146  28.555  28.830  1.00  0.00     0.031 C 
ATOM     51  C   UNL A   1      42.997  32.712  31.766  1.00  0.00     0.029 A 
ATOM     52  C   UNL A   1      42.005  33.392  32.584  1.00  0.00     0.049 A 
ATOM     53  H   UNL A   1      40.231  34.213  31.684  1.00  0.00     0.167 HD
ATOM     54  C   UNL A   1      41.509  27.522  29.108  1.00  0.00     0.034 A 
ATOM     55  C   UNL A   1      41.767  33.154  33.914  1.00  0.00     0.034 A 
ATOM     56  C   UNL A   1      42.636  27.908  29.962  1.00  0.00     0.049 A 
ATOM     57  C   UNL A   1      42.165  31.737  34.312  1.00  0.00     0.074 A 
ATOM     58  C   UNL A   1      43.716  28.756  29.801  1.00  0.00     0.029 A 
ATOM     59  N   UNL A   1      42.489  27.727  31.319  1.00  0.00    -0.354 N 
ATOM     60  N   UNL A   1      42.451  30.786  33.460  1.00  0.00    -0.248 NA
ATOM     61  C   UNL A   1      42.255  31.279  35.695  1.00  0.00     0.031 C 
ATOM     62  C   UNL A   1      44.149  29.150  31.110  1.00  0.00     0.029 A 
ATOM     63  C   UNL A   1      43.349  28.516  32.045  1.00  0.00     0.049 A 
ATOM     64  H   UNL A   1      41.843  27.104  31.722  1.00  0.00     0.167 HD
ATOM     65  C   UNL A   1      42.788  29.640  34.125  1.00  0.00     0.074 A 
ATOM     66  C   UNL A   1      42.585  29.986  35.527  1.00  0.00     0.031 C 
ATOM     67  C   UNL A   1      43.217  28.500  33.493  1.00  0.00     0.034 A 
BRANCH  54  68
ATOM     68  C   UNL A   1      41.657  26.553  27.970  1.00  0.00     0.023 A 
ATOM     69  C   UNL A   1      42.259  25.317  28.273  1.00  0.00     0.031 A 
ATOM     70  C   UNL A   1      41.286  26.729  26.624  1.00  0.00     0.131 A 
ATOM     71  C   UNL A   1      42.508  24.350  27.292  1.00  0.00     0.055 A 
ATOM     72  C   UNL A   1      41.541  25.765  25.635  1.00  0.00     0.041 A 
ATOM     73  F   UNL A   1      40.637  27.815  26.192  1.00  0.00    -0.206 F 
ATOM     74  C   UNL A   1      42.158  24.567  25.965  1.00  0.00     0.022 A 
BRANCH  71  75
ATOM     75  S   UNL A   1      43.305  22.809  27.802  1.00  0.00     0.124 S 
ATOM     76  O   UNL A   1      43.658  22.210  26.519  1.00  0.00    -0.237 OA
ATOM     77  O   UNL A   1      44.415  23.293  28.616  1.00  0.00    -0.237 OA
ATOM     78  O   UNL A   1      42.253  22.114  28.541  1.00  0.00    -0.744 OA
ENDBRANCH  71  75
ENDBRANCH  54  68
BRANCH  55  79
ATOM     79  C   UNL A   1      40.543  33.912  34.372  1.00  0.00     0.023 A 
ATOM     80  C   UNL A   1      39.488  33.123  34.902  1.00  0.00     0.031 A 
ATOM     81  C   UNL A   1      40.639  35.239  34.810  1.00  0.00     0.131 A 
ATOM     82  C   UNL A   1      38.797  33.559  36.046  1.00  0.00     0.055 A 
ATOM     83  C   UNL A   1      39.850  35.710  35.870  1.00  0.00     0.041 A 
ATOM     84  F   UNL A   1      41.602  36.049  34.342  1.00  0.00    -0.206 F 
ATOM     85  C   UNL A   1      38.986  34.846  36.545  1.00  0.00     0.022 A 
BRANCH  82  86
ATOM     86  S   UNL A   1      37.946  32.307  37.060  1.00  0.00     0.124 S 
ATOM     87  O   UNL A   1      38.751  32.291  38.275  1.00  0.00    -0.237 OA
ATOM     88  O   UNL A   1      36.605  32.874  37.190  1.00  0.00    -0.237 OA
ATOM     89  O   UNL A   1      38.006  31.090  36.251  1.00  0.00    -0.744 OA
ENDBRANCH  82  86
ENDBRANCH  55  79
BRANCH  67  90
ATOM     90  C   UNL A   1      43.531  27.227  34.234  1.00  0.00     0.023 A 
ATOM     91  C   UNL A   1      44.854  26.847  34.453  1.00  0.00     0.031 A 
ATOM     92  C   UNL A   1      42.539  26.344  34.730  1.00  0.00     0.131 A 
ATOM     93  C   UNL A   1      45.151  25.765  35.288  1.00  0.00     0.055 A 
ATOM     94  C   UNL A   1      42.843  25.183  35.438  1.00  0.00     0.041 A 
ATOM     95  F   UNL A   1      41.227  26.590  34.615  1.00  0.00    -0.206 F 
ATOM     96  C   UNL A   1      44.159  24.909  35.761  1.00  0.00     0.022 A 
BRANCH  93  97
ATOM     97  S   UNL A   1      46.849  25.621  35.881  1.00  0.00     0.124 S 
ATOM     98  O   UNL A   1      46.815  26.371  37.132  1.00  0.00    -0.237 OA
ATOM     99  O   UNL A   1      46.986  24.172  36.016  1.00  0.00    -0.237 OA
ATOM    100  O   UNL A   1      47.638  26.223  34.810  1.00  0.00    -0.744 OA
ENDBRANCH  93  97
ENDBRANCH  67  90
ENDBRANCH  41  42
ENDBRANCH  33  36
ENDBRANCH  31  32
ENDBRANCH  30  31
ENDBRANCH  29  30
ENDBRANCH   1  29
TORSDOF 20
ENDMDL
