MODEL 1
REMARK VINA RESULT:     -11.0      0.000      0.000
REMARK SMILES CC(C)Cc1ccc([C@H](CC(=O)NCCCCCCNC(=O)c2ccc(-c3c4nc(c(-c5cc(S(=O)(=O)[O-])ccc5F)c5ccc([nH]5)c(-c5cc(S(=O)(=O)[O-])ccc5F)c5nc(c(-c6cc(S(=O)(=O)[O-])ccc6F)c6ccc3[nH]6)C=C5)C=C4)cc2)C(F)(F)F)cc1
REMARK SMILES IDX 16 1 15 2 14 3 13 4 11 5 12 6 10 8 9 9 8 10 5 11 6 12 91 13
REMARK SMILES IDX 7 14 90 15 4 16 2 17 1 18 3 19 86 20 87 21 88 22 89 23 17 24
REMARK SMILES IDX 18 25 19 26 20 27 21 28 22 30 23 31 24 32 85 33 25 34 84 35
REMARK SMILES IDX 26 36 27 37 28 38 78 39 29 40 83 41 77 42 79 43 30 44 82 45
REMARK SMILES IDX 76 46 75 47 31 49 63 50 43 51 62 52 44 53 47 54 61 55 80 56
REMARK SMILES IDX 45 57 46 58 60 60 81 61 48 62 32 63 33 64 41 65 34 66 40 67
REMARK SMILES IDX 42 68 39 69 35 70 36 71 37 72 38 73 64 74 65 75 73 76 66 77
REMARK SMILES IDX 72 78 74 79 71 80 67 81 68 82 69 83 70 84 49 85 50 86 58 87
REMARK SMILES IDX 51 88 57 89 59 90 56 91 52 92 53 93 54 94 55 95
REMARK H PARENT 13 7 20 29 79 48 47 59
REMARK Flexibility Score: inf
ROOT
ATOM      1  C   UNL A   1      35.033  24.107  24.344  1.00  0.00     0.002 C 
ENDROOT
BRANCH   1   2
ATOM      2  C   UNL A   1      34.384  25.341  23.717  1.00  0.00     0.021 C 
BRANCH   2   3
ATOM      3  C   UNL A   1      33.799  26.322  24.731  1.00  0.00     0.116 C 
BRANCH   3   4
ATOM      4  N   UNL A   1      32.403  26.588  24.446  1.00  0.00    -0.356 N 
ATOM      5  C   UNL A   1      31.269  26.089  24.996  1.00  0.00     0.220 C 
ATOM      6  O   UNL A   1      30.195  26.554  24.606  1.00  0.00    -0.275 OA
ATOM      7  H   UNL A   1      32.252  27.246  23.729  1.00  0.00     0.163 HD
BRANCH   5   8
ATOM      8  C   UNL A   1      31.312  25.048  26.100  1.00  0.00     0.117 C 
BRANCH   8   9
ATOM      9  C   UNL A   1      30.836  23.612  25.812  1.00  0.00     0.134 C 
BRANCH   9  10
ATOM     10  C   UNL A   1      31.900  22.591  25.427  1.00  0.00    -0.035 A 
ATOM     11  C   UNL A   1      33.479  20.347  24.780  1.00  0.00    -0.048 A 
ATOM     12  C   UNL A   1      33.617  20.977  26.018  1.00  0.00     0.004 A 
ATOM     13  C   UNL A   1      32.588  20.878  23.842  1.00  0.00     0.004 A 
ATOM     14  C   UNL A   1      32.830  22.083  26.340  1.00  0.00     0.004 A 
ATOM     15  C   UNL A   1      31.810  21.988  24.162  1.00  0.00     0.004 A 
BRANCH  11  16
ATOM     16  C   UNL A   1      34.207  19.060  24.493  1.00  0.00     0.038 C 
BRANCH  16  17
ATOM     17  C   UNL A   1      33.272  17.924  24.027  1.00  0.00    -0.013 C 
ATOM     18  C   UNL A   1      34.021  16.790  23.318  1.00  0.00     0.008 C 
ATOM     19  C   UNL A   1      32.515  17.363  25.232  1.00  0.00     0.008 C 
ENDBRANCH  16  17
ENDBRANCH  11  16
ENDBRANCH   9  10
BRANCH   9  20
ATOM     20  C   UNL A   1      29.958  22.985  26.888  1.00  0.00     0.396 C 
ATOM     21  F   UNL A   1      30.677  22.703  27.997  1.00  0.00    -0.170 F 
ATOM     22  F   UNL A   1      28.976  23.829  27.288  1.00  0.00    -0.170 F 
ATOM     23  F   UNL A   1      29.364  21.852  26.462  1.00  0.00    -0.170 F 
ENDBRANCH   9  20
ENDBRANCH   8   9
ENDBRANCH   5   8
ENDBRANCH   3   4
ENDBRANCH   2   3
ENDBRANCH   1   2
BRANCH   1  24
ATOM     24  C   UNL A   1      35.474  23.049  23.332  1.00  0.00     0.002 C 
BRANCH  24  25
ATOM     25  C   UNL A   1      36.701  22.235  23.751  1.00  0.00     0.021 C 
BRANCH  25  26
ATOM     26  C   UNL A   1      37.017  22.292  25.244  1.00  0.00     0.116 C 
BRANCH  26  27
ATOM     27  N   UNL A   1      37.995  21.284  25.621  1.00  0.00    -0.352 N 
ATOM     28  C   UNL A   1      39.250  21.460  26.150  1.00  0.00     0.251 C 
ATOM     29  H   UNL A   1      37.721  20.350  25.476  1.00  0.00     0.163 HD
ATOM     30  O   UNL A   1      40.053  20.535  26.160  1.00  0.00    -0.269 OA
BRANCH  28  31
ATOM     31  C   UNL A   1      39.621  22.787  26.685  1.00  0.00     0.039 A 
ATOM     32  C   UNL A   1      40.596  22.871  27.680  1.00  0.00     0.014 A 
ATOM     33  C   UNL A   1      39.027  23.945  26.171  1.00  0.00     0.014 A 
ATOM     34  C   UNL A   1      41.035  24.127  28.104  1.00  0.00     0.010 A 
ATOM     35  C   UNL A   1      39.513  25.192  26.548  1.00  0.00     0.010 A 
ATOM     36  C   UNL A   1      40.532  25.296  27.507  1.00  0.00    -0.014 A 
BRANCH  36  37
ATOM     37  C   UNL A   1      41.097  26.630  27.833  1.00  0.00     0.031 A 
ATOM     38  C   UNL A   1      42.538  26.938  27.540  1.00  0.00     0.074 A 
ATOM     39  C   UNL A   1      40.323  27.535  28.466  1.00  0.00     0.049 A 
ATOM     40  N   UNL A   1      43.232  28.006  27.838  1.00  0.00    -0.248 NA
ATOM     41  C   UNL A   1      43.303  25.898  26.838  1.00  0.00     0.031 C 
ATOM     42  C   UNL A   1      38.917  27.335  28.828  1.00  0.00     0.029 A 
ATOM     43  N   UNL A   1      40.607  28.794  28.930  1.00  0.00    -0.354 N 
ATOM     44  C   UNL A   1      44.517  27.768  27.366  1.00  0.00     0.074 A 
ATOM     45  C   UNL A   1      44.516  26.430  26.811  1.00  0.00     0.031 C 
ATOM     46  C   UNL A   1      38.459  28.438  29.439  1.00  0.00     0.029 A 
ATOM     47  C   UNL A   1      39.548  29.400  29.568  1.00  0.00     0.049 A 
ATOM     48  H   UNL A   1      41.485  29.225  28.818  1.00  0.00     0.167 HD
ATOM     49  C   UNL A   1      45.591  28.597  27.380  1.00  0.00     0.034 A 
ATOM     50  C   UNL A   1      39.470  30.584  30.209  1.00  0.00     0.034 A 
ATOM     51  C   UNL A   1      45.570  29.926  27.943  1.00  0.00     0.049 A 
ATOM     52  C   UNL A   1      40.697  31.457  30.272  1.00  0.00     0.074 A 
ATOM     53  C   UNL A   1      46.582  30.870  27.958  1.00  0.00     0.029 A 
ATOM     54  N   UNL A   1      44.490  30.493  28.609  1.00  0.00    -0.354 N 
ATOM     55  N   UNL A   1      41.891  31.242  29.767  1.00  0.00    -0.248 NA
ATOM     56  C   UNL A   1      40.567  32.731  30.991  1.00  0.00     0.031 C 
ATOM     57  C   UNL A   1      46.145  31.970  28.704  1.00  0.00     0.029 A 
ATOM     58  C   UNL A   1      44.830  31.753  29.083  1.00  0.00     0.049 A 
ATOM     59  H   UNL A   1      43.612  30.065  28.727  1.00  0.00     0.167 HD
ATOM     60  C   UNL A   1      42.647  32.364  30.094  1.00  0.00     0.074 A 
ATOM     61  C   UNL A   1      41.768  33.263  30.813  1.00  0.00     0.031 C 
ATOM     62  C   UNL A   1      43.951  32.627  29.823  1.00  0.00     0.034 A 
BRANCH  49  63
ATOM     63  C   UNL A   1      46.883  28.076  26.798  1.00  0.00     0.023 A 
ATOM     64  C   UNL A   1      47.159  28.152  25.422  1.00  0.00     0.031 A 
ATOM     65  C   UNL A   1      47.851  27.485  27.631  1.00  0.00     0.131 A 
ATOM     66  C   UNL A   1      48.337  27.585  24.910  1.00  0.00     0.055 A 
ATOM     67  C   UNL A   1      49.058  26.997  27.125  1.00  0.00     0.041 A 
ATOM     68  F   UNL A   1      47.636  27.364  28.950  1.00  0.00    -0.206 F 
ATOM     69  C   UNL A   1      49.301  27.032  25.755  1.00  0.00     0.022 A 
BRANCH  66  70
ATOM     70  S   UNL A   1      48.522  27.453  23.111  1.00  0.00     0.124 S 
ATOM     71  O   UNL A   1      48.514  26.005  22.918  1.00  0.00    -0.237 OA
ATOM     72  O   UNL A   1      47.351  28.171  22.620  1.00  0.00    -0.237 OA
ATOM     73  O   UNL A   1      49.806  28.101  22.851  1.00  0.00    -0.744 OA
ENDBRANCH  66  70
ENDBRANCH  49  63
BRANCH  50  74
ATOM     74  C   UNL A   1      38.201  31.002  30.874  1.00  0.00     0.023 A 
ATOM     75  C   UNL A   1      37.223  31.727  30.178  1.00  0.00     0.031 A 
ATOM     76  C   UNL A   1      37.969  30.721  32.234  1.00  0.00     0.131 A 
ATOM     77  C   UNL A   1      36.082  32.190  30.852  1.00  0.00     0.055 A 
ATOM     78  C   UNL A   1      36.803  31.130  32.884  1.00  0.00     0.041 A 
ATOM     79  F   UNL A   1      38.871  30.031  32.950  1.00  0.00    -0.206 F 
ATOM     80  C   UNL A   1      35.857  31.882  32.195  1.00  0.00     0.022 A 
BRANCH  77  81
ATOM     81  S   UNL A   1      34.938  33.285  29.968  1.00  0.00     0.124 S 
ATOM     82  O   UNL A   1      34.154  32.331  29.192  1.00  0.00    -0.237 OA
ATOM     83  O   UNL A   1      34.241  33.946  31.067  1.00  0.00    -0.237 OA
ATOM     84  O   UNL A   1      35.826  34.145  29.189  1.00  0.00    -0.744 OA
ENDBRANCH  77  81
ENDBRANCH  50  74
BRANCH  62  85
ATOM     85  C   UNL A   1      44.495  33.954  30.299  1.00  0.00     0.023 A 
ATOM     86  C   UNL A   1      44.354  35.123  29.530  1.00  0.00     0.031 A 
ATOM     87  C   UNL A   1      45.166  34.049  31.530  1.00  0.00     0.131 A 
ATOM     88  C   UNL A   1      44.923  36.325  29.975  1.00  0.00     0.055 A 
ATOM     89  C   UNL A   1      45.672  35.262  31.999  1.00  0.00     0.041 A 
ATOM     90  F   UNL A   1      45.335  32.965  32.303  1.00  0.00    -0.206 F 
ATOM     91  C   UNL A   1      45.564  36.406  31.214  1.00  0.00     0.022 A 
BRANCH  88  92
ATOM     92  S   UNL A   1      44.895  37.762  28.871  1.00  0.00     0.124 S 
ATOM     93  O   UNL A   1      45.844  38.662  29.519  1.00  0.00    -0.237 OA
ATOM     94  O   UNL A   1      45.326  37.191  27.600  1.00  0.00    -0.237 OA
ATOM     95  O   UNL A   1      43.500  38.200  28.911  1.00  0.00    -0.744 OA
ENDBRANCH  88  92
ENDBRANCH  62  85
ENDBRANCH  36  37
ENDBRANCH  28  31
ENDBRANCH  26  27
ENDBRANCH  25  26
ENDBRANCH  24  25
ENDBRANCH   1  24
TORSDOF 21
ENDMDL
MODEL 2
REMARK VINA RESULT:     -10.5      5.515      8.070
REMARK SMILES CC(C)Cc1ccc([C@H](CC(=O)NCCCCCCNC(=O)c2ccc(-c3c4nc(c(-c5cc(S(=O)(=O)[O-])ccc5F)c5ccc([nH]5)c(-c5cc(S(=O)(=O)[O-])ccc5F)c5nc(c(-c6cc(S(=O)(=O)[O-])ccc6F)c6ccc3[nH]6)C=C5)C=C4)cc2)C(F)(F)F)cc1
REMARK SMILES IDX 16 1 15 2 14 3 13 4 11 5 12 6 10 8 9 9 8 10 5 11 6 12 91 13
REMARK SMILES IDX 7 14 90 15 4 16 2 17 1 18 3 19 86 20 87 21 88 22 89 23 17 24
REMARK SMILES IDX 18 25 19 26 20 27 21 28 22 30 23 31 24 32 85 33 25 34 84 35
REMARK SMILES IDX 26 36 27 37 28 38 78 39 29 40 83 41 77 42 79 43 30 44 82 45
REMARK SMILES IDX 76 46 75 47 31 49 63 50 43 51 62 52 44 53 47 54 61 55 80 56
REMARK SMILES IDX 45 57 46 58 60 60 81 61 48 62 32 63 33 64 41 65 34 66 40 67
REMARK SMILES IDX 42 68 39 69 35 70 36 71 37 72 38 73 64 74 65 75 73 76 66 77
REMARK SMILES IDX 72 78 74 79 71 80 67 81 68 82 69 83 70 84 49 85 50 86 58 87
REMARK SMILES IDX 51 88 57 89 59 90 56 91 52 92 53 93 54 94 55 95
REMARK H PARENT 13 7 20 29 79 48 47 59
REMARK Flexibility Score: inf
ROOT
ATOM      1  C   UNL A   1      33.669  29.678  25.751  1.00  0.00     0.002 C 
ENDROOT
BRANCH   1   2
ATOM      2  C   UNL A   1      33.903  28.507  24.796  1.00  0.00     0.021 C 
BRANCH   2   3
ATOM      3  C   UNL A   1      32.653  28.052  24.047  1.00  0.00     0.116 C 
BRANCH   3   4
ATOM      4  N   UNL A   1      33.008  27.316  22.849  1.00  0.00    -0.356 N 
ATOM      5  C   UNL A   1      33.561  26.088  22.687  1.00  0.00     0.220 C 
ATOM      6  O   UNL A   1      33.689  25.671  21.534  1.00  0.00    -0.275 OA
ATOM      7  H   UNL A   1      32.814  27.790  22.007  1.00  0.00     0.163 HD
BRANCH   5   8
ATOM      8  C   UNL A   1      33.944  25.226  23.875  1.00  0.00     0.117 C 
BRANCH   8   9
ATOM      9  C   UNL A   1      32.864  24.396  24.594  1.00  0.00     0.134 C 
BRANCH   9  10
ATOM     10  C   UNL A   1      33.155  22.917  24.815  1.00  0.00    -0.035 A 
ATOM     11  C   UNL A   1      33.985  20.223  24.781  1.00  0.00    -0.048 A 
ATOM     12  C   UNL A   1      32.685  20.569  24.408  1.00  0.00     0.004 A 
ATOM     13  C   UNL A   1      34.853  21.224  25.226  1.00  0.00     0.004 A 
ATOM     14  C   UNL A   1      32.277  21.902  24.418  1.00  0.00     0.004 A 
ATOM     15  C   UNL A   1      34.442  22.554  25.245  1.00  0.00     0.004 A 
BRANCH  11  16
ATOM     16  C   UNL A   1      34.475  18.808  24.616  1.00  0.00     0.038 C 
BRANCH  16  17
ATOM     17  C   UNL A   1      33.367  17.829  24.177  1.00  0.00    -0.013 C 
ATOM     18  C   UNL A   1      33.891  16.696  23.286  1.00  0.00     0.008 C 
ATOM     19  C   UNL A   1      32.693  17.236  25.416  1.00  0.00     0.008 C 
ENDBRANCH  16  17
ENDBRANCH  11  16
ENDBRANCH   9  10
BRANCH   9  20
ATOM     20  C   UNL A   1      32.366  24.973  25.914  1.00  0.00     0.396 C 
ATOM     21  F   UNL A   1      33.269  25.830  26.441  1.00  0.00    -0.170 F 
ATOM     22  F   UNL A   1      31.228  25.689  25.751  1.00  0.00    -0.170 F 
ATOM     23  F   UNL A   1      32.108  24.011  26.822  1.00  0.00    -0.170 F 
ENDBRANCH   9  20
ENDBRANCH   8   9
ENDBRANCH   5   8
ENDBRANCH   3   4
ENDBRANCH   2   3
ENDBRANCH   1   2
BRANCH   1  24
ATOM     24  C   UNL A   1      32.199  29.923  26.091  1.00  0.00     0.002 C 
BRANCH  24  25
ATOM     25  C   UNL A   1      31.959  31.018  27.134  1.00  0.00     0.021 C 
BRANCH  25  26
ATOM     26  C   UNL A   1      33.186  31.870  27.450  1.00  0.00     0.116 C 
BRANCH  26  27
ATOM     27  N   UNL A   1      32.834  33.272  27.610  1.00  0.00    -0.352 N 
ATOM     28  C   UNL A   1      33.260  34.161  28.567  1.00  0.00     0.251 C 
ATOM     29  H   UNL A   1      32.207  33.632  26.943  1.00  0.00     0.163 HD
ATOM     30  O   UNL A   1      32.672  35.222  28.730  1.00  0.00    -0.269 OA
BRANCH  28  31
ATOM     31  C   UNL A   1      34.422  33.804  29.407  1.00  0.00     0.039 A 
ATOM     32  C   UNL A   1      34.236  32.959  30.502  1.00  0.00     0.014 A 
ATOM     33  C   UNL A   1      35.698  34.279  29.084  1.00  0.00     0.014 A 
ATOM     34  C   UNL A   1      35.346  32.523  31.228  1.00  0.00     0.010 A 
ATOM     35  C   UNL A   1      36.807  33.791  29.767  1.00  0.00     0.010 A 
ATOM     36  C   UNL A   1      36.644  32.896  30.835  1.00  0.00    -0.014 A 
BRANCH  36  37
ATOM     37  C   UNL A   1      37.842  32.320  31.497  1.00  0.00     0.031 A 
ATOM     38  C   UNL A   1      38.585  31.177  30.863  1.00  0.00     0.074 A 
ATOM     39  C   UNL A   1      38.210  32.781  32.709  1.00  0.00     0.049 A 
ATOM     40  N   UNL A   1      39.589  30.483  31.333  1.00  0.00    -0.248 NA
ATOM     41  C   UNL A   1      38.120  30.746  29.536  1.00  0.00     0.031 C 
ATOM     42  C   UNL A   1      37.547  33.868  33.435  1.00  0.00     0.029 A 
ATOM     43  N   UNL A   1      39.220  32.391  33.552  1.00  0.00    -0.354 N 
ATOM     44  C   UNL A   1      39.877  29.529  30.363  1.00  0.00     0.074 A 
ATOM     45  C   UNL A   1      38.903  29.702  29.305  1.00  0.00     0.031 C 
ATOM     46  C   UNL A   1      38.178  34.068  34.601  1.00  0.00     0.029 A 
ATOM     47  C   UNL A   1      39.251  33.089  34.738  1.00  0.00     0.049 A 
ATOM     48  H   UNL A   1      39.863  31.679  33.330  1.00  0.00     0.167 HD
ATOM     49  C   UNL A   1      40.873  28.609  30.352  1.00  0.00     0.034 A 
ATOM     50  C   UNL A   1      40.035  32.940  35.825  1.00  0.00     0.034 A 
ATOM     51  C   UNL A   1      41.831  28.451  31.420  1.00  0.00     0.049 A 
ATOM     52  C   UNL A   1      41.090  31.863  35.816  1.00  0.00     0.074 A 
ATOM     53  C   UNL A   1      42.914  27.591  31.485  1.00  0.00     0.029 A 
ATOM     54  N   UNL A   1      41.811  29.154  32.619  1.00  0.00    -0.354 N 
ATOM     55  N   UNL A   1      41.388  31.007  34.865  1.00  0.00    -0.248 NA
ATOM     56  C   UNL A   1      41.912  31.730  37.025  1.00  0.00     0.031 C 
ATOM     57  C   UNL A   1      43.495  27.712  32.752  1.00  0.00     0.029 A 
ATOM     58  C   UNL A   1      42.831  28.708  33.449  1.00  0.00     0.049 A 
ATOM     59  H   UNL A   1      41.168  29.863  32.847  1.00  0.00     0.167 HD
ATOM     60  C   UNL A   1      42.445  30.247  35.358  1.00  0.00     0.074 A 
ATOM     61  C   UNL A   1      42.749  30.764  36.677  1.00  0.00     0.031 C 
ATOM     62  C   UNL A   1      43.105  29.215  34.773  1.00  0.00     0.034 A 
BRANCH  49  63
ATOM     63  C   UNL A   1      40.954  27.681  29.163  1.00  0.00     0.023 A 
ATOM     64  C   UNL A   1      41.904  27.866  28.143  1.00  0.00     0.031 A 
ATOM     65  C   UNL A   1      40.061  26.601  29.040  1.00  0.00     0.131 A 
ATOM     66  C   UNL A   1      41.895  27.030  27.016  1.00  0.00     0.055 A 
ATOM     67  C   UNL A   1      40.111  25.723  27.956  1.00  0.00     0.041 A 
ATOM     68  F   UNL A   1      39.117  26.386  29.970  1.00  0.00    -0.206 F 
ATOM     69  C   UNL A   1      41.023  25.943  26.928  1.00  0.00     0.022 A 
BRANCH  66  70
ATOM     70  S   UNL A   1      42.943  27.472  25.603  1.00  0.00     0.124 S 
ATOM     71  O   UNL A   1      42.431  26.581  24.565  1.00  0.00    -0.237 OA
ATOM     72  O   UNL A   1      42.656  28.891  25.428  1.00  0.00    -0.237 OA
ATOM     73  O   UNL A   1      44.293  27.162  26.069  1.00  0.00    -0.744 OA
ENDBRANCH  66  70
ENDBRANCH  49  63
BRANCH  50  74
ATOM     74  C   UNL A   1      39.837  33.803  37.025  1.00  0.00     0.023 A 
ATOM     75  C   UNL A   1      40.686  34.889  37.285  1.00  0.00     0.031 A 
ATOM     76  C   UNL A   1      38.820  33.525  37.959  1.00  0.00     0.131 A 
ATOM     77  C   UNL A   1      40.537  35.628  38.470  1.00  0.00     0.055 A 
ATOM     78  C   UNL A   1      38.637  34.301  39.105  1.00  0.00     0.041 A 
ATOM     79  F   UNL A   1      37.979  32.498  37.762  1.00  0.00    -0.206 F 
ATOM     80  C   UNL A   1      39.508  35.352  39.372  1.00  0.00     0.022 A 
BRANCH  77  81
ATOM     81  S   UNL A   1      41.771  36.898  38.861  1.00  0.00     0.124 S 
ATOM     82  O   UNL A   1      40.926  38.039  39.194  1.00  0.00    -0.237 OA
ATOM     83  O   UNL A   1      42.492  36.287  39.972  1.00  0.00    -0.237 OA
ATOM     84  O   UNL A   1      42.532  37.025  37.620  1.00  0.00    -0.744 OA
ENDBRANCH  77  81
ENDBRANCH  50  74
BRANCH  62  85
ATOM     85  C   UNL A   1      44.234  28.591  35.559  1.00  0.00     0.023 A 
ATOM     86  C   UNL A   1      44.003  27.552  36.479  1.00  0.00     0.031 A 
ATOM     87  C   UNL A   1      45.554  29.045  35.392  1.00  0.00     0.131 A 
ATOM     88  C   UNL A   1      45.067  27.038  37.234  1.00  0.00     0.055 A 
ATOM     89  C   UNL A   1      46.619  28.483  36.099  1.00  0.00     0.041 A 
ATOM     90  F   UNL A   1      45.833  30.038  34.533  1.00  0.00    -0.206 F 
ATOM     91  C   UNL A   1      46.376  27.483  37.036  1.00  0.00     0.022 A 
BRANCH  88  92
ATOM     92  S   UNL A   1      44.703  25.842  38.547  1.00  0.00     0.124 S 
ATOM     93  O   UNL A   1      46.034  25.559  39.077  1.00  0.00    -0.237 OA
ATOM     94  O   UNL A   1      43.816  26.598  39.424  1.00  0.00    -0.237 OA
ATOM     95  O   UNL A   1      44.070  24.732  37.836  1.00  0.00    -0.744 OA
ENDBRANCH  88  92
ENDBRANCH  62  85
ENDBRANCH  36  37
ENDBRANCH  28  31
ENDBRANCH  26  27
ENDBRANCH  25  26
ENDBRANCH  24  25
ENDBRANCH   1  24
TORSDOF 21
ENDMDL
MODEL 3
REMARK VINA RESULT:     -10.4      5.091      9.847
REMARK SMILES CC(C)Cc1ccc([C@H](CC(=O)NCCCCCCNC(=O)c2ccc(-c3c4nc(c(-c5cc(S(=O)(=O)[O-])ccc5F)c5ccc([nH]5)c(-c5cc(S(=O)(=O)[O-])ccc5F)c5nc(c(-c6cc(S(=O)(=O)[O-])ccc6F)c6ccc3[nH]6)C=C5)C=C4)cc2)C(F)(F)F)cc1
REMARK SMILES IDX 16 1 15 2 14 3 13 4 11 5 12 6 10 8 9 9 8 10 5 11 6 12 91 13
REMARK SMILES IDX 7 14 90 15 4 16 2 17 1 18 3 19 86 20 87 21 88 22 89 23 17 24
REMARK SMILES IDX 18 25 19 26 20 27 21 28 22 30 23 31 24 32 85 33 25 34 84 35
REMARK SMILES IDX 26 36 27 37 28 38 78 39 29 40 83 41 77 42 79 43 30 44 82 45
REMARK SMILES IDX 76 46 75 47 31 49 63 50 43 51 62 52 44 53 47 54 61 55 80 56
REMARK SMILES IDX 45 57 46 58 60 60 81 61 48 62 32 63 33 64 41 65 34 66 40 67
REMARK SMILES IDX 42 68 39 69 35 70 36 71 37 72 38 73 64 74 65 75 73 76 66 77
REMARK SMILES IDX 72 78 74 79 71 80 67 81 68 82 69 83 70 84 49 85 50 86 58 87
REMARK SMILES IDX 51 88 57 89 59 90 56 91 52 92 53 93 54 94 55 95
REMARK H PARENT 13 7 20 29 79 48 47 59
REMARK Flexibility Score: inf
ROOT
ATOM      1  C   UNL A   1      33.146  29.600  26.245  1.00  0.00     0.002 C 
ENDROOT
BRANCH   1   2
ATOM      2  C   UNL A   1      33.231  28.074  26.200  1.00  0.00     0.021 C 
BRANCH   2   3
ATOM      3  C   UNL A   1      32.199  27.417  25.286  1.00  0.00     0.116 C 
BRANCH   3   4
ATOM      4  N   UNL A   1      32.845  26.765  24.164  1.00  0.00    -0.356 N 
ATOM      5  C   UNL A   1      33.496  25.578  24.076  1.00  0.00     0.220 C 
ATOM      6  O   UNL A   1      33.891  25.229  22.961  1.00  0.00    -0.275 OA
ATOM      7  H   UNL A   1      32.804  27.270  23.320  1.00  0.00     0.163 HD
BRANCH   5   8
ATOM      8  C   UNL A   1      33.675  24.677  25.284  1.00  0.00     0.117 C 
BRANCH   8   9
ATOM      9  C   UNL A   1      32.746  23.463  25.471  1.00  0.00     0.134 C 
BRANCH   9  10
ATOM     10  C   UNL A   1      33.394  22.084  25.465  1.00  0.00    -0.035 A 
ATOM     11  C   UNL A   1      34.673  19.627  24.938  1.00  0.00    -0.048 A 
ATOM     12  C   UNL A   1      33.290  19.681  25.121  1.00  0.00     0.004 A 
ATOM     13  C   UNL A   1      35.423  20.799  25.076  1.00  0.00     0.004 A 
ATOM     14  C   UNL A   1      32.658  20.898  25.375  1.00  0.00     0.004 A 
ATOM     15  C   UNL A   1      34.792  22.012  25.338  1.00  0.00     0.004 A 
BRANCH  11  16
ATOM     16  C   UNL A   1      35.336  18.346  24.504  1.00  0.00     0.038 C 
BRANCH  16  17
ATOM     17  C   UNL A   1      34.360  17.153  24.427  1.00  0.00    -0.013 C 
ATOM     18  C   UNL A   1      34.033  16.744  22.987  1.00  0.00     0.008 C 
ATOM     19  C   UNL A   1      34.956  15.961  25.177  1.00  0.00     0.008 C 
ENDBRANCH  16  17
ENDBRANCH  11  16
ENDBRANCH   9  10
BRANCH   9  20
ATOM     20  C   UNL A   1      31.813  23.532  26.674  1.00  0.00     0.396 C 
ATOM     21  F   UNL A   1      31.577  24.814  27.033  1.00  0.00    -0.170 F 
ATOM     22  F   UNL A   1      30.601  22.994  26.400  1.00  0.00    -0.170 F 
ATOM     23  F   UNL A   1      32.312  22.874  27.740  1.00  0.00    -0.170 F 
ENDBRANCH   9  20
ENDBRANCH   8   9
ENDBRANCH   5   8
ENDBRANCH   3   4
ENDBRANCH   2   3
ENDBRANCH   1   2
BRANCH   1  24
ATOM     24  C   UNL A   1      31.720  30.148  26.203  1.00  0.00     0.002 C 
BRANCH  24  25
ATOM     25  C   UNL A   1      31.573  31.587  26.705  1.00  0.00     0.021 C 
BRANCH  25  26
ATOM     26  C   UNL A   1      32.861  32.200  27.251  1.00  0.00     0.116 C 
BRANCH  26  27
ATOM     27  N   UNL A   1      32.702  33.620  27.525  1.00  0.00    -0.352 N 
ATOM     28  C   UNL A   1      33.280  34.373  28.517  1.00  0.00     0.251 C 
ATOM     29  H   UNL A   1      32.098  34.105  26.918  1.00  0.00     0.163 HD
ATOM     30  O   UNL A   1      32.843  35.485  28.783  1.00  0.00    -0.269 OA
BRANCH  28  31
ATOM     31  C   UNL A   1      34.422  33.811  29.268  1.00  0.00     0.039 A 
ATOM     32  C   UNL A   1      34.175  32.934  30.325  1.00  0.00     0.014 A 
ATOM     33  C   UNL A   1      35.733  34.126  28.897  1.00  0.00     0.014 A 
ATOM     34  C   UNL A   1      35.248  32.308  30.961  1.00  0.00     0.010 A 
ATOM     35  C   UNL A   1      36.796  33.451  29.487  1.00  0.00     0.010 A 
ATOM     36  C   UNL A   1      36.564  32.523  30.514  1.00  0.00    -0.014 A 
BRANCH  36  37
ATOM     37  C   UNL A   1      37.702  31.750  31.073  1.00  0.00     0.031 A 
ATOM     38  C   UNL A   1      38.266  32.095  32.422  1.00  0.00     0.074 A 
ATOM     39  C   UNL A   1      38.275  30.787  30.323  1.00  0.00     0.049 A 
ATOM     40  N   UNL A   1      39.313  31.600  33.031  1.00  0.00    -0.248 NA
ATOM     41  C   UNL A   1      37.572  33.150  33.175  1.00  0.00     0.031 C 
ATOM     42  C   UNL A   1      37.831  30.385  28.985  1.00  0.00     0.029 A 
ATOM     43  N   UNL A   1      39.358  29.980  30.566  1.00  0.00    -0.354 N 
ATOM     44  C   UNL A   1      39.409  32.285  34.237  1.00  0.00     0.074 A 
ATOM     45  C   UNL A   1      38.344  33.268  34.245  1.00  0.00     0.031 C 
ATOM     46  C   UNL A   1      38.622  29.398  28.537  1.00  0.00     0.029 A 
ATOM     47  C   UNL A   1      39.664  29.135  29.524  1.00  0.00     0.049 A 
ATOM     48  H   UNL A   1      39.868  30.003  31.408  1.00  0.00     0.167 HD
ATOM     49  C   UNL A   1      40.292  32.097  35.249  1.00  0.00     0.034 A 
ATOM     50  C   UNL A   1      40.684  28.268  29.366  1.00  0.00     0.034 A 
ATOM     51  C   UNL A   1      41.349  31.114  35.218  1.00  0.00     0.049 A 
ATOM     52  C   UNL A   1      41.694  28.128  30.477  1.00  0.00     0.074 A 
ATOM     53  C   UNL A   1      42.262  30.800  36.210  1.00  0.00     0.029 A 
ATOM     54  N   UNL A   1      41.648  30.299  34.132  1.00  0.00    -0.354 N 
ATOM     55  N   UNL A   1      41.736  28.742  31.637  1.00  0.00    -0.248 NA
ATOM     56  C   UNL A   1      42.793  27.180  30.256  1.00  0.00     0.031 C 
ATOM     57  C   UNL A   1      43.163  29.861  35.696  1.00  0.00     0.029 A 
ATOM     58  C   UNL A   1      42.764  29.522  34.414  1.00  0.00     0.049 A 
ATOM     59  H   UNL A   1      41.143  30.276  33.288  1.00  0.00     0.167 HD
ATOM     60  C   UNL A   1      42.858  28.239  32.291  1.00  0.00     0.074 A 
ATOM     61  C   UNL A   1      43.446  27.253  31.407  1.00  0.00     0.031 C 
ATOM     62  C   UNL A   1      43.356  28.562  33.511  1.00  0.00     0.034 A 
BRANCH  49  63
ATOM     63  C   UNL A   1      40.173  32.995  36.457  1.00  0.00     0.023 A 
ATOM     64  C   UNL A   1      39.422  32.623  37.585  1.00  0.00     0.031 A 
ATOM     65  C   UNL A   1      40.812  34.249  36.478  1.00  0.00     0.131 A 
ATOM     66  C   UNL A   1      39.270  33.519  38.654  1.00  0.00     0.055 A 
ATOM     67  C   UNL A   1      40.725  35.101  37.581  1.00  0.00     0.041 A 
ATOM     68  F   UNL A   1      41.526  34.670  35.423  1.00  0.00    -0.206 F 
ATOM     69  C   UNL A   1      39.939  34.744  38.672  1.00  0.00     0.022 A 
BRANCH  66  70
ATOM     70  S   UNL A   1      38.072  33.118  39.956  1.00  0.00     0.124 S 
ATOM     71  O   UNL A   1      38.656  31.910  40.534  1.00  0.00    -0.237 OA
ATOM     72  O   UNL A   1      38.107  34.311  40.794  1.00  0.00    -0.237 OA
ATOM     73  O   UNL A   1      36.826  32.908  39.221  1.00  0.00    -0.744 OA
ENDBRANCH  66  70
ENDBRANCH  49  63
BRANCH  50  74
ATOM     74  C   UNL A   1      40.827  27.490  28.102  1.00  0.00     0.023 A 
ATOM     75  C   UNL A   1      40.479  26.132  28.044  1.00  0.00     0.031 A 
ATOM     76  C   UNL A   1      41.361  28.082  26.942  1.00  0.00     0.131 A 
ATOM     77  C   UNL A   1      40.712  25.398  26.869  1.00  0.00     0.055 A 
ATOM     78  C   UNL A   1      41.533  27.364  25.757  1.00  0.00     0.041 A 
ATOM     79  F   UNL A   1      41.712  29.378  26.940  1.00  0.00    -0.206 F 
ATOM     80  C   UNL A   1      41.221  26.009  25.722  1.00  0.00     0.022 A 
BRANCH  77  81
ATOM     81  S   UNL A   1      40.430  23.607  26.895  1.00  0.00     0.124 S 
ATOM     82  O   UNL A   1      40.530  23.312  28.320  1.00  0.00    -0.237 OA
ATOM     83  O   UNL A   1      39.098  23.502  26.309  1.00  0.00    -0.237 OA
ATOM     84  O   UNL A   1      41.516  23.081  26.070  1.00  0.00    -0.744 OA
ENDBRANCH  77  81
ENDBRANCH  50  74
BRANCH  62  85
ATOM     85  C   UNL A   1      44.595  27.825  33.963  1.00  0.00     0.023 A 
ATOM     86  C   UNL A   1      44.510  26.624  34.690  1.00  0.00     0.031 A 
ATOM     87  C   UNL A   1      45.873  28.330  33.668  1.00  0.00     0.131 A 
ATOM     88  C   UNL A   1      45.680  25.998  35.145  1.00  0.00     0.055 A 
ATOM     89  C   UNL A   1      47.035  27.667  34.065  1.00  0.00     0.041 A 
ATOM     90  F   UNL A   1      46.014  29.475  32.981  1.00  0.00    -0.206 F 
ATOM     91  C   UNL A   1      46.942  26.501  34.819  1.00  0.00     0.022 A 
BRANCH  88  92
ATOM     92  S   UNL A   1      45.529  24.565  36.245  1.00  0.00     0.124 S 
ATOM     93  O   UNL A   1      46.926  24.208  36.471  1.00  0.00    -0.237 OA
ATOM     94  O   UNL A   1      44.821  25.123  37.392  1.00  0.00    -0.237 OA
ATOM     95  O   UNL A   1      44.764  23.603  35.454  1.00  0.00    -0.744 OA
ENDBRANCH  88  92
ENDBRANCH  62  85
ENDBRANCH  36  37
ENDBRANCH  28  31
ENDBRANCH  26  27
ENDBRANCH  25  26
ENDBRANCH  24  25
ENDBRANCH   1  24
TORSDOF 21
ENDMDL
