MODEL 1
REMARK VINA RESULT:     -11.3      0.000      0.000
REMARK SMILES O=C(CN1C(=O)N[C@](c2cccs2)(C2CC2)C1=O)NCCCCCCNC(=O)c1ccc(-c2c3nc(c(-c4cc(S(=O)(=O)[O-])ccc4F)c4ccc([nH]4)c(-c4cc(S(=O)(=O)[O-])ccc4F)c4nc(c(-c5cc(S(=O)(=O)[O-])ccc5F)c5ccc2[nH]5)C=C4)C=C3)cc1
REMARK SMILES IDX 23 1 22 2 21 3 20 4 19 5 1 6 2 7 3 9 4 10 5 11 17 12 6 13
REMARK SMILES IDX 7 14 8 15 18 16 14 18 15 19 16 20 9 21 10 22 13 23 11 24
REMARK SMILES IDX 12 25 24 26 25 27 26 28 27 29 28 31 29 32 30 33 91 34 31 35
REMARK SMILES IDX 90 36 32 37 33 38 34 39 84 40 35 41 89 42 83 43 85 44 36 45
REMARK SMILES IDX 88 46 82 47 81 48 37 50 69 51 49 52 68 53 50 54 53 55 67 56
REMARK SMILES IDX 86 57 51 58 52 59 66 61 87 62 54 63 38 64 39 65 47 66 40 67
REMARK SMILES IDX 46 68 48 69 45 70 41 71 42 72 43 73 44 74 70 75 71 76 79 77
REMARK SMILES IDX 72 78 78 79 80 80 77 81 73 82 74 83 75 84 76 85 55 86 56 87
REMARK SMILES IDX 64 88 57 89 63 90 65 91 62 92 58 93 59 94 60 95 61 96
REMARK H PARENT 19 8 7 17 26 30 85 49 53 60
REMARK Flexibility Score: inf
ROOT
ATOM      1  C   UNL A   1      31.692  29.645  24.707  1.00  0.00     0.002 C 
ENDROOT
BRANCH   1   2
ATOM      2  C   UNL A   1      30.533  28.920  24.017  1.00  0.00     0.002 C 
BRANCH   2   3
ATOM      3  C   UNL A   1      30.709  27.408  23.837  1.00  0.00     0.021 C 
BRANCH   3   4
ATOM      4  C   UNL A   1      29.610  26.558  24.467  1.00  0.00     0.116 C 
BRANCH   4   5
ATOM      5  N   UNL A   1      30.039  25.201  24.745  1.00  0.00    -0.355 N 
ATOM      6  O   UNL A   1      31.153  25.707  26.677  1.00  0.00    -0.273 OA
ATOM      7  C   UNL A   1      30.678  24.865  25.915  1.00  0.00     0.240 C 
ATOM      8  H   UNL A   1      29.868  24.500  24.076  1.00  0.00     0.163 HD
BRANCH   7   9
ATOM      9  C   UNL A   1      30.926  23.375  26.164  1.00  0.00     0.230 C 
BRANCH   9  10
ATOM     10  N   UNL A   1      31.943  22.692  25.383  1.00  0.00    -0.252 N 
ATOM     11  C   UNL A   1      31.896  22.492  24.041  1.00  0.00     0.325 C 
ATOM     12  C   UNL A   1      32.813  21.790  25.949  1.00  0.00     0.262 C 
ATOM     13  O   UNL A   1      31.114  22.979  23.244  1.00  0.00    -0.248 OA
ATOM     14  N   UNL A   1      32.891  21.624  23.679  1.00  0.00    -0.318 N 
ATOM     15  C   UNL A   1      33.505  20.967  24.811  1.00  0.00     0.158 C 
ATOM     16  O   UNL A   1      32.956  21.601  27.151  1.00  0.00    -0.271 OA
ATOM     17  H   UNL A   1      33.160  21.465  22.746  1.00  0.00     0.166 HD
BRANCH  15  18
ATOM     18  C   UNL A   1      32.927  19.554  24.818  1.00  0.00     0.030 C 
ATOM     19  C   UNL A   1      32.792  18.713  23.567  1.00  0.00     0.007 C 
ATOM     20  C   UNL A   1      33.682  18.252  24.695  1.00  0.00     0.007 C 
ENDBRANCH  15  18
BRANCH  15  21
ATOM     21  C   UNL A   1      34.984  21.332  24.799  1.00  0.00     0.040 A 
ATOM     22  C   UNL A   1      36.063  20.454  24.894  1.00  0.00     0.018 A 
ATOM     23  S   UNL A   1      35.573  22.943  24.718  1.00  0.00    -0.146 S 
ATOM     24  C   UNL A   1      37.332  21.098  24.840  1.00  0.00     0.012 A 
ATOM     25  C   UNL A   1      37.205  22.460  24.727  1.00  0.00     0.065 A 
ENDBRANCH  15  21
ENDBRANCH   9  10
ENDBRANCH   7   9
ENDBRANCH   4   5
ENDBRANCH   3   4
ENDBRANCH   2   3
ENDBRANCH   1   2
BRANCH   1  26
ATOM     26  C   UNL A   1      32.502  28.804  25.699  1.00  0.00     0.021 C 
BRANCH  26  27
ATOM     27  C   UNL A   1      32.655  29.404  27.094  1.00  0.00     0.116 C 
BRANCH  27  28
ATOM     28  N   UNL A   1      32.740  30.855  27.071  1.00  0.00    -0.352 N 
ATOM     29  C   UNL A   1      33.718  31.689  27.556  1.00  0.00     0.251 C 
ATOM     30  H   UNL A   1      31.980  31.310  26.643  1.00  0.00     0.163 HD
ATOM     31  O   UNL A   1      33.510  32.900  27.587  1.00  0.00    -0.269 OA
BRANCH  29  32
ATOM     32  C   UNL A   1      34.999  31.142  28.064  1.00  0.00     0.039 A 
ATOM     33  C   UNL A   1      36.129  31.964  28.051  1.00  0.00     0.014 A 
ATOM     34  C   UNL A   1      35.101  29.829  28.533  1.00  0.00     0.014 A 
ATOM     35  C   UNL A   1      37.340  31.491  28.563  1.00  0.00     0.010 A 
ATOM     36  C   UNL A   1      36.290  29.384  29.112  1.00  0.00     0.010 A 
ATOM     37  C   UNL A   1      37.424  30.210  29.135  1.00  0.00    -0.014 A 
BRANCH  37  38
ATOM     38  C   UNL A   1      38.684  29.748  29.778  1.00  0.00     0.031 A 
ATOM     39  C   UNL A   1      39.093  30.261  31.133  1.00  0.00     0.074 A 
ATOM     40  C   UNL A   1      39.481  28.885  29.117  1.00  0.00     0.049 A 
ATOM     41  N   UNL A   1      40.144  29.955  31.852  1.00  0.00    -0.248 NA
ATOM     42  C   UNL A   1      38.221  31.272  31.747  1.00  0.00     0.031 C 
ATOM     43  C   UNL A   1      39.221  28.356  27.776  1.00  0.00     0.029 A 
ATOM     44  N   UNL A   1      40.665  28.293  29.481  1.00  0.00    -0.354 N 
ATOM     45  C   UNL A   1      40.065  30.740  32.997  1.00  0.00     0.074 A 
ATOM     46  C   UNL A   1      38.897  31.581  32.844  1.00  0.00     0.031 C 
ATOM     47  C   UNL A   1      40.188  27.483  27.453  1.00  0.00     0.029 A 
ATOM     48  C   UNL A   1      41.160  27.421  28.539  1.00  0.00     0.049 A 
ATOM     49  H   UNL A   1      41.118  28.477  30.336  1.00  0.00     0.167 HD
ATOM     50  C   UNL A   1      40.879  30.744  34.084  1.00  0.00     0.034 A 
ATOM     51  C   UNL A   1      42.269  26.656  28.548  1.00  0.00     0.034 A 
ATOM     52  C   UNL A   1      42.041  29.894  34.220  1.00  0.00     0.049 A 
ATOM     53  C   UNL A   1      43.167  26.692  29.757  1.00  0.00     0.074 A 
ATOM     54  C   UNL A   1      42.892  29.763  35.305  1.00  0.00     0.029 A 
ATOM     55  N   UNL A   1      42.529  29.044  33.234  1.00  0.00    -0.354 N 
ATOM     56  N   UNL A   1      43.036  27.382  30.866  1.00  0.00    -0.248 NA
ATOM     57  C   UNL A   1      44.357  25.834  29.715  1.00  0.00     0.031 C 
ATOM     58  C   UNL A   1      43.935  28.902  34.947  1.00  0.00     0.029 A 
ATOM     59  C   UNL A   1      43.692  28.422  33.670  1.00  0.00     0.049 A 
ATOM     60  H   UNL A   1      42.111  28.903  32.355  1.00  0.00     0.167 HD
ATOM     61  C   UNL A   1      44.117  27.018  31.667  1.00  0.00     0.074 A 
ATOM     62  C   UNL A   1      44.868  26.030  30.920  1.00  0.00     0.031 C 
ATOM     63  C   UNL A   1      44.456  27.461  32.906  1.00  0.00     0.034 A 
BRANCH  50  64
ATOM     64  C   UNL A   1      40.558  31.725  35.190  1.00  0.00     0.023 A 
ATOM     65  C   UNL A   1      39.534  31.485  36.124  1.00  0.00     0.031 A 
ATOM     66  C   UNL A   1      41.265  32.938  35.294  1.00  0.00     0.131 A 
ATOM     67  C   UNL A   1      39.186  32.474  37.056  1.00  0.00     0.055 A 
ATOM     68  C   UNL A   1      40.973  33.880  36.283  1.00  0.00     0.041 A 
ATOM     69  F   UNL A   1      42.241  33.237  34.422  1.00  0.00    -0.206 F 
ATOM     70  C   UNL A   1      39.917  33.660  37.161  1.00  0.00     0.022 A 
BRANCH  67  71
ATOM     71  S   UNL A   1      37.662  32.260  38.018  1.00  0.00     0.124 S 
ATOM     72  O   UNL A   1      38.088  32.691  39.347  1.00  0.00    -0.237 OA
ATOM     73  O   UNL A   1      36.727  33.142  37.328  1.00  0.00    -0.237 OA
ATOM     74  O   UNL A   1      37.379  30.832  37.897  1.00  0.00    -0.744 OA
ENDBRANCH  67  71
ENDBRANCH  50  64
BRANCH  51  75
ATOM     75  C   UNL A   1      42.592  25.779  27.386  1.00  0.00     0.023 A 
ATOM     76  C   UNL A   1      42.133  24.453  27.334  1.00  0.00     0.031 A 
ATOM     77  C   UNL A   1      43.394  26.241  26.328  1.00  0.00     0.131 A 
ATOM     78  C   UNL A   1      42.514  23.621  26.271  1.00  0.00     0.055 A 
ATOM     79  C   UNL A   1      43.727  25.425  25.244  1.00  0.00     0.041 A 
ATOM     80  F   UNL A   1      43.855  27.502  26.325  1.00  0.00    -0.206 F 
ATOM     81  C   UNL A   1      43.296  24.102  25.219  1.00  0.00     0.022 A 
BRANCH  78  82
ATOM     82  S   UNL A   1      42.035  21.872  26.322  1.00  0.00     0.124 S 
ATOM     83  O   UNL A   1      42.411  21.500  27.681  1.00  0.00    -0.237 OA
ATOM     84  O   UNL A   1      40.604  21.942  26.047  1.00  0.00    -0.237 OA
ATOM     85  O   UNL A   1      42.841  21.268  25.263  1.00  0.00    -0.744 OA
ENDBRANCH  78  82
ENDBRANCH  51  75
BRANCH  63  86
ATOM     86  C   UNL A   1      45.688  26.847  33.531  1.00  0.00     0.023 A 
ATOM     87  C   UNL A   1      45.626  25.650  34.268  1.00  0.00     0.031 A 
ATOM     88  C   UNL A   1      46.934  27.495  33.436  1.00  0.00     0.131 A 
ATOM     89  C   UNL A   1      46.761  25.186  34.950  1.00  0.00     0.055 A 
ATOM     90  C   UNL A   1      48.078  26.985  34.052  1.00  0.00     0.041 A 
ATOM     91  F   UNL A   1      47.057  28.643  32.750  1.00  0.00    -0.206 F 
ATOM     92  C   UNL A   1      47.991  25.835  34.831  1.00  0.00     0.022 A 
BRANCH  89  93
ATOM     93  S   UNL A   1      46.573  23.801  36.106  1.00  0.00     0.124 S 
ATOM     94  O   UNL A   1      47.566  24.121  37.126  1.00  0.00    -0.237 OA
ATOM     95  O   UNL A   1      45.177  23.922  36.515  1.00  0.00    -0.237 OA
ATOM     96  O   UNL A   1      46.879  22.628  35.289  1.00  0.00    -0.744 OA
ENDBRANCH  89  93
ENDBRANCH  63  86
ENDBRANCH  37  38
ENDBRANCH  29  32
ENDBRANCH  27  28
ENDBRANCH  26  27
ENDBRANCH   1  26
TORSDOF 19
ENDMDL
MODEL 2
REMARK VINA RESULT:     -11.3      4.352      9.479
REMARK SMILES O=C(CN1C(=O)N[C@](c2cccs2)(C2CC2)C1=O)NCCCCCCNC(=O)c1ccc(-c2c3nc(c(-c4cc(S(=O)(=O)[O-])ccc4F)c4ccc([nH]4)c(-c4cc(S(=O)(=O)[O-])ccc4F)c4nc(c(-c5cc(S(=O)(=O)[O-])ccc5F)c5ccc2[nH]5)C=C4)C=C3)cc1
REMARK SMILES IDX 23 1 22 2 21 3 20 4 19 5 1 6 2 7 3 9 4 10 5 11 17 12 6 13
REMARK SMILES IDX 7 14 8 15 18 16 14 18 15 19 16 20 9 21 10 22 13 23 11 24
REMARK SMILES IDX 12 25 24 26 25 27 26 28 27 29 28 31 29 32 30 33 91 34 31 35
REMARK SMILES IDX 90 36 32 37 33 38 34 39 84 40 35 41 89 42 83 43 85 44 36 45
REMARK SMILES IDX 88 46 82 47 81 48 37 50 69 51 49 52 68 53 50 54 53 55 67 56
REMARK SMILES IDX 86 57 51 58 52 59 66 61 87 62 54 63 38 64 39 65 47 66 40 67
REMARK SMILES IDX 46 68 48 69 45 70 41 71 42 72 43 73 44 74 70 75 71 76 79 77
REMARK SMILES IDX 72 78 78 79 80 80 77 81 73 82 74 83 75 84 76 85 55 86 56 87
REMARK SMILES IDX 64 88 57 89 63 90 65 91 62 92 58 93 59 94 60 95 61 96
REMARK H PARENT 19 8 7 17 26 30 85 49 53 60
REMARK Flexibility Score: inf
ROOT
ATOM      1  C   UNL A   1      35.832  22.350  24.163  1.00  0.00     0.002 C 
ENDROOT
BRANCH   1   2
ATOM      2  C   UNL A   1      34.608  22.213  25.073  1.00  0.00     0.002 C 
BRANCH   2   3
ATOM      3  C   UNL A   1      33.719  20.992  24.808  1.00  0.00     0.021 C 
BRANCH   3   4
ATOM      4  C   UNL A   1      32.618  20.768  25.841  1.00  0.00     0.116 C 
BRANCH   4   5
ATOM      5  N   UNL A   1      31.522  21.708  25.708  1.00  0.00    -0.355 N 
ATOM      6  O   UNL A   1      31.986  22.867  27.624  1.00  0.00    -0.273 OA
ATOM      7  C   UNL A   1      31.373  22.776  26.560  1.00  0.00     0.240 C 
ATOM      8  H   UNL A   1      30.865  21.576  24.987  1.00  0.00     0.163 HD
BRANCH   7   9
ATOM      9  C   UNL A   1      30.279  23.789  26.213  1.00  0.00     0.230 C 
BRANCH   9  10
ATOM     10  N   UNL A   1      30.546  24.790  25.194  1.00  0.00    -0.252 N 
ATOM     11  C   UNL A   1      30.862  24.526  23.900  1.00  0.00     0.325 C 
ATOM     12  C   UNL A   1      30.955  26.064  25.513  1.00  0.00     0.262 C 
ATOM     13  O   UNL A   1      30.812  23.451  23.329  1.00  0.00    -0.248 OA
ATOM     14  N   UNL A   1      31.268  25.682  23.290  1.00  0.00    -0.318 N 
ATOM     15  C   UNL A   1      31.512  26.757  24.225  1.00  0.00     0.158 C 
ATOM     16  O   UNL A   1      30.963  26.545  26.640  1.00  0.00    -0.271 OA
ATOM     17  H   UNL A   1      31.382  25.770  22.317  1.00  0.00     0.166 HD
BRANCH  15  18
ATOM     18  C   UNL A   1      33.031  26.848  24.345  1.00  0.00     0.030 C 
ATOM     19  C   UNL A   1      33.726  27.616  25.449  1.00  0.00     0.007 C 
ATOM     20  C   UNL A   1      33.920  26.125  25.329  1.00  0.00     0.007 C 
ENDBRANCH  15  18
BRANCH  15  21
ATOM     21  C   UNL A   1      30.571  27.897  23.859  1.00  0.00     0.040 A 
ATOM     22  C   UNL A   1      29.347  27.794  23.198  1.00  0.00     0.018 A 
ATOM     23  S   UNL A   1      30.907  29.553  24.167  1.00  0.00    -0.146 S 
ATOM     24  C   UNL A   1      28.691  29.043  23.011  1.00  0.00     0.012 A 
ATOM     25  C   UNL A   1      29.429  30.086  23.510  1.00  0.00     0.065 A 
ENDBRANCH  15  21
ENDBRANCH   9  10
ENDBRANCH   7   9
ENDBRANCH   4   5
ENDBRANCH   3   4
ENDBRANCH   2   3
ENDBRANCH   1   2
BRANCH   1  26
ATOM     26  C   UNL A   1      36.876  23.378  24.609  1.00  0.00     0.021 C 
BRANCH  26  27
ATOM     27  C   UNL A   1      37.414  23.194  26.025  1.00  0.00     0.116 C 
BRANCH  27  28
ATOM     28  N   UNL A   1      38.482  22.211  26.093  1.00  0.00    -0.352 N 
ATOM     29  C   UNL A   1      39.815  22.375  26.382  1.00  0.00     0.251 C 
ATOM     30  H   UNL A   1      38.209  21.286  25.902  1.00  0.00     0.163 HD
ATOM     31  O   UNL A   1      40.584  21.431  26.215  1.00  0.00    -0.269 OA
BRANCH  29  32
ATOM     32  C   UNL A   1      40.333  23.679  26.862  1.00  0.00     0.039 A 
ATOM     33  C   UNL A   1      40.320  24.767  25.985  1.00  0.00     0.014 A 
ATOM     34  C   UNL A   1      40.847  23.833  28.153  1.00  0.00     0.014 A 
ATOM     35  C   UNL A   1      40.761  26.019  26.422  1.00  0.00     0.010 A 
ATOM     36  C   UNL A   1      41.217  25.099  28.611  1.00  0.00     0.010 A 
ATOM     37  C   UNL A   1      41.178  26.207  27.751  1.00  0.00    -0.014 A 
BRANCH  37  38
ATOM     38  C   UNL A   1      41.544  27.562  28.246  1.00  0.00     0.031 A 
ATOM     39  C   UNL A   1      42.978  28.019  28.256  1.00  0.00     0.074 A 
ATOM     40  C   UNL A   1      40.577  28.372  28.721  1.00  0.00     0.049 A 
ATOM     41  N   UNL A   1      43.478  29.170  28.632  1.00  0.00    -0.248 NA
ATOM     42  C   UNL A   1      43.985  27.045  27.813  1.00  0.00     0.031 C 
ATOM     43  C   UNL A   1      39.157  28.023  28.813  1.00  0.00     0.029 A 
ATOM     44  N   UNL A   1      40.635  29.654  29.209  1.00  0.00    -0.354 N 
ATOM     45  C   UNL A   1      44.856  29.056  28.480  1.00  0.00     0.074 A 
ATOM     46  C   UNL A   1      45.113  27.702  28.038  1.00  0.00     0.031 C 
ATOM     47  C   UNL A   1      38.474  29.081  29.278  1.00  0.00     0.029 A 
ATOM     48  C   UNL A   1      39.407  30.167  29.560  1.00  0.00     0.049 A 
ATOM     49  H   UNL A   1      41.475  30.157  29.300  1.00  0.00     0.167 HD
ATOM     50  C   UNL A   1      45.814  29.999  28.670  1.00  0.00     0.034 A 
ATOM     51  C   UNL A   1      39.069  31.375  30.051  1.00  0.00     0.034 A 
ATOM     52  C   UNL A   1      45.537  31.348  29.110  1.00  0.00     0.049 A 
ATOM     53  C   UNL A   1      40.153  32.398  30.273  1.00  0.00     0.074 A 
ATOM     54  C   UNL A   1      46.420  32.404  29.265  1.00  0.00     0.029 A 
ATOM     55  N   UNL A   1      44.285  31.826  29.484  1.00  0.00    -0.354 N 
ATOM     56  N   UNL A   1      41.442  32.302  30.049  1.00  0.00    -0.248 NA
ATOM     57  C   UNL A   1      39.727  33.699  30.803  1.00  0.00     0.031 C 
ATOM     58  C   UNL A   1      45.720  33.488  29.809  1.00  0.00     0.029 A 
ATOM     59  C   UNL A   1      44.383  33.143  29.912  1.00  0.00     0.049 A 
ATOM     60  H   UNL A   1      43.451  31.304  29.451  1.00  0.00     0.167 HD
ATOM     61  C   UNL A   1      41.979  33.542  30.387  1.00  0.00     0.074 A 
ATOM     62  C   UNL A   1      40.866  34.372  30.802  1.00  0.00     0.031 C 
ATOM     63  C   UNL A   1      43.273  33.956  30.357  1.00  0.00     0.034 A 
BRANCH  50  64
ATOM     64  C   UNL A   1      47.251  29.587  28.440  1.00  0.00     0.023 A 
ATOM     65  C   UNL A   1      48.047  29.052  29.469  1.00  0.00     0.031 A 
ATOM     66  C   UNL A   1      47.849  29.764  27.178  1.00  0.00     0.131 A 
ATOM     67  C   UNL A   1      49.409  28.799  29.247  1.00  0.00     0.055 A 
ATOM     68  C   UNL A   1      49.183  29.424  26.939  1.00  0.00     0.041 A 
ATOM     69  F   UNL A   1      47.152  30.288  26.158  1.00  0.00    -0.206 F 
ATOM     70  C   UNL A   1      49.977  28.955  27.981  1.00  0.00     0.022 A 
BRANCH  67  71
ATOM     71  S   UNL A   1      50.464  28.422  30.674  1.00  0.00     0.124 S 
ATOM     72  O   UNL A   1      49.998  27.087  31.042  1.00  0.00    -0.237 OA
ATOM     73  O   UNL A   1      51.804  28.497  30.105  1.00  0.00    -0.237 OA
ATOM     74  O   UNL A   1      50.132  29.474  31.633  1.00  0.00    -0.744 OA
ENDBRANCH  67  71
ENDBRANCH  50  64
BRANCH  51  75
ATOM     75  C   UNL A   1      37.645  31.696  30.356  1.00  0.00     0.023 A 
ATOM     76  C   UNL A   1      36.769  32.118  29.344  1.00  0.00     0.031 A 
ATOM     77  C   UNL A   1      37.149  31.622  31.670  1.00  0.00     0.131 A 
ATOM     78  C   UNL A   1      35.455  32.491  29.666  1.00  0.00     0.055 A 
ATOM     79  C   UNL A   1      35.825  31.942  31.977  1.00  0.00     0.041 A 
ATOM     80  F   UNL A   1      37.943  31.220  32.675  1.00  0.00    -0.206 F 
ATOM     81  C   UNL A   1      34.973  32.392  30.973  1.00  0.00     0.022 A 
BRANCH  78  82
ATOM     82  S   UNL A   1      34.404  33.182  28.359  1.00  0.00     0.124 S 
ATOM     83  O   UNL A   1      33.569  34.113  29.111  1.00  0.00    -0.237 OA
ATOM     84  O   UNL A   1      35.387  33.781  27.464  1.00  0.00    -0.237 OA
ATOM     85  O   UNL A   1      33.711  32.011  27.826  1.00  0.00    -0.744 OA
ENDBRANCH  78  82
ENDBRANCH  51  75
BRANCH  63  86
ATOM     86  C   UNL A   1      43.535  35.388  30.765  1.00  0.00     0.023 A 
ATOM     87  C   UNL A   1      43.580  35.775  32.117  1.00  0.00     0.031 A 
ATOM     88  C   UNL A   1      43.688  36.391  29.791  1.00  0.00     0.131 A 
ATOM     89  C   UNL A   1      43.685  37.132  32.456  1.00  0.00     0.055 A 
ATOM     90  C   UNL A   1      43.872  37.731  30.135  1.00  0.00     0.041 A 
ATOM     91  F   UNL A   1      43.650  36.086  28.483  1.00  0.00    -0.206 F 
ATOM     92  C   UNL A   1      43.850  38.111  31.474  1.00  0.00     0.022 A 
BRANCH  89  93
ATOM     93  S   UNL A   1      43.462  37.614  34.190  1.00  0.00     0.124 S 
ATOM     94  O   UNL A   1      44.838  37.639  34.677  1.00  0.00    -0.237 OA
ATOM     95  O   UNL A   1      42.804  38.911  34.073  1.00  0.00    -0.237 OA
ATOM     96  O   UNL A   1      42.630  36.544  34.739  1.00  0.00    -0.744 OA
ENDBRANCH  89  93
ENDBRANCH  63  86
ENDBRANCH  37  38
ENDBRANCH  29  32
ENDBRANCH  27  28
ENDBRANCH  26  27
ENDBRANCH   1  26
TORSDOF 19
ENDMDL
MODEL 3
REMARK VINA RESULT:     -11.2      4.716      9.829
REMARK SMILES O=C(CN1C(=O)N[C@](c2cccs2)(C2CC2)C1=O)NCCCCCCNC(=O)c1ccc(-c2c3nc(c(-c4cc(S(=O)(=O)[O-])ccc4F)c4ccc([nH]4)c(-c4cc(S(=O)(=O)[O-])ccc4F)c4nc(c(-c5cc(S(=O)(=O)[O-])ccc5F)c5ccc2[nH]5)C=C4)C=C3)cc1
REMARK SMILES IDX 23 1 22 2 21 3 20 4 19 5 1 6 2 7 3 9 4 10 5 11 17 12 6 13
REMARK SMILES IDX 7 14 8 15 18 16 14 18 15 19 16 20 9 21 10 22 13 23 11 24
REMARK SMILES IDX 12 25 24 26 25 27 26 28 27 29 28 31 29 32 30 33 91 34 31 35
REMARK SMILES IDX 90 36 32 37 33 38 34 39 84 40 35 41 89 42 83 43 85 44 36 45
REMARK SMILES IDX 88 46 82 47 81 48 37 50 69 51 49 52 68 53 50 54 53 55 67 56
REMARK SMILES IDX 86 57 51 58 52 59 66 61 87 62 54 63 38 64 39 65 47 66 40 67
REMARK SMILES IDX 46 68 48 69 45 70 41 71 42 72 43 73 44 74 70 75 71 76 79 77
REMARK SMILES IDX 72 78 78 79 80 80 77 81 73 82 74 83 75 84 76 85 55 86 56 87
REMARK SMILES IDX 64 88 57 89 63 90 65 91 62 92 58 93 59 94 60 95 61 96
REMARK H PARENT 19 8 7 17 26 30 85 49 53 60
REMARK Flexibility Score: inf
ROOT
ATOM      1  C   UNL A   1      36.194  22.933  23.419  1.00  0.00     0.002 C 
ENDROOT
BRANCH   1   2
ATOM      2  C   UNL A   1      34.727  23.240  23.107  1.00  0.00     0.002 C 
BRANCH   2   3
ATOM      3  C   UNL A   1      33.762  22.055  23.228  1.00  0.00     0.021 C 
BRANCH   3   4
ATOM      4  C   UNL A   1      32.290  22.440  23.348  1.00  0.00     0.116 C 
BRANCH   4   5
ATOM      5  N   UNL A   1      32.031  23.333  24.461  1.00  0.00    -0.355 N 
ATOM      6  O   UNL A   1      32.080  21.708  26.070  1.00  0.00    -0.273 OA
ATOM      7  C   UNL A   1      32.075  22.902  25.766  1.00  0.00     0.240 C 
ATOM      8  H   UNL A   1      31.817  24.275  24.276  1.00  0.00     0.163 HD
BRANCH   7   9
ATOM      9  C   UNL A   1      31.953  23.973  26.852  1.00  0.00     0.230 C 
BRANCH   9  10
ATOM     10  N   UNL A   1      31.809  25.363  26.455  1.00  0.00    -0.252 N 
ATOM     11  C   UNL A   1      30.634  25.974  26.154  1.00  0.00     0.325 C 
ATOM     12  C   UNL A   1      32.848  26.075  25.904  1.00  0.00     0.262 C 
ATOM     13  O   UNL A   1      29.508  25.540  26.322  1.00  0.00    -0.248 OA
ATOM     14  N   UNL A   1      30.891  27.201  25.606  1.00  0.00    -0.318 N 
ATOM     15  C   UNL A   1      32.281  27.380  25.251  1.00  0.00     0.158 C 
ATOM     16  O   UNL A   1      34.015  25.705  25.855  1.00  0.00    -0.271 OA
ATOM     17  H   UNL A   1      30.202  27.890  25.469  1.00  0.00     0.166 HD
BRANCH  15  18
ATOM     18  C   UNL A   1      32.332  27.221  23.734  1.00  0.00     0.030 C 
ATOM     19  C   UNL A   1      32.459  28.394  22.785  1.00  0.00     0.007 C 
ATOM     20  C   UNL A   1      33.540  27.343  22.837  1.00  0.00     0.007 C 
ENDBRANCH  15  18
BRANCH  15  21
ATOM     21  C   UNL A   1      32.803  28.570  26.046  1.00  0.00     0.040 A 
ATOM     22  C   UNL A   1      32.086  29.707  26.417  1.00  0.00     0.018 A 
ATOM     23  S   UNL A   1      34.426  28.726  26.584  1.00  0.00    -0.146 S 
ATOM     24  C   UNL A   1      32.849  30.643  27.172  1.00  0.00     0.012 A 
ATOM     25  C   UNL A   1      34.142  30.220  27.349  1.00  0.00     0.065 A 
ENDBRANCH  15  21
ENDBRANCH   9  10
ENDBRANCH   7   9
ENDBRANCH   4   5
ENDBRANCH   3   4
ENDBRANCH   2   3
ENDBRANCH   1   2
BRANCH   1  26
ATOM     26  C   UNL A   1      36.795  23.703  24.598  1.00  0.00     0.021 C 
BRANCH  26  27
ATOM     27  C   UNL A   1      36.824  22.949  25.926  1.00  0.00     0.116 C 
BRANCH  27  28
ATOM     28  N   UNL A   1      38.018  22.134  26.078  1.00  0.00    -0.352 N 
ATOM     29  C   UNL A   1      39.301  22.501  26.408  1.00  0.00     0.251 C 
ATOM     30  H   UNL A   1      37.888  21.171  25.921  1.00  0.00     0.163 HD
ATOM     31  O   UNL A   1      40.203  21.672  26.313  1.00  0.00    -0.269 OA
BRANCH  29  32
ATOM     32  C   UNL A   1      39.606  23.884  26.844  1.00  0.00     0.039 A 
ATOM     33  C   UNL A   1      39.488  24.199  28.201  1.00  0.00     0.014 A 
ATOM     34  C   UNL A   1      39.985  24.874  25.933  1.00  0.00     0.014 A 
ATOM     35  C   UNL A   1      39.811  25.483  28.649  1.00  0.00     0.010 A 
ATOM     36  C   UNL A   1      40.379  26.132  26.391  1.00  0.00     0.010 A 
ATOM     37  C   UNL A   1      40.296  26.452  27.755  1.00  0.00    -0.014 A 
BRANCH  37  38
ATOM     38  C   UNL A   1      40.742  27.783  28.248  1.00  0.00     0.031 A 
ATOM     39  C   UNL A   1      42.204  28.135  28.304  1.00  0.00     0.074 A 
ATOM     40  C   UNL A   1      39.820  28.666  28.681  1.00  0.00     0.049 A 
ATOM     41  N   UNL A   1      42.773  29.252  28.687  1.00  0.00    -0.248 NA
ATOM     42  C   UNL A   1      43.152  27.086  27.907  1.00  0.00     0.031 C 
ATOM     43  C   UNL A   1      38.376  28.422  28.726  1.00  0.00     0.029 A 
ATOM     44  N   UNL A   1      39.954  29.947  29.157  1.00  0.00    -0.354 N 
ATOM     45  C   UNL A   1      44.143  29.037  28.584  1.00  0.00     0.074 A 
ATOM     46  C   UNL A   1      44.317  27.662  28.165  1.00  0.00     0.031 C 
ATOM     47  C   UNL A   1      37.757  29.532  29.155  1.00  0.00     0.029 A 
ATOM     48  C   UNL A   1      38.755  30.551  29.460  1.00  0.00     0.049 A 
ATOM     49  H   UNL A   1      40.825  30.390  29.273  1.00  0.00     0.167 HD
ATOM     50  C   UNL A   1      45.160  29.911  28.799  1.00  0.00     0.034 A 
ATOM     51  C   UNL A   1      38.489  31.787  29.926  1.00  0.00     0.034 A 
ATOM     52  C   UNL A   1      44.966  31.282  29.214  1.00  0.00     0.049 A 
ATOM     53  C   UNL A   1      39.635  32.732  30.176  1.00  0.00     0.074 A 
ATOM     54  C   UNL A   1      45.917  32.274  29.390  1.00  0.00     0.029 A 
ATOM     55  N   UNL A   1      43.741  31.853  29.540  1.00  0.00    -0.354 N 
ATOM     56  N   UNL A   1      40.922  32.540  29.998  1.00  0.00    -0.248 NA
ATOM     57  C   UNL A   1      39.287  34.067  30.677  1.00  0.00     0.031 C 
ATOM     58  C   UNL A   1      45.280  33.412  29.898  1.00  0.00     0.029 A 
ATOM     59  C   UNL A   1      43.918  33.166  29.957  1.00  0.00     0.049 A 
ATOM     60  H   UNL A   1      42.873  31.393  29.482  1.00  0.00     0.167 HD
ATOM     61  C   UNL A   1      41.535  33.743  30.343  1.00  0.00     0.074 A 
ATOM     62  C   UNL A   1      40.472  34.656  30.709  1.00  0.00     0.031 C 
ATOM     63  C   UNL A   1      42.856  34.062  30.354  1.00  0.00     0.034 A 
BRANCH  50  64
ATOM     64  C   UNL A   1      46.571  29.394  28.623  1.00  0.00     0.023 A 
ATOM     65  C   UNL A   1      47.113  29.128  27.352  1.00  0.00     0.031 A 
ATOM     66  C   UNL A   1      47.378  29.129  29.745  1.00  0.00     0.131 A 
ATOM     67  C   UNL A   1      48.379  28.533  27.238  1.00  0.00     0.055 A 
ATOM     68  C   UNL A   1      48.672  28.621  29.620  1.00  0.00     0.041 A 
ATOM     69  F   UNL A   1      46.913  29.342  30.986  1.00  0.00    -0.206 F 
ATOM     70  C   UNL A   1      49.174  28.303  28.363  1.00  0.00     0.022 A 
BRANCH  67  71
ATOM     71  S   UNL A   1      48.901  27.912  25.615  1.00  0.00     0.124 S 
ATOM     72  O   UNL A   1      50.145  28.648  25.403  1.00  0.00    -0.237 OA
ATOM     73  O   UNL A   1      49.038  26.480  25.854  1.00  0.00    -0.237 OA
ATOM     74  O   UNL A   1      47.802  28.296  24.732  1.00  0.00    -0.744 OA
ENDBRANCH  67  71
ENDBRANCH  50  64
BRANCH  51  75
ATOM     75  C   UNL A   1      37.083  32.214  30.178  1.00  0.00     0.023 A 
ATOM     76  C   UNL A   1      36.361  32.925  29.206  1.00  0.00     0.031 A 
ATOM     77  C   UNL A   1      36.451  31.948  31.406  1.00  0.00     0.131 A 
ATOM     78  C   UNL A   1      35.067  33.387  29.493  1.00  0.00     0.055 A 
ATOM     79  C   UNL A   1      35.143  32.362  31.667  1.00  0.00     0.041 A 
ATOM     80  F   UNL A   1      37.094  31.267  32.367  1.00  0.00    -0.206 F 
ATOM     81  C   UNL A   1      34.448  33.097  30.711  1.00  0.00     0.022 A 
BRANCH  78  82
ATOM     82  S   UNL A   1      34.230  34.439  28.276  1.00  0.00     0.124 S 
ATOM     83  O   UNL A   1      33.012  33.680  28.015  1.00  0.00    -0.237 OA
ATOM     84  O   UNL A   1      34.064  35.686  29.016  1.00  0.00    -0.237 OA
ATOM     85  O   UNL A   1      35.180  34.497  27.167  1.00  0.00    -0.744 OA
ENDBRANCH  78  82
ENDBRANCH  51  75
BRANCH  63  86
ATOM     86  C   UNL A   1      43.207  35.476  30.757  1.00  0.00     0.023 A 
ATOM     87  C   UNL A   1      43.310  36.511  29.809  1.00  0.00     0.031 A 
ATOM     88  C   UNL A   1      43.497  35.785  32.098  1.00  0.00     0.131 A 
ATOM     89  C   UNL A   1      43.774  37.777  30.199  1.00  0.00     0.055 A 
ATOM     90  C   UNL A   1      43.882  37.066  32.493  1.00  0.00     0.041 A 
ATOM     91  F   UNL A   1      43.421  34.839  33.049  1.00  0.00    -0.206 F 
ATOM     92  C   UNL A   1      44.043  38.067  31.538  1.00  0.00     0.022 A 
BRANCH  89  93
ATOM     93  S   UNL A   1      44.155  38.996  28.911  1.00  0.00     0.124 S 
ATOM     94  O   UNL A   1      42.831  39.299  28.380  1.00  0.00    -0.237 OA
ATOM     95  O   UNL A   1      44.797  40.064  29.672  1.00  0.00    -0.237 OA
ATOM     96  O   UNL A   1      45.038  38.268  28.000  1.00  0.00    -0.744 OA
ENDBRANCH  89  93
ENDBRANCH  63  86
ENDBRANCH  37  38
ENDBRANCH  29  32
ENDBRANCH  27  28
ENDBRANCH  26  27
ENDBRANCH   1  26
TORSDOF 19
ENDMDL
