MODEL 1
REMARK VINA RESULT:     -12.8      0.000      0.000
REMARK SMILES CC(C)c1ccc2c(c1)C(=O)C[C@H]1[C@](C)(C(=O)NCCCCCCNC(=O)c3ccc(-c4c5nc(c(-c6cc(S(=O)(=O)[O-])ccc6F)c6ccc([nH]6)c(-c6cc(S(=O)(=O)[O-])ccc6F)c6nc(c(-c7cc(S(=O)(=O)[O-])ccc7F)c7ccc4[nH]7)C=C6)C=C5)cc3)CCC[C@@]21C
REMARK SMILES IDX 22 1 21 2 20 3 19 4 18 5 16 6 17 7 14 9 4 10 5 11 9 12 6 13
REMARK SMILES IDX 8 14 7 15 10 16 94 17 12 18 11 19 13 20 93 21 95 22 92 23
REMARK SMILES IDX 91 24 15 25 2 26 1 27 3 28 23 29 24 30 25 31 26 32 27 34
REMARK SMILES IDX 28 35 29 36 90 37 30 38 89 39 31 40 32 41 33 42 83 43 34 44
REMARK SMILES IDX 88 45 82 46 84 47 35 48 87 49 81 50 80 51 36 53 68 54 48 55
REMARK SMILES IDX 67 56 49 57 52 58 66 59 85 60 50 61 51 62 65 64 86 65 53 66
REMARK SMILES IDX 37 67 38 68 46 69 39 70 45 71 47 72 44 73 40 74 41 75 42 76
REMARK SMILES IDX 43 77 69 78 70 79 78 80 71 81 77 82 79 83 76 84 72 85 73 86
REMARK SMILES IDX 74 87 75 88 54 89 55 90 63 91 56 92 62 93 64 94 61 95 57 96
REMARK SMILES IDX 58 97 59 98 60 99
REMARK H PARENT 18 8 25 33 84 52 52 63
REMARK Flexibility Score: inf
ROOT
ATOM      1  C   UNL A   1      36.870  21.035  24.844  1.00  0.00     0.002 C 
ENDROOT
BRANCH   1   2
ATOM      2  C   UNL A   1      35.605  20.770  25.667  1.00  0.00     0.002 C 
BRANCH   2   3
ATOM      3  C   UNL A   1      34.400  20.223  24.892  1.00  0.00     0.021 C 
BRANCH   3   4
ATOM      4  C   UNL A   1      33.009  20.426  25.450  1.00  0.00     0.116 C 
BRANCH   4   5
ATOM      5  N   UNL A   1      32.124  21.298  24.693  1.00  0.00    -0.356 N 
ATOM      6  C   UNL A   1      32.381  22.327  23.836  1.00  0.00     0.226 C 
ATOM      7  O   UNL A   1      31.727  22.275  22.784  1.00  0.00    -0.274 OA
ATOM      8  H   UNL A   1      31.167  21.112  24.825  1.00  0.00     0.163 HD
BRANCH   6   9
ATOM      9  C   UNL A   1      33.279  23.577  24.153  1.00  0.00     0.050 C 
ATOM     10  C   UNL A   1      29.913  29.189  23.166  1.00  0.00    -0.045 A 
ATOM     11  C   UNL A   1      30.596  29.401  24.369  1.00  0.00     0.004 A 
ATOM     12  C   UNL A   1      30.352  28.146  22.357  1.00  0.00     0.016 A 
ATOM     13  C   UNL A   1      31.632  28.542  24.782  1.00  0.00     0.005 A 
ATOM     14  C   UNL A   1      31.381  27.286  22.772  1.00  0.00     0.022 A 
ATOM     15  C   UNL A   1      31.984  27.395  24.040  1.00  0.00    -0.031 A 
ATOM     16  C   UNL A   1      31.764  26.232  21.818  1.00  0.00     0.163 C 
ATOM     17  C   UNL A   1      32.693  26.176  24.718  1.00  0.00    -0.003 C 
ATOM     18  C   UNL A   1      32.742  25.224  22.306  1.00  0.00     0.086 C 
ATOM     19  O   UNL A   1      31.356  26.230  20.660  1.00  0.00    -0.294 OA
ATOM     20  C   UNL A   1      32.485  24.892  23.789  1.00  0.00     0.022 C 
ATOM     21  C   UNL A   1      34.206  26.229  24.999  1.00  0.00     0.012 C 
ATOM     22  C   UNL A   1      32.047  26.137  26.155  1.00  0.00     0.017 C 
ATOM     23  C   UNL A   1      34.665  24.968  25.800  1.00  0.00     0.002 C 
ATOM     24  C   UNL A   1      33.842  23.660  25.574  1.00  0.00     0.017 C 
ATOM     25  C   UNL A   1      34.564  23.359  23.265  1.00  0.00     0.022 C 
BRANCH  10  26
ATOM     26  C   UNL A   1      28.717  30.047  22.782  1.00  0.00     0.013 C 
ATOM     27  C   UNL A   1      27.377  29.314  22.928  1.00  0.00     0.012 C 
ATOM     28  C   UNL A   1      28.688  31.344  23.601  1.00  0.00     0.012 C 
ENDBRANCH  10  26
ENDBRANCH   6   9
ENDBRANCH   4   5
ENDBRANCH   3   4
ENDBRANCH   2   3
ENDBRANCH   1   2
BRANCH   1  29
ATOM     29  C   UNL A   1      37.967  19.977  24.960  1.00  0.00     0.021 C 
BRANCH  29  30
ATOM     30  C   UNL A   1      39.197  20.419  25.752  1.00  0.00     0.116 C 
BRANCH  30  31
ATOM     31  N   UNL A   1      40.166  19.350  25.922  1.00  0.00    -0.352 N 
ATOM     32  C   UNL A   1      41.526  19.439  26.146  1.00  0.00     0.251 C 
ATOM     33  H   UNL A   1      39.803  18.436  25.872  1.00  0.00     0.163 HD
ATOM     34  O   UNL A   1      42.229  18.448  26.083  1.00  0.00    -0.269 OA
BRANCH  32  35
ATOM     35  C   UNL A   1      42.115  20.771  26.421  1.00  0.00     0.039 A 
ATOM     36  C   UNL A   1      42.343  21.180  27.736  1.00  0.00     0.014 A 
ATOM     37  C   UNL A   1      42.386  21.634  25.359  1.00  0.00     0.014 A 
ATOM     38  C   UNL A   1      42.651  22.511  27.997  1.00  0.00     0.010 A 
ATOM     39  C   UNL A   1      42.797  22.946  25.622  1.00  0.00     0.010 A 
ATOM     40  C   UNL A   1      42.879  23.413  26.943  1.00  0.00    -0.014 A 
BRANCH  40  41
ATOM     41  C   UNL A   1      43.206  24.834  27.250  1.00  0.00     0.031 A 
ATOM     42  C   UNL A   1      42.185  25.749  27.873  1.00  0.00     0.074 A 
ATOM     43  C   UNL A   1      44.451  25.287  27.006  1.00  0.00     0.049 A 
ATOM     44  N   UNL A   1      42.305  27.008  28.211  1.00  0.00    -0.248 NA
ATOM     45  C   UNL A   1      40.853  25.184  28.150  1.00  0.00     0.031 C 
ATOM     46  C   UNL A   1      45.526  24.489  26.415  1.00  0.00     0.029 A 
ATOM     47  N   UNL A   1      45.034  26.508  27.239  1.00  0.00    -0.354 N 
ATOM     48  C   UNL A   1      41.071  27.389  28.726  1.00  0.00     0.074 A 
ATOM     49  C   UNL A   1      40.199  26.240  28.617  1.00  0.00     0.031 C 
ATOM     50  C   UNL A   1      46.648  25.219  26.382  1.00  0.00     0.029 A 
ATOM     51  C   UNL A   1      46.358  26.566  26.869  1.00  0.00     0.049 A 
ATOM     52  H   UNL A   1      44.550  27.270  27.633  1.00  0.00     0.167 HD
ATOM     53  C   UNL A   1      40.705  28.582  29.257  1.00  0.00     0.034 A 
ATOM     54  C   UNL A   1      47.241  27.585  26.895  1.00  0.00     0.034 A 
ATOM     55  C   UNL A   1      41.591  29.714  29.370  1.00  0.00     0.049 A 
ATOM     56  C   UNL A   1      46.799  28.914  27.449  1.00  0.00     0.074 A 
ATOM     57  C   UNL A   1      41.318  30.960  29.906  1.00  0.00     0.029 A 
ATOM     58  N   UNL A   1      42.914  29.744  28.950  1.00  0.00    -0.354 N 
ATOM     59  N   UNL A   1      45.637  29.246  27.960  1.00  0.00    -0.248 NA
ATOM     60  C   UNL A   1      47.782  30.006  27.436  1.00  0.00     0.031 C 
ATOM     61  C   UNL A   1      42.448  31.762  29.749  1.00  0.00     0.029 A 
ATOM     62  C   UNL A   1      43.459  30.995  29.192  1.00  0.00     0.049 A 
ATOM     63  H   UNL A   1      43.393  28.989  28.540  1.00  0.00     0.167 HD
ATOM     64  C   UNL A   1      45.753  30.579  28.344  1.00  0.00     0.074 A 
ATOM     65  C   UNL A   1      47.109  30.982  28.033  1.00  0.00     0.031 C 
ATOM     66  C   UNL A   1      44.817  31.392  28.894  1.00  0.00     0.034 A 
BRANCH  53  67
ATOM     67  C   UNL A   1      39.296  28.744  29.779  1.00  0.00     0.023 A 
ATOM     68  C   UNL A   1      38.310  29.349  28.976  1.00  0.00     0.031 A 
ATOM     69  C   UNL A   1      38.965  28.432  31.110  1.00  0.00     0.131 A 
ATOM     70  C   UNL A   1      37.056  29.656  29.520  1.00  0.00     0.055 A 
ATOM     71  C   UNL A   1      37.699  28.698  31.635  1.00  0.00     0.041 A 
ATOM     72  F   UNL A   1      39.868  27.857  31.920  1.00  0.00    -0.206 F 
ATOM     73  C   UNL A   1      36.743  29.326  30.843  1.00  0.00     0.022 A 
BRANCH  70  74
ATOM     74  S   UNL A   1      35.810  30.561  28.562  1.00  0.00     0.124 S 
ATOM     75  O   UNL A   1      36.638  31.268  27.587  1.00  0.00    -0.237 OA
ATOM     76  O   UNL A   1      34.995  29.477  28.020  1.00  0.00    -0.237 OA
ATOM     77  O   UNL A   1      35.155  31.410  29.552  1.00  0.00    -0.744 OA
ENDBRANCH  70  74
ENDBRANCH  53  67
BRANCH  54  78
ATOM     78  C   UNL A   1      48.633  27.344  26.413  1.00  0.00     0.023 A 
ATOM     79  C   UNL A   1      49.007  27.679  25.098  1.00  0.00     0.031 A 
ATOM     80  C   UNL A   1      49.563  26.653  27.207  1.00  0.00     0.131 A 
ATOM     81  C   UNL A   1      50.235  27.240  24.589  1.00  0.00     0.055 A 
ATOM     82  C   UNL A   1      50.820  26.291  26.722  1.00  0.00     0.041 A 
ATOM     83  F   UNL A   1      49.248  26.300  28.463  1.00  0.00    -0.206 F 
ATOM     84  C   UNL A   1      51.153  26.565  25.398  1.00  0.00     0.022 A 
BRANCH  81  85
ATOM     85  S   UNL A   1      50.612  27.388  22.819  1.00  0.00     0.124 S 
ATOM     86  O   UNL A   1      49.466  26.723  22.207  1.00  0.00    -0.237 OA
ATOM     87  O   UNL A   1      50.667  28.838  22.650  1.00  0.00    -0.237 OA
ATOM     88  O   UNL A   1      51.891  26.700  22.681  1.00  0.00    -0.744 OA
ENDBRANCH  81  85
ENDBRANCH  54  78
BRANCH  66  89
ATOM     89  C   UNL A   1      45.195  32.818  29.219  1.00  0.00     0.023 A 
ATOM     90  C   UNL A   1      44.990  33.834  28.265  1.00  0.00     0.031 A 
ATOM     91  C   UNL A   1      45.902  33.140  30.390  1.00  0.00     0.131 A 
ATOM     92  C   UNL A   1      45.531  35.108  28.474  1.00  0.00     0.055 A 
ATOM     93  C   UNL A   1      46.393  34.427  30.619  1.00  0.00     0.041 A 
ATOM     94  F   UNL A   1      46.135  32.206  31.325  1.00  0.00    -0.206 F 
ATOM     95  C   UNL A   1      46.223  35.413  29.651  1.00  0.00     0.022 A 
BRANCH  92  96
ATOM     96  S   UNL A   1      45.445  36.386  27.189  1.00  0.00     0.124 S 
ATOM     97  O   UNL A   1      46.567  36.024  26.327  1.00  0.00    -0.237 OA
ATOM     98  O   UNL A   1      44.121  36.157  26.618  1.00  0.00    -0.237 OA
ATOM     99  O   UNL A   1      45.604  37.636  27.924  1.00  0.00    -0.744 OA
ENDBRANCH  92  96
ENDBRANCH  66  89
ENDBRANCH  40  41
ENDBRANCH  32  35
ENDBRANCH  30  31
ENDBRANCH  29  30
ENDBRANCH   1  29
TORSDOF 17
ENDMDL
MODEL 2
REMARK VINA RESULT:     -12.7      6.116     10.095
REMARK SMILES CC(C)c1ccc2c(c1)C(=O)C[C@H]1[C@](C)(C(=O)NCCCCCCNC(=O)c3ccc(-c4c5nc(c(-c6cc(S(=O)(=O)[O-])ccc6F)c6ccc([nH]6)c(-c6cc(S(=O)(=O)[O-])ccc6F)c6nc(c(-c7cc(S(=O)(=O)[O-])ccc7F)c7ccc4[nH]7)C=C6)C=C5)cc3)CCC[C@@]21C
REMARK SMILES IDX 22 1 21 2 20 3 19 4 18 5 16 6 17 7 14 9 4 10 5 11 9 12 6 13
REMARK SMILES IDX 8 14 7 15 10 16 94 17 12 18 11 19 13 20 93 21 95 22 92 23
REMARK SMILES IDX 91 24 15 25 2 26 1 27 3 28 23 29 24 30 25 31 26 32 27 34
REMARK SMILES IDX 28 35 29 36 90 37 30 38 89 39 31 40 32 41 33 42 83 43 34 44
REMARK SMILES IDX 88 45 82 46 84 47 35 48 87 49 81 50 80 51 36 53 68 54 48 55
REMARK SMILES IDX 67 56 49 57 52 58 66 59 85 60 50 61 51 62 65 64 86 65 53 66
REMARK SMILES IDX 37 67 38 68 46 69 39 70 45 71 47 72 44 73 40 74 41 75 42 76
REMARK SMILES IDX 43 77 69 78 70 79 78 80 71 81 77 82 79 83 76 84 72 85 73 86
REMARK SMILES IDX 74 87 75 88 54 89 55 90 63 91 56 92 62 93 64 94 61 95 57 96
REMARK SMILES IDX 58 97 59 98 60 99
REMARK H PARENT 18 8 25 33 84 52 52 63
REMARK Flexibility Score: inf
ROOT
ATOM      1  C   UNL A   1      32.080  30.007  26.746  1.00  0.00     0.002 C 
ENDROOT
BRANCH   1   2
ATOM      2  C   UNL A   1      32.017  29.198  25.448  1.00  0.00     0.002 C 
BRANCH   2   3
ATOM      3  C   UNL A   1      33.319  28.509  25.019  1.00  0.00     0.021 C 
BRANCH   3   4
ATOM      4  C   UNL A   1      33.383  27.824  23.672  1.00  0.00     0.116 C 
BRANCH   4   5
ATOM      5  N   UNL A   1      34.087  26.551  23.622  1.00  0.00    -0.356 N 
ATOM      6  C   UNL A   1      33.634  25.268  23.537  1.00  0.00     0.226 C 
ATOM      7  O   UNL A   1      34.226  24.584  22.690  1.00  0.00    -0.274 OA
ATOM      8  H   UNL A   1      35.067  26.631  23.656  1.00  0.00     0.163 HD
BRANCH   6   9
ATOM      9  C   UNL A   1      32.582  24.606  24.500  1.00  0.00     0.050 C 
ATOM     10  C   UNL A   1      33.129  18.011  24.380  1.00  0.00    -0.045 A 
ATOM     11  C   UNL A   1      32.976  18.322  25.735  1.00  0.00     0.004 A 
ATOM     12  C   UNL A   1      32.776  18.989  23.456  1.00  0.00     0.016 A 
ATOM     13  C   UNL A   1      32.559  19.602  26.149  1.00  0.00     0.005 A 
ATOM     14  C   UNL A   1      32.367  20.267  23.868  1.00  0.00     0.022 A 
ATOM     15  C   UNL A   1      32.343  20.645  25.225  1.00  0.00    -0.031 A 
ATOM     16  C   UNL A   1      32.005  21.207  22.794  1.00  0.00     0.163 C 
ATOM     17  C   UNL A   1      32.433  22.146  25.659  1.00  0.00    -0.003 C 
ATOM     18  C   UNL A   1      31.719  22.605  23.208  1.00  0.00     0.086 C 
ATOM     19  O   UNL A   1      31.874  20.837  21.631  1.00  0.00    -0.294 OA
ATOM     20  C   UNL A   1      32.661  23.036  24.350  1.00  0.00     0.022 C 
ATOM     21  C   UNL A   1      31.252  22.804  26.394  1.00  0.00     0.012 C 
ATOM     22  C   UNL A   1      33.586  22.140  26.734  1.00  0.00     0.017 C 
ATOM     23  C   UNL A   1      31.619  24.253  26.848  1.00  0.00     0.002 C 
ATOM     24  C   UNL A   1      32.664  25.015  25.972  1.00  0.00     0.017 C 
ATOM     25  C   UNL A   1      31.203  25.208  24.030  1.00  0.00     0.022 C 
BRANCH  10  26
ATOM     26  C   UNL A   1      33.693  16.668  23.943  1.00  0.00     0.013 C 
ATOM     27  C   UNL A   1      34.514  16.751  22.649  1.00  0.00     0.012 C 
ATOM     28  C   UNL A   1      34.545  16.044  25.055  1.00  0.00     0.012 C 
ENDBRANCH  10  26
ENDBRANCH   6   9
ENDBRANCH   4   5
ENDBRANCH   3   4
ENDBRANCH   2   3
ENDBRANCH   1   2
BRANCH   1  29
ATOM     29  C   UNL A   1      32.062  31.527  26.579  1.00  0.00     0.021 C 
BRANCH  29  30
ATOM     30  C   UNL A   1      33.090  32.273  27.429  1.00  0.00     0.116 C 
BRANCH  30  31
ATOM     31  N   UNL A   1      32.714  33.654  27.676  1.00  0.00    -0.352 N 
ATOM     32  C   UNL A   1      33.186  34.523  28.640  1.00  0.00     0.251 C 
ATOM     33  H   UNL A   1      32.028  34.022  27.073  1.00  0.00     0.163 HD
ATOM     34  O   UNL A   1      32.637  35.592  28.832  1.00  0.00    -0.269 OA
BRANCH  32  35
ATOM     35  C   UNL A   1      34.349  34.110  29.461  1.00  0.00     0.039 A 
ATOM     36  C   UNL A   1      35.645  34.428  29.055  1.00  0.00     0.014 A 
ATOM     37  C   UNL A   1      34.139  33.349  30.613  1.00  0.00     0.014 A 
ATOM     38  C   UNL A   1      36.729  33.825  29.683  1.00  0.00     0.010 A 
ATOM     39  C   UNL A   1      35.238  32.828  31.305  1.00  0.00     0.010 A 
ATOM     40  C   UNL A   1      36.540  33.013  30.815  1.00  0.00    -0.014 A 
BRANCH  40  41
ATOM     41  C   UNL A   1      37.718  32.378  31.469  1.00  0.00     0.031 A 
ATOM     42  C   UNL A   1      38.195  32.833  32.823  1.00  0.00     0.074 A 
ATOM     43  C   UNL A   1      38.334  31.349  30.853  1.00  0.00     0.049 A 
ATOM     44  N   UNL A   1      39.197  32.384  33.536  1.00  0.00    -0.248 NA
ATOM     45  C   UNL A   1      37.458  33.936  33.461  1.00  0.00     0.031 C 
ATOM     46  C   UNL A   1      37.953  30.815  29.545  1.00  0.00     0.029 A 
ATOM     47  N   UNL A   1      39.384  30.556  31.243  1.00  0.00    -0.354 N 
ATOM     48  C   UNL A   1      39.220  33.153  34.695  1.00  0.00     0.074 A 
ATOM     49  C   UNL A   1      38.158  34.127  34.572  1.00  0.00     0.031 C 
ATOM     50  C   UNL A   1      38.719  29.753  29.264  1.00  0.00     0.029 A 
ATOM     51  C   UNL A   1      39.703  29.577  30.329  1.00  0.00     0.049 A 
ATOM     52  H   UNL A   1      39.864  30.677  32.093  1.00  0.00     0.167 HD
ATOM     53  C   UNL A   1      40.041  33.044  35.769  1.00  0.00     0.034 A 
ATOM     54  C   UNL A   1      40.685  28.652  30.330  1.00  0.00     0.034 A 
ATOM     55  C   UNL A   1      41.087  32.058  35.880  1.00  0.00     0.049 A 
ATOM     56  C   UNL A   1      41.611  28.578  31.514  1.00  0.00     0.074 A 
ATOM     57  C   UNL A   1      41.961  31.859  36.935  1.00  0.00     0.029 A 
ATOM     58  N   UNL A   1      41.402  31.108  34.919  1.00  0.00    -0.354 N 
ATOM     59  N   UNL A   1      41.598  29.293  32.614  1.00  0.00    -0.248 NA
ATOM     60  C   UNL A   1      42.683  27.574  31.465  1.00  0.00     0.031 C 
ATOM     61  C   UNL A   1      42.844  30.837  36.584  1.00  0.00     0.029 A 
ATOM     62  C   UNL A   1      42.473  30.339  35.346  1.00  0.00     0.049 A 
ATOM     63  H   UNL A   1      40.934  30.997  34.060  1.00  0.00     0.167 HD
ATOM     64  C   UNL A   1      42.647  28.816  33.395  1.00  0.00     0.074 A 
ATOM     65  C   UNL A   1      43.255  27.731  32.652  1.00  0.00     0.031 C 
ATOM     66  C   UNL A   1      43.069  29.247  34.611  1.00  0.00     0.034 A 
BRANCH  53  67
ATOM     67  C   UNL A   1      39.849  33.993  36.930  1.00  0.00     0.023 A 
ATOM     68  C   UNL A   1      39.290  33.529  38.136  1.00  0.00     0.031 A 
ATOM     69  C   UNL A   1      40.087  35.373  36.798  1.00  0.00     0.131 A 
ATOM     70  C   UNL A   1      38.953  34.440  39.146  1.00  0.00     0.055 A 
ATOM     71  C   UNL A   1      39.793  36.271  37.824  1.00  0.00     0.041 A 
ATOM     72  F   UNL A   1      40.617  35.868  35.668  1.00  0.00    -0.206 F 
ATOM     73  C   UNL A   1      39.209  35.808  38.999  1.00  0.00     0.022 A 
BRANCH  70  74
ATOM     74  S   UNL A   1      38.102  33.902  40.654  1.00  0.00     0.124 S 
ATOM     75  O   UNL A   1      39.091  33.006  41.252  1.00  0.00    -0.237 OA
ATOM     76  O   UNL A   1      37.900  35.166  41.358  1.00  0.00    -0.237 OA
ATOM     77  O   UNL A   1      36.892  33.252  40.162  1.00  0.00    -0.744 OA
ENDBRANCH  70  74
ENDBRANCH  53  67
BRANCH  54  78
ATOM     78  C   UNL A   1      40.787  27.710  29.176  1.00  0.00     0.023 A 
ATOM     79  C   UNL A   1      41.732  27.923  28.155  1.00  0.00     0.031 A 
ATOM     80  C   UNL A   1      39.856  26.672  29.007  1.00  0.00     0.131 A 
ATOM     81  C   UNL A   1      41.663  27.175  26.974  1.00  0.00     0.055 A 
ATOM     82  C   UNL A   1      39.846  25.872  27.863  1.00  0.00     0.041 A 
ATOM     83  F   UNL A   1      38.927  26.437  29.946  1.00  0.00    -0.206 F 
ATOM     84  C   UNL A   1      40.739  26.137  26.829  1.00  0.00     0.022 A 
BRANCH  81  85
ATOM     85  S   UNL A   1      42.663  27.630  25.528  1.00  0.00     0.124 S 
ATOM     86  O   UNL A   1      41.996  28.843  25.067  1.00  0.00    -0.237 OA
ATOM     87  O   UNL A   1      43.980  27.822  26.130  1.00  0.00    -0.237 OA
ATOM     88  O   UNL A   1      42.546  26.471  24.650  1.00  0.00    -0.744 OA
ENDBRANCH  81  85
ENDBRANCH  54  78
BRANCH  66  89
ATOM     89  C   UNL A   1      44.249  28.557  35.255  1.00  0.00     0.023 A 
ATOM     90  C   UNL A   1      44.035  27.541  36.206  1.00  0.00     0.031 A 
ATOM     91  C   UNL A   1      45.564  29.014  35.055  1.00  0.00     0.131 A 
ATOM     92  C   UNL A   1      45.110  27.052  36.958  1.00  0.00     0.055 A 
ATOM     93  C   UNL A   1      46.640  28.484  35.770  1.00  0.00     0.041 A 
ATOM     94  F   UNL A   1      45.820  29.988  34.169  1.00  0.00    -0.206 F 
ATOM     95  C   UNL A   1      46.412  27.511  36.738  1.00  0.00     0.022 A 
BRANCH  92  96
ATOM     96  S   UNL A   1      44.845  25.877  38.316  1.00  0.00     0.124 S 
ATOM     97  O   UNL A   1      43.993  24.872  37.686  1.00  0.00    -0.237 OA
ATOM     98  O   UNL A   1      46.206  25.442  38.614  1.00  0.00    -0.237 OA
ATOM     99  O   UNL A   1      44.200  26.677  39.353  1.00  0.00    -0.744 OA
ENDBRANCH  92  96
ENDBRANCH  66  89
ENDBRANCH  40  41
ENDBRANCH  32  35
ENDBRANCH  30  31
ENDBRANCH  29  30
ENDBRANCH   1  29
TORSDOF 17
ENDMDL
MODEL 3
REMARK VINA RESULT:     -12.6      1.940      2.278
REMARK SMILES CC(C)c1ccc2c(c1)C(=O)C[C@H]1[C@](C)(C(=O)NCCCCCCNC(=O)c3ccc(-c4c5nc(c(-c6cc(S(=O)(=O)[O-])ccc6F)c6ccc([nH]6)c(-c6cc(S(=O)(=O)[O-])ccc6F)c6nc(c(-c7cc(S(=O)(=O)[O-])ccc7F)c7ccc4[nH]7)C=C6)C=C5)cc3)CCC[C@@]21C
REMARK SMILES IDX 22 1 21 2 20 3 19 4 18 5 16 6 17 7 14 9 4 10 5 11 9 12 6 13
REMARK SMILES IDX 8 14 7 15 10 16 94 17 12 18 11 19 13 20 93 21 95 22 92 23
REMARK SMILES IDX 91 24 15 25 2 26 1 27 3 28 23 29 24 30 25 31 26 32 27 34
REMARK SMILES IDX 28 35 29 36 90 37 30 38 89 39 31 40 32 41 33 42 83 43 34 44
REMARK SMILES IDX 88 45 82 46 84 47 35 48 87 49 81 50 80 51 36 53 68 54 48 55
REMARK SMILES IDX 67 56 49 57 52 58 66 59 85 60 50 61 51 62 65 64 86 65 53 66
REMARK SMILES IDX 37 67 38 68 46 69 39 70 45 71 47 72 44 73 40 74 41 75 42 76
REMARK SMILES IDX 43 77 69 78 70 79 78 80 71 81 77 82 79 83 76 84 72 85 73 86
REMARK SMILES IDX 74 87 75 88 54 89 55 90 63 91 56 92 62 93 64 94 61 95 57 96
REMARK SMILES IDX 58 97 59 98 60 99
REMARK H PARENT 18 8 25 33 84 52 52 63
REMARK Flexibility Score: inf
ROOT
ATOM      1  C   UNL A   1      37.067  21.275  24.871  1.00  0.00     0.002 C 
ENDROOT
BRANCH   1   2
ATOM      2  C   UNL A   1      35.815  20.984  25.703  1.00  0.00     0.002 C 
BRANCH   2   3
ATOM      3  C   UNL A   1      34.606  20.438  24.933  1.00  0.00     0.021 C 
BRANCH   3   4
ATOM      4  C   UNL A   1      33.222  20.603  25.519  1.00  0.00     0.116 C 
BRANCH   4   5
ATOM      5  N   UNL A   1      32.289  21.427  24.765  1.00  0.00    -0.356 N 
ATOM      6  C   UNL A   1      32.488  22.460  23.897  1.00  0.00     0.226 C 
ATOM      7  O   UNL A   1      31.827  22.371  22.854  1.00  0.00    -0.274 OA
ATOM      8  H   UNL A   1      31.343  21.199  24.909  1.00  0.00     0.163 HD
BRANCH   6   9
ATOM      9  C   UNL A   1      33.332  23.753  24.195  1.00  0.00     0.050 C 
ATOM     10  C   UNL A   1      29.689  29.196  23.239  1.00  0.00    -0.045 A 
ATOM     11  C   UNL A   1      30.380  29.445  24.430  1.00  0.00     0.004 A 
ATOM     12  C   UNL A   1      30.164  28.170  22.427  1.00  0.00     0.016 A 
ATOM     13  C   UNL A   1      31.462  28.638  24.830  1.00  0.00     0.005 A 
ATOM     14  C   UNL A   1      31.239  27.361  22.829  1.00  0.00     0.022 A 
ATOM     15  C   UNL A   1      31.856  27.505  24.087  1.00  0.00    -0.031 A 
ATOM     16  C   UNL A   1      31.656  26.322  21.874  1.00  0.00     0.163 C 
ATOM     17  C   UNL A   1      32.633  26.324  24.759  1.00  0.00    -0.003 C 
ATOM     18  C   UNL A   1      32.689  25.364  22.350  1.00  0.00     0.086 C 
ATOM     19  O   UNL A   1      31.231  26.295  20.723  1.00  0.00    -0.294 OA
ATOM     20  C   UNL A   1      32.470  25.027  23.838  1.00  0.00     0.022 C 
ATOM     21  C   UNL A   1      34.145  26.450  25.015  1.00  0.00     0.012 C 
ATOM     22  C   UNL A   1      32.011  26.262  26.206  1.00  0.00     0.017 C 
ATOM     23  C   UNL A   1      34.676  25.216  25.814  1.00  0.00     0.002 C 
ATOM     24  C   UNL A   1      33.912  23.869  25.607  1.00  0.00     0.017 C 
ATOM     25  C   UNL A   1      34.611  23.591  23.288  1.00  0.00     0.022 C 
BRANCH  10  26
ATOM     26  C   UNL A   1      28.448  29.993  22.870  1.00  0.00     0.013 C 
ATOM     27  C   UNL A   1      28.400  31.376  23.533  1.00  0.00     0.012 C 
ATOM     28  C   UNL A   1      28.328  30.146  21.349  1.00  0.00     0.012 C 
ENDBRANCH  10  26
ENDBRANCH   6   9
ENDBRANCH   4   5
ENDBRANCH   3   4
ENDBRANCH   2   3
ENDBRANCH   1   2
BRANCH   1  29
ATOM     29  C   UNL A   1      38.151  20.197  24.909  1.00  0.00     0.021 C 
BRANCH  29  30
ATOM     30  C   UNL A   1      39.332  20.514  25.826  1.00  0.00     0.116 C 
BRANCH  30  31
ATOM     31  N   UNL A   1      40.221  19.379  26.005  1.00  0.00    -0.352 N 
ATOM     32  C   UNL A   1      41.591  19.369  26.177  1.00  0.00     0.251 C 
ATOM     33  H   UNL A   1      39.787  18.495  26.004  1.00  0.00     0.163 HD
ATOM     34  O   UNL A   1      42.213  18.324  26.130  1.00  0.00    -0.269 OA
BRANCH  32  35
ATOM     35  C   UNL A   1      42.292  20.659  26.380  1.00  0.00     0.039 A 
ATOM     36  C   UNL A   1      42.532  21.134  27.670  1.00  0.00     0.014 A 
ATOM     37  C   UNL A   1      42.657  21.423  25.270  1.00  0.00     0.014 A 
ATOM     38  C   UNL A   1      42.953  22.446  27.851  1.00  0.00     0.010 A 
ATOM     39  C   UNL A   1      43.178  22.708  25.457  1.00  0.00     0.010 A 
ATOM     40  C   UNL A   1      43.278  23.253  26.747  1.00  0.00    -0.014 A 
BRANCH  40  41
ATOM     41  C   UNL A   1      43.725  24.657  26.968  1.00  0.00     0.031 A 
ATOM     42  C   UNL A   1      42.773  25.702  27.488  1.00  0.00     0.074 A 
ATOM     43  C   UNL A   1      45.014  24.978  26.742  1.00  0.00     0.049 A 
ATOM     44  N   UNL A   1      42.998  26.966  27.744  1.00  0.00    -0.248 NA
ATOM     45  C   UNL A   1      41.387  25.281  27.751  1.00  0.00     0.031 C 
ATOM     46  C   UNL A   1      46.029  24.047  26.249  1.00  0.00     0.029 A 
ATOM     47  N   UNL A   1      45.699  26.156  26.914  1.00  0.00    -0.354 N 
ATOM     48  C   UNL A   1      41.789  27.492  28.184  1.00  0.00     0.074 A 
ATOM     49  C   UNL A   1      40.819  26.422  28.119  1.00  0.00     0.031 C 
ATOM     50  C   UNL A   1      47.214  24.669  26.209  1.00  0.00     0.029 A 
ATOM     51  C   UNL A   1      47.034  26.067  26.592  1.00  0.00     0.049 A 
ATOM     52  H   UNL A   1      45.276  26.984  27.236  1.00  0.00     0.167 HD
ATOM     53  C   UNL A   1      41.518  28.748  28.617  1.00  0.00     0.034 A 
ATOM     54  C   UNL A   1      48.006  27.003  26.582  1.00  0.00     0.034 A 
ATOM     55  C   UNL A   1      42.501  29.802  28.686  1.00  0.00     0.049 A 
ATOM     56  C   UNL A   1      47.671  28.401  27.026  1.00  0.00     0.074 A 
ATOM     57  C   UNL A   1      42.326  31.102  29.125  1.00  0.00     0.029 A 
ATOM     58  N   UNL A   1      43.833  29.683  28.317  1.00  0.00    -0.354 N 
ATOM     59  N   UNL A   1      46.529  28.872  27.469  1.00  0.00    -0.248 NA
ATOM     60  C   UNL A   1      48.750  29.397  26.977  1.00  0.00     0.031 C 
ATOM     61  C   UNL A   1      43.530  31.786  28.958  1.00  0.00     0.029 A 
ATOM     62  C   UNL A   1      44.483  30.894  28.493  1.00  0.00     0.049 A 
ATOM     63  H   UNL A   1      44.254  28.860  27.978  1.00  0.00     0.167 HD
ATOM     64  C   UNL A   1      46.755  30.213  27.765  1.00  0.00     0.074 A 
ATOM     65  C   UNL A   1      48.152  30.470  27.479  1.00  0.00     0.031 C 
ATOM     66  C   UNL A   1      45.880  31.144  28.222  1.00  0.00     0.034 A 
BRANCH  53  67
ATOM     67  C   UNL A   1      40.113  29.074  29.072  1.00  0.00     0.023 A 
ATOM     68  C   UNL A   1      39.782  29.014  30.439  1.00  0.00     0.031 A 
ATOM     69  C   UNL A   1      39.077  29.304  28.149  1.00  0.00     0.131 A 
ATOM     70  C   UNL A   1      38.446  29.144  30.841  1.00  0.00     0.055 A 
ATOM     71  C   UNL A   1      37.754  29.479  28.558  1.00  0.00     0.041 A 
ATOM     72  F   UNL A   1      39.338  29.368  26.833  1.00  0.00    -0.206 F 
ATOM     73  C   UNL A   1      37.432  29.385  29.908  1.00  0.00     0.022 A 
BRANCH  70  74
ATOM     74  S   UNL A   1      37.959  28.932  32.575  1.00  0.00     0.124 S 
ATOM     75  O   UNL A   1      38.061  27.484  32.739  1.00  0.00    -0.237 OA
ATOM     76  O   UNL A   1      38.976  29.712  33.275  1.00  0.00    -0.237 OA
ATOM     77  O   UNL A   1      36.603  29.469  32.627  1.00  0.00    -0.744 OA
ENDBRANCH  70  74
ENDBRANCH  53  67
BRANCH  54  78
ATOM     78  C   UNL A   1      49.385  26.603  26.172  1.00  0.00     0.023 A 
ATOM     79  C   UNL A   1      50.396  26.416  27.133  1.00  0.00     0.031 A 
ATOM     80  C   UNL A   1      49.745  26.540  24.816  1.00  0.00     0.131 A 
ATOM     81  C   UNL A   1      51.727  26.271  26.725  1.00  0.00     0.055 A 
ATOM     82  C   UNL A   1      51.061  26.311  24.414  1.00  0.00     0.041 A 
ATOM     83  F   UNL A   1      48.819  26.725  23.861  1.00  0.00    -0.206 F 
ATOM     84  C   UNL A   1      52.065  26.198  25.372  1.00  0.00     0.022 A 
BRANCH  81  85
ATOM     85  S   UNL A   1      53.080  26.337  27.935  1.00  0.00     0.124 S 
ATOM     86  O   UNL A   1      52.372  26.129  29.194  1.00  0.00    -0.237 OA
ATOM     87  O   UNL A   1      53.924  25.229  27.493  1.00  0.00    -0.237 OA
ATOM     88  O   UNL A   1      53.651  27.665  27.741  1.00  0.00    -0.744 OA
ENDBRANCH  81  85
ENDBRANCH  54  78
BRANCH  66  89
ATOM     89  C   UNL A   1      46.378  32.551  28.463  1.00  0.00     0.023 A 
ATOM     90  C   UNL A   1      46.612  33.410  27.372  1.00  0.00     0.031 A 
ATOM     91  C   UNL A   1      46.775  32.979  29.742  1.00  0.00     0.131 A 
ATOM     92  C   UNL A   1      47.272  34.628  27.571  1.00  0.00     0.055 A 
ATOM     93  C   UNL A   1      47.384  34.219  29.943  1.00  0.00     0.041 A 
ATOM     94  F   UNL A   1      46.585  32.193  30.814  1.00  0.00    -0.206 F 
ATOM     95  C   UNL A   1      47.650  35.042  28.853  1.00  0.00     0.022 A 
BRANCH  92  96
ATOM     96  S   UNL A   1      47.752  35.674  26.169  1.00  0.00     0.124 S 
ATOM     97  O   UNL A   1      47.550  34.774  25.036  1.00  0.00    -0.237 OA
ATOM     98  O   UNL A   1      46.800  36.776  26.268  1.00  0.00    -0.237 OA
ATOM     99  O   UNL A   1      49.143  36.019  26.447  1.00  0.00    -0.744 OA
ENDBRANCH  92  96
ENDBRANCH  66  89
ENDBRANCH  40  41
ENDBRANCH  32  35
ENDBRANCH  30  31
ENDBRANCH  29  30
ENDBRANCH   1  29
TORSDOF 17
ENDMDL
