MODEL 1
REMARK VINA RESULT:     -11.4      0.000      0.000
REMARK SMILES O=C(N[C@@H]1C=C[C@@H](C(=O)NCCCCCCNC(=O)c2ccc(-c3c4nc(c(-c5cc(S(=O)(=O)[O-])ccc5F)c5ccc([nH]5)c(-c5cc(S(=O)(=O)[O-])ccc5F)c5nc(c(-c6cc(S(=O)(=O)[O-])ccc6F)c6ccc3[nH]6)C=C5)C=C4)cc2)C1)Oc1ccccc1
REMARK SMILES IDX 13 1 12 2 11 3 10 4 8 5 9 6 7 8 4 9 5 10 83 11 6 12 3 13
REMARK SMILES IDX 1 14 2 15 84 17 85 18 86 19 90 20 87 21 89 22 88 23 14 24
REMARK SMILES IDX 15 25 16 26 17 27 18 28 19 30 20 31 21 32 82 33 22 34 81 35
REMARK SMILES IDX 23 36 24 37 25 38 75 39 26 40 80 41 74 42 76 43 27 44 79 45
REMARK SMILES IDX 73 46 72 47 28 49 60 50 40 51 59 52 41 53 44 54 58 55 77 56
REMARK SMILES IDX 42 57 43 58 57 60 78 61 45 62 29 63 30 64 38 65 31 66 37 67
REMARK SMILES IDX 39 68 36 69 32 70 33 71 34 72 35 73 61 74 62 75 70 76 63 77
REMARK SMILES IDX 69 78 71 79 68 80 64 81 65 82 66 83 67 84 46 85 47 86 55 87
REMARK SMILES IDX 48 88 54 89 56 90 53 91 49 92 50 93 51 94 52 95
REMARK H PARENT 10 7 3 16 17 29 76 48 44 59
REMARK Flexibility Score: inf
ROOT
ATOM      1  C   UNL A   1      31.790  25.305  26.457  1.00  0.00     0.002 C 
ENDROOT
BRANCH   1   2
ATOM      2  C   UNL A   1      32.206  23.849  26.701  1.00  0.00     0.021 C 
BRANCH   2   3
ATOM      3  C   UNL A   1      31.262  22.818  26.083  1.00  0.00     0.116 C 
BRANCH   3   4
ATOM      4  N   UNL A   1      31.846  21.491  26.104  1.00  0.00    -0.356 N 
ATOM      5  C   UNL A   1      32.599  20.810  25.205  1.00  0.00     0.227 C 
ATOM      6  O   UNL A   1      32.956  19.672  25.535  1.00  0.00    -0.274 OA
ATOM      7  H   UNL A   1      31.661  20.989  26.930  1.00  0.00     0.163 HD
BRANCH   5   8
ATOM      8  C   UNL A   1      33.063  21.383  23.862  1.00  0.00     0.103 C 
ATOM      9  C   UNL A   1      32.618  23.619  22.916  1.00  0.00     0.109 C 
ATOM     10  C   UNL A   1      34.002  23.494  23.470  1.00  0.00    -0.006 C 
ATOM     11  C   UNL A   1      32.053  22.190  23.035  1.00  0.00     0.047 C 
ATOM     12  C   UNL A   1      34.239  22.293  24.003  1.00  0.00    -0.016 C 
BRANCH   9  13
ATOM     13  N   UNL A   1      32.729  24.099  21.563  1.00  0.00    -0.315 N 
ATOM     14  O   UNL A   1      32.960  25.483  19.826  1.00  0.00    -0.224 OA
ATOM     15  C   UNL A   1      32.930  25.354  21.051  1.00  0.00     0.413 C 
ATOM     16  H   UNL A   1      32.645  23.395  20.880  1.00  0.00     0.167 HD
BRANCH  15  17
ATOM     17  O   UNL A   1      33.050  26.486  21.881  1.00  0.00    -0.410 OA
BRANCH  17  18
ATOM     18  C   UNL A   1      32.068  27.284  22.516  1.00  0.00     0.132 A 
ATOM     19  C   UNL A   1      30.864  26.674  22.858  1.00  0.00     0.047 A 
ATOM     20  C   UNL A   1      32.301  28.632  22.770  1.00  0.00     0.047 A 
ATOM     21  C   UNL A   1      29.906  27.412  23.552  1.00  0.00     0.004 A 
ATOM     22  C   UNL A   1      31.354  29.354  23.494  1.00  0.00     0.004 A 
ATOM     23  C   UNL A   1      30.162  28.744  23.890  1.00  0.00     0.000 A 
ENDBRANCH  17  18
ENDBRANCH  15  17
ENDBRANCH   9  13
ENDBRANCH   5   8
ENDBRANCH   3   4
ENDBRANCH   2   3
ENDBRANCH   1   2
BRANCH   1  24
ATOM     24  C   UNL A   1      32.919  26.242  26.014  1.00  0.00     0.002 C 
BRANCH  24  25
ATOM     25  C   UNL A   1      32.796  27.688  26.500  1.00  0.00     0.021 C 
BRANCH  25  26
ATOM     26  C   UNL A   1      33.956  28.598  26.107  1.00  0.00     0.116 C 
BRANCH  26  27
ATOM     27  N   UNL A   1      33.732  29.974  26.521  1.00  0.00    -0.352 N 
ATOM     28  C   UNL A   1      34.422  30.733  27.430  1.00  0.00     0.251 C 
ATOM     29  H   UNL A   1      32.975  30.426  26.084  1.00  0.00     0.163 HD
ATOM     30  O   UNL A   1      33.948  31.806  27.804  1.00  0.00    -0.269 OA
BRANCH  28  31
ATOM     31  C   UNL A   1      35.714  30.260  27.976  1.00  0.00     0.039 A 
ATOM     32  C   UNL A   1      35.742  29.695  29.253  1.00  0.00     0.014 A 
ATOM     33  C   UNL A   1      36.900  30.394  27.247  1.00  0.00     0.014 A 
ATOM     34  C   UNL A   1      36.948  29.222  29.779  1.00  0.00     0.010 A 
ATOM     35  C   UNL A   1      38.086  29.851  27.740  1.00  0.00     0.010 A 
ATOM     36  C   UNL A   1      38.127  29.270  29.016  1.00  0.00    -0.014 A 
BRANCH  36  37
ATOM     37  C   UNL A   1      39.409  28.737  29.551  1.00  0.00     0.031 A 
ATOM     38  C   UNL A   1      40.089  29.424  30.706  1.00  0.00     0.074 A 
ATOM     39  C   UNL A   1      39.983  27.664  28.971  1.00  0.00     0.049 A 
ATOM     40  N   UNL A   1      41.233  29.146  31.278  1.00  0.00    -0.248 NA
ATOM     41  C   UNL A   1      39.405  30.595  31.273  1.00  0.00     0.031 C 
ATOM     42  C   UNL A   1      39.440  26.934  27.823  1.00  0.00     0.029 A 
ATOM     43  N   UNL A   1      41.148  27.000  29.262  1.00  0.00    -0.354 N 
ATOM     44  C   UNL A   1      41.411  30.113  32.262  1.00  0.00     0.074 A 
ATOM     45  C   UNL A   1      40.289  31.021  32.163  1.00  0.00     0.031 C 
ATOM     46  C   UNL A   1      40.255  25.909  27.527  1.00  0.00     0.029 A 
ATOM     47  C   UNL A   1      41.403  25.935  28.429  1.00  0.00     0.049 A 
ATOM     48  H   UNL A   1      41.747  27.261  29.999  1.00  0.00     0.167 HD
ATOM     49  C   UNL A   1      42.404  30.220  33.180  1.00  0.00     0.034 A 
ATOM     50  C   UNL A   1      42.447  25.082  28.386  1.00  0.00     0.034 A 
ATOM     51  C   UNL A   1      43.511  29.297  33.273  1.00  0.00     0.049 A 
ATOM     52  C   UNL A   1      43.554  25.236  29.400  1.00  0.00     0.074 A 
ATOM     53  C   UNL A   1      44.544  29.282  34.195  1.00  0.00     0.029 A 
ATOM     54  N   UNL A   1      43.738  28.233  32.410  1.00  0.00    -0.354 N 
ATOM     55  N   UNL A   1      43.681  26.126  30.357  1.00  0.00    -0.248 NA
ATOM     56  C   UNL A   1      44.649  24.260  29.337  1.00  0.00     0.031 C 
ATOM     57  C   UNL A   1      45.432  28.260  33.843  1.00  0.00     0.029 A 
ATOM     58  C   UNL A   1      44.910  27.577  32.757  1.00  0.00     0.049 A 
ATOM     59  H   UNL A   1      43.151  27.981  31.659  1.00  0.00     0.167 HD
ATOM     60  C   UNL A   1      44.853  25.794  31.031  1.00  0.00     0.074 A 
ATOM     61  C   UNL A   1      45.384  24.614  30.381  1.00  0.00     0.031 C 
ATOM     62  C   UNL A   1      45.435  26.404  32.095  1.00  0.00     0.034 A 
BRANCH  49  63
ATOM     63  C   UNL A   1      42.351  31.391  34.135  1.00  0.00     0.023 A 
ATOM     64  C   UNL A   1      41.516  31.387  35.266  1.00  0.00     0.031 A 
ATOM     65  C   UNL A   1      43.129  32.538  33.899  1.00  0.00     0.131 A 
ATOM     66  C   UNL A   1      41.418  32.533  36.071  1.00  0.00     0.055 A 
ATOM     67  C   UNL A   1      43.095  33.641  34.755  1.00  0.00     0.041 A 
ATOM     68  F   UNL A   1      43.930  32.613  32.825  1.00  0.00    -0.206 F 
ATOM     69  C   UNL A   1      42.223  33.650  35.841  1.00  0.00     0.022 A 
BRANCH  66  70
ATOM     70  S   UNL A   1      40.115  32.598  37.332  1.00  0.00     0.124 S 
ATOM     71  O   UNL A   1      40.879  32.367  38.556  1.00  0.00    -0.237 OA
ATOM     72  O   UNL A   1      39.575  33.941  37.159  1.00  0.00    -0.237 OA
ATOM     73  O   UNL A   1      39.217  31.508  36.953  1.00  0.00    -0.744 OA
ENDBRANCH  66  70
ENDBRANCH  49  63
BRANCH  50  74
ATOM     74  C   UNL A   1      42.509  24.014  27.346  1.00  0.00     0.023 A 
ATOM     75  C   UNL A   1      41.802  22.810  27.498  1.00  0.00     0.031 A 
ATOM     76  C   UNL A   1      43.316  24.163  26.204  1.00  0.00     0.131 A 
ATOM     77  C   UNL A   1      41.955  21.784  26.552  1.00  0.00     0.055 A 
ATOM     78  C   UNL A   1      43.418  23.161  25.235  1.00  0.00     0.041 A 
ATOM     79  F   UNL A   1      44.011  25.294  26.006  1.00  0.00    -0.206 F 
ATOM     80  C   UNL A   1      42.746  21.957  25.415  1.00  0.00     0.022 A 
BRANCH  77  81
ATOM     81  S   UNL A   1      41.175  20.178  26.879  1.00  0.00     0.124 S 
ATOM     82  O   UNL A   1      40.953  20.245  28.318  1.00  0.00    -0.237 OA
ATOM     83  O   UNL A   1      39.983  20.244  26.040  1.00  0.00    -0.237 OA
ATOM     84  O   UNL A   1      42.186  19.216  26.447  1.00  0.00    -0.744 OA
ENDBRANCH  77  81
ENDBRANCH  50  74
BRANCH  62  85
ATOM     85  C   UNL A   1      46.688  25.770  32.654  1.00  0.00     0.023 A 
ATOM     86  C   UNL A   1      46.640  24.775  33.647  1.00  0.00     0.031 A 
ATOM     87  C   UNL A   1      47.951  26.181  32.193  1.00  0.00     0.131 A 
ATOM     88  C   UNL A   1      47.832  24.273  34.190  1.00  0.00     0.055 A 
ATOM     89  C   UNL A   1      49.133  25.627  32.688  1.00  0.00     0.041 A 
ATOM     90  F   UNL A   1      48.060  27.131  31.249  1.00  0.00    -0.206 F 
ATOM     91  C   UNL A   1      49.077  24.679  33.705  1.00  0.00     0.022 A 
BRANCH  88  92
ATOM     92  S   UNL A   1      47.736  23.162  35.621  1.00  0.00     0.124 S 
ATOM     93  O   UNL A   1      46.361  23.363  36.069  1.00  0.00    -0.237 OA
ATOM     94  O   UNL A   1      48.030  21.862  35.028  1.00  0.00    -0.237 OA
ATOM     95  O   UNL A   1      48.763  23.677  36.525  1.00  0.00    -0.744 OA
ENDBRANCH  88  92
ENDBRANCH  62  85
ENDBRANCH  36  37
ENDBRANCH  28  31
ENDBRANCH  26  27
ENDBRANCH  25  26
ENDBRANCH  24  25
ENDBRANCH   1  24
TORSDOF 19
ENDMDL
MODEL 2
REMARK VINA RESULT:     -11.1      1.760      7.622
REMARK SMILES O=C(N[C@@H]1C=C[C@@H](C(=O)NCCCCCCNC(=O)c2ccc(-c3c4nc(c(-c5cc(S(=O)(=O)[O-])ccc5F)c5ccc([nH]5)c(-c5cc(S(=O)(=O)[O-])ccc5F)c5nc(c(-c6cc(S(=O)(=O)[O-])ccc6F)c6ccc3[nH]6)C=C5)C=C4)cc2)C1)Oc1ccccc1
REMARK SMILES IDX 13 1 12 2 11 3 10 4 8 5 9 6 7 8 4 9 5 10 83 11 6 12 3 13
REMARK SMILES IDX 1 14 2 15 84 17 85 18 86 19 90 20 87 21 89 22 88 23 14 24
REMARK SMILES IDX 15 25 16 26 17 27 18 28 19 30 20 31 21 32 82 33 22 34 81 35
REMARK SMILES IDX 23 36 24 37 25 38 75 39 26 40 80 41 74 42 76 43 27 44 79 45
REMARK SMILES IDX 73 46 72 47 28 49 60 50 40 51 59 52 41 53 44 54 58 55 77 56
REMARK SMILES IDX 42 57 43 58 57 60 78 61 45 62 29 63 30 64 38 65 31 66 37 67
REMARK SMILES IDX 39 68 36 69 32 70 33 71 34 72 35 73 61 74 62 75 70 76 63 77
REMARK SMILES IDX 69 78 71 79 68 80 64 81 65 82 66 83 67 84 46 85 47 86 55 87
REMARK SMILES IDX 48 88 54 89 56 90 53 91 49 92 50 93 51 94 52 95
REMARK H PARENT 10 7 3 16 17 29 76 48 44 59
REMARK Flexibility Score: inf
ROOT
ATOM      1  C   UNL A   1      31.630  25.361  26.307  1.00  0.00     0.002 C 
ENDROOT
BRANCH   1   2
ATOM      2  C   UNL A   1      32.123  23.953  26.666  1.00  0.00     0.021 C 
BRANCH   2   3
ATOM      3  C   UNL A   1      31.284  22.826  26.068  1.00  0.00     0.116 C 
BRANCH   3   4
ATOM      4  N   UNL A   1      31.985  21.558  26.129  1.00  0.00    -0.356 N 
ATOM      5  C   UNL A   1      32.830  20.939  25.268  1.00  0.00     0.227 C 
ATOM      6  O   UNL A   1      33.276  19.842  25.627  1.00  0.00    -0.274 OA
ATOM      7  H   UNL A   1      31.815  21.051  26.955  1.00  0.00     0.163 HD
BRANCH   5   8
ATOM      8  C   UNL A   1      33.290  21.538  23.934  1.00  0.00     0.103 C 
ATOM      9  C   UNL A   1      32.678  23.712  22.939  1.00  0.00     0.109 C 
ATOM     10  C   UNL A   1      34.045  23.722  23.547  1.00  0.00    -0.006 C 
ATOM     11  C   UNL A   1      32.243  22.238  23.059  1.00  0.00     0.047 C 
ATOM     12  C   UNL A   1      34.371  22.554  24.106  1.00  0.00    -0.016 C 
BRANCH   9  13
ATOM     13  N   UNL A   1      32.796  24.185  21.585  1.00  0.00    -0.315 N 
ATOM     14  O   UNL A   1      32.940  25.565  19.835  1.00  0.00    -0.224 OA
ATOM     15  C   UNL A   1      32.864  25.448  21.060  1.00  0.00     0.413 C 
ATOM     16  H   UNL A   1      32.836  23.468  20.912  1.00  0.00     0.167 HD
BRANCH  15  17
ATOM     17  O   UNL A   1      32.800  26.597  21.873  1.00  0.00    -0.410 OA
BRANCH  17  18
ATOM     18  C   UNL A   1      31.697  27.259  22.465  1.00  0.00     0.132 A 
ATOM     19  C   UNL A   1      31.729  28.651  22.512  1.00  0.00     0.047 A 
ATOM     20  C   UNL A   1      30.631  26.536  22.991  1.00  0.00     0.047 A 
ATOM     21  C   UNL A   1      30.626  29.334  23.018  1.00  0.00     0.004 A 
ATOM     22  C   UNL A   1      29.517  27.226  23.464  1.00  0.00     0.004 A 
ATOM     23  C   UNL A   1      29.511  28.623  23.471  1.00  0.00     0.000 A 
ENDBRANCH  17  18
ENDBRANCH  15  17
ENDBRANCH   9  13
ENDBRANCH   5   8
ENDBRANCH   3   4
ENDBRANCH   2   3
ENDBRANCH   1   2
BRANCH   1  24
ATOM     24  C   UNL A   1      32.733  26.403  26.086  1.00  0.00     0.002 C 
BRANCH  24  25
ATOM     25  C   UNL A   1      32.286  27.862  26.210  1.00  0.00     0.021 C 
BRANCH  25  26
ATOM     26  C   UNL A   1      33.325  28.890  25.775  1.00  0.00     0.116 C 
BRANCH  26  27
ATOM     27  N   UNL A   1      32.888  30.251  26.040  1.00  0.00    -0.352 N 
ATOM     28  C   UNL A   1      33.352  31.150  26.966  1.00  0.00     0.251 C 
ATOM     29  H   UNL A   1      32.153  30.574  25.471  1.00  0.00     0.163 HD
ATOM     30  O   UNL A   1      32.709  32.177  27.185  1.00  0.00    -0.269 OA
BRANCH  28  31
ATOM     31  C   UNL A   1      34.600  30.880  27.714  1.00  0.00     0.039 A 
ATOM     32  C   UNL A   1      34.737  29.662  28.384  1.00  0.00     0.014 A 
ATOM     33  C   UNL A   1      35.623  31.831  27.781  1.00  0.00     0.014 A 
ATOM     34  C   UNL A   1      35.917  29.378  29.078  1.00  0.00     0.010 A 
ATOM     35  C   UNL A   1      36.828  31.516  28.407  1.00  0.00     0.010 A 
ATOM     36  C   UNL A   1      36.986  30.291  29.073  1.00  0.00    -0.014 A 
BRANCH  36  37
ATOM     37  C   UNL A   1      38.259  29.985  29.779  1.00  0.00     0.031 A 
ATOM     38  C   UNL A   1      39.242  29.014  29.179  1.00  0.00     0.074 A 
ATOM     39  C   UNL A   1      38.511  30.545  30.979  1.00  0.00     0.049 A 
ATOM     40  N   UNL A   1      40.377  28.578  29.664  1.00  0.00    -0.248 NA
ATOM     41  C   UNL A   1      38.886  28.436  27.875  1.00  0.00     0.031 C 
ATOM     42  C   UNL A   1      37.621  31.473  31.681  1.00  0.00     0.029 A 
ATOM     43  N   UNL A   1      39.585  30.418  31.824  1.00  0.00    -0.354 N 
ATOM     44  C   UNL A   1      40.864  27.667  28.732  1.00  0.00     0.074 A 
ATOM     45  C   UNL A   1      39.867  27.566  27.687  1.00  0.00     0.031 C 
ATOM     46  C   UNL A   1      38.198  31.852  32.832  1.00  0.00     0.029 A 
ATOM     47  C   UNL A   1      39.474  31.159  32.977  1.00  0.00     0.049 A 
ATOM     48  H   UNL A   1      40.363  29.850  31.622  1.00  0.00     0.167 HD
ATOM     49  C   UNL A   1      42.043  26.996  28.734  1.00  0.00     0.034 A 
ATOM     50  C   UNL A   1      40.300  31.262  34.039  1.00  0.00     0.034 A 
ATOM     51  C   UNL A   1      43.031  27.118  29.779  1.00  0.00     0.049 A 
ATOM     52  C   UNL A   1      41.594  30.486  34.032  1.00  0.00     0.074 A 
ATOM     53  C   UNL A   1      44.280  26.524  29.856  1.00  0.00     0.029 A 
ATOM     54  N   UNL A   1      42.882  27.874  30.934  1.00  0.00    -0.354 N 
ATOM     55  N   UNL A   1      42.062  29.668  33.118  1.00  0.00    -0.248 NA
ATOM     56  C   UNL A   1      42.476  30.660  35.193  1.00  0.00     0.031 C 
ATOM     57  C   UNL A   1      44.850  26.860  31.089  1.00  0.00     0.029 A 
ATOM     58  C   UNL A   1      44.000  27.736  31.744  1.00  0.00     0.049 A 
ATOM     59  H   UNL A   1      42.096  28.429  31.147  1.00  0.00     0.167 HD
ATOM     60  C   UNL A   1      43.311  29.258  33.579  1.00  0.00     0.074 A 
ATOM     61  C   UNL A   1      43.526  29.932  34.843  1.00  0.00     0.031 C 
ATOM     62  C   UNL A   1      44.202  28.407  33.008  1.00  0.00     0.034 A 
BRANCH  49  63
ATOM     63  C   UNL A   1      42.311  26.051  27.585  1.00  0.00     0.023 A 
ATOM     64  C   UNL A   1      41.827  24.731  27.583  1.00  0.00     0.031 A 
ATOM     65  C   UNL A   1      43.079  26.468  26.483  1.00  0.00     0.131 A 
ATOM     66  C   UNL A   1      42.182  23.854  26.546  1.00  0.00     0.055 A 
ATOM     67  C   UNL A   1      43.354  25.617  25.411  1.00  0.00     0.041 A 
ATOM     68  F   UNL A   1      43.588  27.709  26.435  1.00  0.00    -0.206 F 
ATOM     69  C   UNL A   1      42.918  24.296  25.445  1.00  0.00     0.022 A 
BRANCH  66  70
ATOM     70  S   UNL A   1      41.797  22.091  26.733  1.00  0.00     0.124 S 
ATOM     71  O   UNL A   1      42.285  21.549  25.466  1.00  0.00    -0.237 OA
ATOM     72  O   UNL A   1      42.560  21.725  27.920  1.00  0.00    -0.237 OA
ATOM     73  O   UNL A   1      40.345  22.072  26.890  1.00  0.00    -0.744 OA
ENDBRANCH  66  70
ENDBRANCH  49  63
BRANCH  50  74
ATOM     74  C   UNL A   1      39.931  32.119  35.204  1.00  0.00     0.023 A 
ATOM     75  C   UNL A   1      39.086  31.641  36.218  1.00  0.00     0.031 A 
ATOM     76  C   UNL A   1      40.382  33.448  35.295  1.00  0.00     0.131 A 
ATOM     77  C   UNL A   1      38.678  32.500  37.251  1.00  0.00     0.055 A 
ATOM     78  C   UNL A   1      40.021  34.280  36.357  1.00  0.00     0.041 A 
ATOM     79  F   UNL A   1      41.195  33.956  34.355  1.00  0.00    -0.206 F 
ATOM     80  C   UNL A   1      39.151  33.810  37.335  1.00  0.00     0.022 A 
BRANCH  77  81
ATOM     81  S   UNL A   1      37.440  31.904  38.438  1.00  0.00     0.124 S 
ATOM     82  O   UNL A   1      38.133  32.092  39.707  1.00  0.00    -0.237 OA
ATOM     83  O   UNL A   1      36.318  32.799  38.179  1.00  0.00    -0.237 OA
ATOM     84  O   UNL A   1      37.232  30.513  38.041  1.00  0.00    -0.744 OA
ENDBRANCH  77  81
ENDBRANCH  50  74
BRANCH  62  85
ATOM     85  C   UNL A   1      45.516  28.202  33.724  1.00  0.00     0.023 A 
ATOM     86  C   UNL A   1      45.701  27.170  34.661  1.00  0.00     0.031 A 
ATOM     87  C   UNL A   1      46.597  29.067  33.473  1.00  0.00     0.131 A 
ATOM     88  C   UNL A   1      46.915  27.069  35.358  1.00  0.00     0.055 A 
ATOM     89  C   UNL A   1      47.826  28.918  34.119  1.00  0.00     0.041 A 
ATOM     90  F   UNL A   1      46.478  30.074  32.592  1.00  0.00    -0.206 F 
ATOM     91  C   UNL A   1      47.984  27.924  35.079  1.00  0.00     0.022 A 
BRANCH  88  92
ATOM     92  S   UNL A   1      47.041  25.873  36.716  1.00  0.00     0.124 S 
ATOM     93  O   UNL A   1      46.665  24.625  36.057  1.00  0.00    -0.237 OA
ATOM     94  O   UNL A   1      48.442  25.990  37.106  1.00  0.00    -0.237 OA
ATOM     95  O   UNL A   1      46.080  26.368  37.700  1.00  0.00    -0.744 OA
ENDBRANCH  88  92
ENDBRANCH  62  85
ENDBRANCH  36  37
ENDBRANCH  28  31
ENDBRANCH  26  27
ENDBRANCH  25  26
ENDBRANCH  24  25
ENDBRANCH   1  24
TORSDOF 19
ENDMDL
MODEL 3
REMARK VINA RESULT:     -11.1      1.942      2.638
REMARK SMILES O=C(N[C@@H]1C=C[C@@H](C(=O)NCCCCCCNC(=O)c2ccc(-c3c4nc(c(-c5cc(S(=O)(=O)[O-])ccc5F)c5ccc([nH]5)c(-c5cc(S(=O)(=O)[O-])ccc5F)c5nc(c(-c6cc(S(=O)(=O)[O-])ccc6F)c6ccc3[nH]6)C=C5)C=C4)cc2)C1)Oc1ccccc1
REMARK SMILES IDX 13 1 12 2 11 3 10 4 8 5 9 6 7 8 4 9 5 10 83 11 6 12 3 13
REMARK SMILES IDX 1 14 2 15 84 17 85 18 86 19 90 20 87 21 89 22 88 23 14 24
REMARK SMILES IDX 15 25 16 26 17 27 18 28 19 30 20 31 21 32 82 33 22 34 81 35
REMARK SMILES IDX 23 36 24 37 25 38 75 39 26 40 80 41 74 42 76 43 27 44 79 45
REMARK SMILES IDX 73 46 72 47 28 49 60 50 40 51 59 52 41 53 44 54 58 55 77 56
REMARK SMILES IDX 42 57 43 58 57 60 78 61 45 62 29 63 30 64 38 65 31 66 37 67
REMARK SMILES IDX 39 68 36 69 32 70 33 71 34 72 35 73 61 74 62 75 70 76 63 77
REMARK SMILES IDX 69 78 71 79 68 80 64 81 65 82 66 83 67 84 46 85 47 86 55 87
REMARK SMILES IDX 48 88 54 89 56 90 53 91 49 92 50 93 51 94 52 95
REMARK H PARENT 10 7 3 16 17 29 76 48 44 59
REMARK Flexibility Score: inf
ROOT
ATOM      1  C   UNL A   1      31.562  25.542  26.071  1.00  0.00     0.002 C 
ENDROOT
BRANCH   1   2
ATOM      2  C   UNL A   1      31.911  24.174  26.672  1.00  0.00     0.021 C 
BRANCH   2   3
ATOM      3  C   UNL A   1      31.124  23.009  26.073  1.00  0.00     0.116 C 
BRANCH   3   4
ATOM      4  N   UNL A   1      31.851  21.762  26.201  1.00  0.00    -0.356 N 
ATOM      5  C   UNL A   1      32.731  21.129  25.386  1.00  0.00     0.227 C 
ATOM      6  O   UNL A   1      33.192  20.057  25.798  1.00  0.00    -0.274 OA
ATOM      7  H   UNL A   1      31.672  21.283  27.042  1.00  0.00     0.163 HD
BRANCH   5   8
ATOM      8  C   UNL A   1      33.211  21.686  24.041  1.00  0.00     0.103 C 
ATOM      9  C   UNL A   1      32.665  23.856  23.000  1.00  0.00     0.109 C 
ATOM     10  C   UNL A   1      34.032  23.837  23.609  1.00  0.00    -0.006 C 
ATOM     11  C   UNL A   1      32.186  22.399  23.149  1.00  0.00     0.047 C 
ATOM     12  C   UNL A   1      34.322  22.672  24.193  1.00  0.00    -0.016 C 
BRANCH   9  13
ATOM     13  N   UNL A   1      32.799  24.297  21.636  1.00  0.00    -0.315 N 
ATOM     14  O   UNL A   1      32.936  25.635  19.853  1.00  0.00    -0.224 OA
ATOM     15  C   UNL A   1      32.835  25.548  21.079  1.00  0.00     0.413 C 
ATOM     16  H   UNL A   1      32.880  23.565  20.984  1.00  0.00     0.167 HD
BRANCH  15  17
ATOM     17  O   UNL A   1      32.711  26.715  21.859  1.00  0.00    -0.410 OA
BRANCH  17  18
ATOM     18  C   UNL A   1      31.568  27.380  22.365  1.00  0.00     0.132 A 
ATOM     19  C   UNL A   1      30.536  26.593  22.872  1.00  0.00     0.047 A 
ATOM     20  C   UNL A   1      31.481  28.768  22.338  1.00  0.00     0.047 A 
ATOM     21  C   UNL A   1      29.432  27.218  23.447  1.00  0.00     0.004 A 
ATOM     22  C   UNL A   1      30.390  29.386  22.945  1.00  0.00     0.004 A 
ATOM     23  C   UNL A   1      29.370  28.613  23.505  1.00  0.00     0.000 A 
ENDBRANCH  17  18
ENDBRANCH  15  17
ENDBRANCH   9  13
ENDBRANCH   5   8
ENDBRANCH   3   4
ENDBRANCH   2   3
ENDBRANCH   1   2
BRANCH   1  24
ATOM     24  C   UNL A   1      32.505  26.686  26.458  1.00  0.00     0.002 C 
BRANCH  24  25
ATOM     25  C   UNL A   1      31.954  28.095  26.221  1.00  0.00     0.021 C 
BRANCH  25  26
ATOM     26  C   UNL A   1      32.965  29.095  25.669  1.00  0.00     0.116 C 
BRANCH  26  27
ATOM     27  N   UNL A   1      32.625  30.463  26.023  1.00  0.00    -0.352 N 
ATOM     28  C   UNL A   1      33.171  31.276  26.982  1.00  0.00     0.251 C 
ATOM     29  H   UNL A   1      31.897  30.864  25.496  1.00  0.00     0.163 HD
ATOM     30  O   UNL A   1      32.603  32.328  27.277  1.00  0.00    -0.269 OA
BRANCH  28  31
ATOM     31  C   UNL A   1      34.419  30.885  27.676  1.00  0.00     0.039 A 
ATOM     32  C   UNL A   1      35.471  31.803  27.741  1.00  0.00     0.014 A 
ATOM     33  C   UNL A   1      34.568  29.614  28.238  1.00  0.00     0.014 A 
ATOM     34  C   UNL A   1      36.650  31.462  28.410  1.00  0.00     0.010 A 
ATOM     35  C   UNL A   1      35.712  29.304  28.971  1.00  0.00     0.010 A 
ATOM     36  C   UNL A   1      36.772  30.220  29.057  1.00  0.00    -0.014 A 
BRANCH  36  37
ATOM     37  C   UNL A   1      38.009  29.860  29.801  1.00  0.00     0.031 A 
ATOM     38  C   UNL A   1      38.264  30.439  31.168  1.00  0.00     0.074 A 
ATOM     39  C   UNL A   1      38.922  29.049  29.231  1.00  0.00     0.049 A 
ATOM     40  N   UNL A   1      39.302  30.290  31.951  1.00  0.00    -0.248 NA
ATOM     41  C   UNL A   1      37.225  31.326  31.713  1.00  0.00     0.031 C 
ATOM     42  C   UNL A   1      38.807  28.454  27.897  1.00  0.00     0.029 A 
ATOM     43  N   UNL A   1      40.128  28.585  29.695  1.00  0.00    -0.354 N 
ATOM     44  C   UNL A   1      39.048  31.072  33.073  1.00  0.00     0.074 A 
ATOM     45  C   UNL A   1      37.788  31.743  32.837  1.00  0.00     0.031 C 
ATOM     46  C   UNL A   1      39.881  27.684  27.664  1.00  0.00     0.029 A 
ATOM     47  C   UNL A   1      40.786  27.766  28.807  1.00  0.00     0.049 A 
ATOM     48  H   UNL A   1      40.488  28.817  30.581  1.00  0.00     0.167 HD
ATOM     49  C   UNL A   1      39.784  31.199  34.206  1.00  0.00     0.034 A 
ATOM     50  C   UNL A   1      41.987  27.159  28.894  1.00  0.00     0.034 A 
ATOM     51  C   UNL A   1      41.034  30.512  34.430  1.00  0.00     0.049 A 
ATOM     52  C   UNL A   1      42.801  27.336  30.153  1.00  0.00     0.074 A 
ATOM     53  C   UNL A   1      41.835  30.528  35.559  1.00  0.00     0.029 A 
ATOM     54  N   UNL A   1      41.672  29.694  33.506  1.00  0.00    -0.354 N 
ATOM     55  N   UNL A   1      42.522  28.039  31.226  1.00  0.00    -0.248 NA
ATOM     56  C   UNL A   1      44.084  26.625  30.216  1.00  0.00     0.031 C 
ATOM     57  C   UNL A   1      42.990  29.786  35.289  1.00  0.00     0.029 A 
ATOM     58  C   UNL A   1      42.870  29.229  34.026  1.00  0.00     0.049 A 
ATOM     59  H   UNL A   1      41.323  29.476  32.610  1.00  0.00     0.167 HD
ATOM     60  C   UNL A   1      43.579  27.825  32.106  1.00  0.00     0.074 A 
ATOM     61  C   UNL A   1      44.491  26.915  31.443  1.00  0.00     0.031 C 
ATOM     62  C   UNL A   1      43.777  28.328  33.352  1.00  0.00     0.034 A 
BRANCH  49  63
ATOM     63  C   UNL A   1      39.268  32.137  35.273  1.00  0.00     0.023 A 
ATOM     64  C   UNL A   1      39.693  33.475  35.352  1.00  0.00     0.031 A 
ATOM     65  C   UNL A   1      38.353  31.683  36.239  1.00  0.00     0.131 A 
ATOM     66  C   UNL A   1      39.269  34.285  36.417  1.00  0.00     0.055 A 
ATOM     67  C   UNL A   1      37.864  32.520  37.244  1.00  0.00     0.041 A 
ATOM     68  F   UNL A   1      37.925  30.411  36.231  1.00  0.00    -0.206 F 
ATOM     69  C   UNL A   1      38.335  33.826  37.348  1.00  0.00     0.022 A 
BRANCH  66  70
ATOM     70  S   UNL A   1      40.071  35.895  36.654  1.00  0.00     0.124 S 
ATOM     71  O   UNL A   1      41.472  35.505  36.804  1.00  0.00    -0.237 OA
ATOM     72  O   UNL A   1      39.733  36.600  35.424  1.00  0.00    -0.237 OA
ATOM     73  O   UNL A   1      39.445  36.414  37.868  1.00  0.00    -0.744 OA
ENDBRANCH  66  70
ENDBRANCH  49  63
BRANCH  50  74
ATOM     74  C   UNL A   1      42.505  26.338  27.761  1.00  0.00     0.023 A 
ATOM     75  C   UNL A   1      42.051  25.026  27.549  1.00  0.00     0.031 A 
ATOM     76  C   UNL A   1      43.498  26.838  26.901  1.00  0.00     0.131 A 
ATOM     77  C   UNL A   1      42.625  24.243  26.535  1.00  0.00     0.055 A 
ATOM     78  C   UNL A   1      44.023  26.075  25.855  1.00  0.00     0.041 A 
ATOM     79  F   UNL A   1      43.966  28.086  27.055  1.00  0.00    -0.206 F 
ATOM     80  C   UNL A   1      43.597  24.763  25.678  1.00  0.00     0.022 A 
BRANCH  77  81
ATOM     81  S   UNL A   1      42.147  22.497  26.411  1.00  0.00     0.124 S 
ATOM     82  O   UNL A   1      42.733  21.943  27.626  1.00  0.00    -0.237 OA
ATOM     83  O   UNL A   1      40.691  22.582  26.380  1.00  0.00    -0.237 OA
ATOM     84  O   UNL A   1      42.771  22.062  25.162  1.00  0.00    -0.744 OA
ENDBRANCH  77  81
ENDBRANCH  50  74
BRANCH  62  85
ATOM     85  C   UNL A   1      45.005  27.859  34.098  1.00  0.00     0.023 A 
ATOM     86  C   UNL A   1      45.012  26.671  34.850  1.00  0.00     0.031 A 
ATOM     87  C   UNL A   1      46.184  28.626  34.066  1.00  0.00     0.131 A 
ATOM     88  C   UNL A   1      46.152  26.319  35.589  1.00  0.00     0.055 A 
ATOM     89  C   UNL A   1      47.337  28.235  34.748  1.00  0.00     0.041 A 
ATOM     90  F   UNL A   1      46.235  29.773  33.368  1.00  0.00    -0.206 F 
ATOM     91  C   UNL A   1      47.320  27.083  35.528  1.00  0.00     0.022 A 
BRANCH  88  92
ATOM     92  S   UNL A   1      46.051  24.907  36.723  1.00  0.00     0.124 S 
ATOM     93  O   UNL A   1      46.618  23.829  35.917  1.00  0.00    -0.237 OA
ATOM     94  O   UNL A   1      46.862  25.353  37.851  1.00  0.00    -0.237 OA
ATOM     95  O   UNL A   1      44.620  24.788  36.997  1.00  0.00    -0.744 OA
ENDBRANCH  88  92
ENDBRANCH  62  85
ENDBRANCH  36  37
ENDBRANCH  28  31
ENDBRANCH  26  27
ENDBRANCH  25  26
ENDBRANCH  24  25
ENDBRANCH   1  24
TORSDOF 19
ENDMDL
