MODEL 1
REMARK VINA RESULT:     -11.2      0.000      0.000
REMARK SMILES COc1cc(F)ccc1NCC(C)(C)C(=O)NCCCCCCNC(=O)c1ccc(-c2c3nc(c(-c4cc(S(=O)(=O)[O-])ccc4F)c4ccc([nH]4)c(-c4cc(S(=O)(=O)[O-])ccc4F)c4nc(c(-c5cc(S(=O)(=O)[O-])ccc5F)c5ccc2[nH]5)C=C4)C=C3)cc1
REMARK SMILES IDX 20 1 19 2 18 3 17 4 15 5 16 6 12 8 13 9 14 10 11 11 10 12
REMARK SMILES IDX 9 14 3 15 4 16 5 17 8 18 6 19 7 20 2 21 1 22 21 23 22 24
REMARK SMILES IDX 23 25 24 26 25 27 26 29 27 30 28 31 89 32 29 33 88 34 30 35
REMARK SMILES IDX 31 36 32 37 82 38 33 39 87 40 81 41 83 42 34 43 86 44 80 45
REMARK SMILES IDX 79 46 35 48 67 49 47 50 66 51 48 52 51 53 65 54 84 55 49 56
REMARK SMILES IDX 50 57 64 59 85 60 52 61 36 62 37 63 45 64 38 65 44 66 46 67
REMARK SMILES IDX 43 68 39 69 40 70 41 71 42 72 68 73 69 74 77 75 70 76 76 77
REMARK SMILES IDX 78 78 75 79 71 80 72 81 73 82 74 83 53 84 54 85 62 86 55 87
REMARK SMILES IDX 61 88 63 89 60 90 56 91 57 92 58 93 59 94
REMARK H PARENT 17 7 10 13 24 28 83 47 51 58
REMARK Flexibility Score: inf
ROOT
ATOM      1  C   UNL A   1      33.306  20.722  25.557  1.00  0.00     0.002 C 
ENDROOT
BRANCH   1   2
ATOM      2  C   UNL A   1      33.613  21.160  26.995  1.00  0.00     0.021 C 
BRANCH   2   3
ATOM      3  C   UNL A   1      33.091  22.556  27.340  1.00  0.00     0.116 C 
BRANCH   3   4
ATOM      4  N   UNL A   1      31.642  22.553  27.372  1.00  0.00    -0.356 N 
ATOM      5  C   UNL A   1      30.722  23.401  26.838  1.00  0.00     0.227 C 
ATOM      6  O   UNL A   1      29.621  23.395  27.395  1.00  0.00    -0.274 OA
ATOM      7  H   UNL A   1      31.252  21.800  27.872  1.00  0.00     0.163 HD
BRANCH   5   8
ATOM      8  C   UNL A   1      31.056  24.340  25.663  1.00  0.00     0.061 C 
ATOM      9  C   UNL A   1      31.253  23.578  24.341  1.00  0.00     0.023 C 
ATOM     10  C   UNL A   1      32.311  25.165  26.020  1.00  0.00     0.023 C 
BRANCH   8  11
ATOM     11  C   UNL A   1      29.912  25.379  25.469  1.00  0.00     0.129 C 
BRANCH  11  12
ATOM     12  N   UNL A   1      29.592  25.671  24.081  1.00  0.00    -0.381 N 
ATOM     13  H   UNL A   1      29.452  24.899  23.487  1.00  0.00     0.160 HD
BRANCH  12  14
ATOM     14  C   UNL A   1      29.466  26.931  23.512  1.00  0.00     0.077 A 
ATOM     15  C   UNL A   1      30.607  27.534  22.927  1.00  0.00     0.144 A 
ATOM     16  C   UNL A   1      30.528  28.807  22.351  1.00  0.00     0.087 A 
ATOM     17  C   UNL A   1      29.319  29.491  22.368  1.00  0.00     0.127 A 
ATOM     18  C   UNL A   1      28.267  27.659  23.508  1.00  0.00     0.032 A 
ATOM     19  F   UNL A   1      29.244  30.709  21.816  1.00  0.00    -0.207 F 
ATOM     20  C   UNL A   1      28.190  28.932  22.940  1.00  0.00     0.041 A 
BRANCH  15  21
ATOM     21  O   UNL A   1      31.750  26.762  22.916  1.00  0.00    -0.494 OA
ATOM     22  C   UNL A   1      32.034  26.092  21.694  1.00  0.00     0.278 C 
ENDBRANCH  15  21
ENDBRANCH  12  14
ENDBRANCH  11  12
ENDBRANCH   8  11
ENDBRANCH   5   8
ENDBRANCH   3   4
ENDBRANCH   2   3
ENDBRANCH   1   2
BRANCH   1  23
ATOM     23  C   UNL A   1      34.531  20.604  24.646  1.00  0.00     0.002 C 
BRANCH  23  24
ATOM     24  C   UNL A   1      35.125  21.940  24.192  1.00  0.00     0.021 C 
BRANCH  24  25
ATOM     25  C   UNL A   1      36.398  22.347  24.927  1.00  0.00     0.116 C 
BRANCH  25  26
ATOM     26  N   UNL A   1      37.215  21.194  25.268  1.00  0.00    -0.352 N 
ATOM     27  C   UNL A   1      38.501  21.158  25.741  1.00  0.00     0.251 C 
ATOM     28  H   UNL A   1      36.783  20.318  25.143  1.00  0.00     0.163 HD
ATOM     29  O   UNL A   1      39.115  20.092  25.761  1.00  0.00    -0.269 OA
BRANCH  27  30
ATOM     30  C   UNL A   1      39.151  22.402  26.202  1.00  0.00     0.039 A 
ATOM     31  C   UNL A   1      40.312  22.315  26.972  1.00  0.00     0.014 A 
ATOM     32  C   UNL A   1      38.616  23.653  25.873  1.00  0.00     0.014 A 
ATOM     33  C   UNL A   1      40.968  23.483  27.366  1.00  0.00     0.010 A 
ATOM     34  C   UNL A   1      39.312  24.813  26.203  1.00  0.00     0.010 A 
ATOM     35  C   UNL A   1      40.495  24.741  26.954  1.00  0.00    -0.014 A 
BRANCH  35  36
ATOM     36  C   UNL A   1      41.225  25.988  27.300  1.00  0.00     0.031 A 
ATOM     37  C   UNL A   1      40.555  27.052  28.126  1.00  0.00     0.074 A 
ATOM     38  C   UNL A   1      42.476  26.178  26.835  1.00  0.00     0.049 A 
ATOM     39  N   UNL A   1      41.002  28.232  28.468  1.00  0.00    -0.248 NA
ATOM     40  C   UNL A   1      39.197  26.761  28.617  1.00  0.00     0.031 C 
ATOM     41  C   UNL A   1      43.221  25.230  26.003  1.00  0.00     0.029 A 
ATOM     42  N   UNL A   1      43.346  27.230  26.993  1.00  0.00    -0.354 N 
ATOM     43  C   UNL A   1      39.985  28.826  29.205  1.00  0.00     0.074 A 
ATOM     44  C   UNL A   1      38.875  27.898  29.220  1.00  0.00     0.031 C 
ATOM     45  C   UNL A   1      44.443  25.727  25.754  1.00  0.00     0.029 A 
ATOM     46  C   UNL A   1      44.554  27.050  26.359  1.00  0.00     0.049 A 
ATOM     47  H   UNL A   1      43.125  28.037  27.511  1.00  0.00     0.167 HD
ATOM     48  C   UNL A   1      39.985  30.027  29.831  1.00  0.00     0.034 A 
ATOM     49  C   UNL A   1      45.627  27.862  26.262  1.00  0.00     0.034 A 
ATOM     50  C   UNL A   1      41.105  30.933  29.833  1.00  0.00     0.049 A 
ATOM     51  C   UNL A   1      45.588  29.206  26.939  1.00  0.00     0.074 A 
ATOM     52  C   UNL A   1      41.220  32.150  30.480  1.00  0.00     0.029 A 
ATOM     53  N   UNL A   1      42.300  30.724  29.159  1.00  0.00    -0.354 N 
ATOM     54  N   UNL A   1      44.618  29.745  27.642  1.00  0.00    -0.248 NA
ATOM     55  C   UNL A   1      46.781  30.054  26.811  1.00  0.00     0.031 C 
ATOM     56  C   UNL A   1      42.454  32.709  30.144  1.00  0.00     0.029 A 
ATOM     57  C   UNL A   1      43.144  31.806  29.350  1.00  0.00     0.049 A 
ATOM     58  H   UNL A   1      42.516  29.926  28.626  1.00  0.00     0.167 HD
ATOM     59  C   UNL A   1      45.095  30.983  28.060  1.00  0.00     0.074 A 
ATOM     60  C   UNL A   1      46.439  31.112  27.535  1.00  0.00     0.031 C 
ATOM     61  C   UNL A   1      44.477  31.926  28.815  1.00  0.00     0.034 A 
BRANCH  48  62
ATOM     62  C   UNL A   1      38.739  30.445  30.565  1.00  0.00     0.023 A 
ATOM     63  C   UNL A   1      37.760  31.245  29.954  1.00  0.00     0.031 A 
ATOM     64  C   UNL A   1      38.498  29.983  31.870  1.00  0.00     0.131 A 
ATOM     65  C   UNL A   1      36.594  31.581  30.658  1.00  0.00     0.055 A 
ATOM     66  C   UNL A   1      37.310  30.270  32.544  1.00  0.00     0.041 A 
ATOM     67  F   UNL A   1      39.409  29.228  32.506  1.00  0.00    -0.206 F 
ATOM     68  C   UNL A   1      36.351  31.076  31.939  1.00  0.00     0.022 A 
BRANCH  65  69
ATOM     69  S   UNL A   1      35.415  32.728  29.897  1.00  0.00     0.124 S 
ATOM     70  O   UNL A   1      36.300  33.564  29.089  1.00  0.00    -0.237 OA
ATOM     71  O   UNL A   1      34.532  31.834  29.157  1.00  0.00    -0.237 OA
ATOM     72  O   UNL A   1      34.804  33.401  31.041  1.00  0.00    -0.744 OA
ENDBRANCH  65  69
ENDBRANCH  48  62
BRANCH  49  73
ATOM     73  C   UNL A   1      46.819  27.433  25.478  1.00  0.00     0.023 A 
ATOM     74  C   UNL A   1      46.990  27.829  24.143  1.00  0.00     0.031 A 
ATOM     75  C   UNL A   1      47.805  26.613  26.056  1.00  0.00     0.131 A 
ATOM     76  C   UNL A   1      48.109  27.383  23.420  1.00  0.00     0.055 A 
ATOM     77  C   UNL A   1      48.938  26.209  25.348  1.00  0.00     0.041 A 
ATOM     78  F   UNL A   1      47.691  26.212  27.332  1.00  0.00    -0.206 F 
ATOM     79  C   UNL A   1      49.091  26.589  24.018  1.00  0.00     0.022 A 
BRANCH  76  80
ATOM     80  S   UNL A   1      48.246  27.823  21.666  1.00  0.00     0.124 S 
ATOM     81  O   UNL A   1      48.485  26.521  21.053  1.00  0.00    -0.237 OA
ATOM     82  O   UNL A   1      46.946  28.429  21.401  1.00  0.00    -0.237 OA
ATOM     83  O   UNL A   1      49.378  28.746  21.635  1.00  0.00    -0.744 OA
ENDBRANCH  76  80
ENDBRANCH  49  73
BRANCH  61  84
ATOM     84  C   UNL A   1      45.253  33.170  29.153  1.00  0.00     0.023 A 
ATOM     85  C   UNL A   1      45.148  34.337  28.377  1.00  0.00     0.031 A 
ATOM     86  C   UNL A   1      46.058  33.207  30.306  1.00  0.00     0.131 A 
ATOM     87  C   UNL A   1      45.856  35.487  28.752  1.00  0.00     0.055 A 
ATOM     88  C   UNL A   1      46.720  34.369  30.701  1.00  0.00     0.041 A 
ATOM     89  F   UNL A   1      46.187  32.119  31.082  1.00  0.00    -0.206 F 
ATOM     90  C   UNL A   1      46.625  35.517  29.920  1.00  0.00     0.022 A 
BRANCH  87  91
ATOM     91  S   UNL A   1      45.783  36.946  27.678  1.00  0.00     0.124 S 
ATOM     92  O   UNL A   1      47.063  36.869  26.980  1.00  0.00    -0.237 OA
ATOM     93  O   UNL A   1      44.598  36.682  26.866  1.00  0.00    -0.237 OA
ATOM     94  O   UNL A   1      45.655  38.059  28.617  1.00  0.00    -0.744 OA
ENDBRANCH  87  91
ENDBRANCH  61  84
ENDBRANCH  35  36
ENDBRANCH  27  30
ENDBRANCH  25  26
ENDBRANCH  24  25
ENDBRANCH  23  24
ENDBRANCH   1  23
TORSDOF 20
ENDMDL
MODEL 2
REMARK VINA RESULT:     -11.2      1.573      7.669
REMARK SMILES COc1cc(F)ccc1NCC(C)(C)C(=O)NCCCCCCNC(=O)c1ccc(-c2c3nc(c(-c4cc(S(=O)(=O)[O-])ccc4F)c4ccc([nH]4)c(-c4cc(S(=O)(=O)[O-])ccc4F)c4nc(c(-c5cc(S(=O)(=O)[O-])ccc5F)c5ccc2[nH]5)C=C4)C=C3)cc1
REMARK SMILES IDX 20 1 19 2 18 3 17 4 15 5 16 6 12 8 13 9 14 10 11 11 10 12
REMARK SMILES IDX 9 14 3 15 4 16 5 17 8 18 6 19 7 20 2 21 1 22 21 23 22 24
REMARK SMILES IDX 23 25 24 26 25 27 26 29 27 30 28 31 89 32 29 33 88 34 30 35
REMARK SMILES IDX 31 36 32 37 82 38 33 39 87 40 81 41 83 42 34 43 86 44 80 45
REMARK SMILES IDX 79 46 35 48 67 49 47 50 66 51 48 52 51 53 65 54 84 55 49 56
REMARK SMILES IDX 50 57 64 59 85 60 52 61 36 62 37 63 45 64 38 65 44 66 46 67
REMARK SMILES IDX 43 68 39 69 40 70 41 71 42 72 68 73 69 74 77 75 70 76 76 77
REMARK SMILES IDX 78 78 75 79 71 80 72 81 73 82 74 83 53 84 54 85 62 86 55 87
REMARK SMILES IDX 61 88 63 89 60 90 56 91 57 92 58 93 59 94
REMARK H PARENT 17 7 10 13 24 28 83 47 51 58
REMARK Flexibility Score: inf
ROOT
ATOM      1  C   UNL A   1      34.402  20.455  24.858  1.00  0.00     0.002 C 
ENDROOT
BRANCH   1   2
ATOM      2  C   UNL A   1      33.201  20.691  25.782  1.00  0.00     0.021 C 
BRANCH   2   3
ATOM      3  C   UNL A   1      31.921  21.086  25.043  1.00  0.00     0.116 C 
BRANCH   3   4
ATOM      4  N   UNL A   1      31.024  21.788  25.940  1.00  0.00    -0.356 N 
ATOM      5  C   UNL A   1      30.890  23.108  26.238  1.00  0.00     0.227 C 
ATOM      6  O   UNL A   1      30.371  23.346  27.332  1.00  0.00    -0.274 OA
ATOM      7  H   UNL A   1      30.396  21.201  26.419  1.00  0.00     0.163 HD
BRANCH   5   8
ATOM      8  C   UNL A   1      31.407  24.217  25.302  1.00  0.00     0.061 C 
ATOM      9  C   UNL A   1      31.187  23.880  23.817  1.00  0.00     0.023 C 
ATOM     10  C   UNL A   1      32.901  24.470  25.599  1.00  0.00     0.023 C 
BRANCH   8  11
ATOM     11  C   UNL A   1      30.683  25.560  25.617  1.00  0.00     0.129 C 
BRANCH  11  12
ATOM     12  N   UNL A   1      31.228  26.715  24.922  1.00  0.00    -0.381 N 
ATOM     13  H   UNL A   1      31.482  26.587  23.980  1.00  0.00     0.160 HD
BRANCH  12  14
ATOM     14  C   UNL A   1      31.425  27.981  25.457  1.00  0.00     0.077 A 
ATOM     15  C   UNL A   1      31.145  29.114  24.653  1.00  0.00     0.144 A 
ATOM     16  C   UNL A   1      31.338  30.408  25.148  1.00  0.00     0.087 A 
ATOM     17  C   UNL A   1      31.825  30.581  26.437  1.00  0.00     0.127 A 
ATOM     18  C   UNL A   1      31.915  28.203  26.752  1.00  0.00     0.032 A 
ATOM     19  F   UNL A   1      32.009  31.821  26.911  1.00  0.00    -0.207 F 
ATOM     20  C   UNL A   1      32.115  29.494  27.244  1.00  0.00     0.041 A 
BRANCH  15  21
ATOM     21  O   UNL A   1      30.623  28.845  23.405  1.00  0.00    -0.494 OA
ATOM     22  C   UNL A   1      29.549  29.679  22.989  1.00  0.00     0.278 C 
ENDBRANCH  15  21
ENDBRANCH  12  14
ENDBRANCH  11  12
ENDBRANCH   8  11
ENDBRANCH   5   8
ENDBRANCH   3   4
ENDBRANCH   2   3
ENDBRANCH   1   2
BRANCH   1  23
ATOM     23  C   UNL A   1      35.262  21.694  24.593  1.00  0.00     0.002 C 
BRANCH  23  24
ATOM     24  C   UNL A   1      36.357  21.950  25.631  1.00  0.00     0.021 C 
BRANCH  24  25
ATOM     25  C   UNL A   1      37.776  21.918  25.073  1.00  0.00     0.116 C 
BRANCH  25  26
ATOM     26  N   UNL A   1      38.602  20.938  25.759  1.00  0.00    -0.352 N 
ATOM     27  C   UNL A   1      39.737  21.136  26.503  1.00  0.00     0.251 C 
ATOM     28  H   UNL A   1      38.305  20.003  25.679  1.00  0.00     0.163 HD
ATOM     29  O   UNL A   1      40.434  20.174  26.822  1.00  0.00    -0.269 OA
BRANCH  27  30
ATOM     30  C   UNL A   1      40.128  22.505  26.897  1.00  0.00     0.039 A 
ATOM     31  C   UNL A   1      41.084  22.674  27.901  1.00  0.00     0.014 A 
ATOM     32  C   UNL A   1      39.555  23.620  26.277  1.00  0.00     0.014 A 
ATOM     33  C   UNL A   1      41.505  23.961  28.243  1.00  0.00     0.010 A 
ATOM     34  C   UNL A   1      40.030  24.897  26.567  1.00  0.00     0.010 A 
ATOM     35  C   UNL A   1      41.009  25.081  27.554  1.00  0.00    -0.014 A 
BRANCH  35  36
ATOM     36  C   UNL A   1      41.505  26.450  27.855  1.00  0.00     0.031 A 
ATOM     37  C   UNL A   1      42.907  26.845  27.479  1.00  0.00     0.074 A 
ATOM     38  C   UNL A   1      40.705  27.319  28.505  1.00  0.00     0.049 A 
ATOM     39  N   UNL A   1      43.539  27.963  27.722  1.00  0.00    -0.248 NA
ATOM     40  C   UNL A   1      43.711  25.848  26.752  1.00  0.00     0.031 C 
ATOM     41  C   UNL A   1      39.336  27.042  28.944  1.00  0.00     0.029 A 
ATOM     42  N   UNL A   1      40.924  28.614  28.910  1.00  0.00    -0.354 N 
ATOM     43  C   UNL A   1      44.812  27.805  27.186  1.00  0.00     0.074 A 
ATOM     44  C   UNL A   1      44.881  26.464  26.649  1.00  0.00     0.031 C 
ATOM     45  C   UNL A   1      38.827  28.140  29.524  1.00  0.00     0.029 A 
ATOM     46  C   UNL A   1      39.848  29.183  29.550  1.00  0.00     0.049 A 
ATOM     47  H   UNL A   1      41.772  29.089  28.758  1.00  0.00     0.167 HD
ATOM     48  C   UNL A   1      45.822  28.704  27.129  1.00  0.00     0.034 A 
ATOM     49  C   UNL A   1      39.699  30.402  30.109  1.00  0.00     0.034 A 
ATOM     50  C   UNL A   1      45.734  30.047  27.644  1.00  0.00     0.049 A 
ATOM     51  C   UNL A   1      40.851  31.372  30.061  1.00  0.00     0.074 A 
ATOM     52  C   UNL A   1      46.687  31.049  27.587  1.00  0.00     0.029 A 
ATOM     53  N   UNL A   1      44.636  30.577  28.305  1.00  0.00    -0.354 N 
ATOM     54  N   UNL A   1      42.044  31.205  29.538  1.00  0.00    -0.248 NA
ATOM     55  C   UNL A   1      40.642  32.689  30.676  1.00  0.00     0.031 C 
ATOM     56  C   UNL A   1      46.193  32.160  28.274  1.00  0.00     0.029 A 
ATOM     57  C   UNL A   1      44.902  31.880  28.691  1.00  0.00     0.049 A 
ATOM     58  H   UNL A   1      43.794  30.098  28.476  1.00  0.00     0.167 HD
ATOM     59  C   UNL A   1      42.717  32.406  29.741  1.00  0.00     0.074 A 
ATOM     60  C   UNL A   1      41.799  33.289  30.429  1.00  0.00     0.031 C 
ATOM     61  C   UNL A   1      43.981  32.747  29.384  1.00  0.00     0.034 A 
BRANCH  48  62
ATOM     62  C   UNL A   1      47.119  28.276  26.494  1.00  0.00     0.023 A 
ATOM     63  C   UNL A   1      47.246  28.138  25.103  1.00  0.00     0.031 A 
ATOM     64  C   UNL A   1      48.260  28.066  27.289  1.00  0.00     0.131 A 
ATOM     65  C   UNL A   1      48.482  27.776  24.548  1.00  0.00     0.055 A 
ATOM     66  C   UNL A   1      49.501  27.764  26.728  1.00  0.00     0.041 A 
ATOM     67  F   UNL A   1      48.188  28.170  28.627  1.00  0.00    -0.206 F 
ATOM     68  C   UNL A   1      49.616  27.614  25.349  1.00  0.00     0.022 A 
BRANCH  65  69
ATOM     69  S   UNL A   1      48.581  27.469  22.764  1.00  0.00     0.124 S 
ATOM     70  O   UNL A   1      49.889  28.035  22.442  1.00  0.00    -0.237 OA
ATOM     71  O   UNL A   1      48.477  26.016  22.684  1.00  0.00    -0.237 OA
ATOM     72  O   UNL A   1      47.439  28.206  22.226  1.00  0.00    -0.744 OA
ENDBRANCH  65  69
ENDBRANCH  48  62
BRANCH  49  73
ATOM     73  C   UNL A   1      38.419  30.766  30.777  1.00  0.00     0.023 A 
ATOM     74  C   UNL A   1      37.404  31.442  30.082  1.00  0.00     0.031 A 
ATOM     75  C   UNL A   1      38.194  30.446  32.128  1.00  0.00     0.131 A 
ATOM     76  C   UNL A   1      36.220  31.799  30.748  1.00  0.00     0.055 A 
ATOM     77  C   UNL A   1      36.998  30.764  32.774  1.00  0.00     0.041 A 
ATOM     78  F   UNL A   1      39.131  29.795  32.836  1.00  0.00    -0.206 F 
ATOM     79  C   UNL A   1      36.004  31.451  32.084  1.00  0.00     0.022 A 
BRANCH  76  80
ATOM     80  S   UNL A   1      34.973  32.765  29.853  1.00  0.00     0.124 S 
ATOM     81  O   UNL A   1      34.482  31.790  28.885  1.00  0.00    -0.237 OA
ATOM     82  O   UNL A   1      34.049  33.133  30.920  1.00  0.00    -0.237 OA
ATOM     83  O   UNL A   1      35.742  33.873  29.290  1.00  0.00    -0.744 OA
ENDBRANCH  76  80
ENDBRANCH  49  73
BRANCH  61  84
ATOM     84  C   UNL A   1      44.443  34.145  29.697  1.00  0.00     0.023 A 
ATOM     85  C   UNL A   1      44.203  35.214  28.817  1.00  0.00     0.031 A 
ATOM     86  C   UNL A   1      45.075  34.420  30.923  1.00  0.00     0.131 A 
ATOM     87  C   UNL A   1      44.614  36.508  29.167  1.00  0.00     0.055 A 
ATOM     88  C   UNL A   1      45.436  35.717  31.287  1.00  0.00     0.041 A 
ATOM     89  F   UNL A   1      45.322  33.433  31.799  1.00  0.00    -0.206 F 
ATOM     90  C   UNL A   1      45.210  36.769  30.405  1.00  0.00     0.022 A 
BRANCH  87  91
ATOM     91  S   UNL A   1      44.384  37.849  27.970  1.00  0.00     0.124 S 
ATOM     92  O   UNL A   1      45.760  38.268  27.719  1.00  0.00    -0.237 OA
ATOM     93  O   UNL A   1      43.711  37.175  26.864  1.00  0.00    -0.237 OA
ATOM     94  O   UNL A   1      43.564  38.819  28.694  1.00  0.00    -0.744 OA
ENDBRANCH  87  91
ENDBRANCH  61  84
ENDBRANCH  35  36
ENDBRANCH  27  30
ENDBRANCH  25  26
ENDBRANCH  24  25
ENDBRANCH  23  24
ENDBRANCH   1  23
TORSDOF 20
ENDMDL
MODEL 3
REMARK VINA RESULT:     -11.0      2.741      7.809
REMARK SMILES COc1cc(F)ccc1NCC(C)(C)C(=O)NCCCCCCNC(=O)c1ccc(-c2c3nc(c(-c4cc(S(=O)(=O)[O-])ccc4F)c4ccc([nH]4)c(-c4cc(S(=O)(=O)[O-])ccc4F)c4nc(c(-c5cc(S(=O)(=O)[O-])ccc5F)c5ccc2[nH]5)C=C4)C=C3)cc1
REMARK SMILES IDX 20 1 19 2 18 3 17 4 15 5 16 6 12 8 13 9 14 10 11 11 10 12
REMARK SMILES IDX 9 14 3 15 4 16 5 17 8 18 6 19 7 20 2 21 1 22 21 23 22 24
REMARK SMILES IDX 23 25 24 26 25 27 26 29 27 30 28 31 89 32 29 33 88 34 30 35
REMARK SMILES IDX 31 36 32 37 82 38 33 39 87 40 81 41 83 42 34 43 86 44 80 45
REMARK SMILES IDX 79 46 35 48 67 49 47 50 66 51 48 52 51 53 65 54 84 55 49 56
REMARK SMILES IDX 50 57 64 59 85 60 52 61 36 62 37 63 45 64 38 65 44 66 46 67
REMARK SMILES IDX 43 68 39 69 40 70 41 71 42 72 68 73 69 74 77 75 70 76 76 77
REMARK SMILES IDX 78 78 75 79 71 80 72 81 73 82 74 83 53 84 54 85 62 86 55 87
REMARK SMILES IDX 61 88 63 89 60 90 56 91 57 92 58 93 59 94
REMARK H PARENT 17 7 10 13 24 28 83 47 51 58
REMARK Flexibility Score: inf
ROOT
ATOM      1  C   UNL A   1      34.921  21.685  25.075  1.00  0.00     0.002 C 
ENDROOT
BRANCH   1   2
ATOM      2  C   UNL A   1      33.868  20.665  24.626  1.00  0.00     0.021 C 
BRANCH   2   3
ATOM      3  C   UNL A   1      32.438  21.036  25.022  1.00  0.00     0.116 C 
BRANCH   3   4
ATOM      4  N   UNL A   1      31.946  22.103  24.174  1.00  0.00    -0.356 N 
ATOM      5  C   UNL A   1      31.225  23.223  24.452  1.00  0.00     0.227 C 
ATOM      6  O   UNL A   1      30.590  23.685  23.500  1.00  0.00    -0.274 OA
ATOM      7  H   UNL A   1      32.175  21.999  23.222  1.00  0.00     0.163 HD
BRANCH   5   8
ATOM      8  C   UNL A   1      31.162  23.828  25.867  1.00  0.00     0.061 C 
ATOM      9  C   UNL A   1      32.558  24.006  26.491  1.00  0.00     0.023 C 
ATOM     10  C   UNL A   1      30.267  22.938  26.755  1.00  0.00     0.023 C 
BRANCH   8  11
ATOM     11  C   UNL A   1      30.460  25.217  25.822  1.00  0.00     0.129 C 
BRANCH  11  12
ATOM     12  N   UNL A   1      31.009  26.138  24.839  1.00  0.00    -0.381 N 
ATOM     13  H   UNL A   1      31.949  26.002  24.580  1.00  0.00     0.160 HD
BRANCH  12  14
ATOM     14  C   UNL A   1      30.337  27.190  24.229  1.00  0.00     0.077 A 
ATOM     15  C   UNL A   1      30.947  28.469  24.206  1.00  0.00     0.144 A 
ATOM     16  C   UNL A   1      30.302  29.559  23.612  1.00  0.00     0.087 A 
ATOM     17  C   UNL A   1      29.043  29.385  23.053  1.00  0.00     0.127 A 
ATOM     18  C   UNL A   1      29.064  27.061  23.654  1.00  0.00     0.032 A 
ATOM     19  F   UNL A   1      28.425  30.429  22.483  1.00  0.00    -0.207 F 
ATOM     20  C   UNL A   1      28.417  28.151  23.067  1.00  0.00     0.041 A 
BRANCH  15  21
ATOM     21  O   UNL A   1      32.215  28.533  24.745  1.00  0.00    -0.494 OA
ATOM     22  C   UNL A   1      32.554  29.755  25.388  1.00  0.00     0.278 C 
ENDBRANCH  15  21
ENDBRANCH  12  14
ENDBRANCH  11  12
ENDBRANCH   8  11
ENDBRANCH   5   8
ENDBRANCH   3   4
ENDBRANCH   2   3
ENDBRANCH   1   2
BRANCH   1  23
ATOM     23  C   UNL A   1      35.696  22.353  23.935  1.00  0.00     0.002 C 
BRANCH  23  24
ATOM     24  C   UNL A   1      36.772  23.345  24.384  1.00  0.00     0.021 C 
BRANCH  24  25
ATOM     25  C   UNL A   1      37.159  23.233  25.854  1.00  0.00     0.116 C 
BRANCH  25  26
ATOM     26  N   UNL A   1      38.156  22.196  26.071  1.00  0.00    -0.352 N 
ATOM     27  C   UNL A   1      39.478  22.329  26.407  1.00  0.00     0.251 C 
ATOM     28  H   UNL A   1      37.835  21.272  25.964  1.00  0.00     0.163 HD
ATOM     29  O   UNL A   1      40.228  21.357  26.329  1.00  0.00    -0.269 OA
BRANCH  27  30
ATOM     30  C   UNL A   1      40.000  23.642  26.838  1.00  0.00     0.039 A 
ATOM     31  C   UNL A   1      40.030  24.694  25.920  1.00  0.00     0.014 A 
ATOM     32  C   UNL A   1      40.457  23.837  28.146  1.00  0.00     0.014 A 
ATOM     33  C   UNL A   1      40.466  25.955  26.330  1.00  0.00     0.010 A 
ATOM     34  C   UNL A   1      40.820  25.112  28.571  1.00  0.00     0.010 A 
ATOM     35  C   UNL A   1      40.831  26.184  27.668  1.00  0.00    -0.014 A 
BRANCH  35  36
ATOM     36  C   UNL A   1      41.224  27.539  28.136  1.00  0.00     0.031 A 
ATOM     37  C   UNL A   1      42.673  27.943  28.149  1.00  0.00     0.074 A 
ATOM     38  C   UNL A   1      40.278  28.388  28.588  1.00  0.00     0.049 A 
ATOM     39  N   UNL A   1      43.214  29.050  28.588  1.00  0.00    -0.248 NA
ATOM     40  C   UNL A   1      43.643  26.971  27.619  1.00  0.00     0.031 C 
ATOM     41  C   UNL A   1      38.843  28.099  28.648  1.00  0.00     0.029 A 
ATOM     42  N   UNL A   1      40.378  29.666  29.082  1.00  0.00    -0.354 N 
ATOM     43  C   UNL A   1      44.583  28.907  28.393  1.00  0.00     0.074 A 
ATOM     44  C   UNL A   1      44.797  27.586  27.844  1.00  0.00     0.031 C 
ATOM     45  C   UNL A   1      38.196  29.178  29.116  1.00  0.00     0.029 A 
ATOM     46  C   UNL A   1      39.168  30.216  29.442  1.00  0.00     0.049 A 
ATOM     47  H   UNL A   1      41.233  30.143  29.171  1.00  0.00     0.167 HD
ATOM     48  C   UNL A   1      45.568  29.804  28.630  1.00  0.00     0.034 A 
ATOM     49  C   UNL A   1      38.874  31.414  29.987  1.00  0.00     0.034 A 
ATOM     50  C   UNL A   1      45.342  31.127  29.153  1.00  0.00     0.049 A 
ATOM     51  C   UNL A   1      39.993  32.380  30.273  1.00  0.00     0.074 A 
ATOM     52  C   UNL A   1      46.271  32.127  29.381  1.00  0.00     0.029 A 
ATOM     53  N   UNL A   1      44.107  31.636  29.527  1.00  0.00    -0.354 N 
ATOM     54  N   UNL A   1      41.281  32.229  30.071  1.00  0.00    -0.248 NA
ATOM     55  C   UNL A   1      39.624  33.675  30.860  1.00  0.00     0.031 C 
ATOM     56  C   UNL A   1      45.611  33.214  29.956  1.00  0.00     0.029 A 
ATOM     57  C   UNL A   1      44.257  32.924  30.015  1.00  0.00     0.049 A 
ATOM     58  H   UNL A   1      43.253  31.154  29.457  1.00  0.00     0.167 HD
ATOM     59  C   UNL A   1      41.872  33.419  30.484  1.00  0.00     0.074 A 
ATOM     60  C   UNL A   1      40.802  34.280  30.942  1.00  0.00     0.031 C 
ATOM     61  C   UNL A   1      43.183  33.769  30.477  1.00  0.00     0.034 A 
BRANCH  48  62
ATOM     62  C   UNL A   1      46.988  29.394  28.337  1.00  0.00     0.023 A 
ATOM     63  C   UNL A   1      47.796  28.793  29.315  1.00  0.00     0.031 A 
ATOM     64  C   UNL A   1      47.515  29.548  27.043  1.00  0.00     0.131 A 
ATOM     65  C   UNL A   1      49.099  28.390  28.991  1.00  0.00     0.055 A 
ATOM     66  C   UNL A   1      48.791  29.092  26.711  1.00  0.00     0.041 A 
ATOM     67  F   UNL A   1      46.789  30.132  26.075  1.00  0.00    -0.206 F 
ATOM     68  C   UNL A   1      49.593  28.511  27.689  1.00  0.00     0.022 A 
BRANCH  65  69
ATOM     69  S   UNL A   1      50.166  27.747  30.309  1.00  0.00     0.124 S 
ATOM     70  O   UNL A   1      51.161  27.000  29.541  1.00  0.00    -0.237 OA
ATOM     71  O   UNL A   1      50.643  28.964  30.956  1.00  0.00    -0.237 OA
ATOM     72  O   UNL A   1      49.262  26.927  31.112  1.00  0.00    -0.744 OA
ENDBRANCH  65  69
ENDBRANCH  48  62
BRANCH  49  73
ATOM     73  C   UNL A   1      37.461  31.758  30.315  1.00  0.00     0.023 A 
ATOM     74  C   UNL A   1      36.586  32.243  29.331  1.00  0.00     0.031 A 
ATOM     75  C   UNL A   1      36.969  31.610  31.624  1.00  0.00     0.131 A 
ATOM     76  C   UNL A   1      35.269  32.588  29.677  1.00  0.00     0.055 A 
ATOM     77  C   UNL A   1      35.646  31.912  31.953  1.00  0.00     0.041 A 
ATOM     78  F   UNL A   1      37.764  31.144  32.599  1.00  0.00    -0.206 F 
ATOM     79  C   UNL A   1      34.790  32.412  30.977  1.00  0.00     0.022 A 
BRANCH  76  80
ATOM     80  S   UNL A   1      34.196  33.313  28.408  1.00  0.00     0.124 S 
ATOM     81  O   UNL A   1      33.613  32.123  27.799  1.00  0.00    -0.237 OA
ATOM     82  O   UNL A   1      33.292  34.135  29.206  1.00  0.00    -0.237 OA
ATOM     83  O   UNL A   1      35.125  34.058  27.562  1.00  0.00    -0.744 OA
ENDBRANCH  76  80
ENDBRANCH  49  73
BRANCH  61  84
ATOM     84  C   UNL A   1      43.540  35.152  30.949  1.00  0.00     0.023 A 
ATOM     85  C   UNL A   1      43.574  36.245  30.066  1.00  0.00     0.031 A 
ATOM     86  C   UNL A   1      43.787  35.390  32.313  1.00  0.00     0.131 A 
ATOM     87  C   UNL A   1      43.870  37.525  30.556  1.00  0.00     0.055 A 
ATOM     88  C   UNL A   1      44.032  36.673  32.801  1.00  0.00     0.041 A 
ATOM     89  F   UNL A   1      43.762  34.379  33.196  1.00  0.00    -0.206 F 
ATOM     90  C   UNL A   1      44.080  37.749  31.920  1.00  0.00     0.022 A 
BRANCH  87  91
ATOM     91  S   UNL A   1      44.007  38.898  29.380  1.00  0.00     0.124 S 
ATOM     92  O   UNL A   1      45.413  39.269  29.512  1.00  0.00    -0.237 OA
ATOM     93  O   UNL A   1      43.630  38.272  28.116  1.00  0.00    -0.237 OA
ATOM     94  O   UNL A   1      43.055  39.884  29.890  1.00  0.00    -0.744 OA
ENDBRANCH  87  91
ENDBRANCH  61  84
ENDBRANCH  35  36
ENDBRANCH  27  30
ENDBRANCH  25  26
ENDBRANCH  24  25
ENDBRANCH  23  24
ENDBRANCH   1  23
TORSDOF 20
ENDMDL
