MODEL 1
REMARK VINA RESULT:     -12.2      0.000      0.000
REMARK SMILES O=C(NCCCCCCNC(=O)c1nn(Cc2ccc(F)cc2)c2c1CN(C(=O)[C@H]1CC1(F)F)CC2)c1ccc(-c2c3nc(c(-c4cc(S(=O)(=O)[O-])ccc4F)c4ccc([nH]4)c(-c4cc(S(=O)(=O)[O-])ccc4F)c4nc(c(-c5cc(S(=O)(=O)[O-])ccc5F)c5ccc2[nH]5)C=C4)C=C3)cc1
REMARK SMILES IDX 6 1 5 2 4 3 3 4 1 5 2 6 37 8 38 9 99 10 39 11 98 12 40 13
REMARK SMILES IDX 41 14 42 15 92 16 43 17 97 18 91 19 93 20 44 21 96 22 90 23
REMARK SMILES IDX 89 24 45 26 77 27 57 28 76 29 58 30 61 31 75 32 94 33 59 34
REMARK SMILES IDX 60 35 74 37 95 38 62 39 46 40 47 41 55 42 48 43 54 44 56 45
REMARK SMILES IDX 53 46 49 47 50 48 51 49 52 50 78 51 79 52 87 53 80 54 86 55
REMARK SMILES IDX 88 56 85 57 81 58 82 59 83 60 84 61 63 62 64 63 72 64 65 65
REMARK SMILES IDX 71 66 73 67 70 68 66 69 67 70 68 71 69 72 7 73 8 74 9 75
REMARK SMILES IDX 10 76 11 77 12 79 13 80 14 81 25 82 15 83 24 84 26 85 36 86
REMARK SMILES IDX 27 87 35 88 16 89 17 90 18 91 23 92 19 93 22 94 20 95 21 96
REMARK SMILES IDX 28 97 29 98 30 99 31 100 32 101 33 102 34 103
REMARK H PARENT 3 7 93 25 61 36 10 78
REMARK Flexibility Score: inf
ROOT
ATOM      1  C   UNL A   1      36.276  31.822  28.014  1.00  0.00     0.002 C 
ENDROOT
BRANCH   1   2
ATOM      2  C   UNL A   1      34.878  32.450  28.063  1.00  0.00     0.021 C 
BRANCH   2   3
ATOM      3  C   UNL A   1      34.731  33.593  29.067  1.00  0.00     0.116 C 
BRANCH   3   4
ATOM      4  N   UNL A   1      34.209  33.202  30.359  1.00  0.00    -0.352 N 
ATOM      5  O   UNL A   1      34.067  32.626  32.496  1.00  0.00    -0.269 OA
ATOM      6  C   UNL A   1      34.781  32.695  31.492  1.00  0.00     0.251 C 
ATOM      7  H   UNL A   1      33.236  33.328  30.439  1.00  0.00     0.163 HD
BRANCH   6   8
ATOM      8  C   UNL A   1      36.154  32.132  31.542  1.00  0.00     0.039 A 
ATOM      9  C   UNL A   1      37.335  32.877  31.580  1.00  0.00     0.014 A 
ATOM     10  C   UNL A   1      36.233  30.732  31.489  1.00  0.00     0.014 A 
ATOM     11  C   UNL A   1      38.565  32.256  31.402  1.00  0.00     0.010 A 
ATOM     12  C   UNL A   1      37.459  30.103  31.350  1.00  0.00     0.010 A 
ATOM     13  C   UNL A   1      38.616  30.874  31.241  1.00  0.00    -0.014 A 
BRANCH  13  14
ATOM     14  C   UNL A   1      39.918  30.229  31.099  1.00  0.00     0.031 A 
ATOM     15  C   UNL A   1      40.641  29.994  32.392  1.00  0.00     0.074 A 
ATOM     16  C   UNL A   1      40.294  29.707  29.912  1.00  0.00     0.049 A 
ATOM     17  N   UNL A   1      41.872  30.251  32.700  1.00  0.00    -0.248 NA
ATOM     18  C   UNL A   1      39.848  29.491  33.534  1.00  0.00     0.031 C 
ATOM     19  C   UNL A   1      39.515  29.657  28.668  1.00  0.00     0.029 A 
ATOM     20  N   UNL A   1      41.391  28.968  29.595  1.00  0.00    -0.354 N 
ATOM     21  C   UNL A   1      42.060  29.766  33.997  1.00  0.00     0.074 A 
ATOM     22  C   UNL A   1      40.755  29.442  34.507  1.00  0.00     0.031 C 
ATOM     23  C   UNL A   1      40.026  28.701  27.860  1.00  0.00     0.029 A 
ATOM     24  C   UNL A   1      41.227  28.158  28.472  1.00  0.00     0.049 A 
ATOM     25  H   UNL A   1      42.228  29.003  30.113  1.00  0.00     0.167 HD
ATOM     26  C   UNL A   1      43.290  29.474  34.505  1.00  0.00     0.034 A 
ATOM     27  C   UNL A   1      41.960  27.054  28.145  1.00  0.00     0.034 A 
ATOM     28  C   UNL A   1      44.341  30.139  33.784  1.00  0.00     0.049 A 
ATOM     29  C   UNL A   1      43.224  27.147  28.921  1.00  0.00     0.074 A 
ATOM     30  C   UNL A   1      44.661  31.465  33.563  1.00  0.00     0.029 A 
ATOM     31  N   UNL A   1      45.022  29.433  32.823  1.00  0.00    -0.354 N 
ATOM     32  N   UNL A   1      44.102  28.100  28.757  1.00  0.00    -0.248 NA
ATOM     33  C   UNL A   1      43.261  26.482  30.216  1.00  0.00     0.031 C 
ATOM     34  C   UNL A   1      45.052  31.517  32.193  1.00  0.00     0.029 A 
ATOM     35  C   UNL A   1      45.029  30.215  31.692  1.00  0.00     0.049 A 
ATOM     36  H   UNL A   1      45.427  28.540  32.924  1.00  0.00     0.167 HD
ATOM     37  C   UNL A   1      44.507  28.439  30.039  1.00  0.00     0.074 A 
ATOM     38  C   UNL A   1      43.998  27.366  30.894  1.00  0.00     0.031 C 
ATOM     39  C   UNL A   1      44.960  29.690  30.343  1.00  0.00     0.034 A 
BRANCH  26  40
ATOM     40  C   UNL A   1      43.548  28.348  35.473  1.00  0.00     0.023 A 
ATOM     41  C   UNL A   1      44.202  28.616  36.689  1.00  0.00     0.031 A 
ATOM     42  C   UNL A   1      43.415  26.984  35.124  1.00  0.00     0.131 A 
ATOM     43  C   UNL A   1      44.710  27.564  37.477  1.00  0.00     0.055 A 
ATOM     44  C   UNL A   1      43.870  25.942  35.935  1.00  0.00     0.041 A 
ATOM     45  F   UNL A   1      42.926  26.597  33.938  1.00  0.00    -0.206 F 
ATOM     46  C   UNL A   1      44.540  26.230  37.110  1.00  0.00     0.022 A 
BRANCH  43  47
ATOM     47  S   UNL A   1      45.714  27.960  38.936  1.00  0.00     0.124 S 
ATOM     48  O   UNL A   1      46.056  29.358  38.696  1.00  0.00    -0.237 OA
ATOM     49  O   UNL A   1      44.778  27.704  40.025  1.00  0.00    -0.237 OA
ATOM     50  O   UNL A   1      46.831  27.023  38.845  1.00  0.00    -0.744 OA
ENDBRANCH  43  47
ENDBRANCH  26  40
BRANCH  27  51
ATOM     51  C   UNL A   1      41.446  25.766  27.577  1.00  0.00     0.023 A 
ATOM     52  C   UNL A   1      42.265  24.874  26.844  1.00  0.00     0.031 A 
ATOM     53  C   UNL A   1      40.180  25.269  27.967  1.00  0.00     0.131 A 
ATOM     54  C   UNL A   1      41.808  23.569  26.533  1.00  0.00     0.055 A 
ATOM     55  C   UNL A   1      39.732  23.983  27.651  1.00  0.00     0.041 A 
ATOM     56  F   UNL A   1      39.360  25.985  28.751  1.00  0.00    -0.206 F 
ATOM     57  C   UNL A   1      40.550  23.122  26.940  1.00  0.00     0.022 A 
BRANCH  54  58
ATOM     58  S   UNL A   1      42.895  22.374  25.682  1.00  0.00     0.124 S 
ATOM     59  O   UNL A   1      43.145  23.040  24.410  1.00  0.00    -0.237 OA
ATOM     60  O   UNL A   1      44.029  22.268  26.593  1.00  0.00    -0.237 OA
ATOM     61  O   UNL A   1      42.069  21.169  25.593  1.00  0.00    -0.744 OA
ENDBRANCH  54  58
ENDBRANCH  27  51
BRANCH  39  62
ATOM     62  C   UNL A   1      45.226  30.670  29.217  1.00  0.00     0.023 A 
ATOM     63  C   UNL A   1      44.467  31.836  28.956  1.00  0.00     0.031 A 
ATOM     64  C   UNL A   1      46.409  30.483  28.484  1.00  0.00     0.131 A 
ATOM     65  C   UNL A   1      44.910  32.761  27.985  1.00  0.00     0.055 A 
ATOM     66  C   UNL A   1      46.852  31.407  27.539  1.00  0.00     0.041 A 
ATOM     67  F   UNL A   1      47.188  29.413  28.714  1.00  0.00    -0.206 F 
ATOM     68  C   UNL A   1      46.102  32.550  27.284  1.00  0.00     0.022 A 
BRANCH  65  69
ATOM     69  S   UNL A   1      43.957  34.276  27.627  1.00  0.00     0.124 S 
ATOM     70  O   UNL A   1      43.573  34.110  26.231  1.00  0.00    -0.237 OA
ATOM     71  O   UNL A   1      42.873  34.213  28.604  1.00  0.00    -0.237 OA
ATOM     72  O   UNL A   1      44.922  35.352  27.867  1.00  0.00    -0.744 OA
ENDBRANCH  65  69
ENDBRANCH  39  62
ENDBRANCH  13  14
ENDBRANCH   6   8
ENDBRANCH   3   4
ENDBRANCH   2   3
ENDBRANCH   1   2
BRANCH   1  73
ATOM     73  C   UNL A   1      36.346  30.412  27.416  1.00  0.00     0.002 C 
BRANCH  73  74
ATOM     74  C   UNL A   1      35.368  29.396  28.017  1.00  0.00     0.021 C 
BRANCH  74  75
ATOM     75  C   UNL A   1      34.242  28.965  27.076  1.00  0.00     0.116 C 
BRANCH  75  76
ATOM     76  N   UNL A   1      33.042  28.628  27.826  1.00  0.00    -0.351 N 
ATOM     77  C   UNL A   1      31.902  27.980  27.403  1.00  0.00     0.272 C 
ATOM     78  H   UNL A   1      33.044  28.902  28.771  1.00  0.00     0.163 HD
ATOM     79  O   UNL A   1      30.891  28.059  28.100  1.00  0.00    -0.267 OA
BRANCH  77  80
ATOM     80  C   UNL A   1      31.898  27.254  26.122  1.00  0.00     0.155 A 
ATOM     81  N   UNL A   1      32.329  25.982  25.995  1.00  0.00    -0.167 NA
ATOM     82  C   UNL A   1      31.397  27.727  24.879  1.00  0.00     0.026 A 
ATOM     83  N   UNL A   1      32.209  25.689  24.685  1.00  0.00    -0.264 N 
ATOM     84  C   UNL A   1      31.686  26.725  23.973  1.00  0.00     0.046 A 
ATOM     85  C   UNL A   1      30.747  29.024  24.523  1.00  0.00     0.159 C 
ATOM     86  C   UNL A   1      31.424  26.810  22.516  1.00  0.00     0.078 C 
ATOM     87  N   UNL A   1      30.322  28.972  23.103  1.00  0.00    -0.337 N 
ATOM     88  C   UNL A   1      31.245  28.303  22.160  1.00  0.00     0.126 C 
BRANCH  83  89
ATOM     89  C   UNL A   1      32.497  24.336  24.225  1.00  0.00     0.180 C 
BRANCH  89  90
ATOM     90  C   UNL A   1      33.953  23.964  24.375  1.00  0.00    -0.026 A 
ATOM     91  C   UNL A   1      34.624  23.303  23.329  1.00  0.00     0.008 A 
ATOM     92  C   UNL A   1      34.666  24.295  25.538  1.00  0.00     0.008 A 
ATOM     93  C   UNL A   1      35.979  22.990  23.439  1.00  0.00     0.039 A 
ATOM     94  C   UNL A   1      36.024  23.981  25.643  1.00  0.00     0.039 A 
ATOM     95  C   UNL A   1      36.666  23.334  24.594  1.00  0.00     0.123 A 
ATOM     96  F   UNL A   1      37.969  23.043  24.702  1.00  0.00    -0.207 F 
ENDBRANCH  89  90
ENDBRANCH  83  89
BRANCH  87  97
ATOM     97  C   UNL A   1      29.124  29.566  22.745  1.00  0.00     0.232 C 
ATOM     98  O   UNL A   1      28.025  29.028  22.883  1.00  0.00    -0.274 OA
BRANCH  97  99
ATOM     99  C   UNL A   1      29.185  30.945  22.223  1.00  0.00     0.154 C 
ATOM    100  C   UNL A   1      28.092  31.473  21.307  1.00  0.00     0.097 C 
ATOM    101  C   UNL A   1      28.233  31.979  22.693  1.00  0.00     0.260 C 
ATOM    102  F   UNL A   1      27.220  31.740  23.588  1.00  0.00    -0.206 F 
ATOM    103  F   UNL A   1      28.647  33.280  22.883  1.00  0.00    -0.206 F 
ENDBRANCH  97  99
ENDBRANCH  87  97
ENDBRANCH  77  80
ENDBRANCH  75  76
ENDBRANCH  74  75
ENDBRANCH  73  74
ENDBRANCH   1  73
TORSDOF 20
ENDMDL
MODEL 2
REMARK VINA RESULT:     -11.7      2.208      4.728
REMARK SMILES O=C(NCCCCCCNC(=O)c1nn(Cc2ccc(F)cc2)c2c1CN(C(=O)[C@H]1CC1(F)F)CC2)c1ccc(-c2c3nc(c(-c4cc(S(=O)(=O)[O-])ccc4F)c4ccc([nH]4)c(-c4cc(S(=O)(=O)[O-])ccc4F)c4nc(c(-c5cc(S(=O)(=O)[O-])ccc5F)c5ccc2[nH]5)C=C4)C=C3)cc1
REMARK SMILES IDX 6 1 5 2 4 3 3 4 1 5 2 6 37 8 38 9 99 10 39 11 98 12 40 13
REMARK SMILES IDX 41 14 42 15 92 16 43 17 97 18 91 19 93 20 44 21 96 22 90 23
REMARK SMILES IDX 89 24 45 26 77 27 57 28 76 29 58 30 61 31 75 32 94 33 59 34
REMARK SMILES IDX 60 35 74 37 95 38 62 39 46 40 47 41 55 42 48 43 54 44 56 45
REMARK SMILES IDX 53 46 49 47 50 48 51 49 52 50 78 51 79 52 87 53 80 54 86 55
REMARK SMILES IDX 88 56 85 57 81 58 82 59 83 60 84 61 63 62 64 63 72 64 65 65
REMARK SMILES IDX 71 66 73 67 70 68 66 69 67 70 68 71 69 72 7 73 8 74 9 75
REMARK SMILES IDX 10 76 11 77 12 79 13 80 14 81 25 82 15 83 24 84 26 85 36 86
REMARK SMILES IDX 27 87 35 88 16 89 17 90 18 91 23 92 19 93 22 94 20 95 21 96
REMARK SMILES IDX 28 97 29 98 30 99 31 100 32 101 33 102 34 103
REMARK H PARENT 3 7 93 25 61 36 10 78
REMARK Flexibility Score: inf
ROOT
ATOM      1  C   UNL A   1      36.173  31.277  27.986  1.00  0.00     0.002 C 
ENDROOT
BRANCH   1   2
ATOM      2  C   UNL A   1      35.787  32.757  27.877  1.00  0.00     0.021 C 
BRANCH   2   3
ATOM      3  C   UNL A   1      36.077  33.581  29.131  1.00  0.00     0.116 C 
BRANCH   3   4
ATOM      4  N   UNL A   1      35.461  33.082  30.341  1.00  0.00    -0.352 N 
ATOM      5  O   UNL A   1      35.165  32.286  32.391  1.00  0.00    -0.269 OA
ATOM      6  C   UNL A   1      35.940  32.425  31.441  1.00  0.00     0.251 C 
ATOM      7  H   UNL A   1      34.492  33.251  30.382  1.00  0.00     0.163 HD
BRANCH   6   8
ATOM      8  C   UNL A   1      37.279  31.787  31.502  1.00  0.00     0.039 A 
ATOM      9  C   UNL A   1      38.495  32.464  31.619  1.00  0.00     0.014 A 
ATOM     10  C   UNL A   1      37.287  30.389  31.374  1.00  0.00     0.014 A 
ATOM     11  C   UNL A   1      39.696  31.788  31.445  1.00  0.00     0.010 A 
ATOM     12  C   UNL A   1      38.482  29.704  31.238  1.00  0.00     0.010 A 
ATOM     13  C   UNL A   1      39.681  30.416  31.209  1.00  0.00    -0.014 A 
BRANCH  13  14
ATOM     14  C   UNL A   1      40.951  29.710  31.071  1.00  0.00     0.031 A 
ATOM     15  C   UNL A   1      41.647  29.422  32.369  1.00  0.00     0.074 A 
ATOM     16  C   UNL A   1      41.316  29.188  29.881  1.00  0.00     0.049 A 
ATOM     17  N   UNL A   1      42.885  29.614  32.695  1.00  0.00    -0.248 NA
ATOM     18  C   UNL A   1      40.816  28.942  33.494  1.00  0.00     0.031 C 
ATOM     19  C   UNL A   1      40.550  29.194  28.628  1.00  0.00     0.029 A 
ATOM     20  N   UNL A   1      42.380  28.401  29.565  1.00  0.00    -0.354 N 
ATOM     21  C   UNL A   1      43.034  29.102  33.986  1.00  0.00     0.074 A 
ATOM     22  C   UNL A   1      41.708  28.834  34.476  1.00  0.00     0.031 C 
ATOM     23  C   UNL A   1      41.024  28.226  27.812  1.00  0.00     0.029 A 
ATOM     24  C   UNL A   1      42.190  27.617  28.429  1.00  0.00     0.049 A 
ATOM     25  H   UNL A   1      43.211  28.388  30.093  1.00  0.00     0.167 HD
ATOM     26  C   UNL A   1      44.242  28.743  34.503  1.00  0.00     0.034 A 
ATOM     27  C   UNL A   1      42.872  26.483  28.094  1.00  0.00     0.034 A 
ATOM     28  C   UNL A   1      45.332  29.365  33.805  1.00  0.00     0.049 A 
ATOM     29  C   UNL A   1      44.130  26.503  28.884  1.00  0.00     0.074 A 
ATOM     30  C   UNL A   1      45.718  30.678  33.608  1.00  0.00     0.029 A 
ATOM     31  N   UNL A   1      45.990  28.641  32.841  1.00  0.00    -0.354 N 
ATOM     32  N   UNL A   1      45.055  27.414  28.745  1.00  0.00    -0.248 NA
ATOM     33  C   UNL A   1      44.119  25.818  30.170  1.00  0.00     0.031 C 
ATOM     34  C   UNL A   1      46.128  30.731  32.243  1.00  0.00     0.029 A 
ATOM     35  C   UNL A   1      46.048  29.439  31.722  1.00  0.00     0.049 A 
ATOM     36  H   UNL A   1      46.349  27.729  32.933  1.00  0.00     0.167 HD
ATOM     37  C   UNL A   1      45.460  27.715  30.037  1.00  0.00     0.074 A 
ATOM     38  C   UNL A   1      44.890  26.656  30.870  1.00  0.00     0.031 C 
ATOM     39  C   UNL A   1      45.970  28.937  30.365  1.00  0.00     0.034 A 
BRANCH  26  40
ATOM     40  C   UNL A   1      44.433  27.591  35.457  1.00  0.00     0.023 A 
ATOM     41  C   UNL A   1      44.452  26.275  34.959  1.00  0.00     0.031 A 
ATOM     42  C   UNL A   1      44.328  27.725  36.861  1.00  0.00     0.131 A 
ATOM     43  C   UNL A   1      44.342  25.176  35.834  1.00  0.00     0.055 A 
ATOM     44  C   UNL A   1      44.275  26.633  37.729  1.00  0.00     0.041 A 
ATOM     45  F   UNL A   1      44.174  28.918  37.453  1.00  0.00    -0.206 F 
ATOM     46  C   UNL A   1      44.261  25.348  37.215  1.00  0.00     0.022 A 
BRANCH  43  47
ATOM     47  S   UNL A   1      44.175  23.509  35.138  1.00  0.00     0.124 S 
ATOM     48  O   UNL A   1      42.727  23.372  35.027  1.00  0.00    -0.237 OA
ATOM     49  O   UNL A   1      44.909  23.631  33.883  1.00  0.00    -0.237 OA
ATOM     50  O   UNL A   1      44.804  22.656  36.144  1.00  0.00    -0.744 OA
ENDBRANCH  43  47
ENDBRANCH  26  40
BRANCH  27  51
ATOM     51  C   UNL A   1      42.303  25.230  27.500  1.00  0.00     0.023 A 
ATOM     52  C   UNL A   1      43.048  24.385  26.643  1.00  0.00     0.031 A 
ATOM     53  C   UNL A   1      41.077  24.709  27.975  1.00  0.00     0.131 A 
ATOM     54  C   UNL A   1      42.558  23.099  26.298  1.00  0.00     0.055 A 
ATOM     55  C   UNL A   1      40.597  23.443  27.627  1.00  0.00     0.041 A 
ATOM     56  F   UNL A   1      40.336  25.375  28.873  1.00  0.00    -0.206 F 
ATOM     57  C   UNL A   1      41.342  22.627  26.793  1.00  0.00     0.022 A 
BRANCH  54  58
ATOM     58  S   UNL A   1      43.558  21.959  25.282  1.00  0.00     0.124 S 
ATOM     59  O   UNL A   1      44.852  22.007  25.951  1.00  0.00    -0.237 OA
ATOM     60  O   UNL A   1      42.819  20.706  25.387  1.00  0.00    -0.237 OA
ATOM     61  O   UNL A   1      43.529  22.575  23.954  1.00  0.00    -0.744 OA
ENDBRANCH  54  58
ENDBRANCH  27  51
BRANCH  39  62
ATOM     62  C   UNL A   1      46.296  29.920  29.257  1.00  0.00     0.023 A 
ATOM     63  C   UNL A   1      45.342  30.617  28.479  1.00  0.00     0.031 A 
ATOM     64  C   UNL A   1      47.647  30.277  29.109  1.00  0.00     0.131 A 
ATOM     65  C   UNL A   1      45.763  31.632  27.591  1.00  0.00     0.055 A 
ATOM     66  C   UNL A   1      48.057  31.290  28.245  1.00  0.00     0.041 A 
ATOM     67  F   UNL A   1      48.594  29.674  29.847  1.00  0.00    -0.206 F 
ATOM     68  C   UNL A   1      47.116  31.971  27.480  1.00  0.00     0.022 A 
BRANCH  65  69
ATOM     69  S   UNL A   1      44.557  32.552  26.576  1.00  0.00     0.124 S 
ATOM     70  O   UNL A   1      45.392  33.233  25.595  1.00  0.00    -0.237 OA
ATOM     71  O   UNL A   1      43.694  31.491  26.062  1.00  0.00    -0.237 OA
ATOM     72  O   UNL A   1      43.906  33.442  27.541  1.00  0.00    -0.744 OA
ENDBRANCH  65  69
ENDBRANCH  39  62
ENDBRANCH  13  14
ENDBRANCH   6   8
ENDBRANCH   3   4
ENDBRANCH   2   3
ENDBRANCH   1   2
BRANCH   1  73
ATOM     73  C   UNL A   1      35.029  30.279  27.767  1.00  0.00     0.002 C 
BRANCH  73  74
ATOM     74  C   UNL A   1      33.662  30.904  27.467  1.00  0.00     0.021 C 
BRANCH  74  75
ATOM     75  C   UNL A   1      32.806  30.114  26.476  1.00  0.00     0.116 C 
BRANCH  75  76
ATOM     76  N   UNL A   1      33.541  29.854  25.249  1.00  0.00    -0.351 N 
ATOM     77  C   UNL A   1      33.281  28.938  24.254  1.00  0.00     0.272 C 
ATOM     78  H   UNL A   1      34.339  30.413  25.109  1.00  0.00     0.163 HD
ATOM     79  O   UNL A   1      34.180  28.670  23.456  1.00  0.00    -0.267 OA
BRANCH  77  80
ATOM     80  C   UNL A   1      31.971  28.271  24.188  1.00  0.00     0.155 A 
ATOM     81  N   UNL A   1      30.914  28.787  23.529  1.00  0.00    -0.167 NA
ATOM     82  C   UNL A   1      31.638  26.997  24.724  1.00  0.00     0.026 A 
ATOM     83  N   UNL A   1      29.902  27.919  23.732  1.00  0.00    -0.264 N 
ATOM     84  C   UNL A   1      30.287  26.848  24.478  1.00  0.00     0.046 A 
ATOM     85  C   UNL A   1      32.475  26.004  25.461  1.00  0.00     0.159 C 
ATOM     86  C   UNL A   1      29.472  25.698  24.938  1.00  0.00     0.078 C 
ATOM     87  N   UNL A   1      31.664  24.789  25.715  1.00  0.00    -0.337 N 
ATOM     88  C   UNL A   1      30.247  25.005  26.081  1.00  0.00     0.126 C 
BRANCH  83  89
ATOM     89  C   UNL A   1      28.628  28.135  23.057  1.00  0.00     0.180 C 
BRANCH  89  90
ATOM     90  C   UNL A   1      28.410  29.576  22.662  1.00  0.00    -0.026 A 
ATOM     91  C   UNL A   1      28.043  30.526  23.634  1.00  0.00     0.008 A 
ATOM     92  C   UNL A   1      28.599  29.998  21.336  1.00  0.00     0.008 A 
ATOM     93  C   UNL A   1      27.878  31.868  23.290  1.00  0.00     0.039 A 
ATOM     94  C   UNL A   1      28.436  31.344  20.997  1.00  0.00     0.039 A 
ATOM     95  C   UNL A   1      28.078  32.264  21.975  1.00  0.00     0.123 A 
ATOM     96  F   UNL A   1      27.929  33.552  21.641  1.00  0.00    -0.207 F 
ENDBRANCH  89  90
ENDBRANCH  83  89
BRANCH  87  97
ATOM     97  C   UNL A   1      32.274  23.550  25.626  1.00  0.00     0.232 C 
ATOM     98  O   UNL A   1      32.498  22.825  26.596  1.00  0.00    -0.274 OA
BRANCH  97  99
ATOM     99  C   UNL A   1      32.618  23.063  24.275  1.00  0.00     0.154 C 
ATOM    100  C   UNL A   1      33.721  22.035  24.082  1.00  0.00     0.097 C 
ATOM    101  C   UNL A   1      32.300  21.676  23.863  1.00  0.00     0.260 C 
ATOM    102  F   UNL A   1      31.721  20.744  24.688  1.00  0.00    -0.206 F 
ATOM    103  F   UNL A   1      31.877  21.405  22.579  1.00  0.00    -0.206 F 
ENDBRANCH  97  99
ENDBRANCH  87  97
ENDBRANCH  77  80
ENDBRANCH  75  76
ENDBRANCH  74  75
ENDBRANCH  73  74
ENDBRANCH   1  73
TORSDOF 20
ENDMDL
MODEL 3
REMARK VINA RESULT:     -11.4      1.950      2.532
REMARK SMILES O=C(NCCCCCCNC(=O)c1nn(Cc2ccc(F)cc2)c2c1CN(C(=O)[C@H]1CC1(F)F)CC2)c1ccc(-c2c3nc(c(-c4cc(S(=O)(=O)[O-])ccc4F)c4ccc([nH]4)c(-c4cc(S(=O)(=O)[O-])ccc4F)c4nc(c(-c5cc(S(=O)(=O)[O-])ccc5F)c5ccc2[nH]5)C=C4)C=C3)cc1
REMARK SMILES IDX 6 1 5 2 4 3 3 4 1 5 2 6 37 8 38 9 99 10 39 11 98 12 40 13
REMARK SMILES IDX 41 14 42 15 92 16 43 17 97 18 91 19 93 20 44 21 96 22 90 23
REMARK SMILES IDX 89 24 45 26 77 27 57 28 76 29 58 30 61 31 75 32 94 33 59 34
REMARK SMILES IDX 60 35 74 37 95 38 62 39 46 40 47 41 55 42 48 43 54 44 56 45
REMARK SMILES IDX 53 46 49 47 50 48 51 49 52 50 78 51 79 52 87 53 80 54 86 55
REMARK SMILES IDX 88 56 85 57 81 58 82 59 83 60 84 61 63 62 64 63 72 64 65 65
REMARK SMILES IDX 71 66 73 67 70 68 66 69 67 70 68 71 69 72 7 73 8 74 9 75
REMARK SMILES IDX 10 76 11 77 12 79 13 80 14 81 25 82 15 83 24 84 26 85 36 86
REMARK SMILES IDX 27 87 35 88 16 89 17 90 18 91 23 92 19 93 22 94 20 95 21 96
REMARK SMILES IDX 28 97 29 98 30 99 31 100 32 101 33 102 34 103
REMARK H PARENT 3 7 93 25 61 36 10 78
REMARK Flexibility Score: inf
ROOT
ATOM      1  C   UNL A   1      37.143  30.623  28.148  1.00  0.00     0.002 C 
ENDROOT
BRANCH   1   2
ATOM      2  C   UNL A   1      36.764  32.097  28.338  1.00  0.00     0.021 C 
BRANCH   2   3
ATOM      3  C   UNL A   1      37.278  32.722  29.634  1.00  0.00     0.116 C 
BRANCH   3   4
ATOM      4  N   UNL A   1      36.595  32.284  30.832  1.00  0.00    -0.352 N 
ATOM      5  O   UNL A   1      36.186  31.520  32.874  1.00  0.00    -0.269 OA
ATOM      6  C   UNL A   1      36.988  31.585  31.939  1.00  0.00     0.251 C 
ATOM      7  H   UNL A   1      35.646  32.545  30.855  1.00  0.00     0.163 HD
BRANCH   6   8
ATOM      8  C   UNL A   1      38.259  30.822  32.024  1.00  0.00     0.039 A 
ATOM      9  C   UNL A   1      39.478  31.326  32.486  1.00  0.00     0.014 A 
ATOM     10  C   UNL A   1      38.205  29.506  31.540  1.00  0.00     0.014 A 
ATOM     11  C   UNL A   1      40.649  30.598  32.316  1.00  0.00     0.010 A 
ATOM     12  C   UNL A   1      39.364  28.760  31.404  1.00  0.00     0.010 A 
ATOM     13  C   UNL A   1      40.591  29.335  31.733  1.00  0.00    -0.014 A 
BRANCH  13  14
ATOM     14  C   UNL A   1      41.823  28.563  31.600  1.00  0.00     0.031 A 
ATOM     15  C   UNL A   1      42.358  28.018  32.892  1.00  0.00     0.074 A 
ATOM     16  C   UNL A   1      42.278  28.209  30.379  1.00  0.00     0.049 A 
ATOM     17  N   UNL A   1      43.565  28.059  33.360  1.00  0.00    -0.248 NA
ATOM     18  C   UNL A   1      41.386  27.433  33.838  1.00  0.00     0.031 C 
ATOM     19  C   UNL A   1      41.651  28.473  29.078  1.00  0.00     0.029 A 
ATOM     20  N   UNL A   1      43.319  27.401  30.040  1.00  0.00    -0.354 N 
ATOM     21  C   UNL A   1      43.544  27.339  34.557  1.00  0.00     0.074 A 
ATOM     22  C   UNL A   1      42.160  27.101  34.869  1.00  0.00     0.031 C 
ATOM     23  C   UNL A   1      42.148  27.613  28.161  1.00  0.00     0.029 A 
ATOM     24  C   UNL A   1      43.202  26.824  28.776  1.00  0.00     0.049 A 
ATOM     25  H   UNL A   1      44.087  27.239  30.634  1.00  0.00     0.167 HD
ATOM     26  C   UNL A   1      44.666  26.809  35.119  1.00  0.00     0.034 A 
ATOM     27  C   UNL A   1      43.844  25.708  28.323  1.00  0.00     0.034 A 
ATOM     28  C   UNL A   1      45.861  27.447  34.639  1.00  0.00     0.049 A 
ATOM     29  C   UNL A   1      45.010  25.504  29.222  1.00  0.00     0.074 A 
ATOM     30  C   UNL A   1      46.346  28.740  34.699  1.00  0.00     0.029 A 
ATOM     31  N   UNL A   1      46.571  26.836  33.635  1.00  0.00    -0.354 N 
ATOM     32  N   UNL A   1      45.999  26.351  29.322  1.00  0.00    -0.248 NA
ATOM     33  C   UNL A   1      44.821  24.627  30.369  1.00  0.00     0.031 C 
ATOM     34  C   UNL A   1      46.901  28.977  33.407  1.00  0.00     0.029 A 
ATOM     35  C   UNL A   1      46.796  27.793  32.674  1.00  0.00     0.049 A 
ATOM     36  H   UNL A   1      46.861  25.895  33.608  1.00  0.00     0.167 HD
ATOM     37  C   UNL A   1      46.284  26.410  30.679  1.00  0.00     0.074 A 
ATOM     38  C   UNL A   1      45.564  25.280  31.267  1.00  0.00     0.031 C 
ATOM     39  C   UNL A   1      46.831  27.522  31.251  1.00  0.00     0.034 A 
BRANCH  26  40
ATOM     40  C   UNL A   1      44.684  25.509  35.883  1.00  0.00     0.023 A 
ATOM     41  C   UNL A   1      44.941  25.522  37.266  1.00  0.00     0.031 A 
ATOM     42  C   UNL A   1      44.724  24.244  35.252  1.00  0.00     0.131 A 
ATOM     43  C   UNL A   1      45.247  24.328  37.949  1.00  0.00     0.055 A 
ATOM     44  C   UNL A   1      44.972  23.056  35.943  1.00  0.00     0.041 A 
ATOM     45  F   UNL A   1      44.622  24.107  33.923  1.00  0.00    -0.206 F 
ATOM     46  C   UNL A   1      45.255  23.096  37.297  1.00  0.00     0.022 A 
BRANCH  43  47
ATOM     47  S   UNL A   1      45.761  24.414  39.687  1.00  0.00     0.124 S 
ATOM     48  O   UNL A   1      44.992  25.554  40.173  1.00  0.00    -0.237 OA
ATOM     49  O   UNL A   1      45.356  23.104  40.187  1.00  0.00    -0.237 OA
ATOM     50  O   UNL A   1      47.204  24.627  39.604  1.00  0.00    -0.744 OA
ENDBRANCH  43  47
ENDBRANCH  26  40
BRANCH  27  51
ATOM     51  C   UNL A   1      43.264  24.614  27.479  1.00  0.00     0.023 A 
ATOM     52  C   UNL A   1      44.034  23.883  26.543  1.00  0.00     0.031 A 
ATOM     53  C   UNL A   1      41.980  24.096  27.767  1.00  0.00     0.131 A 
ATOM     54  C   UNL A   1      43.512  22.709  25.943  1.00  0.00     0.055 A 
ATOM     55  C   UNL A   1      41.469  22.941  27.168  1.00  0.00     0.041 A 
ATOM     56  F   UNL A   1      41.202  24.643  28.712  1.00  0.00    -0.206 F 
ATOM     57  C   UNL A   1      42.238  22.235  26.259  1.00  0.00     0.022 A 
BRANCH  54  58
ATOM     58  S   UNL A   1      44.534  21.700  24.816  1.00  0.00     0.124 S 
ATOM     59  O   UNL A   1      43.850  20.412  24.854  1.00  0.00    -0.237 OA
ATOM     60  O   UNL A   1      44.453  22.440  23.562  1.00  0.00    -0.237 OA
ATOM     61  O   UNL A   1      45.853  21.715  25.449  1.00  0.00    -0.744 OA
ENDBRANCH  54  58
ENDBRANCH  27  51
BRANCH  39  62
ATOM     62  C   UNL A   1      47.333  28.638  30.357  1.00  0.00     0.023 A 
ATOM     63  C   UNL A   1      46.536  29.687  29.840  1.00  0.00     0.031 A 
ATOM     64  C   UNL A   1      48.722  28.718  30.166  1.00  0.00     0.131 A 
ATOM     65  C   UNL A   1      47.147  30.764  29.158  1.00  0.00     0.055 A 
ATOM     66  C   UNL A   1      49.322  29.789  29.508  1.00  0.00     0.041 A 
ATOM     67  F   UNL A   1      49.531  27.768  30.665  1.00  0.00    -0.206 F 
ATOM     68  C   UNL A   1      48.536  30.817  28.999  1.00  0.00     0.022 A 
BRANCH  65  69
ATOM     69  S   UNL A   1      46.149  32.134  28.481  1.00  0.00     0.124 S 
ATOM     70  O   UNL A   1      45.265  32.485  29.585  1.00  0.00    -0.237 OA
ATOM     71  O   UNL A   1      47.161  33.125  28.126  1.00  0.00    -0.237 OA
ATOM     72  O   UNL A   1      45.472  31.528  27.331  1.00  0.00    -0.744 OA
ENDBRANCH  65  69
ENDBRANCH  39  62
ENDBRANCH  13  14
ENDBRANCH   6   8
ENDBRANCH   3   4
ENDBRANCH   2   3
ENDBRANCH   1   2
BRANCH   1  73
ATOM     73  C   UNL A   1      35.968  29.638  28.120  1.00  0.00     0.002 C 
BRANCH  73  74
ATOM     74  C   UNL A   1      35.028  29.773  26.916  1.00  0.00     0.021 C 
BRANCH  74  75
ATOM     75  C   UNL A   1      34.199  28.524  26.614  1.00  0.00     0.116 C 
BRANCH  75  76
ATOM     76  N   UNL A   1      33.083  28.408  27.539  1.00  0.00    -0.351 N 
ATOM     77  C   UNL A   1      31.850  27.825  27.349  1.00  0.00     0.272 C 
ATOM     78  H   UNL A   1      33.230  28.803  28.429  1.00  0.00     0.163 HD
ATOM     79  O   UNL A   1      30.947  28.093  28.142  1.00  0.00    -0.267 OA
BRANCH  77  80
ATOM     80  C   UNL A   1      31.621  26.941  26.195  1.00  0.00     0.155 A 
ATOM     81  N   UNL A   1      31.832  25.609  26.234  1.00  0.00    -0.167 NA
ATOM     82  C   UNL A   1      31.097  27.316  24.928  1.00  0.00     0.026 A 
ATOM     83  N   UNL A   1      31.555  25.163  24.992  1.00  0.00    -0.264 N 
ATOM     84  C   UNL A   1      31.145  26.165  24.166  1.00  0.00     0.046 A 
ATOM     85  C   UNL A   1      30.634  28.643  24.422  1.00  0.00     0.159 C 
ATOM     86  C   UNL A   1      30.777  26.091  22.732  1.00  0.00     0.078 C 
ATOM     87  N   UNL A   1      30.087  28.468  23.055  1.00  0.00    -0.337 N 
ATOM     88  C   UNL A   1      30.808  27.529  22.168  1.00  0.00     0.126 C 
BRANCH  83  89
ATOM     89  C   UNL A   1      31.584  23.730  24.723  1.00  0.00     0.180 C 
BRANCH  89  90
ATOM     90  C   UNL A   1      32.985  23.195  24.548  1.00  0.00    -0.026 A 
ATOM     91  C   UNL A   1      33.386  22.031  25.230  1.00  0.00     0.008 A 
ATOM     92  C   UNL A   1      33.896  23.826  23.686  1.00  0.00     0.008 A 
ATOM     93  C   UNL A   1      34.665  21.504  25.046  1.00  0.00     0.039 A 
ATOM     94  C   UNL A   1      35.175  23.294  23.503  1.00  0.00     0.039 A 
ATOM     95  C   UNL A   1      35.546  22.139  24.182  1.00  0.00     0.123 A 
ATOM     96  F   UNL A   1      36.771  21.634  23.995  1.00  0.00    -0.207 F 
ENDBRANCH  89  90
ENDBRANCH  83  89
BRANCH  87  97
ATOM     97  C   UNL A   1      28.972  29.202  22.686  1.00  0.00     0.232 C 
ATOM     98  O   UNL A   1      27.841  28.726  22.583  1.00  0.00    -0.274 OA
BRANCH  97  99
ATOM     99  C   UNL A   1      29.161  30.649  22.463  1.00  0.00     0.154 C 
ATOM    100  C   UNL A   1      28.116  31.458  21.709  1.00  0.00     0.097 C 
ATOM    101  C   UNL A   1      28.317  31.644  23.165  1.00  0.00     0.260 C 
ATOM    102  F   UNL A   1      27.293  31.316  24.019  1.00  0.00    -0.206 F 
ATOM    103  F   UNL A   1      28.856  32.832  23.612  1.00  0.00    -0.206 F 
ENDBRANCH  97  99
ENDBRANCH  87  97
ENDBRANCH  77  80
ENDBRANCH  75  76
ENDBRANCH  74  75
ENDBRANCH  73  74
ENDBRANCH   1  73
TORSDOF 20
ENDMDL
