MODEL 1
REMARK VINA RESULT:     -10.8      0.000      0.000
REMARK SMILES CCOc1ccc(C(=O)NCC(=O)NCCCCCCNC(=O)c2ccc(-c3c4nc(c(-c5cc(S(=O)(=O)[O-])ccc5F)c5ccc([nH]5)c(-c5cc(S(=O)(=O)[O-])ccc5F)c5nc(c(-c6cc(S(=O)(=O)[O-])ccc6F)c6ccc3[nH]6)C=C5)C=C4)cc2)c2ccccc12
REMARK SMILES IDX 17 1 16 2 15 3 14 4 12 5 13 6 11 8 10 9 8 10 9 11 7 13 4 14
REMARK SMILES IDX 5 15 92 16 6 17 87 18 91 19 88 20 90 21 89 22 3 23 2 24 1 25
REMARK SMILES IDX 18 26 19 27 20 28 21 29 22 30 23 32 24 33 25 34 86 35 26 36
REMARK SMILES IDX 85 37 27 38 28 39 29 40 79 41 30 42 84 43 78 44 80 45 31 46
REMARK SMILES IDX 83 47 77 48 76 49 32 51 64 52 44 53 63 54 45 55 48 56 62 57
REMARK SMILES IDX 81 58 46 59 47 60 61 62 82 63 49 64 33 65 34 66 42 67 35 68
REMARK SMILES IDX 41 69 43 70 40 71 36 72 37 73 38 74 39 75 65 76 66 77 74 78
REMARK SMILES IDX 67 79 73 80 75 81 72 82 68 83 69 84 70 85 71 86 50 87 51 88
REMARK SMILES IDX 59 89 52 90 58 91 60 92 57 93 53 94 54 95 55 96 56 97
REMARK H PARENT 14 7 10 12 21 31 80 50 48 61
REMARK Flexibility Score: inf
ROOT
ATOM      1  C   UNL A   1      34.308  25.163  25.913  1.00  0.00     0.002 C 
ENDROOT
BRANCH   1   2
ATOM      2  C   UNL A   1      33.427  26.407  25.772  1.00  0.00     0.021 C 
BRANCH   2   3
ATOM      3  C   UNL A   1      34.115  27.703  26.176  1.00  0.00     0.116 C 
BRANCH   3   4
ATOM      4  N   UNL A   1      33.213  28.835  26.224  1.00  0.00    -0.355 N 
ATOM      5  C   UNL A   1      32.617  29.563  25.246  1.00  0.00     0.239 C 
ATOM      6  O   UNL A   1      31.776  30.393  25.616  1.00  0.00    -0.273 OA
ATOM      7  H   UNL A   1      32.992  29.132  27.136  1.00  0.00     0.163 HD
BRANCH   5   8
ATOM      8  C   UNL A   1      32.813  29.325  23.736  1.00  0.00     0.216 C 
BRANCH   8   9
ATOM      9  N   UNL A   1      31.685  29.070  22.856  1.00  0.00    -0.343 N 
ATOM     10  C   UNL A   1      30.703  28.118  22.730  1.00  0.00     0.252 C 
ATOM     11  O   UNL A   1      29.788  28.479  21.988  1.00  0.00    -0.269 OA
ATOM     12  H   UNL A   1      31.603  29.767  22.165  1.00  0.00     0.164 HD
BRANCH  10  13
ATOM     13  C   UNL A   1      30.705  26.739  23.367  1.00  0.00     0.047 A 
ATOM     14  C   UNL A   1      30.655  24.205  24.619  1.00  0.00     0.127 A 
ATOM     15  C   UNL A   1      30.007  25.282  25.196  1.00  0.00     0.048 A 
ATOM     16  C   UNL A   1      31.441  24.375  23.464  1.00  0.00     0.025 A 
ATOM     17  C   UNL A   1      30.016  26.518  24.568  1.00  0.00     0.018 A 
ATOM     18  C   UNL A   1      31.490  25.653  22.822  1.00  0.00    -0.002 A 
ATOM     19  C   UNL A   1      32.204  23.297  22.964  1.00  0.00     0.012 A 
ATOM     20  C   UNL A   1      32.368  25.743  21.704  1.00  0.00     0.010 A 
ATOM     21  C   UNL A   1      33.045  23.440  21.865  1.00  0.00     0.001 A 
ATOM     22  C   UNL A   1      33.133  24.668  21.239  1.00  0.00     0.001 A 
BRANCH  14  23
ATOM     23  O   UNL A   1      30.626  23.004  25.285  1.00  0.00    -0.493 OA
BRANCH  23  24
ATOM     24  C   UNL A   1      31.366  23.037  26.514  1.00  0.00     0.226 C 
ATOM     25  C   UNL A   1      32.521  22.046  26.507  1.00  0.00     0.049 C 
ENDBRANCH  23  24
ENDBRANCH  14  23
ENDBRANCH  10  13
ENDBRANCH   8   9
ENDBRANCH   5   8
ENDBRANCH   3   4
ENDBRANCH   2   3
ENDBRANCH   1   2
BRANCH   1  26
ATOM     26  C   UNL A   1      34.984  24.688  24.620  1.00  0.00     0.002 C 
BRANCH  26  27
ATOM     27  C   UNL A   1      35.831  23.417  24.742  1.00  0.00     0.021 C 
BRANCH  27  28
ATOM     28  C   UNL A   1      36.337  23.101  26.148  1.00  0.00     0.116 C 
BRANCH  28  29
ATOM     29  N   UNL A   1      37.499  22.229  26.128  1.00  0.00    -0.352 N 
ATOM     30  C   UNL A   1      38.832  22.523  26.265  1.00  0.00     0.251 C 
ATOM     31  H   UNL A   1      37.297  21.275  25.996  1.00  0.00     0.163 HD
ATOM     32  O   UNL A   1      39.661  21.649  26.023  1.00  0.00    -0.269 OA
BRANCH  30  33
ATOM     33  C   UNL A   1      39.277  23.875  26.678  1.00  0.00     0.039 A 
ATOM     34  C   UNL A   1      39.221  24.206  28.034  1.00  0.00     0.014 A 
ATOM     35  C   UNL A   1      39.702  24.829  25.748  1.00  0.00     0.014 A 
ATOM     36  C   UNL A   1      39.633  25.469  28.461  1.00  0.00     0.010 A 
ATOM     37  C   UNL A   1      40.179  26.066  26.183  1.00  0.00     0.010 A 
ATOM     38  C   UNL A   1      40.144  26.402  27.544  1.00  0.00    -0.014 A 
BRANCH  38  39
ATOM     39  C   UNL A   1      40.654  27.717  28.017  1.00  0.00     0.031 A 
ATOM     40  C   UNL A   1      42.116  28.059  27.915  1.00  0.00     0.074 A 
ATOM     41  C   UNL A   1      39.792  28.597  28.563  1.00  0.00     0.049 A 
ATOM     42  N   UNL A   1      42.731  29.167  28.245  1.00  0.00    -0.248 NA
ATOM     43  C   UNL A   1      43.007  27.010  27.398  1.00  0.00     0.031 C 
ATOM     44  C   UNL A   1      38.362  28.353  28.773  1.00  0.00     0.029 A 
ATOM     45  N   UNL A   1      39.984  29.870  29.036  1.00  0.00    -0.354 N 
ATOM     46  C   UNL A   1      44.080  28.949  27.983  1.00  0.00     0.074 A 
ATOM     47  C   UNL A   1      44.197  27.580  27.524  1.00  0.00     0.031 C 
ATOM     48  C   UNL A   1      37.801  29.454  29.298  1.00  0.00     0.029 A 
ATOM     49  C   UNL A   1      38.832  30.468  29.495  1.00  0.00     0.049 A 
ATOM     50  H   UNL A   1      40.862  30.315  29.047  1.00  0.00     0.167 HD
ATOM     51  C   UNL A   1      45.119  29.816  28.089  1.00  0.00     0.034 A 
ATOM     52  C   UNL A   1      38.628  31.696  30.012  1.00  0.00     0.034 A 
ATOM     53  C   UNL A   1      44.982  31.180  28.545  1.00  0.00     0.049 A 
ATOM     54  C   UNL A   1      39.794  32.643  30.113  1.00  0.00     0.074 A 
ATOM     55  C   UNL A   1      45.954  32.163  28.632  1.00  0.00     0.029 A 
ATOM     56  N   UNL A   1      43.801  31.753  29.001  1.00  0.00    -0.354 N 
ATOM     57  N   UNL A   1      41.052  32.447  29.787  1.00  0.00    -0.248 NA
ATOM     58  C   UNL A   1      39.508  33.985  30.632  1.00  0.00     0.031 C 
ATOM     59  C   UNL A   1      45.378  33.303  29.205  1.00  0.00     0.029 A 
ATOM     60  C   UNL A   1      44.028  33.064  29.403  1.00  0.00     0.049 A 
ATOM     61  H   UNL A   1      42.929  31.297  29.035  1.00  0.00     0.167 HD
ATOM     62  C   UNL A   1      41.702  33.649  30.046  1.00  0.00     0.074 A 
ATOM     63  C   UNL A   1      40.691  34.571  30.522  1.00  0.00     0.031 C 
ATOM     64  C   UNL A   1      43.016  33.964  29.907  1.00  0.00     0.034 A 
BRANCH  51  65
ATOM     65  C   UNL A   1      46.495  29.300  27.731  1.00  0.00     0.023 A 
ATOM     66  C   UNL A   1      46.813  28.883  26.426  1.00  0.00     0.031 A 
ATOM     67  C   UNL A   1      47.497  29.200  28.713  1.00  0.00     0.131 A 
ATOM     68  C   UNL A   1      48.068  28.315  26.155  1.00  0.00     0.055 A 
ATOM     69  C   UNL A   1      48.772  28.711  28.419  1.00  0.00     0.041 A 
ATOM     70  F   UNL A   1      47.251  29.564  29.981  1.00  0.00    -0.206 F 
ATOM     71  C   UNL A   1      49.059  28.250  27.136  1.00  0.00     0.022 A 
BRANCH  68  72
ATOM     72  S   UNL A   1      48.335  27.532  24.541  1.00  0.00     0.124 S 
ATOM     73  O   UNL A   1      48.084  26.126  24.850  1.00  0.00    -0.237 OA
ATOM     74  O   UNL A   1      47.340  28.189  23.702  1.00  0.00    -0.237 OA
ATOM     75  O   UNL A   1      49.726  27.854  24.230  1.00  0.00    -0.744 OA
ENDBRANCH  68  72
ENDBRANCH  51  65
BRANCH  52  76
ATOM     76  C   UNL A   1      37.269  32.104  30.471  1.00  0.00     0.023 A 
ATOM     77  C   UNL A   1      36.341  32.667  29.582  1.00  0.00     0.031 A 
ATOM     78  C   UNL A   1      36.892  31.965  31.819  1.00  0.00     0.131 A 
ATOM     79  C   UNL A   1      35.099  33.115  30.058  1.00  0.00     0.055 A 
ATOM     80  C   UNL A   1      35.636  32.364  32.278  1.00  0.00     0.041 A 
ATOM     81  F   UNL A   1      37.740  31.426  32.708  1.00  0.00    -0.206 F 
ATOM     82  C   UNL A   1      34.735  32.955  31.396  1.00  0.00     0.022 A 
BRANCH  79  83
ATOM     83  S   UNL A   1      33.990  33.983  28.914  1.00  0.00     0.124 S 
ATOM     84  O   UNL A   1      34.883  34.978  28.332  1.00  0.00    -0.237 OA
ATOM     85  O   UNL A   1      33.566  32.904  28.027  1.00  0.00    -0.237 OA
ATOM     86  O   UNL A   1      32.947  34.513  29.788  1.00  0.00    -0.744 OA
ENDBRANCH  79  83
ENDBRANCH  52  76
BRANCH  64  87
ATOM     87  C   UNL A   1      43.414  35.378  30.262  1.00  0.00     0.023 A 
ATOM     88  C   UNL A   1      43.395  36.409  29.305  1.00  0.00     0.031 A 
ATOM     89  C   UNL A   1      43.867  35.688  31.555  1.00  0.00     0.131 A 
ATOM     90  C   UNL A   1      43.897  37.678  29.633  1.00  0.00     0.055 A 
ATOM     91  C   UNL A   1      44.298  36.971  31.897  1.00  0.00     0.041 A 
ATOM     92  F   UNL A   1      43.910  34.744  32.510  1.00  0.00    -0.206 F 
ATOM     93  C   UNL A   1      44.332  37.970  30.928  1.00  0.00     0.022 A 
BRANCH  90  94
ATOM     94  S   UNL A   1      44.096  38.903  28.309  1.00  0.00     0.124 S 
ATOM     95  O   UNL A   1      43.030  39.853  28.612  1.00  0.00    -0.237 OA
ATOM     96  O   UNL A   1      45.457  39.381  28.530  1.00  0.00    -0.237 OA
ATOM     97  O   UNL A   1      43.903  38.124  27.089  1.00  0.00    -0.744 OA
ENDBRANCH  90  94
ENDBRANCH  64  87
ENDBRANCH  38  39
ENDBRANCH  30  33
ENDBRANCH  28  29
ENDBRANCH  27  28
ENDBRANCH  26  27
ENDBRANCH   1  26
TORSDOF 20
ENDMDL
MODEL 2
REMARK VINA RESULT:     -10.5      2.021      2.236
REMARK SMILES CCOc1ccc(C(=O)NCC(=O)NCCCCCCNC(=O)c2ccc(-c3c4nc(c(-c5cc(S(=O)(=O)[O-])ccc5F)c5ccc([nH]5)c(-c5cc(S(=O)(=O)[O-])ccc5F)c5nc(c(-c6cc(S(=O)(=O)[O-])ccc6F)c6ccc3[nH]6)C=C5)C=C4)cc2)c2ccccc12
REMARK SMILES IDX 17 1 16 2 15 3 14 4 12 5 13 6 11 8 10 9 8 10 9 11 7 13 4 14
REMARK SMILES IDX 5 15 92 16 6 17 87 18 91 19 88 20 90 21 89 22 3 23 2 24 1 25
REMARK SMILES IDX 18 26 19 27 20 28 21 29 22 30 23 32 24 33 25 34 86 35 26 36
REMARK SMILES IDX 85 37 27 38 28 39 29 40 79 41 30 42 84 43 78 44 80 45 31 46
REMARK SMILES IDX 83 47 77 48 76 49 32 51 64 52 44 53 63 54 45 55 48 56 62 57
REMARK SMILES IDX 81 58 46 59 47 60 61 62 82 63 49 64 33 65 34 66 42 67 35 68
REMARK SMILES IDX 41 69 43 70 40 71 36 72 37 73 38 74 39 75 65 76 66 77 74 78
REMARK SMILES IDX 67 79 73 80 75 81 72 82 68 83 69 84 70 85 71 86 50 87 51 88
REMARK SMILES IDX 59 89 52 90 58 91 60 92 57 93 53 94 54 95 55 96 56 97
REMARK H PARENT 14 7 10 12 21 31 80 50 48 61
REMARK Flexibility Score: inf
ROOT
ATOM      1  C   UNL A   1      34.426  25.315  25.963  1.00  0.00     0.002 C 
ENDROOT
BRANCH   1   2
ATOM      2  C   UNL A   1      33.584  26.548  25.629  1.00  0.00     0.021 C 
BRANCH   2   3
ATOM      3  C   UNL A   1      34.098  27.838  26.251  1.00  0.00     0.116 C 
BRANCH   3   4
ATOM      4  N   UNL A   1      33.090  28.874  26.328  1.00  0.00    -0.355 N 
ATOM      5  C   UNL A   1      32.453  29.595  25.370  1.00  0.00     0.239 C 
ATOM      6  O   UNL A   1      31.525  30.319  25.756  1.00  0.00    -0.273 OA
ATOM      7  H   UNL A   1      32.816  29.098  27.247  1.00  0.00     0.163 HD
BRANCH   5   8
ATOM      8  C   UNL A   1      32.713  29.461  23.858  1.00  0.00     0.216 C 
BRANCH   8   9
ATOM      9  N   UNL A   1      31.637  29.165  22.927  1.00  0.00    -0.343 N 
ATOM     10  C   UNL A   1      30.692  28.182  22.762  1.00  0.00     0.252 C 
ATOM     11  O   UNL A   1      29.804  28.508  21.975  1.00  0.00    -0.269 OA
ATOM     12  H   UNL A   1      31.567  29.854  22.227  1.00  0.00     0.164 HD
BRANCH  10  13
ATOM     13  C   UNL A   1      30.706  26.808  23.411  1.00  0.00     0.047 A 
ATOM     14  C   UNL A   1      30.680  24.285  24.685  1.00  0.00     0.127 A 
ATOM     15  C   UNL A   1      30.056  25.370  25.272  1.00  0.00     0.048 A 
ATOM     16  C   UNL A   1      31.430  24.440  23.505  1.00  0.00     0.025 A 
ATOM     17  C   UNL A   1      30.053  26.601  24.634  1.00  0.00     0.018 A 
ATOM     18  C   UNL A   1      31.467  25.712  22.851  1.00  0.00    -0.002 A 
ATOM     19  C   UNL A   1      32.172  23.353  22.990  1.00  0.00     0.012 A 
ATOM     20  C   UNL A   1      32.311  25.788  21.706  1.00  0.00     0.010 A 
ATOM     21  C   UNL A   1      32.980  23.483  21.865  1.00  0.00     0.001 A 
ATOM     22  C   UNL A   1      33.055  24.704  21.226  1.00  0.00     0.001 A 
BRANCH  14  23
ATOM     23  O   UNL A   1      30.665  23.089  25.361  1.00  0.00    -0.493 OA
BRANCH  23  24
ATOM     24  C   UNL A   1      30.919  23.246  26.765  1.00  0.00     0.226 C 
ATOM     25  C   UNL A   1      32.268  22.666  27.165  1.00  0.00     0.049 C 
ENDBRANCH  23  24
ENDBRANCH  14  23
ENDBRANCH  10  13
ENDBRANCH   8   9
ENDBRANCH   5   8
ENDBRANCH   3   4
ENDBRANCH   2   3
ENDBRANCH   1   2
BRANCH   1  26
ATOM     26  C   UNL A   1      35.002  24.566  24.754  1.00  0.00     0.002 C 
BRANCH  26  27
ATOM     27  C   UNL A   1      35.667  23.220  25.061  1.00  0.00     0.021 C 
BRANCH  27  28
ATOM     28  C   UNL A   1      36.465  23.167  26.362  1.00  0.00     0.116 C 
BRANCH  28  29
ATOM     29  N   UNL A   1      37.652  22.338  26.243  1.00  0.00    -0.352 N 
ATOM     30  C   UNL A   1      38.980  22.671  26.331  1.00  0.00     0.251 C 
ATOM     31  H   UNL A   1      37.474  21.385  26.073  1.00  0.00     0.163 HD
ATOM     32  O   UNL A   1      39.824  21.839  26.005  1.00  0.00    -0.269 OA
BRANCH  30  33
ATOM     33  C   UNL A   1      39.401  24.016  26.790  1.00  0.00     0.039 A 
ATOM     34  C   UNL A   1      39.353  24.294  28.159  1.00  0.00     0.014 A 
ATOM     35  C   UNL A   1      39.795  25.013  25.892  1.00  0.00     0.014 A 
ATOM     36  C   UNL A   1      39.743  25.549  28.628  1.00  0.00     0.010 A 
ATOM     37  C   UNL A   1      40.251  26.243  26.369  1.00  0.00     0.010 A 
ATOM     38  C   UNL A   1      40.224  26.526  27.742  1.00  0.00    -0.014 A 
BRANCH  38  39
ATOM     39  C   UNL A   1      40.711  27.833  28.259  1.00  0.00     0.031 A 
ATOM     40  C   UNL A   1      42.184  28.144  28.305  1.00  0.00     0.074 A 
ATOM     41  C   UNL A   1      39.817  28.735  28.711  1.00  0.00     0.049 A 
ATOM     42  N   UNL A   1      42.785  29.240  28.692  1.00  0.00    -0.248 NA
ATOM     43  C   UNL A   1      43.099  27.073  27.887  1.00  0.00     0.031 C 
ATOM     44  C   UNL A   1      38.369  28.522  28.775  1.00  0.00     0.029 A 
ATOM     45  N   UNL A   1      39.987  30.006  29.196  1.00  0.00    -0.354 N 
ATOM     46  C   UNL A   1      44.149  28.993  28.569  1.00  0.00     0.074 A 
ATOM     47  C   UNL A   1      44.282  27.619  28.131  1.00  0.00     0.031 C 
ATOM     48  C   UNL A   1      37.781  29.638  29.236  1.00  0.00     0.029 A 
ATOM     49  C   UNL A   1      38.808  30.631  29.532  1.00  0.00     0.049 A 
ATOM     50  H   UNL A   1      40.869  30.432  29.294  1.00  0.00     0.167 HD
ATOM     51  C   UNL A   1      45.190  29.838  28.778  1.00  0.00     0.034 A 
ATOM     52  C   UNL A   1      38.578  31.866  30.021  1.00  0.00     0.034 A 
ATOM     53  C   UNL A   1      45.036  31.208  29.211  1.00  0.00     0.049 A 
ATOM     54  C   UNL A   1      39.749  32.789  30.236  1.00  0.00     0.074 A 
ATOM     55  C   UNL A   1      46.015  32.170  29.393  1.00  0.00     0.029 A 
ATOM     56  N   UNL A   1      43.828  31.809  29.543  1.00  0.00    -0.354 N 
ATOM     57  N   UNL A   1      41.029  32.564  30.041  1.00  0.00    -0.248 NA
ATOM     58  C   UNL A   1      39.440  34.140  30.719  1.00  0.00     0.031 C 
ATOM     59  C   UNL A   1      45.409  33.326  29.900  1.00  0.00     0.029 A 
ATOM     60  C   UNL A   1      44.041  33.116  29.960  1.00  0.00     0.049 A 
ATOM     61  H   UNL A   1      42.948  31.371  29.489  1.00  0.00     0.167 HD
ATOM     62  C   UNL A   1      41.675  33.755  30.360  1.00  0.00     0.074 A 
ATOM     63  C   UNL A   1      40.640  34.701  30.727  1.00  0.00     0.031 C 
ATOM     64  C   UNL A   1      43.003  34.041  30.355  1.00  0.00     0.034 A 
BRANCH  51  65
ATOM     65  C   UNL A   1      46.583  29.291  28.564  1.00  0.00     0.023 A 
ATOM     66  C   UNL A   1      47.252  28.556  29.560  1.00  0.00     0.031 A 
ATOM     67  C   UNL A   1      47.264  29.526  27.356  1.00  0.00     0.131 A 
ATOM     68  C   UNL A   1      48.582  28.152  29.363  1.00  0.00     0.055 A 
ATOM     69  C   UNL A   1      48.558  29.050  27.133  1.00  0.00     0.041 A 
ATOM     70  F   UNL A   1      46.688  30.237  26.374  1.00  0.00    -0.206 F 
ATOM     71  C   UNL A   1      49.231  28.372  28.146  1.00  0.00     0.022 A 
BRANCH  68  72
ATOM     72  S   UNL A   1      49.497  27.465  30.770  1.00  0.00     0.124 S 
ATOM     73  O   UNL A   1      48.759  26.231  31.028  1.00  0.00    -0.237 OA
ATOM     74  O   UNL A   1      50.840  27.305  30.225  1.00  0.00    -0.237 OA
ATOM     75  O   UNL A   1      49.360  28.491  31.802  1.00  0.00    -0.744 OA
ENDBRANCH  68  72
ENDBRANCH  51  65
BRANCH  52  76
ATOM     76  C   UNL A   1      37.190  32.305  30.337  1.00  0.00     0.023 A 
ATOM     77  C   UNL A   1      36.410  32.986  29.390  1.00  0.00     0.031 A 
ATOM     78  C   UNL A   1      36.634  32.077  31.609  1.00  0.00     0.131 A 
ATOM     79  C   UNL A   1      35.135  33.458  29.742  1.00  0.00     0.055 A 
ATOM     80  C   UNL A   1      35.345  32.502  31.938  1.00  0.00     0.041 A 
ATOM     81  F   UNL A   1      37.334  31.424  32.548  1.00  0.00    -0.206 F 
ATOM     82  C   UNL A   1      34.593  33.209  31.004  1.00  0.00     0.022 A 
BRANCH  79  83
ATOM     83  S   UNL A   1      34.223  34.473  28.546  1.00  0.00     0.124 S 
ATOM     84  O   UNL A   1      34.673  35.816  28.891  1.00  0.00    -0.237 OA
ATOM     85  O   UNL A   1      34.701  33.943  27.274  1.00  0.00    -0.237 OA
ATOM     86  O   UNL A   1      32.824  34.184  28.853  1.00  0.00    -0.744 OA
ENDBRANCH  79  83
ENDBRANCH  52  76
BRANCH  64  87
ATOM     87  C   UNL A   1      43.393  35.448  30.742  1.00  0.00     0.023 A 
ATOM     88  C   UNL A   1      43.394  35.867  32.085  1.00  0.00     0.031 A 
ATOM     89  C   UNL A   1      43.717  36.396  29.757  1.00  0.00     0.131 A 
ATOM     90  C   UNL A   1      43.631  37.214  32.399  1.00  0.00     0.055 A 
ATOM     91  C   UNL A   1      44.023  37.719  30.080  1.00  0.00     0.041 A 
ATOM     92  F   UNL A   1      43.730  36.055  28.458  1.00  0.00    -0.206 F 
ATOM     93  C   UNL A   1      43.963  38.139  31.406  1.00  0.00     0.022 A 
BRANCH  90  94
ATOM     94  S   UNL A   1      43.371  37.768  34.107  1.00  0.00     0.124 S 
ATOM     95  O   UNL A   1      42.383  36.809  34.590  1.00  0.00    -0.237 OA
ATOM     96  O   UNL A   1      44.708  37.648  34.680  1.00  0.00    -0.237 OA
ATOM     97  O   UNL A   1      42.883  39.137  33.953  1.00  0.00    -0.744 OA
ENDBRANCH  90  94
ENDBRANCH  64  87
ENDBRANCH  38  39
ENDBRANCH  30  33
ENDBRANCH  28  29
ENDBRANCH  27  28
ENDBRANCH  26  27
ENDBRANCH   1  26
TORSDOF 20
ENDMDL
MODEL 3
REMARK VINA RESULT:      -9.4      3.013      4.950
REMARK SMILES CCOc1ccc(C(=O)NCC(=O)NCCCCCCNC(=O)c2ccc(-c3c4nc(c(-c5cc(S(=O)(=O)[O-])ccc5F)c5ccc([nH]5)c(-c5cc(S(=O)(=O)[O-])ccc5F)c5nc(c(-c6cc(S(=O)(=O)[O-])ccc6F)c6ccc3[nH]6)C=C5)C=C4)cc2)c2ccccc12
REMARK SMILES IDX 17 1 16 2 15 3 14 4 12 5 13 6 11 8 10 9 8 10 9 11 7 13 4 14
REMARK SMILES IDX 5 15 92 16 6 17 87 18 91 19 88 20 90 21 89 22 3 23 2 24 1 25
REMARK SMILES IDX 18 26 19 27 20 28 21 29 22 30 23 32 24 33 25 34 86 35 26 36
REMARK SMILES IDX 85 37 27 38 28 39 29 40 79 41 30 42 84 43 78 44 80 45 31 46
REMARK SMILES IDX 83 47 77 48 76 49 32 51 64 52 44 53 63 54 45 55 48 56 62 57
REMARK SMILES IDX 81 58 46 59 47 60 61 62 82 63 49 64 33 65 34 66 42 67 35 68
REMARK SMILES IDX 41 69 43 70 40 71 36 72 37 73 38 74 39 75 65 76 66 77 74 78
REMARK SMILES IDX 67 79 73 80 75 81 72 82 68 83 69 84 70 85 71 86 50 87 51 88
REMARK SMILES IDX 59 89 52 90 58 91 60 92 57 93 53 94 54 95 55 96 56 97
REMARK H PARENT 14 7 10 12 21 31 80 50 48 61
REMARK Flexibility Score: inf
ROOT
ATOM      1  C   UNL A   1      40.369  22.423  27.088  1.00  0.00     0.002 C 
ENDROOT
BRANCH   1   2
ATOM      2  C   UNL A   1      39.157  21.865  26.339  1.00  0.00     0.021 C 
BRANCH   2   3
ATOM      3  C   UNL A   1      38.153  22.924  25.906  1.00  0.00     0.116 C 
BRANCH   3   4
ATOM      4  N   UNL A   1      37.633  22.704  24.572  1.00  0.00    -0.355 N 
ATOM      5  C   UNL A   1      36.550  23.205  23.925  1.00  0.00     0.239 C 
ATOM      6  O   UNL A   1      36.452  22.926  22.723  1.00  0.00    -0.273 OA
ATOM      7  H   UNL A   1      38.163  22.072  24.035  1.00  0.00     0.163 HD
BRANCH   5   8
ATOM      8  C   UNL A   1      35.541  24.191  24.544  1.00  0.00     0.216 C 
BRANCH   8   9
ATOM      9  N   UNL A   1      34.760  23.840  25.718  1.00  0.00    -0.343 N 
ATOM     10  C   UNL A   1      33.487  24.063  26.183  1.00  0.00     0.252 C 
ATOM     11  O   UNL A   1      33.188  23.320  27.118  1.00  0.00    -0.269 OA
ATOM     12  H   UNL A   1      35.284  23.296  26.349  1.00  0.00     0.164 HD
BRANCH  10  13
ATOM     13  C   UNL A   1      32.521  25.122  25.677  1.00  0.00     0.047 A 
ATOM     14  C   UNL A   1      30.673  27.025  24.699  1.00  0.00     0.127 A 
ATOM     15  C   UNL A   1      30.501  25.681  24.427  1.00  0.00     0.048 A 
ATOM     16  C   UNL A   1      31.825  27.480  25.368  1.00  0.00     0.025 A 
ATOM     17  C   UNL A   1      31.398  24.748  24.926  1.00  0.00     0.018 A 
ATOM     18  C   UNL A   1      32.779  26.534  25.860  1.00  0.00    -0.002 A 
ATOM     19  C   UNL A   1      32.052  28.866  25.522  1.00  0.00     0.012 A 
ATOM     20  C   UNL A   1      33.944  27.094  26.459  1.00  0.00     0.010 A 
ATOM     21  C   UNL A   1      33.209  29.358  26.117  1.00  0.00     0.001 A 
ATOM     22  C   UNL A   1      34.160  28.471  26.580  1.00  0.00     0.001 A 
BRANCH  14  23
ATOM     23  O   UNL A   1      29.764  27.911  24.174  1.00  0.00    -0.493 OA
BRANCH  23  24
ATOM     24  C   UNL A   1      29.760  27.910  22.739  1.00  0.00     0.226 C 
ATOM     25  C   UNL A   1      31.152  28.134  22.167  1.00  0.00     0.049 C 
ENDBRANCH  23  24
ENDBRANCH  14  23
ENDBRANCH  10  13
ENDBRANCH   8   9
ENDBRANCH   5   8
ENDBRANCH   3   4
ENDBRANCH   2   3
ENDBRANCH   1   2
BRANCH   1  26
ATOM     26  C   UNL A   1      41.113  21.417  27.975  1.00  0.00     0.002 C 
BRANCH  26  27
ATOM     27  C   UNL A   1      41.317  20.023  27.370  1.00  0.00     0.021 C 
BRANCH  27  28
ATOM     28  C   UNL A   1      41.431  19.981  25.848  1.00  0.00     0.116 C 
BRANCH  28  29
ATOM     29  N   UNL A   1      42.746  19.545  25.409  1.00  0.00    -0.352 N 
ATOM     30  C   UNL A   1      43.904  20.258  25.230  1.00  0.00     0.251 C 
ATOM     31  H   UNL A   1      42.817  18.583  25.210  1.00  0.00     0.163 HD
ATOM     32  O   UNL A   1      44.852  19.719  24.665  1.00  0.00    -0.269 OA
BRANCH  30  33
ATOM     33  C   UNL A   1      44.013  21.664  25.687  1.00  0.00     0.039 A 
ATOM     34  C   UNL A   1      44.446  21.904  26.994  1.00  0.00     0.014 A 
ATOM     35  C   UNL A   1      43.652  22.738  24.867  1.00  0.00     0.014 A 
ATOM     36  C   UNL A   1      44.563  23.214  27.460  1.00  0.00     0.010 A 
ATOM     37  C   UNL A   1      43.836  24.048  25.311  1.00  0.00     0.010 A 
ATOM     38  C   UNL A   1      44.288  24.301  26.614  1.00  0.00    -0.014 A 
BRANCH  38  39
ATOM     39  C   UNL A   1      44.489  25.695  27.093  1.00  0.00     0.031 A 
ATOM     40  C   UNL A   1      45.854  26.328  27.072  1.00  0.00     0.074 A 
ATOM     41  C   UNL A   1      43.434  26.383  27.572  1.00  0.00     0.049 A 
ATOM     42  N   UNL A   1      46.210  27.539  27.418  1.00  0.00    -0.248 NA
ATOM     43  C   UNL A   1      46.970  25.480  26.626  1.00  0.00     0.031 C 
ATOM     44  C   UNL A   1      42.074  25.854  27.701  1.00  0.00     0.029 A 
ATOM     45  N   UNL A   1      43.333  27.670  28.033  1.00  0.00    -0.354 N 
ATOM     46  C   UNL A   1      47.588  27.600  27.239  1.00  0.00     0.074 A 
ATOM     47  C   UNL A   1      48.009  26.281  26.813  1.00  0.00     0.031 C 
ATOM     48  C   UNL A   1      41.269  26.819  28.173  1.00  0.00     0.029 A 
ATOM     49  C   UNL A   1      42.058  28.023  28.413  1.00  0.00     0.049 A 
ATOM     50  H   UNL A   1      44.100  28.285  28.088  1.00  0.00     0.167 HD
ATOM     51  C   UNL A   1      48.421  28.661  27.392  1.00  0.00     0.034 A 
ATOM     52  C   UNL A   1      41.577  29.186  28.896  1.00  0.00     0.034 A 
ATOM     53  C   UNL A   1      47.980  29.971  27.815  1.00  0.00     0.049 A 
ATOM     54  C   UNL A   1      42.518  30.352  29.048  1.00  0.00     0.074 A 
ATOM     55  C   UNL A   1      48.725  31.132  27.942  1.00  0.00     0.029 A 
ATOM     56  N   UNL A   1      46.682  30.293  28.191  1.00  0.00    -0.354 N 
ATOM     57  N   UNL A   1      43.807  30.414  28.801  1.00  0.00    -0.248 NA
ATOM     58  C   UNL A   1      41.933  31.610  29.527  1.00  0.00     0.031 C 
ATOM     59  C   UNL A   1      47.896  32.134  28.460  1.00  0.00     0.029 A 
ATOM     60  C   UNL A   1      46.613  31.624  28.583  1.00  0.00     0.049 A 
ATOM     61  H   UNL A   1      45.921  29.669  28.181  1.00  0.00     0.167 HD
ATOM     62  C   UNL A   1      44.182  31.726  29.077  1.00  0.00     0.074 A 
ATOM     63  C   UNL A   1      42.976  32.424  29.476  1.00  0.00     0.031 C 
ATOM     64  C   UNL A   1      45.410  32.302  29.010  1.00  0.00     0.034 A 
BRANCH  51  65
ATOM     65  C   UNL A   1      49.892  28.435  27.125  1.00  0.00     0.023 A 
ATOM     66  C   UNL A   1      50.438  28.560  25.834  1.00  0.00     0.031 A 
ATOM     67  C   UNL A   1      50.758  28.067  28.170  1.00  0.00     0.131 A 
ATOM     68  C   UNL A   1      51.786  28.243  25.608  1.00  0.00     0.055 A 
ATOM     69  C   UNL A   1      52.118  27.833  27.953  1.00  0.00     0.041 A 
ATOM     70  F   UNL A   1      50.295  27.912  29.420  1.00  0.00    -0.206 F 
ATOM     71  C   UNL A   1      52.637  27.905  26.663  1.00  0.00     0.022 A 
BRANCH  68  72
ATOM     72  S   UNL A   1      52.377  28.139  23.896  1.00  0.00     0.124 S 
ATOM     73  O   UNL A   1      51.441  27.178  23.318  1.00  0.00    -0.237 OA
ATOM     74  O   UNL A   1      52.247  29.515  23.433  1.00  0.00    -0.237 OA
ATOM     75  O   UNL A   1      53.749  27.653  24.036  1.00  0.00    -0.744 OA
ENDBRANCH  68  72
ENDBRANCH  51  65
BRANCH  52  76
ATOM     76  C   UNL A   1      40.139  29.310  29.266  1.00  0.00     0.023 A 
ATOM     77  C   UNL A   1      39.732  29.312  30.610  1.00  0.00     0.031 A 
ATOM     78  C   UNL A   1      39.144  29.395  28.276  1.00  0.00     0.131 A 
ATOM     79  C   UNL A   1      38.365  29.349  30.927  1.00  0.00     0.055 A 
ATOM     80  C   UNL A   1      37.788  29.485  28.598  1.00  0.00     0.041 A 
ATOM     81  F   UNL A   1      39.479  29.405  26.977  1.00  0.00    -0.206 F 
ATOM     82  C   UNL A   1      37.392  29.450  29.931  1.00  0.00     0.022 A 
BRANCH  79  83
ATOM     83  S   UNL A   1      37.871  29.187  32.665  1.00  0.00     0.124 S 
ATOM     84  O   UNL A   1      38.989  29.823  33.353  1.00  0.00    -0.237 OA
ATOM     85  O   UNL A   1      36.605  29.912  32.689  1.00  0.00    -0.237 OA
ATOM     86  O   UNL A   1      37.762  27.742  32.854  1.00  0.00    -0.744 OA
ENDBRANCH  79  83
ENDBRANCH  52  76
BRANCH  64  87
ATOM     87  C   UNL A   1      45.489  33.768  29.363  1.00  0.00     0.023 A 
ATOM     88  C   UNL A   1      45.145  34.768  28.435  1.00  0.00     0.031 A 
ATOM     89  C   UNL A   1      45.963  34.174  30.623  1.00  0.00     0.131 A 
ATOM     90  C   UNL A   1      45.357  36.119  28.750  1.00  0.00     0.055 A 
ATOM     91  C   UNL A   1      46.104  35.522  30.957  1.00  0.00     0.041 A 
ATOM     92  F   UNL A   1      46.309  33.265  31.549  1.00  0.00    -0.206 F 
ATOM     93  C   UNL A   1      45.819  36.503  30.011  1.00  0.00     0.022 A 
BRANCH  90  94
ATOM     94  S   UNL A   1      45.147  37.359  27.442  1.00  0.00     0.124 S 
ATOM     95  O   UNL A   1      45.223  38.608  28.194  1.00  0.00    -0.237 OA
ATOM     96  O   UNL A   1      46.275  37.077  26.561  1.00  0.00    -0.237 OA
ATOM     97  O   UNL A   1      43.832  37.051  26.884  1.00  0.00    -0.744 OA
ENDBRANCH  90  94
ENDBRANCH  64  87
ENDBRANCH  38  39
ENDBRANCH  30  33
ENDBRANCH  28  29
ENDBRANCH  27  28
ENDBRANCH  26  27
ENDBRANCH   1  26
TORSDOF 20
ENDMDL
