MODEL 1
REMARK VINA RESULT:     -12.4      0.000      0.000
REMARK SMILES O=C(NCCCCNC(=O)c1ccc(-c2ccn(C(F)F)c(=O)c2)cc1O)c1ccc(-c2c3nc(c(-c4cc(S(=O)(=O)[O-])ccc4F)c4ccc([nH]4)c(-c4cc(S(=O)(=O)[O-])ccc4F)c4nc(c(-c5cc(S(=O)(=O)[O-])ccc5F)c5ccc2[nH]5)C=C4)C=C3)cc1
REMARK SMILES IDX 5 1 4 2 3 3 1 4 2 5 28 7 29 8 90 9 30 10 89 11 31 12 32 13
REMARK SMILES IDX 33 14 83 15 34 16 88 17 82 18 84 19 35 20 87 21 81 22 80 23
REMARK SMILES IDX 36 25 68 26 48 27 67 28 49 29 52 30 66 31 85 32 50 33 51 34
REMARK SMILES IDX 65 36 86 37 53 38 37 39 38 40 46 41 39 42 45 43 47 44 44 45
REMARK SMILES IDX 40 46 41 47 42 48 43 49 69 50 70 51 78 52 71 53 77 54 79 55
REMARK SMILES IDX 76 56 72 57 73 58 74 59 75 60 54 61 55 62 63 63 56 64 62 65
REMARK SMILES IDX 64 66 61 67 57 68 58 69 59 70 60 71 6 72 7 73 8 74 9 75
REMARK SMILES IDX 10 77 11 78 12 79 26 80 13 81 25 82 14 83 27 84 15 86 16 87
REMARK SMILES IDX 24 88 17 89 22 90 18 91 23 92 19 93 20 94 21 95
REMARK H PARENT 3 6 84 24 52 35 8 76 27 85
REMARK Flexibility Score: inf
ROOT
ATOM      1  C   UNL A   1      31.679  29.851  25.569  1.00  0.00     0.023 C 
ENDROOT
BRANCH   1   2
ATOM      2  C   UNL A   1      32.647  30.310  26.655  1.00  0.00     0.116 C 
BRANCH   2   3
ATOM      3  N   UNL A   1      32.632  31.750  26.852  1.00  0.00    -0.352 N 
ATOM      4  O   UNL A   1      33.228  33.741  27.699  1.00  0.00    -0.269 OA
ATOM      5  C   UNL A   1      33.506  32.554  27.542  1.00  0.00     0.251 C 
ATOM      6  H   UNL A   1      31.881  32.222  26.423  1.00  0.00     0.163 HD
BRANCH   5   7
ATOM      7  C   UNL A   1      34.761  32.008  28.106  1.00  0.00     0.039 A 
ATOM      8  C   UNL A   1      34.749  30.716  28.643  1.00  0.00     0.014 A 
ATOM      9  C   UNL A   1      35.932  32.769  28.162  1.00  0.00     0.014 A 
ATOM     10  C   UNL A   1      35.912  30.181  29.205  1.00  0.00     0.010 A 
ATOM     11  C   UNL A   1      37.111  32.206  28.650  1.00  0.00     0.010 A 
ATOM     12  C   UNL A   1      37.107  30.918  29.204  1.00  0.00    -0.014 A 
BRANCH  12  13
ATOM     13  C   UNL A   1      38.338  30.385  29.844  1.00  0.00     0.031 A 
ATOM     14  C   UNL A   1      38.704  30.822  31.240  1.00  0.00     0.074 A 
ATOM     15  C   UNL A   1      39.136  29.531  29.172  1.00  0.00     0.049 A 
ATOM     16  N   UNL A   1      39.740  30.489  31.964  1.00  0.00    -0.248 NA
ATOM     17  C   UNL A   1      37.796  31.775  31.900  1.00  0.00     0.031 C 
ATOM     18  C   UNL A   1      38.903  29.063  27.806  1.00  0.00     0.029 A 
ATOM     19  N   UNL A   1      40.297  28.902  29.547  1.00  0.00    -0.354 N 
ATOM     20  C   UNL A   1      39.618  31.200  33.153  1.00  0.00     0.074 A 
ATOM     21  C   UNL A   1      38.441  32.030  33.029  1.00  0.00     0.031 C 
ATOM     22  C   UNL A   1      39.865  28.187  27.474  1.00  0.00     0.029 A 
ATOM     23  C   UNL A   1      40.804  28.055  28.587  1.00  0.00     0.049 A 
ATOM     24  H   UNL A   1      40.728  29.042  30.421  1.00  0.00     0.167 HD
ATOM     25  C   UNL A   1      40.396  31.144  34.258  1.00  0.00     0.034 A 
ATOM     26  C   UNL A   1      41.890  27.254  28.607  1.00  0.00     0.034 A 
ATOM     27  C   UNL A   1      41.542  30.282  34.386  1.00  0.00     0.049 A 
ATOM     28  C   UNL A   1      42.730  27.194  29.860  1.00  0.00     0.074 A 
ATOM     29  C   UNL A   1      42.375  30.125  35.480  1.00  0.00     0.029 A 
ATOM     30  N   UNL A   1      42.003  29.419  33.404  1.00  0.00    -0.354 N 
ATOM     31  N   UNL A   1      42.561  27.825  31.000  1.00  0.00    -0.248 NA
ATOM     32  C   UNL A   1      43.899  26.302  29.842  1.00  0.00     0.031 C 
ATOM     33  C   UNL A   1      43.363  29.200  35.145  1.00  0.00     0.029 A 
ATOM     34  C   UNL A   1      43.112  28.731  33.864  1.00  0.00     0.049 A 
ATOM     35  H   UNL A   1      41.602  29.312  32.511  1.00  0.00     0.167 HD
ATOM     36  C   UNL A   1      43.574  27.373  31.842  1.00  0.00     0.074 A 
ATOM     37  C   UNL A   1      44.341  26.406  31.089  1.00  0.00     0.031 C 
ATOM     38  C   UNL A   1      43.843  27.733  33.123  1.00  0.00     0.034 A 
BRANCH  25  39
ATOM     39  C   UNL A   1      40.027  31.999  35.444  1.00  0.00     0.023 A 
ATOM     40  C   UNL A   1      39.106  31.528  36.398  1.00  0.00     0.031 A 
ATOM     41  C   UNL A   1      40.490  33.323  35.561  1.00  0.00     0.131 A 
ATOM     42  C   UNL A   1      38.652  32.385  37.408  1.00  0.00     0.055 A 
ATOM     43  C   UNL A   1      40.068  34.158  36.596  1.00  0.00     0.041 A 
ATOM     44  F   UNL A   1      41.370  33.818  34.677  1.00  0.00    -0.206 F 
ATOM     45  C   UNL A   1      39.134  33.693  37.517  1.00  0.00     0.022 A 
BRANCH  42  46
ATOM     46  S   UNL A   1      37.379  31.856  38.586  1.00  0.00     0.124 S 
ATOM     47  O   UNL A   1      36.321  32.836  38.347  1.00  0.00    -0.237 OA
ATOM     48  O   UNL A   1      37.087  30.500  38.131  1.00  0.00    -0.237 OA
ATOM     49  O   UNL A   1      38.036  31.960  39.884  1.00  0.00    -0.744 OA
ENDBRANCH  42  46
ENDBRANCH  25  39
BRANCH  26  50
ATOM     50  C   UNL A   1      42.176  26.371  27.438  1.00  0.00     0.023 A 
ATOM     51  C   UNL A   1      41.754  25.029  27.406  1.00  0.00     0.031 A 
ATOM     52  C   UNL A   1      42.950  26.845  26.365  1.00  0.00     0.131 A 
ATOM     53  C   UNL A   1      42.151  24.199  26.347  1.00  0.00     0.055 A 
ATOM     54  C   UNL A   1      43.290  26.032  25.281  1.00  0.00     0.041 A 
ATOM     55  F   UNL A   1      43.389  28.113  26.356  1.00  0.00    -0.206 F 
ATOM     56  C   UNL A   1      42.901  24.697  25.276  1.00  0.00     0.022 A 
BRANCH  53  57
ATOM     57  S   UNL A   1      41.808  22.418  26.380  1.00  0.00     0.124 S 
ATOM     58  O   UNL A   1      42.275  22.044  27.712  1.00  0.00    -0.237 OA
ATOM     59  O   UNL A   1      40.360  22.387  26.190  1.00  0.00    -0.237 OA
ATOM     60  O   UNL A   1      42.590  21.896  25.265  1.00  0.00    -0.744 OA
ENDBRANCH  53  57
ENDBRANCH  26  50
BRANCH  38  61
ATOM     61  C   UNL A   1      44.991  27.065  33.842  1.00  0.00     0.023 A 
ATOM     62  C   UNL A   1      44.733  26.004  34.732  1.00  0.00     0.031 A 
ATOM     63  C   UNL A   1      46.298  27.576  33.775  1.00  0.00     0.131 A 
ATOM     64  C   UNL A   1      45.761  25.513  35.548  1.00  0.00     0.055 A 
ATOM     65  C   UNL A   1      47.328  27.054  34.558  1.00  0.00     0.041 A 
ATOM     66  F   UNL A   1      46.589  28.597  32.954  1.00  0.00    -0.206 F 
ATOM     67  C   UNL A   1      47.058  26.028  35.460  1.00  0.00     0.022 A 
BRANCH  64  68
ATOM     68  S   UNL A   1      45.430  24.264  36.821  1.00  0.00     0.124 S 
ATOM     69  O   UNL A   1      45.094  23.093  36.013  1.00  0.00    -0.237 OA
ATOM     70  O   UNL A   1      46.709  24.190  37.522  1.00  0.00    -0.237 OA
ATOM     71  O   UNL A   1      44.326  24.827  37.591  1.00  0.00    -0.744 OA
ENDBRANCH  64  68
ENDBRANCH  38  61
ENDBRANCH  12  13
ENDBRANCH   5   7
ENDBRANCH   2   3
ENDBRANCH   1   2
BRANCH   1  72
ATOM     72  C   UNL A   1      31.417  28.348  25.510  1.00  0.00     0.023 C 
BRANCH  72  73
ATOM     73  C   UNL A   1      31.295  27.759  24.108  1.00  0.00     0.116 C 
BRANCH  73  74
ATOM     74  N   UNL A   1      32.302  28.268  23.192  1.00  0.00    -0.352 N 
ATOM     75  C   UNL A   1      33.329  27.583  22.591  1.00  0.00     0.255 C 
ATOM     76  H   UNL A   1      32.240  29.227  22.975  1.00  0.00     0.163 HD
ATOM     77  O   UNL A   1      34.140  28.161  21.873  1.00  0.00    -0.269 OA
BRANCH  75  78
ATOM     78  C   UNL A   1      33.517  26.150  22.884  1.00  0.00     0.081 A 
ATOM     79  C   UNL A   1      33.854  25.799  24.196  1.00  0.00     0.018 A 
ATOM     80  C   UNL A   1      33.345  25.158  21.914  1.00  0.00     0.128 A 
ATOM     81  C   UNL A   1      33.951  24.453  24.553  1.00  0.00     0.010 A 
ATOM     82  C   UNL A   1      33.433  23.813  22.272  1.00  0.00     0.055 A 
ATOM     83  C   UNL A   1      33.715  23.453  23.599  1.00  0.00    -0.014 A 
BRANCH  80  84
ATOM     84  O   UNL A   1      33.061  25.496  20.621  1.00  0.00    -0.507 OA
ATOM     85  H   UNL A   1      33.753  25.738  20.037  1.00  0.00     0.293 HD
ENDBRANCH  80  84
BRANCH  83  86
ATOM     86  C   UNL A   1      33.729  22.023  23.965  1.00  0.00    -0.011 A 
ATOM     87  C   UNL A   1      34.794  21.426  24.745  1.00  0.00     0.027 A 
ATOM     88  C   UNL A   1      32.752  21.234  23.481  1.00  0.00     0.080 A 
ATOM     89  C   UNL A   1      34.834  20.103  24.942  1.00  0.00     0.095 A 
ATOM     90  C   UNL A   1      32.766  19.764  23.718  1.00  0.00     0.255 A 
ATOM     91  N   UNL A   1      33.852  19.278  24.429  1.00  0.00    -0.258 N 
ATOM     92  O   UNL A   1      31.848  19.088  23.266  1.00  0.00    -0.269 OA
BRANCH  91  93
ATOM     93  C   UNL A   1      33.924  17.853  24.613  1.00  0.00     0.451 C 
ATOM     94  F   UNL A   1      35.209  17.429  24.684  1.00  0.00    -0.185 F 
ATOM     95  F   UNL A   1      33.293  17.475  25.751  1.00  0.00    -0.185 F 
ENDBRANCH  91  93
ENDBRANCH  83  86
ENDBRANCH  75  78
ENDBRANCH  73  74
ENDBRANCH  72  73
ENDBRANCH   1  72
TORSDOF 17
ENDMDL
MODEL 2
REMARK VINA RESULT:     -12.4      1.649      1.896
REMARK SMILES O=C(NCCCCNC(=O)c1ccc(-c2ccn(C(F)F)c(=O)c2)cc1O)c1ccc(-c2c3nc(c(-c4cc(S(=O)(=O)[O-])ccc4F)c4ccc([nH]4)c(-c4cc(S(=O)(=O)[O-])ccc4F)c4nc(c(-c5cc(S(=O)(=O)[O-])ccc5F)c5ccc2[nH]5)C=C4)C=C3)cc1
REMARK SMILES IDX 5 1 4 2 3 3 1 4 2 5 28 7 29 8 90 9 30 10 89 11 31 12 32 13
REMARK SMILES IDX 33 14 83 15 34 16 88 17 82 18 84 19 35 20 87 21 81 22 80 23
REMARK SMILES IDX 36 25 68 26 48 27 67 28 49 29 52 30 66 31 85 32 50 33 51 34
REMARK SMILES IDX 65 36 86 37 53 38 37 39 38 40 46 41 39 42 45 43 47 44 44 45
REMARK SMILES IDX 40 46 41 47 42 48 43 49 69 50 70 51 78 52 71 53 77 54 79 55
REMARK SMILES IDX 76 56 72 57 73 58 74 59 75 60 54 61 55 62 63 63 56 64 62 65
REMARK SMILES IDX 64 66 61 67 57 68 58 69 59 70 60 71 6 72 7 73 8 74 9 75
REMARK SMILES IDX 10 77 11 78 12 79 26 80 13 81 25 82 14 83 27 84 15 86 16 87
REMARK SMILES IDX 24 88 17 89 22 90 18 91 23 92 19 93 20 94 21 95
REMARK H PARENT 3 6 84 24 52 35 8 76 27 85
REMARK Flexibility Score: inf
ROOT
ATOM      1  C   UNL A   1      32.066  29.876  25.214  1.00  0.00     0.023 C 
ENDROOT
BRANCH   1   2
ATOM      2  C   UNL A   1      32.116  30.357  26.661  1.00  0.00     0.116 C 
BRANCH   2   3
ATOM      3  N   UNL A   1      32.063  31.804  26.775  1.00  0.00    -0.352 N 
ATOM      4  O   UNL A   1      32.601  33.855  27.511  1.00  0.00    -0.269 OA
ATOM      5  C   UNL A   1      32.911  32.669  27.424  1.00  0.00     0.251 C 
ATOM      6  H   UNL A   1      31.303  32.232  26.317  1.00  0.00     0.163 HD
BRANCH   5   7
ATOM      7  C   UNL A   1      34.177  32.188  28.024  1.00  0.00     0.039 A 
ATOM      8  C   UNL A   1      34.268  30.847  28.411  1.00  0.00     0.014 A 
ATOM      9  C   UNL A   1      35.251  33.051  28.259  1.00  0.00     0.014 A 
ATOM     10  C   UNL A   1      35.440  30.368  29.003  1.00  0.00     0.010 A 
ATOM     11  C   UNL A   1      36.447  32.556  28.775  1.00  0.00     0.010 A 
ATOM     12  C   UNL A   1      36.545  31.216  29.181  1.00  0.00    -0.014 A 
BRANCH  12  13
ATOM     13  C   UNL A   1      37.780  30.737  29.856  1.00  0.00     0.031 A 
ATOM     14  C   UNL A   1      38.081  31.179  31.265  1.00  0.00     0.074 A 
ATOM     15  C   UNL A   1      38.638  29.928  29.204  1.00  0.00     0.049 A 
ATOM     16  N   UNL A   1      39.109  30.890  32.019  1.00  0.00    -0.248 NA
ATOM     17  C   UNL A   1      37.108  32.083  31.903  1.00  0.00     0.031 C 
ATOM     18  C   UNL A   1      38.471  29.460  27.828  1.00  0.00     0.029 A 
ATOM     19  N   UNL A   1      39.816  29.351  29.611  1.00  0.00    -0.354 N 
ATOM     20  C   UNL A   1      38.915  31.586  33.209  1.00  0.00     0.074 A 
ATOM     21  C   UNL A   1      37.705  32.359  33.054  1.00  0.00     0.031 C 
ATOM     22  C   UNL A   1      39.483  28.633  27.521  1.00  0.00     0.029 A 
ATOM     23  C   UNL A   1      40.392  28.537  28.662  1.00  0.00     0.049 A 
ATOM     24  H   UNL A   1      40.212  29.505  30.499  1.00  0.00     0.167 HD
ATOM     25  C   UNL A   1      39.660  31.557  34.338  1.00  0.00     0.034 A 
ATOM     26  C   UNL A   1      41.514  27.789  28.711  1.00  0.00     0.034 A 
ATOM     27  C   UNL A   1      40.841  30.750  34.496  1.00  0.00     0.049 A 
ATOM     28  C   UNL A   1      42.316  27.758  29.990  1.00  0.00     0.074 A 
ATOM     29  C   UNL A   1      41.647  30.624  35.615  1.00  0.00     0.029 A 
ATOM     30  N   UNL A   1      41.374  29.918  33.523  1.00  0.00    -0.354 N 
ATOM     31  N   UNL A   1      42.082  28.371  31.127  1.00  0.00    -0.248 NA
ATOM     32  C   UNL A   1      43.526  26.923  30.002  1.00  0.00     0.031 C 
ATOM     33  C   UNL A   1      42.688  29.749  35.305  1.00  0.00     0.029 A 
ATOM     34  C   UNL A   1      42.500  29.279  34.014  1.00  0.00     0.049 A 
ATOM     35  H   UNL A   1      41.006  29.799  32.618  1.00  0.00     0.167 HD
ATOM     36  C   UNL A   1      43.088  27.961  31.999  1.00  0.00     0.074 A 
ATOM     37  C   UNL A   1      43.924  27.038  31.263  1.00  0.00     0.031 C 
ATOM     38  C   UNL A   1      43.300  28.323  33.290  1.00  0.00     0.034 A 
BRANCH  25  39
ATOM     39  C   UNL A   1      39.214  32.384  35.517  1.00  0.00     0.023 A 
ATOM     40  C   UNL A   1      39.675  33.705  35.671  1.00  0.00     0.031 A 
ATOM     41  C   UNL A   1      38.436  31.826  36.548  1.00  0.00     0.131 A 
ATOM     42  C   UNL A   1      39.382  34.411  36.844  1.00  0.00     0.055 A 
ATOM     43  C   UNL A   1      38.110  32.550  37.695  1.00  0.00     0.041 A 
ATOM     44  F   UNL A   1      37.971  30.570  36.447  1.00  0.00    -0.206 F 
ATOM     45  C   UNL A   1      38.595  33.844  37.852  1.00  0.00     0.022 A 
BRANCH  42  46
ATOM     46  S   UNL A   1      40.055  36.070  37.133  1.00  0.00     0.124 S 
ATOM     47  O   UNL A   1      39.748  36.744  35.873  1.00  0.00    -0.237 OA
ATOM     48  O   UNL A   1      39.276  36.518  38.285  1.00  0.00    -0.237 OA
ATOM     49  O   UNL A   1      41.473  35.836  37.380  1.00  0.00    -0.744 OA
ENDBRANCH  42  46
ENDBRANCH  25  39
BRANCH  26  50
ATOM     50  C   UNL A   1      41.878  26.930  27.545  1.00  0.00     0.023 A 
ATOM     51  C   UNL A   1      41.601  25.551  27.530  1.00  0.00     0.031 A 
ATOM     52  C   UNL A   1      42.586  27.473  26.459  1.00  0.00     0.131 A 
ATOM     53  C   UNL A   1      42.070  24.757  26.473  1.00  0.00     0.055 A 
ATOM     54  C   UNL A   1      42.997  26.690  25.378  1.00  0.00     0.041 A 
ATOM     55  F   UNL A   1      42.888  28.779  26.434  1.00  0.00    -0.206 F 
ATOM     56  C   UNL A   1      42.751  25.321  25.389  1.00  0.00     0.022 A 
BRANCH  53  57
ATOM     57  S   UNL A   1      41.918  22.950  26.525  1.00  0.00     0.124 S 
ATOM     58  O   UNL A   1      42.857  22.597  27.585  1.00  0.00    -0.237 OA
ATOM     59  O   UNL A   1      40.505  22.777  26.853  1.00  0.00    -0.237 OA
ATOM     60  O   UNL A   1      42.296  22.534  25.179  1.00  0.00    -0.744 OA
ENDBRANCH  53  57
ENDBRANCH  26  50
BRANCH  38  61
ATOM     61  C   UNL A   1      44.456  27.705  34.040  1.00  0.00     0.023 A 
ATOM     62  C   UNL A   1      44.228  26.600  34.885  1.00  0.00     0.031 A 
ATOM     63  C   UNL A   1      45.729  28.298  34.048  1.00  0.00     0.131 A 
ATOM     64  C   UNL A   1      45.248  26.149  35.732  1.00  0.00     0.055 A 
ATOM     65  C   UNL A   1      46.755  27.815  34.862  1.00  0.00     0.041 A 
ATOM     66  F   UNL A   1      45.990  29.362  33.273  1.00  0.00    -0.206 F 
ATOM     67  C   UNL A   1      46.512  26.745  35.719  1.00  0.00     0.022 A 
BRANCH  64  68
ATOM     68  S   UNL A   1      44.941  24.839  36.950  1.00  0.00     0.124 S 
ATOM     69  O   UNL A   1      46.300  24.438  37.307  1.00  0.00    -0.237 OA
ATOM     70  O   UNL A   1      44.208  25.551  37.992  1.00  0.00    -0.237 OA
ATOM     71  O   UNL A   1      44.171  23.843  36.212  1.00  0.00    -0.744 OA
ENDBRANCH  64  68
ENDBRANCH  38  61
ENDBRANCH  12  13
ENDBRANCH   5   7
ENDBRANCH   2   3
ENDBRANCH   1   2
BRANCH   1  72
ATOM     72  C   UNL A   1      33.352  29.249  24.681  1.00  0.00     0.023 C 
BRANCH  72  73
ATOM     73  C   UNL A   1      33.366  28.952  23.186  1.00  0.00     0.116 C 
BRANCH  73  74
ATOM     74  N   UNL A   1      32.049  29.055  22.578  1.00  0.00    -0.352 N 
ATOM     75  C   UNL A   1      31.128  28.059  22.369  1.00  0.00     0.255 C 
ATOM     76  H   UNL A   1      31.786  29.955  22.275  1.00  0.00     0.163 HD
ATOM     77  O   UNL A   1      30.067  28.289  21.794  1.00  0.00    -0.269 OA
BRANCH  75  78
ATOM     78  C   UNL A   1      31.451  26.675  22.762  1.00  0.00     0.081 A 
ATOM     79  C   UNL A   1      30.863  26.184  23.933  1.00  0.00     0.018 A 
ATOM     80  C   UNL A   1      32.288  25.855  21.999  1.00  0.00     0.128 A 
ATOM     81  C   UNL A   1      31.056  24.852  24.303  1.00  0.00     0.010 A 
ATOM     82  C   UNL A   1      32.474  24.522  22.363  1.00  0.00     0.055 A 
ATOM     83  C   UNL A   1      31.841  24.007  23.506  1.00  0.00    -0.014 A 
BRANCH  80  84
ATOM     84  O   UNL A   1      32.901  26.342  20.880  1.00  0.00    -0.507 OA
ATOM     85  H   UNL A   1      33.071  27.261  20.801  1.00  0.00     0.293 HD
ENDBRANCH  80  84
BRANCH  83  86
ATOM     86  C   UNL A   1      31.997  22.574  23.825  1.00  0.00    -0.011 A 
ATOM     87  C   UNL A   1      32.281  22.099  25.164  1.00  0.00     0.027 A 
ATOM     88  C   UNL A   1      31.953  21.689  22.813  1.00  0.00     0.080 A 
ATOM     89  C   UNL A   1      32.545  20.806  25.385  1.00  0.00     0.095 A 
ATOM     90  C   UNL A   1      32.213  20.242  23.048  1.00  0.00     0.255 A 
ATOM     91  N   UNL A   1      32.529  19.889  24.351  1.00  0.00    -0.258 N 
ATOM     92  O   UNL A   1      32.152  19.472  22.096  1.00  0.00    -0.269 OA
BRANCH  91  93
ATOM     93  C   UNL A   1      32.851  18.508  24.592  1.00  0.00     0.451 C 
ATOM     94  F   UNL A   1      34.153  18.251  24.317  1.00  0.00    -0.185 F 
ATOM     95  F   UNL A   1      32.620  18.172  25.884  1.00  0.00    -0.185 F 
ENDBRANCH  91  93
ENDBRANCH  83  86
ENDBRANCH  75  78
ENDBRANCH  73  74
ENDBRANCH  72  73
ENDBRANCH   1  72
TORSDOF 17
ENDMDL
MODEL 3
REMARK VINA RESULT:     -12.3      1.855      2.157
REMARK SMILES O=C(NCCCCNC(=O)c1ccc(-c2ccn(C(F)F)c(=O)c2)cc1O)c1ccc(-c2c3nc(c(-c4cc(S(=O)(=O)[O-])ccc4F)c4ccc([nH]4)c(-c4cc(S(=O)(=O)[O-])ccc4F)c4nc(c(-c5cc(S(=O)(=O)[O-])ccc5F)c5ccc2[nH]5)C=C4)C=C3)cc1
REMARK SMILES IDX 5 1 4 2 3 3 1 4 2 5 28 7 29 8 90 9 30 10 89 11 31 12 32 13
REMARK SMILES IDX 33 14 83 15 34 16 88 17 82 18 84 19 35 20 87 21 81 22 80 23
REMARK SMILES IDX 36 25 68 26 48 27 67 28 49 29 52 30 66 31 85 32 50 33 51 34
REMARK SMILES IDX 65 36 86 37 53 38 37 39 38 40 46 41 39 42 45 43 47 44 44 45
REMARK SMILES IDX 40 46 41 47 42 48 43 49 69 50 70 51 78 52 71 53 77 54 79 55
REMARK SMILES IDX 76 56 72 57 73 58 74 59 75 60 54 61 55 62 63 63 56 64 62 65
REMARK SMILES IDX 64 66 61 67 57 68 58 69 59 70 60 71 6 72 7 73 8 74 9 75
REMARK SMILES IDX 10 77 11 78 12 79 26 80 13 81 25 82 14 83 27 84 15 86 16 87
REMARK SMILES IDX 24 88 17 89 22 90 18 91 23 92 19 93 20 94 21 95
REMARK H PARENT 3 6 84 24 52 35 8 76 27 85
REMARK Flexibility Score: inf
ROOT
ATOM      1  C   UNL A   1      32.555  28.424  26.185  1.00  0.00     0.023 C 
ENDROOT
BRANCH   1   2
ATOM      2  C   UNL A   1      33.506  29.535  25.754  1.00  0.00     0.116 C 
BRANCH   2   3
ATOM      3  N   UNL A   1      33.171  30.823  26.339  1.00  0.00    -0.352 N 
ATOM      4  O   UNL A   1      33.264  32.543  27.778  1.00  0.00    -0.269 OA
ATOM      5  C   UNL A   1      33.799  31.528  27.337  1.00  0.00     0.251 C 
ATOM      6  H   UNL A   1      32.371  31.257  25.962  1.00  0.00     0.163 HD
BRANCH   5   7
ATOM      7  C   UNL A   1      35.096  31.075  27.890  1.00  0.00     0.039 A 
ATOM      8  C   UNL A   1      35.185  29.782  28.418  1.00  0.00     0.014 A 
ATOM      9  C   UNL A   1      36.206  31.922  27.944  1.00  0.00     0.014 A 
ATOM     10  C   UNL A   1      36.388  29.333  28.970  1.00  0.00     0.010 A 
ATOM     11  C   UNL A   1      37.427  31.448  28.421  1.00  0.00     0.010 A 
ATOM     12  C   UNL A   1      37.524  30.159  28.967  1.00  0.00    -0.014 A 
BRANCH  12  13
ATOM     13  C   UNL A   1      38.796  29.717  29.597  1.00  0.00     0.031 A 
ATOM     14  C   UNL A   1      39.187  30.255  30.949  1.00  0.00     0.074 A 
ATOM     15  C   UNL A   1      39.607  28.855  28.952  1.00  0.00     0.049 A 
ATOM     16  N   UNL A   1      40.259  30.011  31.656  1.00  0.00    -0.248 NA
ATOM     17  C   UNL A   1      38.262  31.212  31.579  1.00  0.00     0.031 C 
ATOM     18  C   UNL A   1      39.351  28.291  27.626  1.00  0.00     0.029 A 
ATOM     19  N   UNL A   1      40.805  28.297  29.325  1.00  0.00    -0.354 N 
ATOM     20  C   UNL A   1      40.144  30.791  32.802  1.00  0.00     0.074 A 
ATOM     21  C   UNL A   1      38.931  31.564  32.668  1.00  0.00     0.031 C 
ATOM     22  C   UNL A   1      40.338  27.435  27.317  1.00  0.00     0.029 A 
ATOM     23  C   UNL A   1      41.316  27.411  28.403  1.00  0.00     0.049 A 
ATOM     24  H   UNL A   1      41.257  28.509  30.174  1.00  0.00     0.167 HD
ATOM     25  C   UNL A   1      40.959  30.835  33.882  1.00  0.00     0.034 A 
ATOM     26  C   UNL A   1      42.434  26.657  28.436  1.00  0.00     0.034 A 
ATOM     27  C   UNL A   1      42.143  30.029  34.024  1.00  0.00     0.049 A 
ATOM     28  C   UNL A   1      43.315  26.710  29.661  1.00  0.00     0.074 A 
ATOM     29  C   UNL A   1      43.016  29.976  35.097  1.00  0.00     0.029 A 
ATOM     30  N   UNL A   1      42.609  29.125  33.082  1.00  0.00    -0.354 N 
ATOM     31  N   UNL A   1      43.157  27.404  30.764  1.00  0.00    -0.248 NA
ATOM     32  C   UNL A   1      44.519  25.866  29.658  1.00  0.00     0.031 C 
ATOM     33  C   UNL A   1      44.031  29.070  34.786  1.00  0.00     0.029 A 
ATOM     34  C   UNL A   1      43.760  28.512  33.546  1.00  0.00     0.049 A 
ATOM     35  H   UNL A   1      42.184  28.946  32.212  1.00  0.00     0.167 HD
ATOM     36  C   UNL A   1      44.213  27.048  31.598  1.00  0.00     0.074 A 
ATOM     37  C   UNL A   1      44.996  26.066  30.880  1.00  0.00     0.031 C 
ATOM     38  C   UNL A   1      44.508  27.498  32.844  1.00  0.00     0.034 A 
BRANCH  25  39
ATOM     39  C   UNL A   1      40.592  31.749  35.024  1.00  0.00     0.023 A 
ATOM     40  C   UNL A   1      39.573  31.385  35.924  1.00  0.00     0.031 A 
ATOM     41  C   UNL A   1      41.164  33.029  35.148  1.00  0.00     0.131 A 
ATOM     42  C   UNL A   1      39.134  32.304  36.884  1.00  0.00     0.055 A 
ATOM     43  C   UNL A   1      40.752  33.924  36.136  1.00  0.00     0.041 A 
ATOM     44  F   UNL A   1      42.141  33.422  34.315  1.00  0.00    -0.206 F 
ATOM     45  C   UNL A   1      39.723  33.566  37.001  1.00  0.00     0.022 A 
BRANCH  42  46
ATOM     46  S   UNL A   1      37.744  31.918  37.985  1.00  0.00     0.124 S 
ATOM     47  O   UNL A   1      36.759  32.923  37.590  1.00  0.00    -0.237 OA
ATOM     48  O   UNL A   1      37.423  30.546  37.601  1.00  0.00    -0.237 OA
ATOM     49  O   UNL A   1      38.298  32.088  39.324  1.00  0.00    -0.744 OA
ENDBRANCH  42  46
ENDBRANCH  25  39
BRANCH  26  50
ATOM     50  C   UNL A   1      42.720  25.713  27.314  1.00  0.00     0.023 A 
ATOM     51  C   UNL A   1      42.180  24.415  27.288  1.00  0.00     0.031 A 
ATOM     52  C   UNL A   1      43.608  26.080  26.289  1.00  0.00     0.131 A 
ATOM     53  C   UNL A   1      42.572  23.518  26.284  1.00  0.00     0.055 A 
ATOM     54  C   UNL A   1      43.948  25.205  25.255  1.00  0.00     0.041 A 
ATOM     55  F   UNL A   1      44.162  27.302  26.279  1.00  0.00    -0.206 F 
ATOM     56  C   UNL A   1      43.439  23.910  25.258  1.00  0.00     0.022 A 
BRANCH  53  57
ATOM     57  S   UNL A   1      42.066  21.776  26.339  1.00  0.00     0.124 S 
ATOM     58  O   UNL A   1      42.908  21.183  25.305  1.00  0.00    -0.237 OA
ATOM     59  O   UNL A   1      42.402  21.410  27.712  1.00  0.00    -0.237 OA
ATOM     60  O   UNL A   1      40.638  21.824  26.042  1.00  0.00    -0.744 OA
ENDBRANCH  53  57
ENDBRANCH  26  50
BRANCH  38  61
ATOM     61  C   UNL A   1      45.704  26.924  33.563  1.00  0.00     0.023 A 
ATOM     62  C   UNL A   1      46.984  27.467  33.331  1.00  0.00     0.031 A 
ATOM     63  C   UNL A   1      45.607  25.755  34.337  1.00  0.00     0.131 A 
ATOM     64  C   UNL A   1      48.118  26.818  33.836  1.00  0.00     0.055 A 
ATOM     65  C   UNL A   1      46.738  25.139  34.875  1.00  0.00     0.041 A 
ATOM     66  F   UNL A   1      44.412  25.192  34.572  1.00  0.00    -0.206 F 
ATOM     67  C   UNL A   1      48.001  25.661  34.613  1.00  0.00     0.022 A 
BRANCH  64  68
ATOM     68  S   UNL A   1      49.788  27.393  33.420  1.00  0.00     0.124 S 
ATOM     69  O   UNL A   1      50.185  26.439  32.386  1.00  0.00    -0.237 OA
ATOM     70  O   UNL A   1      49.539  28.753  32.950  1.00  0.00    -0.237 OA
ATOM     71  O   UNL A   1      50.521  27.290  34.677  1.00  0.00    -0.744 OA
ENDBRANCH  64  68
ENDBRANCH  38  61
ENDBRANCH  12  13
ENDBRANCH   5   7
ENDBRANCH   2   3
ENDBRANCH   1   2
BRANCH   1  72
ATOM     72  C   UNL A   1      32.916  27.021  25.702  1.00  0.00     0.023 C 
BRANCH  72  73
ATOM     73  C   UNL A   1      33.550  26.948  24.317  1.00  0.00     0.116 C 
BRANCH  73  74
ATOM     74  N   UNL A   1      32.631  27.322  23.254  1.00  0.00    -0.352 N 
ATOM     75  C   UNL A   1      31.841  26.503  22.486  1.00  0.00     0.255 C 
ATOM     76  H   UNL A   1      32.568  28.285  23.060  1.00  0.00     0.163 HD
ATOM     77  O   UNL A   1      31.145  26.960  21.584  1.00  0.00    -0.269 OA
BRANCH  75  78
ATOM     78  C   UNL A   1      31.896  25.043  22.686  1.00  0.00     0.081 A 
ATOM     79  C   UNL A   1      32.970  24.354  22.112  1.00  0.00     0.018 A 
ATOM     80  C   UNL A   1      30.940  24.352  23.436  1.00  0.00     0.128 A 
ATOM     81  C   UNL A   1      33.126  22.987  22.347  1.00  0.00     0.010 A 
ATOM     82  C   UNL A   1      31.100  22.989  23.679  1.00  0.00     0.055 A 
ATOM     83  C   UNL A   1      32.206  22.302  23.153  1.00  0.00    -0.014 A 
BRANCH  80  84
ATOM     84  O   UNL A   1      29.864  25.011  23.961  1.00  0.00    -0.507 OA
ATOM     85  H   UNL A   1      29.560  25.803  23.563  1.00  0.00     0.293 HD
ENDBRANCH  80  84
BRANCH  83  86
ATOM     86  C   UNL A   1      32.388  20.876  23.488  1.00  0.00    -0.011 A 
ATOM     87  C   UNL A   1      32.889  20.435  24.774  1.00  0.00     0.027 A 
ATOM     88  C   UNL A   1      32.154  19.963  22.529  1.00  0.00     0.080 A 
ATOM     89  C   UNL A   1      33.162  19.142  24.990  1.00  0.00     0.095 A 
ATOM     90  C   UNL A   1      32.423  18.517  22.765  1.00  0.00     0.255 A 
ATOM     91  N   UNL A   1      32.951  18.196  24.005  1.00  0.00    -0.258 N 
ATOM     92  O   UNL A   1      32.185  17.721  21.863  1.00  0.00    -0.269 OA
BRANCH  91  93
ATOM     93  C   UNL A   1      33.285  16.816  24.234  1.00  0.00     0.451 C 
ATOM     94  F   UNL A   1      34.435  16.475  23.605  1.00  0.00    -0.185 F 
ATOM     95  F   UNL A   1      33.438  16.564  25.557  1.00  0.00    -0.185 F 
ENDBRANCH  91  93
ENDBRANCH  83  86
ENDBRANCH  75  78
ENDBRANCH  73  74
ENDBRANCH  72  73
ENDBRANCH   1  72
TORSDOF 17
ENDMDL
