MODEL 1
REMARK VINA RESULT:     -11.7      0.000      0.000
REMARK SMILES Cc1sc(C(=O)NCCCCNC(=O)c2ccc(-c3c4nc(c(-c5cc(S(=O)(=O)[O-])ccc5F)c5ccc([nH]5)c(-c5cc(S(=O)(=O)[O-])ccc5F)c5nc(c(-c6cc(S(=O)(=O)[O-])ccc6F)c6ccc3[nH]6)C=C5)C=C4)cc2)cc1S(=O)(=O)N1C[C@@H](C)[C@H](C)C1
REMARK SMILES IDX 10 1 9 2 8 3 7 4 5 5 6 6 4 8 1 9 2 10 3 11 79 12 78 13 80 14
REMARK SMILES IDX 81 15 82 16 83 17 84 18 89 19 85 20 87 21 86 22 88 23 11 24
REMARK SMILES IDX 12 25 13 26 14 28 15 29 16 30 77 31 17 32 76 33 18 34 19 35
REMARK SMILES IDX 20 36 70 37 21 38 75 39 69 40 71 41 22 42 74 43 68 44 67 45
REMARK SMILES IDX 23 47 55 48 35 49 54 50 36 51 39 52 53 53 72 54 37 55 38 56
REMARK SMILES IDX 52 58 73 59 40 60 24 61 25 62 33 63 26 64 32 65 34 66 31 67
REMARK SMILES IDX 27 68 28 69 29 70 30 71 56 72 57 73 65 74 58 75 64 76 66 77
REMARK SMILES IDX 63 78 59 79 60 80 61 81 62 82 41 83 42 84 50 85 43 86 49 87
REMARK SMILES IDX 51 88 48 89 44 90 45 91 46 92 47 93
REMARK H PARENT 7 7 12 27 71 46 39 57
REMARK Flexibility Score: inf
ROOT
ATOM      1  C   UNL A   1      33.495  28.217  25.774  1.00  0.00     0.023 C 
ENDROOT
BRANCH   1   2
ATOM      2  C   UNL A   1      33.257  29.406  24.837  1.00  0.00     0.023 C 
BRANCH   2   3
ATOM      3  C   UNL A   1      33.324  29.033  23.357  1.00  0.00     0.116 C 
BRANCH   3   4
ATOM      4  N   UNL A   1      32.001  29.058  22.773  1.00  0.00    -0.351 N 
ATOM      5  C   UNL A   1      31.081  28.067  22.544  1.00  0.00     0.261 C 
ATOM      6  O   UNL A   1      30.052  28.438  21.970  1.00  0.00    -0.268 OA
ATOM      7  H   UNL A   1      31.708  29.952  22.486  1.00  0.00     0.163 HD
BRANCH   5   8
ATOM      8  C   UNL A   1      31.296  26.693  22.986  1.00  0.00     0.093 A 
ATOM      9  C   UNL A   1      30.827  23.792  25.581  1.00  0.00     0.058 C 
ATOM     10  C   UNL A   1      31.226  24.657  24.446  1.00  0.00     0.022 A 
ATOM     11  S   UNL A   1      30.486  26.208  24.417  1.00  0.00    -0.134 S 
ATOM     12  C   UNL A   1      32.080  24.496  23.372  1.00  0.00     0.097 A 
ATOM     13  C   UNL A   1      32.028  25.633  22.491  1.00  0.00     0.047 A 
BRANCH  12  14
ATOM     14  S   UNL A   1      33.169  23.188  22.978  1.00  0.00     0.244 S 
ATOM     15  O   UNL A   1      32.290  22.036  22.966  1.00  0.00    -0.207 OA
ATOM     16  O   UNL A   1      33.804  23.664  21.770  1.00  0.00    -0.207 OA
BRANCH  14  17
ATOM     17  N   UNL A   1      34.353  22.910  24.101  1.00  0.00    -0.197 NA
ATOM     18  C   UNL A   1      34.700  21.567  24.558  1.00  0.00     0.106 C 
ATOM     19  C   UNL A   1      35.360  23.910  24.434  1.00  0.00     0.106 C 
ATOM     20  C   UNL A   1      36.049  21.729  25.271  1.00  0.00     0.005 C 
ATOM     21  C   UNL A   1      36.594  23.099  24.823  1.00  0.00     0.005 C 
ATOM     22  C   UNL A   1      37.006  20.589  24.927  1.00  0.00     0.009 C 
ATOM     23  C   UNL A   1      37.416  23.793  25.900  1.00  0.00     0.009 C 
ENDBRANCH  14  17
ENDBRANCH  12  14
ENDBRANCH   5   8
ENDBRANCH   3   4
ENDBRANCH   2   3
ENDBRANCH   1   2
BRANCH   1  24
ATOM     24  C   UNL A   1      33.522  28.572  27.257  1.00  0.00     0.116 C 
BRANCH  24  25
ATOM     25  N   UNL A   1      33.534  30.007  27.498  1.00  0.00    -0.352 N 
ATOM     26  C   UNL A   1      34.544  30.762  28.043  1.00  0.00     0.251 C 
ATOM     27  H   UNL A   1      32.720  30.496  27.239  1.00  0.00     0.163 HD
ATOM     28  O   UNL A   1      34.363  31.944  28.313  1.00  0.00    -0.269 OA
BRANCH  26  29
ATOM     29  C   UNL A   1      35.832  30.106  28.336  1.00  0.00     0.039 A 
ATOM     30  C   UNL A   1      36.870  30.212  27.411  1.00  0.00     0.014 A 
ATOM     31  C   UNL A   1      36.028  29.459  29.560  1.00  0.00     0.014 A 
ATOM     32  C   UNL A   1      38.133  29.722  27.744  1.00  0.00     0.010 A 
ATOM     33  C   UNL A   1      37.305  29.043  29.918  1.00  0.00     0.010 A 
ATOM     34  C   UNL A   1      38.371  29.171  29.014  1.00  0.00    -0.014 A 
BRANCH  34  35
ATOM     35  C   UNL A   1      39.729  28.720  29.414  1.00  0.00     0.031 A 
ATOM     36  C   UNL A   1      40.469  29.450  30.500  1.00  0.00     0.074 A 
ATOM     37  C   UNL A   1      40.310  27.694  28.761  1.00  0.00     0.049 A 
ATOM     38  N   UNL A   1      41.683  29.256  30.946  1.00  0.00    -0.248 NA
ATOM     39  C   UNL A   1      39.762  30.565  31.150  1.00  0.00     0.031 C 
ATOM     40  C   UNL A   1      39.702  26.936  27.663  1.00  0.00     0.029 A 
ATOM     41  N   UNL A   1      41.543  27.111  28.917  1.00  0.00    -0.354 N 
ATOM     42  C   UNL A   1      41.889  30.228  31.919  1.00  0.00     0.074 A 
ATOM     43  C   UNL A   1      40.698  31.049  31.952  1.00  0.00     0.031 C 
ATOM     44  C   UNL A   1      40.550  25.972  27.270  1.00  0.00     0.029 A 
ATOM     45  C   UNL A   1      41.782  26.072  28.046  1.00  0.00     0.049 A 
ATOM     46  H   UNL A   1      42.196  27.407  29.593  1.00  0.00     0.167 HD
ATOM     47  C   UNL A   1      42.964  30.403  32.727  1.00  0.00     0.034 A 
ATOM     48  C   UNL A   1      42.875  25.300  27.881  1.00  0.00     0.034 A 
ATOM     49  C   UNL A   1      44.136  29.565  32.690  1.00  0.00     0.049 A 
ATOM     50  C   UNL A   1      44.070  25.538  28.774  1.00  0.00     0.074 A 
ATOM     51  C   UNL A   1      45.256  29.618  33.501  1.00  0.00     0.029 A 
ATOM     52  N   UNL A   1      44.346  28.527  31.791  1.00  0.00    -0.354 N 
ATOM     53  N   UNL A   1      44.225  26.427  29.728  1.00  0.00    -0.248 NA
ATOM     54  C   UNL A   1      45.231  24.662  28.574  1.00  0.00     0.031 C 
ATOM     55  C   UNL A   1      46.173  28.667  33.043  1.00  0.00     0.029 A 
ATOM     56  C   UNL A   1      45.591  27.957  32.005  1.00  0.00     0.049 A 
ATOM     57  H   UNL A   1      43.703  28.238  31.103  1.00  0.00     0.167 HD
ATOM     58  C   UNL A   1      45.487  26.188  30.267  1.00  0.00     0.074 A 
ATOM     59  C   UNL A   1      46.041  25.063  29.543  1.00  0.00     0.031 C 
ATOM     60  C   UNL A   1      46.130  26.836  31.272  1.00  0.00     0.034 A 
BRANCH  47  61
ATOM     61  C   UNL A   1      42.928  31.557  33.699  1.00  0.00     0.023 A 
ATOM     62  C   UNL A   1      42.463  31.402  35.017  1.00  0.00     0.031 A 
ATOM     63  C   UNL A   1      43.363  32.834  33.302  1.00  0.00     0.131 A 
ATOM     64  C   UNL A   1      42.386  32.515  35.869  1.00  0.00     0.055 A 
ATOM     65  C   UNL A   1      43.360  33.920  34.180  1.00  0.00     0.041 A 
ATOM     66  F   UNL A   1      43.795  33.050  32.050  1.00  0.00    -0.206 F 
ATOM     67  C   UNL A   1      42.859  33.767  35.469  1.00  0.00     0.022 A 
BRANCH  64  68
ATOM     68  S   UNL A   1      41.541  32.329  37.462  1.00  0.00     0.124 S 
ATOM     69  O   UNL A   1      42.358  31.306  38.112  1.00  0.00    -0.237 OA
ATOM     70  O   UNL A   1      41.630  33.671  38.026  1.00  0.00    -0.237 OA
ATOM     71  O   UNL A   1      40.195  31.896  37.088  1.00  0.00    -0.744 OA
ENDBRANCH  64  68
ENDBRANCH  47  61
BRANCH  48  72
ATOM     72  C   UNL A   1      42.913  24.241  26.830  1.00  0.00     0.023 A 
ATOM     73  C   UNL A   1      42.235  23.024  27.004  1.00  0.00     0.031 A 
ATOM     74  C   UNL A   1      43.686  24.401  25.666  1.00  0.00     0.131 A 
ATOM     75  C   UNL A   1      42.395  21.992  26.066  1.00  0.00     0.055 A 
ATOM     76  C   UNL A   1      43.788  23.394  24.702  1.00  0.00     0.041 A 
ATOM     77  F   UNL A   1      44.355  25.542  25.445  1.00  0.00    -0.206 F 
ATOM     78  C   UNL A   1      43.155  22.174  24.909  1.00  0.00     0.022 A 
BRANCH  75  79
ATOM     79  S   UNL A   1      41.691  20.362  26.442  1.00  0.00     0.124 S 
ATOM     80  O   UNL A   1      42.264  20.089  27.757  1.00  0.00    -0.237 OA
ATOM     81  O   UNL A   1      40.258  20.636  26.411  1.00  0.00    -0.237 OA
ATOM     82  O   UNL A   1      42.187  19.519  25.358  1.00  0.00    -0.744 OA
ENDBRANCH  75  79
ENDBRANCH  48  72
BRANCH  60  83
ATOM     83  C   UNL A   1      47.482  26.303  31.682  1.00  0.00     0.023 A 
ATOM     84  C   UNL A   1      47.640  25.431  32.772  1.00  0.00     0.031 A 
ATOM     85  C   UNL A   1      48.634  26.683  30.968  1.00  0.00     0.131 A 
ATOM     86  C   UNL A   1      48.924  25.015  33.155  1.00  0.00     0.055 A 
ATOM     87  C   UNL A   1      49.901  26.212  31.312  1.00  0.00     0.041 A 
ATOM     88  F   UNL A   1      48.545  27.518  29.920  1.00  0.00    -0.206 F 
ATOM     89  C   UNL A   1      50.053  25.383  32.420  1.00  0.00     0.022 A 
BRANCH  86  90
ATOM     90  S   UNL A   1      49.110  24.065  34.689  1.00  0.00     0.124 S 
ATOM     91  O   UNL A   1      48.199  22.946  34.466  1.00  0.00    -0.237 OA
ATOM     92  O   UNL A   1      50.533  23.739  34.684  1.00  0.00    -0.237 OA
ATOM     93  O   UNL A   1      48.694  25.006  35.727  1.00  0.00    -0.744 OA
ENDBRANCH  86  90
ENDBRANCH  60  83
ENDBRANCH  34  35
ENDBRANCH  26  29
ENDBRANCH  24  25
ENDBRANCH   1  24
TORSDOF 16
ENDMDL
MODEL 2
REMARK VINA RESULT:     -11.7      4.294      9.580
REMARK SMILES Cc1sc(C(=O)NCCCCNC(=O)c2ccc(-c3c4nc(c(-c5cc(S(=O)(=O)[O-])ccc5F)c5ccc([nH]5)c(-c5cc(S(=O)(=O)[O-])ccc5F)c5nc(c(-c6cc(S(=O)(=O)[O-])ccc6F)c6ccc3[nH]6)C=C5)C=C4)cc2)cc1S(=O)(=O)N1C[C@@H](C)[C@H](C)C1
REMARK SMILES IDX 10 1 9 2 8 3 7 4 5 5 6 6 4 8 1 9 2 10 3 11 79 12 78 13 80 14
REMARK SMILES IDX 81 15 82 16 83 17 84 18 89 19 85 20 87 21 86 22 88 23 11 24
REMARK SMILES IDX 12 25 13 26 14 28 15 29 16 30 77 31 17 32 76 33 18 34 19 35
REMARK SMILES IDX 20 36 70 37 21 38 75 39 69 40 71 41 22 42 74 43 68 44 67 45
REMARK SMILES IDX 23 47 55 48 35 49 54 50 36 51 39 52 53 53 72 54 37 55 38 56
REMARK SMILES IDX 52 58 73 59 40 60 24 61 25 62 33 63 26 64 32 65 34 66 31 67
REMARK SMILES IDX 27 68 28 69 29 70 30 71 56 72 57 73 65 74 58 75 64 76 66 77
REMARK SMILES IDX 63 78 59 79 60 80 61 81 62 82 41 83 42 84 50 85 43 86 49 87
REMARK SMILES IDX 51 88 48 89 44 90 45 91 46 92 47 93
REMARK H PARENT 7 7 12 27 71 46 39 57
REMARK Flexibility Score: inf
ROOT
ATOM      1  C   UNL A   1      36.047  21.056  25.359  1.00  0.00     0.023 C 
ENDROOT
BRANCH   1   2
ATOM      2  C   UNL A   1      35.371  22.126  26.223  1.00  0.00     0.023 C 
BRANCH   2   3
ATOM      3  C   UNL A   1      34.290  21.564  27.146  1.00  0.00     0.116 C 
BRANCH   3   4
ATOM      4  N   UNL A   1      33.455  20.627  26.429  1.00  0.00    -0.351 N 
ATOM      5  C   UNL A   1      32.461  20.807  25.500  1.00  0.00     0.261 C 
ATOM      6  O   UNL A   1      31.911  19.768  25.122  1.00  0.00    -0.268 OA
ATOM      7  H   UNL A   1      33.633  19.684  26.647  1.00  0.00     0.163 HD
BRANCH   5   8
ATOM      8  C   UNL A   1      32.119  22.126  24.979  1.00  0.00     0.093 A 
ATOM      9  C   UNL A   1      32.417  24.947  22.273  1.00  0.00     0.058 C 
ATOM     10  C   UNL A   1      32.125  24.130  23.474  1.00  0.00     0.022 A 
ATOM     11  S   UNL A   1      32.728  22.523  23.425  1.00  0.00    -0.134 S 
ATOM     12  C   UNL A   1      31.454  24.372  24.658  1.00  0.00     0.097 A 
ATOM     13  C   UNL A   1      31.372  23.181  25.462  1.00  0.00     0.047 A 
BRANCH  12  14
ATOM     14  S   UNL A   1      30.758  25.847  25.283  1.00  0.00     0.244 S 
ATOM     15  O   UNL A   1      29.720  25.358  26.170  1.00  0.00    -0.207 OA
ATOM     16  O   UNL A   1      31.916  26.547  25.792  1.00  0.00    -0.207 OA
BRANCH  14  17
ATOM     17  N   UNL A   1      30.039  26.811  24.145  1.00  0.00    -0.197 NA
ATOM     18  C   UNL A   1      28.619  26.713  23.819  1.00  0.00     0.106 C 
ATOM     19  C   UNL A   1      30.658  28.039  23.662  1.00  0.00     0.106 C 
ATOM     20  C   UNL A   1      28.305  27.994  23.035  1.00  0.00     0.005 C 
ATOM     21  C   UNL A   1      29.483  28.949  23.308  1.00  0.00     0.005 C 
ATOM     22  C   UNL A   1      26.966  28.597  23.456  1.00  0.00     0.009 C 
ATOM     23  C   UNL A   1      29.799  29.856  22.128  1.00  0.00     0.009 C 
ENDBRANCH  14  17
ENDBRANCH  12  14
ENDBRANCH   5   8
ENDBRANCH   3   4
ENDBRANCH   2   3
ENDBRANCH   1   2
BRANCH   1  24
ATOM     24  C   UNL A   1      37.505  21.342  25.019  1.00  0.00     0.116 C 
BRANCH  24  25
ATOM     25  N   UNL A   1      38.410  20.294  25.467  1.00  0.00    -0.352 N 
ATOM     26  C   UNL A   1      39.584  20.435  26.166  1.00  0.00     0.251 C 
ATOM     27  H   UNL A   1      38.149  19.372  25.241  1.00  0.00     0.163 HD
ATOM     28  O   UNL A   1      40.314  19.470  26.359  1.00  0.00    -0.269 OA
BRANCH  26  29
ATOM     29  C   UNL A   1      39.962  21.780  26.639  1.00  0.00     0.039 A 
ATOM     30  C   UNL A   1      40.972  21.902  27.593  1.00  0.00     0.014 A 
ATOM     31  C   UNL A   1      39.371  22.915  26.075  1.00  0.00     0.014 A 
ATOM     32  C   UNL A   1      41.437  23.172  27.937  1.00  0.00     0.010 A 
ATOM     33  C   UNL A   1      39.890  24.172  26.362  1.00  0.00     0.010 A 
ATOM     34  C   UNL A   1      40.929  24.313  27.295  1.00  0.00    -0.014 A 
BRANCH  34  35
ATOM     35  C   UNL A   1      41.471  25.665  27.590  1.00  0.00     0.031 A 
ATOM     36  C   UNL A   1      42.866  26.021  27.158  1.00  0.00     0.074 A 
ATOM     37  C   UNL A   1      40.727  26.543  28.291  1.00  0.00     0.049 A 
ATOM     38  N   UNL A   1      43.544  27.118  27.376  1.00  0.00    -0.248 NA
ATOM     39  C   UNL A   1      43.609  24.997  26.406  1.00  0.00     0.031 C 
ATOM     40  C   UNL A   1      39.374  26.293  28.797  1.00  0.00     0.029 A 
ATOM     41  N   UNL A   1      41.000  27.822  28.708  1.00  0.00    -0.354 N 
ATOM     42  C   UNL A   1      44.793  26.912  26.801  1.00  0.00     0.074 A 
ATOM     43  C   UNL A   1      44.800  25.563  26.280  1.00  0.00     0.031 C 
ATOM     44  C   UNL A   1      38.927  27.393  29.425  1.00  0.00     0.029 A 
ATOM     45  C   UNL A   1      39.975  28.407  29.416  1.00  0.00     0.049 A 
ATOM     46  H   UNL A   1      41.851  28.280  28.515  1.00  0.00     0.167 HD
ATOM     47  C   UNL A   1      45.829  27.780  26.696  1.00  0.00     0.034 A 
ATOM     48  C   UNL A   1      39.897  29.618  30.005  1.00  0.00     0.034 A 
ATOM     49  C   UNL A   1      45.799  29.127  27.207  1.00  0.00     0.049 A 
ATOM     50  C   UNL A   1      41.078  30.553  29.899  1.00  0.00     0.074 A 
ATOM     51  C   UNL A   1      46.770  30.108  27.106  1.00  0.00     0.029 A 
ATOM     52  N   UNL A   1      44.747  29.684  27.924  1.00  0.00    -0.354 N 
ATOM     53  N   UNL A   1      42.232  30.362  29.302  1.00  0.00    -0.248 NA
ATOM     54  C   UNL A   1      40.942  31.868  30.538  1.00  0.00     0.031 C 
ATOM     55  C   UNL A   1      46.340  31.226  27.826  1.00  0.00     0.029 A 
ATOM     56  C   UNL A   1      45.062  30.980  28.301  1.00  0.00     0.049 A 
ATOM     57  H   UNL A   1      43.902  29.224  28.134  1.00  0.00     0.167 HD
ATOM     58  C   UNL A   1      42.942  31.550  29.460  1.00  0.00     0.074 A 
ATOM     59  C   UNL A   1      42.080  32.453  30.193  1.00  0.00     0.031 C 
ATOM     60  C   UNL A   1      44.191  31.869  29.035  1.00  0.00     0.034 A 
BRANCH  47  61
ATOM     61  C   UNL A   1      47.088  27.289  26.023  1.00  0.00     0.023 A 
ATOM     62  C   UNL A   1      48.068  26.561  26.723  1.00  0.00     0.031 A 
ATOM     63  C   UNL A   1      47.315  27.554  24.661  1.00  0.00     0.131 A 
ATOM     64  C   UNL A   1      49.253  26.179  26.076  1.00  0.00     0.055 A 
ATOM     65  C   UNL A   1      48.460  27.100  24.002  1.00  0.00     0.041 A 
ATOM     66  F   UNL A   1      46.429  28.264  23.946  1.00  0.00    -0.206 F 
ATOM     67  C   UNL A   1      49.443  26.418  24.713  1.00  0.00     0.022 A 
BRANCH  64  68
ATOM     68  S   UNL A   1      50.596  25.479  27.072  1.00  0.00     0.124 S 
ATOM     69  O   UNL A   1      50.882  26.575  27.994  1.00  0.00    -0.237 OA
ATOM     70  O   UNL A   1      49.973  24.297  27.658  1.00  0.00    -0.237 OA
ATOM     71  O   UNL A   1      51.646  25.209  26.091  1.00  0.00    -0.744 OA
ENDBRANCH  64  68
ENDBRANCH  47  61
BRANCH  48  72
ATOM     72  C   UNL A   1      38.674  30.024  30.759  1.00  0.00     0.023 A 
ATOM     73  C   UNL A   1      37.646  30.748  30.136  1.00  0.00     0.031 A 
ATOM     74  C   UNL A   1      38.547  29.757  32.134  1.00  0.00     0.131 A 
ATOM     75  C   UNL A   1      36.571  31.236  30.895  1.00  0.00     0.055 A 
ATOM     76  C   UNL A   1      37.441  30.187  32.872  1.00  0.00     0.041 A 
ATOM     77  F   UNL A   1      39.498  29.068  32.784  1.00  0.00    -0.206 F 
ATOM     78  C   UNL A   1      36.454  30.948  32.256  1.00  0.00     0.022 A 
BRANCH  75  79
ATOM     79  S   UNL A   1      35.387  32.359  30.101  1.00  0.00     0.124 S 
ATOM     80  O   UNL A   1      34.963  31.573  28.947  1.00  0.00    -0.237 OA
ATOM     81  O   UNL A   1      34.392  32.543  31.152  1.00  0.00    -0.237 OA
ATOM     82  O   UNL A   1      36.192  33.538  29.792  1.00  0.00    -0.744 OA
ENDBRANCH  75  79
ENDBRANCH  48  72
BRANCH  60  83
ATOM     83  C   UNL A   1      44.674  33.273  29.306  1.00  0.00     0.023 A 
ATOM     84  C   UNL A   1      44.446  34.326  28.404  1.00  0.00     0.031 A 
ATOM     85  C   UNL A   1      45.383  33.558  30.488  1.00  0.00     0.131 A 
ATOM     86  C   UNL A   1      44.971  35.600  28.669  1.00  0.00     0.055 A 
ATOM     87  C   UNL A   1      45.843  34.842  30.778  1.00  0.00     0.041 A 
ATOM     88  F   UNL A   1      45.634  32.590  31.384  1.00  0.00    -0.206 F 
ATOM     89  C   UNL A   1      45.650  35.869  29.859  1.00  0.00     0.022 A 
BRANCH  86  90
ATOM     90  S   UNL A   1      44.841  36.878  27.389  1.00  0.00     0.124 S 
ATOM     91  O   UNL A   1      45.989  36.575  26.539  1.00  0.00    -0.237 OA
ATOM     92  O   UNL A   1      43.530  36.607  26.808  1.00  0.00    -0.237 OA
ATOM     93  O   UNL A   1      44.939  38.127  28.141  1.00  0.00    -0.744 OA
ENDBRANCH  86  90
ENDBRANCH  60  83
ENDBRANCH  34  35
ENDBRANCH  26  29
ENDBRANCH  24  25
ENDBRANCH   1  24
TORSDOF 16
ENDMDL
MODEL 3
REMARK VINA RESULT:     -11.7      2.415      3.267
REMARK SMILES Cc1sc(C(=O)NCCCCNC(=O)c2ccc(-c3c4nc(c(-c5cc(S(=O)(=O)[O-])ccc5F)c5ccc([nH]5)c(-c5cc(S(=O)(=O)[O-])ccc5F)c5nc(c(-c6cc(S(=O)(=O)[O-])ccc6F)c6ccc3[nH]6)C=C5)C=C4)cc2)cc1S(=O)(=O)N1C[C@@H](C)[C@H](C)C1
REMARK SMILES IDX 10 1 9 2 8 3 7 4 5 5 6 6 4 8 1 9 2 10 3 11 79 12 78 13 80 14
REMARK SMILES IDX 81 15 82 16 83 17 84 18 89 19 85 20 87 21 86 22 88 23 11 24
REMARK SMILES IDX 12 25 13 26 14 28 15 29 16 30 77 31 17 32 76 33 18 34 19 35
REMARK SMILES IDX 20 36 70 37 21 38 75 39 69 40 71 41 22 42 74 43 68 44 67 45
REMARK SMILES IDX 23 47 55 48 35 49 54 50 36 51 39 52 53 53 72 54 37 55 38 56
REMARK SMILES IDX 52 58 73 59 40 60 24 61 25 62 33 63 26 64 32 65 34 66 31 67
REMARK SMILES IDX 27 68 28 69 29 70 30 71 56 72 57 73 65 74 58 75 64 76 66 77
REMARK SMILES IDX 63 78 59 79 60 80 61 81 62 82 41 83 42 84 50 85 43 86 49 87
REMARK SMILES IDX 51 88 48 89 44 90 45 91 46 92 47 93
REMARK H PARENT 7 7 12 27 71 46 39 57
REMARK Flexibility Score: inf
ROOT
ATOM      1  C   UNL A   1      31.832  30.009  25.404  1.00  0.00     0.023 C 
ENDROOT
BRANCH   1   2
ATOM      2  C   UNL A   1      32.979  29.188  24.805  1.00  0.00     0.023 C 
BRANCH   2   3
ATOM      3  C   UNL A   1      32.998  29.201  23.277  1.00  0.00     0.116 C 
BRANCH   3   4
ATOM      4  N   UNL A   1      31.649  29.193  22.758  1.00  0.00    -0.351 N 
ATOM      5  C   UNL A   1      30.755  28.175  22.543  1.00  0.00     0.261 C 
ATOM      6  O   UNL A   1      29.686  28.523  22.031  1.00  0.00    -0.268 OA
ATOM      7  H   UNL A   1      31.308  30.083  22.515  1.00  0.00     0.163 HD
BRANCH   5   8
ATOM      8  C   UNL A   1      31.042  26.797  22.929  1.00  0.00     0.093 A 
ATOM      9  C   UNL A   1      30.818  23.808  25.455  1.00  0.00     0.058 C 
ATOM     10  C   UNL A   1      31.123  24.719  24.328  1.00  0.00     0.022 A 
ATOM     11  S   UNL A   1      30.329  26.241  24.387  1.00  0.00    -0.134 S 
ATOM     12  C   UNL A   1      31.922  24.620  23.204  1.00  0.00     0.097 A 
ATOM     13  C   UNL A   1      31.781  25.779  22.363  1.00  0.00     0.047 A 
BRANCH  12  14
ATOM     14  S   UNL A   1      33.032  23.365  22.712  1.00  0.00     0.244 S 
ATOM     15  O   UNL A   1      32.156  22.226  22.512  1.00  0.00    -0.207 OA
ATOM     16  O   UNL A   1      33.730  23.982  21.607  1.00  0.00    -0.207 OA
BRANCH  14  17
ATOM     17  N   UNL A   1      34.155  22.945  23.854  1.00  0.00    -0.197 NA
ATOM     18  C   UNL A   1      34.162  21.637  24.502  1.00  0.00     0.106 C 
ATOM     19  C   UNL A   1      35.401  23.681  24.027  1.00  0.00     0.106 C 
ATOM     20  C   UNL A   1      35.539  21.536  25.172  1.00  0.00     0.005 C 
ATOM     21  C   UNL A   1      36.399  22.637  24.522  1.00  0.00     0.005 C 
ATOM     22  C   UNL A   1      36.151  20.147  24.993  1.00  0.00     0.009 C 
ATOM     23  C   UNL A   1      37.422  23.234  25.478  1.00  0.00     0.009 C 
ENDBRANCH  14  17
ENDBRANCH  12  14
ENDBRANCH   5   8
ENDBRANCH   3   4
ENDBRANCH   2   3
ENDBRANCH   1   2
BRANCH   1  24
ATOM     24  C   UNL A   1      32.079  30.501  26.826  1.00  0.00     0.116 C 
BRANCH  24  25
ATOM     25  N   UNL A   1      32.015  31.950  26.946  1.00  0.00    -0.352 N 
ATOM     26  C   UNL A   1      32.944  32.792  27.508  1.00  0.00     0.251 C 
ATOM     27  H   UNL A   1      31.208  32.379  26.578  1.00  0.00     0.163 HD
ATOM     28  O   UNL A   1      32.694  33.982  27.660  1.00  0.00    -0.269 OA
BRANCH  26  29
ATOM     29  C   UNL A   1      34.225  32.221  27.962  1.00  0.00     0.039 A 
ATOM     30  C   UNL A   1      35.334  33.059  28.081  1.00  0.00     0.014 A 
ATOM     31  C   UNL A   1      34.300  30.878  28.344  1.00  0.00     0.014 A 
ATOM     32  C   UNL A   1      36.507  32.562  28.648  1.00  0.00     0.010 A 
ATOM     33  C   UNL A   1      35.444  30.409  28.979  1.00  0.00     0.010 A 
ATOM     34  C   UNL A   1      36.559  31.246  29.138  1.00  0.00    -0.014 A 
BRANCH  34  35
ATOM     35  C   UNL A   1      37.773  30.727  29.819  1.00  0.00     0.031 A 
ATOM     36  C   UNL A   1      38.085  31.160  31.225  1.00  0.00     0.074 A 
ATOM     37  C   UNL A   1      38.617  29.916  29.151  1.00  0.00     0.049 A 
ATOM     38  N   UNL A   1      39.124  30.875  31.966  1.00  0.00    -0.248 NA
ATOM     39  C   UNL A   1      37.114  32.056  31.873  1.00  0.00     0.031 C 
ATOM     40  C   UNL A   1      38.438  29.461  27.768  1.00  0.00     0.029 A 
ATOM     41  N   UNL A   1      39.797  29.331  29.537  1.00  0.00    -0.354 N 
ATOM     42  C   UNL A   1      38.938  31.563  33.160  1.00  0.00     0.074 A 
ATOM     43  C   UNL A   1      37.719  32.329  33.019  1.00  0.00     0.031 C 
ATOM     44  C   UNL A   1      39.452  28.645  27.437  1.00  0.00     0.029 A 
ATOM     45  C   UNL A   1      40.382  28.559  28.558  1.00  0.00     0.049 A 
ATOM     46  H   UNL A   1      40.189  29.451  30.433  1.00  0.00     0.167 HD
ATOM     47  C   UNL A   1      39.702  31.538  34.279  1.00  0.00     0.034 A 
ATOM     48  C   UNL A   1      41.543  27.873  28.560  1.00  0.00     0.034 A 
ATOM     49  C   UNL A   1      40.906  30.756  34.407  1.00  0.00     0.049 A 
ATOM     50  C   UNL A   1      42.390  27.888  29.810  1.00  0.00     0.074 A 
ATOM     51  C   UNL A   1      41.725  30.613  35.513  1.00  0.00     0.029 A 
ATOM     52  N   UNL A   1      41.472  29.991  33.394  1.00  0.00    -0.354 N 
ATOM     53  N   UNL A   1      42.170  28.500  30.951  1.00  0.00    -0.248 NA
ATOM     54  C   UNL A   1      43.636  27.112  29.775  1.00  0.00     0.031 C 
ATOM     55  C   UNL A   1      42.823  29.829  35.147  1.00  0.00     0.029 A 
ATOM     56  C   UNL A   1      42.645  29.405  33.840  1.00  0.00     0.049 A 
ATOM     57  H   UNL A   1      41.093  29.882  32.491  1.00  0.00     0.167 HD
ATOM     58  C   UNL A   1      43.231  28.147  31.781  1.00  0.00     0.074 A 
ATOM     59  C   UNL A   1      44.080  27.259  31.015  1.00  0.00     0.031 C 
ATOM     60  C   UNL A   1      43.482  28.521  33.062  1.00  0.00     0.034 A 
BRANCH  47  61
ATOM     61  C   UNL A   1      39.270  32.398  35.442  1.00  0.00     0.023 A 
ATOM     62  C   UNL A   1      39.696  33.732  35.577  1.00  0.00     0.031 A 
ATOM     63  C   UNL A   1      38.420  31.877  36.434  1.00  0.00     0.131 A 
ATOM     64  C   UNL A   1      39.323  34.476  36.706  1.00  0.00     0.055 A 
ATOM     65  C   UNL A   1      37.987  32.649  37.514  1.00  0.00     0.041 A 
ATOM     66  F   UNL A   1      38.000  30.603  36.373  1.00  0.00    -0.206 F 
ATOM     67  C   UNL A   1      38.448  33.953  37.661  1.00  0.00     0.022 A 
BRANCH  64  68
ATOM     68  S   UNL A   1      40.100  36.092  36.974  1.00  0.00     0.124 S 
ATOM     69  O   UNL A   1      39.387  36.571  38.155  1.00  0.00    -0.237 OA
ATOM     70  O   UNL A   1      41.501  35.740  37.172  1.00  0.00    -0.237 OA
ATOM     71  O   UNL A   1      39.808  36.822  35.741  1.00  0.00    -0.744 OA
ENDBRANCH  64  68
ENDBRANCH  47  61
BRANCH  48  72
ATOM     72  C   UNL A   1      41.991  27.125  27.349  1.00  0.00     0.023 A 
ATOM     73  C   UNL A   1      41.811  25.737  27.247  1.00  0.00     0.031 A 
ATOM     74  C   UNL A   1      42.673  27.776  26.305  1.00  0.00     0.131 A 
ATOM     75  C   UNL A   1      42.361  25.035  26.162  1.00  0.00     0.055 A 
ATOM     76  C   UNL A   1      43.160  27.082  25.194  1.00  0.00     0.041 A 
ATOM     77  F   UNL A   1      42.875  29.102  26.347  1.00  0.00    -0.206 F 
ATOM     78  C   UNL A   1      43.021  25.700  25.128  1.00  0.00     0.022 A 
BRANCH  75  79
ATOM     79  S   UNL A   1      42.305  23.221  26.185  1.00  0.00     0.124 S 
ATOM     80  O   UNL A   1      43.192  22.913  27.302  1.00  0.00    -0.237 OA
ATOM     81  O   UNL A   1      40.885  22.965  26.403  1.00  0.00    -0.237 OA
ATOM     82  O   UNL A   1      42.809  22.850  24.865  1.00  0.00    -0.744 OA
ENDBRANCH  75  79
ENDBRANCH  48  72
BRANCH  60  83
ATOM     83  C   UNL A   1      44.696  27.920  33.730  1.00  0.00     0.023 A 
ATOM     84  C   UNL A   1      44.642  26.687  34.401  1.00  0.00     0.031 A 
ATOM     85  C   UNL A   1      45.926  28.603  33.699  1.00  0.00     0.131 A 
ATOM     86  C   UNL A   1      45.780  26.202  35.063  1.00  0.00     0.055 A 
ATOM     87  C   UNL A   1      47.071  28.081  34.300  1.00  0.00     0.041 A 
ATOM     88  F   UNL A   1      46.035  29.787  33.076  1.00  0.00    -0.206 F 
ATOM     89  C   UNL A   1      46.999  26.880  35.000  1.00  0.00     0.022 A 
BRANCH  86  90
ATOM     90  S   UNL A   1      45.620  24.717  36.094  1.00  0.00     0.124 S 
ATOM     91  O   UNL A   1      46.676  23.862  35.560  1.00  0.00    -0.237 OA
ATOM     92  O   UNL A   1      45.846  25.244  37.436  1.00  0.00    -0.237 OA
ATOM     93  O   UNL A   1      44.258  24.261  35.828  1.00  0.00    -0.744 OA
ENDBRANCH  86  90
ENDBRANCH  60  83
ENDBRANCH  34  35
ENDBRANCH  26  29
ENDBRANCH  24  25
ENDBRANCH   1  24
TORSDOF 16
ENDMDL
