MODEL 1
REMARK VINA RESULT:     -12.7      0.000      0.000
REMARK SMILES O=C(NCCCCNC(=O)c1sccc1S(=O)(=O)Nc1ccc(Cn2cncn2)cc1)c1ccc(-c2c3nc(c(-c4cc(S(=O)(=O)[O-])ccc4F)c4ccc([nH]4)c(-c4cc(S(=O)(=O)[O-])ccc4F)c4nc(c(-c5cc(S(=O)(=O)[O-])ccc5F)c5ccc2[nH]5)C=C4)C=C3)cc1
REMARK SMILES IDX 6 1 5 2 4 3 3 4 1 5 2 6 32 8 33 9 94 10 34 11 93 12 35 13
REMARK SMILES IDX 36 14 37 15 87 16 38 17 92 18 86 19 88 20 39 21 91 22 85 23
REMARK SMILES IDX 84 24 40 26 72 27 52 28 71 29 53 30 56 31 70 32 89 33 54 34
REMARK SMILES IDX 55 35 69 37 90 38 57 39 41 40 42 41 50 42 43 43 49 44 51 45
REMARK SMILES IDX 48 46 44 47 45 48 46 49 47 50 73 51 74 52 82 53 75 54 81 55
REMARK SMILES IDX 83 56 80 57 76 58 77 59 78 60 79 61 58 62 59 63 67 64 60 65
REMARK SMILES IDX 66 66 68 67 65 68 61 69 62 70 63 71 64 72 7 73 8 74 9 75
REMARK SMILES IDX 10 77 11 78 12 79 15 80 13 81 14 82 16 83 17 84 18 85 19 86
REMARK SMILES IDX 20 88 21 89 31 90 22 91 30 92 23 93 24 94 25 95 26 96 29 97
REMARK SMILES IDX 27 98 28 99
REMARK H PARENT 3 7 88 25 56 36 8 76 19 87
REMARK Flexibility Score: inf
ROOT
ATOM      1  C   UNL A   1      32.757  27.619  25.979  1.00  0.00     0.023 C 
ENDROOT
BRANCH   1   2
ATOM      2  C   UNL A   1      33.394  28.532  27.033  1.00  0.00     0.023 C 
BRANCH   2   3
ATOM      3  C   UNL A   1      34.036  29.806  26.492  1.00  0.00     0.116 C 
BRANCH   3   4
ATOM      4  N   UNL A   1      34.126  30.931  27.394  1.00  0.00    -0.352 N 
ATOM      5  O   UNL A   1      34.947  32.546  28.672  1.00  0.00    -0.269 OA
ATOM      6  C   UNL A   1      35.137  31.442  28.160  1.00  0.00     0.251 C 
ATOM      7  H   UNL A   1      33.283  31.433  27.475  1.00  0.00     0.163 HD
BRANCH   6   8
ATOM      8  C   UNL A   1      36.387  30.708  28.468  1.00  0.00     0.039 A 
ATOM      9  C   UNL A   1      36.531  29.321  28.422  1.00  0.00     0.014 A 
ATOM     10  C   UNL A   1      37.491  31.500  28.822  1.00  0.00     0.014 A 
ATOM     11  C   UNL A   1      37.726  28.730  28.823  1.00  0.00     0.010 A 
ATOM     12  C   UNL A   1      38.698  30.914  29.189  1.00  0.00     0.010 A 
ATOM     13  C   UNL A   1      38.807  29.525  29.217  1.00  0.00    -0.014 A 
BRANCH  13  14
ATOM     14  C   UNL A   1      40.089  28.867  29.476  1.00  0.00     0.031 A 
ATOM     15  C   UNL A   1      40.470  28.750  30.912  1.00  0.00     0.074 A 
ATOM     16  C   UNL A   1      40.816  28.219  28.546  1.00  0.00     0.049 A 
ATOM     17  N   UNL A   1      41.542  29.173  31.499  1.00  0.00    -0.248 NA
ATOM     18  C   UNL A   1      39.491  28.145  31.829  1.00  0.00     0.031 C 
ATOM     19  C   UNL A   1      40.444  27.948  27.157  1.00  0.00     0.029 A 
ATOM     20  N   UNL A   1      41.998  27.548  28.693  1.00  0.00    -0.354 N 
ATOM     21  C   UNL A   1      41.474  28.715  32.814  1.00  0.00     0.074 A 
ATOM     22  C   UNL A   1      40.136  28.217  32.993  1.00  0.00     0.031 C 
ATOM     23  C   UNL A   1      41.258  26.990  26.663  1.00  0.00     0.029 A 
ATOM     24  C   UNL A   1      42.276  26.671  27.653  1.00  0.00     0.049 A 
ATOM     25  H   UNL A   1      42.597  27.674  29.464  1.00  0.00     0.167 HD
ATOM     26  C   UNL A   1      42.580  28.612  33.603  1.00  0.00     0.034 A 
ATOM     27  C   UNL A   1      43.219  25.694  27.625  1.00  0.00     0.034 A 
ATOM     28  C   UNL A   1      43.670  29.413  33.097  1.00  0.00     0.049 A 
ATOM     29  C   UNL A   1      44.247  26.027  28.638  1.00  0.00     0.074 A 
ATOM     30  C   UNL A   1      43.834  30.752  32.799  1.00  0.00     0.029 A 
ATOM     31  N   UNL A   1      44.744  28.778  32.518  1.00  0.00    -0.354 N 
ATOM     32  N   UNL A   1      45.048  27.052  28.551  1.00  0.00    -0.248 NA
ATOM     33  C   UNL A   1      44.136  25.444  29.967  1.00  0.00     0.031 C 
ATOM     34  C   UNL A   1      44.687  30.776  31.657  1.00  0.00     0.029 A 
ATOM     35  C   UNL A   1      45.024  29.454  31.358  1.00  0.00     0.049 A 
ATOM     36  H   UNL A   1      45.221  27.991  32.868  1.00  0.00     0.167 HD
ATOM     37  C   UNL A   1      45.204  27.499  29.853  1.00  0.00     0.074 A 
ATOM     38  C   UNL A   1      44.724  26.403  30.687  1.00  0.00     0.031 C 
ATOM     39  C   UNL A   1      45.440  28.817  30.125  1.00  0.00     0.034 A 
BRANCH  26  40
ATOM     40  C   UNL A   1      42.796  27.553  34.666  1.00  0.00     0.023 A 
ATOM     41  C   UNL A   1      43.606  26.451  34.327  1.00  0.00     0.031 A 
ATOM     42  C   UNL A   1      42.037  27.411  35.848  1.00  0.00     0.131 A 
ATOM     43  C   UNL A   1      43.554  25.256  35.065  1.00  0.00     0.055 A 
ATOM     44  C   UNL A   1      42.052  26.249  36.627  1.00  0.00     0.041 A 
ATOM     45  F   UNL A   1      41.169  28.340  36.267  1.00  0.00    -0.206 F 
ATOM     46  C   UNL A   1      42.785  25.148  36.220  1.00  0.00     0.022 A 
BRANCH  43  47
ATOM     47  S   UNL A   1      44.339  23.781  34.364  1.00  0.00     0.124 S 
ATOM     48  O   UNL A   1      43.853  22.737  35.260  1.00  0.00    -0.237 OA
ATOM     49  O   UNL A   1      43.799  23.770  33.009  1.00  0.00    -0.237 OA
ATOM     50  O   UNL A   1      45.767  24.076  34.466  1.00  0.00    -0.744 OA
ENDBRANCH  43  47
ENDBRANCH  26  40
BRANCH  27  51
ATOM     51  C   UNL A   1      43.123  24.374  26.950  1.00  0.00     0.023 A 
ATOM     52  C   UNL A   1      44.082  23.926  26.021  1.00  0.00     0.031 A 
ATOM     53  C   UNL A   1      42.172  23.424  27.389  1.00  0.00     0.131 A 
ATOM     54  C   UNL A   1      44.054  22.590  25.559  1.00  0.00     0.055 A 
ATOM     55  C   UNL A   1      42.137  22.111  26.916  1.00  0.00     0.041 A 
ATOM     56  F   UNL A   1      41.291  23.717  28.359  1.00  0.00    -0.206 F 
ATOM     57  C   UNL A   1      43.084  21.687  26.001  1.00  0.00     0.022 A 
BRANCH  54  58
ATOM     58  S   UNL A   1      45.362  21.974  24.454  1.00  0.00     0.124 S 
ATOM     59  O   UNL A   1      45.819  23.197  23.803  1.00  0.00    -0.237 OA
ATOM     60  O   UNL A   1      46.293  21.348  25.386  1.00  0.00    -0.237 OA
ATOM     61  O   UNL A   1      44.655  21.038  23.578  1.00  0.00    -0.744 OA
ENDBRANCH  54  58
ENDBRANCH  27  51
BRANCH  39  62
ATOM     62  C   UNL A   1      45.900  29.724  29.007  1.00  0.00     0.023 A 
ATOM     63  C   UNL A   1      45.060  30.609  28.297  1.00  0.00     0.031 A 
ATOM     64  C   UNL A   1      47.281  29.781  28.742  1.00  0.00     0.131 A 
ATOM     65  C   UNL A   1      45.608  31.495  27.351  1.00  0.00     0.055 A 
ATOM     66  C   UNL A   1      47.823  30.673  27.817  1.00  0.00     0.041 A 
ATOM     67  F   UNL A   1      48.137  28.991  29.411  1.00  0.00    -0.206 F 
ATOM     68  C   UNL A   1      46.986  31.530  27.111  1.00  0.00     0.022 A 
BRANCH  65  69
ATOM     69  S   UNL A   1      44.531  32.623  26.412  1.00  0.00     0.124 S 
ATOM     70  O   UNL A   1      43.919  33.452  27.444  1.00  0.00    -0.237 OA
ATOM     71  O   UNL A   1      45.476  33.298  25.526  1.00  0.00    -0.237 OA
ATOM     72  O   UNL A   1      43.604  31.717  25.730  1.00  0.00    -0.744 OA
ENDBRANCH  65  69
ENDBRANCH  39  62
ENDBRANCH  13  14
ENDBRANCH   6   8
ENDBRANCH   3   4
ENDBRANCH   2   3
ENDBRANCH   1   2
BRANCH   1  73
ATOM     73  C   UNL A   1      33.064  26.131  26.131  1.00  0.00     0.116 C 
BRANCH  73  74
ATOM     74  N   UNL A   1      31.958  25.412  26.727  1.00  0.00    -0.351 N 
ATOM     75  C   UNL A   1      31.723  24.064  26.762  1.00  0.00     0.262 C 
ATOM     76  H   UNL A   1      31.279  25.971  27.168  1.00  0.00     0.163 HD
ATOM     77  O   UNL A   1      30.603  23.703  27.127  1.00  0.00    -0.268 OA
BRANCH  75  78
ATOM     78  C   UNL A   1      32.735  23.142  26.298  1.00  0.00     0.112 A 
ATOM     79  S   UNL A   1      33.707  22.461  27.561  1.00  0.00    -0.137 S 
ATOM     80  C   UNL A   1      33.164  22.706  25.056  1.00  0.00     0.111 A 
ATOM     81  C   UNL A   1      34.613  21.520  26.475  1.00  0.00     0.067 A 
ATOM     82  C   UNL A   1      34.220  21.731  25.177  1.00  0.00     0.035 A 
BRANCH  80  83
ATOM     83  S   UNL A   1      32.660  23.165  23.458  1.00  0.00     0.263 S 
ATOM     84  O   UNL A   1      33.607  24.194  23.100  1.00  0.00    -0.201 OA
ATOM     85  O   UNL A   1      32.658  21.892  22.757  1.00  0.00    -0.201 OA
BRANCH  83  86
ATOM     86  N   UNL A   1      31.136  23.770  23.251  1.00  0.00    -0.280 N 
ATOM     87  H   UNL A   1      30.392  23.129  23.316  1.00  0.00     0.180 HD
BRANCH  86  88
ATOM     88  C   UNL A   1      30.797  25.114  22.992  1.00  0.00     0.049 A 
ATOM     89  C   UNL A   1      29.710  25.611  23.710  1.00  0.00     0.027 A 
ATOM     90  C   UNL A   1      31.550  25.970  22.198  1.00  0.00     0.027 A 
ATOM     91  C   UNL A   1      29.536  26.981  23.855  1.00  0.00     0.008 A 
ATOM     92  C   UNL A   1      31.350  27.349  22.307  1.00  0.00     0.008 A 
ATOM     93  C   UNL A   1      30.400  27.866  23.205  1.00  0.00    -0.026 A 
BRANCH  93  94
ATOM     94  C   UNL A   1      30.403  29.332  23.563  1.00  0.00     0.181 C 
BRANCH  94  95
ATOM     95  N   UNL A   1      29.368  30.065  22.865  1.00  0.00    -0.249 N 
ATOM     96  C   UNL A   1      28.596  31.078  23.348  1.00  0.00     0.220 A 
ATOM     97  N   UNL A   1      29.077  29.808  21.573  1.00  0.00    -0.160 NA
ATOM     98  N   UNL A   1      27.766  31.478  22.413  1.00  0.00    -0.224 NA
ATOM     99  C   UNL A   1      28.095  30.685  21.352  1.00  0.00     0.246 A 
ENDBRANCH  94  95
ENDBRANCH  93  94
ENDBRANCH  86  88
ENDBRANCH  83  86
ENDBRANCH  80  83
ENDBRANCH  75  78
ENDBRANCH  73  74
ENDBRANCH   1  73
TORSDOF 19
ENDMDL
MODEL 2
REMARK VINA RESULT:     -12.7      1.864      4.131
REMARK SMILES O=C(NCCCCNC(=O)c1sccc1S(=O)(=O)Nc1ccc(Cn2cncn2)cc1)c1ccc(-c2c3nc(c(-c4cc(S(=O)(=O)[O-])ccc4F)c4ccc([nH]4)c(-c4cc(S(=O)(=O)[O-])ccc4F)c4nc(c(-c5cc(S(=O)(=O)[O-])ccc5F)c5ccc2[nH]5)C=C4)C=C3)cc1
REMARK SMILES IDX 6 1 5 2 4 3 3 4 1 5 2 6 32 8 33 9 94 10 34 11 93 12 35 13
REMARK SMILES IDX 36 14 37 15 87 16 38 17 92 18 86 19 88 20 39 21 91 22 85 23
REMARK SMILES IDX 84 24 40 26 72 27 52 28 71 29 53 30 56 31 70 32 89 33 54 34
REMARK SMILES IDX 55 35 69 37 90 38 57 39 41 40 42 41 50 42 43 43 49 44 51 45
REMARK SMILES IDX 48 46 44 47 45 48 46 49 47 50 73 51 74 52 82 53 75 54 81 55
REMARK SMILES IDX 83 56 80 57 76 58 77 59 78 60 79 61 58 62 59 63 67 64 60 65
REMARK SMILES IDX 66 66 68 67 65 68 61 69 62 70 63 71 64 72 7 73 8 74 9 75
REMARK SMILES IDX 10 77 11 78 12 79 15 80 13 81 14 82 16 83 17 84 18 85 19 86
REMARK SMILES IDX 20 88 21 89 31 90 22 91 30 92 23 93 24 94 25 95 26 96 29 97
REMARK SMILES IDX 27 98 28 99
REMARK H PARENT 3 7 88 25 56 36 8 76 19 87
REMARK Flexibility Score: inf
ROOT
ATOM      1  C   UNL A   1      31.967  28.215  27.092  1.00  0.00     0.023 C 
ENDROOT
BRANCH   1   2
ATOM      2  C   UNL A   1      33.314  28.681  27.657  1.00  0.00     0.023 C 
BRANCH   2   3
ATOM      3  C   UNL A   1      33.881  29.951  27.031  1.00  0.00     0.116 C 
BRANCH   3   4
ATOM      4  N   UNL A   1      34.070  31.087  27.904  1.00  0.00    -0.352 N 
ATOM      5  O   UNL A   1      35.030  32.681  29.110  1.00  0.00    -0.269 OA
ATOM      6  C   UNL A   1      35.140  31.558  28.614  1.00  0.00     0.251 C 
ATOM      7  H   UNL A   1      33.259  31.634  28.010  1.00  0.00     0.163 HD
BRANCH   6   8
ATOM      8  C   UNL A   1      36.362  30.765  28.883  1.00  0.00     0.039 A 
ATOM      9  C   UNL A   1      36.385  29.392  29.129  1.00  0.00     0.014 A 
ATOM     10  C   UNL A   1      37.570  31.481  28.875  1.00  0.00     0.014 A 
ATOM     11  C   UNL A   1      37.582  28.764  29.465  1.00  0.00     0.010 A 
ATOM     12  C   UNL A   1      38.772  30.849  29.174  1.00  0.00     0.010 A 
ATOM     13  C   UNL A   1      38.775  29.493  29.497  1.00  0.00    -0.014 A 
BRANCH  13  14
ATOM     14  C   UNL A   1      40.026  28.760  29.697  1.00  0.00     0.031 A 
ATOM     15  C   UNL A   1      40.456  28.601  31.116  1.00  0.00     0.074 A 
ATOM     16  C   UNL A   1      40.679  28.086  28.731  1.00  0.00     0.049 A 
ATOM     17  N   UNL A   1      41.572  28.953  31.665  1.00  0.00    -0.248 NA
ATOM     18  C   UNL A   1      39.480  28.037  32.062  1.00  0.00     0.031 C 
ATOM     19  C   UNL A   1      40.238  27.857  27.355  1.00  0.00     0.029 A 
ATOM     20  N   UNL A   1      41.826  27.348  28.822  1.00  0.00    -0.354 N 
ATOM     21  C   UNL A   1      41.529  28.480  32.976  1.00  0.00     0.074 A 
ATOM     22  C   UNL A   1      40.172  28.055  33.201  1.00  0.00     0.031 C 
ATOM     23  C   UNL A   1      40.977  26.863  26.816  1.00  0.00     0.029 A 
ATOM     24  C   UNL A   1      42.012  26.472  27.761  1.00  0.00     0.049 A 
ATOM     25  H   UNL A   1      42.460  27.428  29.571  1.00  0.00     0.167 HD
ATOM     26  C   UNL A   1      42.656  28.304  33.719  1.00  0.00     0.034 A 
ATOM     27  C   UNL A   1      42.896  25.444  27.684  1.00  0.00     0.034 A 
ATOM     28  C   UNL A   1      43.770  29.048  33.180  1.00  0.00     0.049 A 
ATOM     29  C   UNL A   1      43.981  25.703  28.659  1.00  0.00     0.074 A 
ATOM     30  C   UNL A   1      43.999  30.381  32.893  1.00  0.00     0.029 A 
ATOM     31  N   UNL A   1      44.783  28.363  32.551  1.00  0.00    -0.354 N 
ATOM     32  N   UNL A   1      44.834  26.682  28.554  1.00  0.00    -0.248 NA
ATOM     33  C   UNL A   1      43.888  25.107  29.984  1.00  0.00     0.031 C 
ATOM     34  C   UNL A   1      44.806  30.374  31.719  1.00  0.00     0.029 A 
ATOM     35  C   UNL A   1      45.055  29.040  31.390  1.00  0.00     0.049 A 
ATOM     36  H   UNL A   1      45.227  27.545  32.873  1.00  0.00     0.167 HD
ATOM     37  C   UNL A   1      45.065  27.101  29.854  1.00  0.00     0.074 A 
ATOM     38  C   UNL A   1      44.557  26.021  30.693  1.00  0.00     0.031 C 
ATOM     39  C   UNL A   1      45.387  28.399  30.134  1.00  0.00     0.034 A 
BRANCH  26  40
ATOM     40  C   UNL A   1      42.852  27.217  34.759  1.00  0.00     0.023 A 
ATOM     41  C   UNL A   1      43.618  26.094  34.386  1.00  0.00     0.031 A 
ATOM     42  C   UNL A   1      42.109  27.081  35.952  1.00  0.00     0.131 A 
ATOM     43  C   UNL A   1      43.536  24.889  35.104  1.00  0.00     0.055 A 
ATOM     44  C   UNL A   1      42.096  25.905  36.709  1.00  0.00     0.041 A 
ATOM     45  F   UNL A   1      41.282  28.032  36.401  1.00  0.00    -0.206 F 
ATOM     46  C   UNL A   1      42.782  24.786  36.269  1.00  0.00     0.022 A 
BRANCH  43  47
ATOM     47  S   UNL A   1      44.256  23.400  34.363  1.00  0.00     0.124 S 
ATOM     48  O   UNL A   1      44.432  22.546  35.534  1.00  0.00    -0.237 OA
ATOM     49  O   UNL A   1      43.215  23.000  33.423  1.00  0.00    -0.237 OA
ATOM     50  O   UNL A   1      45.492  23.888  33.755  1.00  0.00    -0.744 OA
ENDBRANCH  43  47
ENDBRANCH  26  40
BRANCH  27  51
ATOM     51  C   UNL A   1      42.700  24.142  26.996  1.00  0.00     0.023 A 
ATOM     52  C   UNL A   1      43.646  23.606  26.102  1.00  0.00     0.031 A 
ATOM     53  C   UNL A   1      41.644  23.287  27.391  1.00  0.00     0.131 A 
ATOM     54  C   UNL A   1      43.506  22.280  25.629  1.00  0.00     0.055 A 
ATOM     55  C   UNL A   1      41.500  21.986  26.908  1.00  0.00     0.041 A 
ATOM     56  F   UNL A   1      40.759  23.661  28.328  1.00  0.00    -0.206 F 
ATOM     57  C   UNL A   1      42.437  21.474  26.027  1.00  0.00     0.022 A 
BRANCH  54  58
ATOM     58  S   UNL A   1      44.792  21.543  24.571  1.00  0.00     0.124 S 
ATOM     59  O   UNL A   1      44.695  22.351  23.360  1.00  0.00    -0.237 OA
ATOM     60  O   UNL A   1      45.997  21.717  25.373  1.00  0.00    -0.237 OA
ATOM     61  O   UNL A   1      44.354  20.155  24.421  1.00  0.00    -0.744 OA
ENDBRANCH  54  58
ENDBRANCH  27  51
BRANCH  39  62
ATOM     62  C   UNL A   1      45.854  29.295  29.010  1.00  0.00     0.023 A 
ATOM     63  C   UNL A   1      45.021  30.180  28.292  1.00  0.00     0.031 A 
ATOM     64  C   UNL A   1      47.236  29.342  28.746  1.00  0.00     0.131 A 
ATOM     65  C   UNL A   1      45.576  31.056  27.342  1.00  0.00     0.055 A 
ATOM     66  C   UNL A   1      47.785  30.224  27.816  1.00  0.00     0.041 A 
ATOM     67  F   UNL A   1      48.086  28.551  29.422  1.00  0.00    -0.206 F 
ATOM     68  C   UNL A   1      46.954  31.081  27.104  1.00  0.00     0.022 A 
BRANCH  65  69
ATOM     69  S   UNL A   1      44.507  32.184  26.393  1.00  0.00     0.124 S 
ATOM     70  O   UNL A   1      45.384  32.688  25.343  1.00  0.00    -0.237 OA
ATOM     71  O   UNL A   1      43.426  31.303  25.956  1.00  0.00    -0.237 OA
ATOM     72  O   UNL A   1      44.106  33.185  27.384  1.00  0.00    -0.744 OA
ENDBRANCH  65  69
ENDBRANCH  39  62
ENDBRANCH  13  14
ENDBRANCH   6   8
ENDBRANCH   3   4
ENDBRANCH   2   3
ENDBRANCH   1   2
BRANCH   1  73
ATOM     73  C   UNL A   1      31.972  26.830  26.448  1.00  0.00     0.116 C 
BRANCH  73  74
ATOM     74  N   UNL A   1      30.869  26.661  25.527  1.00  0.00    -0.351 N 
ATOM     75  C   UNL A   1      30.794  26.986  24.200  1.00  0.00     0.262 C 
ATOM     76  H   UNL A   1      30.058  26.255  25.909  1.00  0.00     0.163 HD
ATOM     77  O   UNL A   1      29.676  26.957  23.681  1.00  0.00    -0.268 OA
BRANCH  75  78
ATOM     78  C   UNL A   1      31.976  27.427  23.496  1.00  0.00     0.112 A 
ATOM     79  S   UNL A   1      32.313  29.118  23.663  1.00  0.00    -0.137 S 
ATOM     80  C   UNL A   1      32.892  26.823  22.651  1.00  0.00     0.111 A 
ATOM     81  C   UNL A   1      33.717  29.021  22.713  1.00  0.00     0.067 A 
ATOM     82  C   UNL A   1      33.922  27.747  22.245  1.00  0.00     0.035 A 
BRANCH  80  83
ATOM     83  S   UNL A   1      32.958  25.205  22.022  1.00  0.00     0.263 S 
ATOM     84  O   UNL A   1      33.060  25.413  20.597  1.00  0.00    -0.201 OA
ATOM     85  O   UNL A   1      34.068  24.629  22.762  1.00  0.00    -0.201 OA
BRANCH  83  86
ATOM     86  N   UNL A   1      31.683  24.192  22.306  1.00  0.00    -0.280 N 
ATOM     87  H   UNL A   1      30.852  24.374  21.810  1.00  0.00     0.180 HD
BRANCH  86  88
ATOM     88  C   UNL A   1      31.669  23.091  23.188  1.00  0.00     0.049 A 
ATOM     89  C   UNL A   1      32.076  21.875  22.642  1.00  0.00     0.027 A 
ATOM     90  C   UNL A   1      31.418  23.186  24.550  1.00  0.00     0.027 A 
ATOM     91  C   UNL A   1      32.490  20.841  23.469  1.00  0.00     0.008 A 
ATOM     92  C   UNL A   1      31.794  22.130  25.386  1.00  0.00     0.008 A 
ATOM     93  C   UNL A   1      32.415  20.986  24.857  1.00  0.00    -0.026 A 
BRANCH  93  94
ATOM     94  C   UNL A   1      33.108  20.000  25.767  1.00  0.00     0.181 C 
BRANCH  94  95
ATOM     95  N   UNL A   1      33.312  18.718  25.126  1.00  0.00    -0.249 N 
ATOM     96  C   UNL A   1      32.467  17.650  25.114  1.00  0.00     0.220 A 
ATOM     97  N   UNL A   1      34.425  18.463  24.408  1.00  0.00    -0.160 NA
ATOM     98  N   UNL A   1      33.013  16.669  24.434  1.00  0.00    -0.224 NA
ATOM     99  C   UNL A   1      34.196  17.206  24.019  1.00  0.00     0.246 A 
ENDBRANCH  94  95
ENDBRANCH  93  94
ENDBRANCH  86  88
ENDBRANCH  83  86
ENDBRANCH  80  83
ENDBRANCH  75  78
ENDBRANCH  73  74
ENDBRANCH   1  73
TORSDOF 19
ENDMDL
MODEL 3
REMARK VINA RESULT:     -12.6      1.815      2.110
REMARK SMILES O=C(NCCCCNC(=O)c1sccc1S(=O)(=O)Nc1ccc(Cn2cncn2)cc1)c1ccc(-c2c3nc(c(-c4cc(S(=O)(=O)[O-])ccc4F)c4ccc([nH]4)c(-c4cc(S(=O)(=O)[O-])ccc4F)c4nc(c(-c5cc(S(=O)(=O)[O-])ccc5F)c5ccc2[nH]5)C=C4)C=C3)cc1
REMARK SMILES IDX 6 1 5 2 4 3 3 4 1 5 2 6 32 8 33 9 94 10 34 11 93 12 35 13
REMARK SMILES IDX 36 14 37 15 87 16 38 17 92 18 86 19 88 20 39 21 91 22 85 23
REMARK SMILES IDX 84 24 40 26 72 27 52 28 71 29 53 30 56 31 70 32 89 33 54 34
REMARK SMILES IDX 55 35 69 37 90 38 57 39 41 40 42 41 50 42 43 43 49 44 51 45
REMARK SMILES IDX 48 46 44 47 45 48 46 49 47 50 73 51 74 52 82 53 75 54 81 55
REMARK SMILES IDX 83 56 80 57 76 58 77 59 78 60 79 61 58 62 59 63 67 64 60 65
REMARK SMILES IDX 66 66 68 67 65 68 61 69 62 70 63 71 64 72 7 73 8 74 9 75
REMARK SMILES IDX 10 77 11 78 12 79 15 80 13 81 14 82 16 83 17 84 18 85 19 86
REMARK SMILES IDX 20 88 21 89 31 90 22 91 30 92 23 93 24 94 25 95 26 96 29 97
REMARK SMILES IDX 27 98 28 99
REMARK H PARENT 3 7 88 25 56 36 8 76 19 87
REMARK Flexibility Score: inf
ROOT
ATOM      1  C   UNL A   1      32.221  27.499  26.324  1.00  0.00     0.023 C 
ENDROOT
BRANCH   1   2
ATOM      2  C   UNL A   1      33.084  28.434  27.180  1.00  0.00     0.023 C 
BRANCH   2   3
ATOM      3  C   UNL A   1      33.589  29.688  26.473  1.00  0.00     0.116 C 
BRANCH   3   4
ATOM      4  N   UNL A   1      33.683  30.895  27.262  1.00  0.00    -0.352 N 
ATOM      5  O   UNL A   1      34.507  32.647  28.342  1.00  0.00    -0.269 OA
ATOM      6  C   UNL A   1      34.711  31.505  27.926  1.00  0.00     0.251 C 
ATOM      7  H   UNL A   1      32.828  31.377  27.337  1.00  0.00     0.163 HD
BRANCH   6   8
ATOM      8  C   UNL A   1      35.998  30.840  28.238  1.00  0.00     0.039 A 
ATOM      9  C   UNL A   1      36.248  29.475  28.092  1.00  0.00     0.014 A 
ATOM     10  C   UNL A   1      37.023  31.679  28.706  1.00  0.00     0.014 A 
ATOM     11  C   UNL A   1      37.466  28.941  28.506  1.00  0.00     0.010 A 
ATOM     12  C   UNL A   1      38.253  31.154  29.085  1.00  0.00     0.010 A 
ATOM     13  C   UNL A   1      38.465  29.778  29.012  1.00  0.00    -0.014 A 
BRANCH  13  14
ATOM     14  C   UNL A   1      39.781  29.195  29.282  1.00  0.00     0.031 A 
ATOM     15  C   UNL A   1      40.151  29.090  30.723  1.00  0.00     0.074 A 
ATOM     16  C   UNL A   1      40.557  28.598  28.357  1.00  0.00     0.049 A 
ATOM     17  N   UNL A   1      41.189  29.571  31.326  1.00  0.00    -0.248 NA
ATOM     18  C   UNL A   1      39.198  28.420  31.622  1.00  0.00     0.031 C 
ATOM     19  C   UNL A   1      40.218  28.317  26.962  1.00  0.00     0.029 A 
ATOM     20  N   UNL A   1      41.775  27.998  28.514  1.00  0.00    -0.354 N 
ATOM     21  C   UNL A   1      41.132  29.099  32.637  1.00  0.00     0.074 A 
ATOM     22  C   UNL A   1      39.824  28.521  32.795  1.00  0.00     0.031 C 
ATOM     23  C   UNL A   1      41.094  27.413  26.471  1.00  0.00     0.029 A 
ATOM     24  C   UNL A   1      42.116  27.147  27.471  1.00  0.00     0.049 A 
ATOM     25  H   UNL A   1      42.355  28.153  29.294  1.00  0.00     0.167 HD
ATOM     26  C   UNL A   1      42.232  29.056  33.439  1.00  0.00     0.034 A 
ATOM     27  C   UNL A   1      43.116  26.228  27.449  1.00  0.00     0.034 A 
ATOM     28  C   UNL A   1      43.278  29.924  32.952  1.00  0.00     0.049 A 
ATOM     29  C   UNL A   1      44.111  26.613  28.477  1.00  0.00     0.074 A 
ATOM     30  C   UNL A   1      43.367  31.273  32.666  1.00  0.00     0.029 A 
ATOM     31  N   UNL A   1      44.396  29.359  32.382  1.00  0.00    -0.354 N 
ATOM     32  N   UNL A   1      44.850  27.684  28.408  1.00  0.00    -0.248 NA
ATOM     33  C   UNL A   1      44.018  26.014  29.801  1.00  0.00     0.031 C 
ATOM     34  C   UNL A   1      44.231  31.356  31.535  1.00  0.00     0.029 A 
ATOM     35  C   UNL A   1      44.649  30.059  31.231  1.00  0.00     0.049 A 
ATOM     36  H   UNL A   1      44.914  28.598  32.733  1.00  0.00     0.167 HD
ATOM     37  C   UNL A   1      44.963  28.130  29.714  1.00  0.00     0.074 A 
ATOM     38  C   UNL A   1      44.539  27.001  30.535  1.00  0.00     0.031 C 
ATOM     39  C   UNL A   1      45.118  29.457  29.999  1.00  0.00     0.034 A 
BRANCH  26  40
ATOM     40  C   UNL A   1      42.497  28.003  34.497  1.00  0.00     0.023 A 
ATOM     41  C   UNL A   1      43.256  26.878  34.116  1.00  0.00     0.031 A 
ATOM     42  C   UNL A   1      41.820  27.892  35.731  1.00  0.00     0.131 A 
ATOM     43  C   UNL A   1      43.229  25.693  34.870  1.00  0.00     0.055 A 
ATOM     44  C   UNL A   1      41.863  26.738  36.521  1.00  0.00     0.041 A 
ATOM     45  F   UNL A   1      41.005  28.846  36.198  1.00  0.00    -0.206 F 
ATOM     46  C   UNL A   1      42.539  25.616  36.077  1.00  0.00     0.022 A 
BRANCH  43  47
ATOM     47  S   UNL A   1      43.928  24.192  34.134  1.00  0.00     0.124 S 
ATOM     48  O   UNL A   1      42.781  23.291  34.162  1.00  0.00    -0.237 OA
ATOM     49  O   UNL A   1      44.341  24.669  32.818  1.00  0.00    -0.237 OA
ATOM     50  O   UNL A   1      45.018  23.845  35.043  1.00  0.00    -0.744 OA
ENDBRANCH  43  47
ENDBRANCH  26  40
BRANCH  27  51
ATOM     51  C   UNL A   1      43.107  24.910  26.764  1.00  0.00     0.023 A 
ATOM     52  C   UNL A   1      42.209  23.882  27.109  1.00  0.00     0.031 A 
ATOM     53  C   UNL A   1      43.864  24.722  25.584  1.00  0.00     0.131 A 
ATOM     54  C   UNL A   1      42.108  22.726  26.300  1.00  0.00     0.055 A 
ATOM     55  C   UNL A   1      43.775  23.572  24.799  1.00  0.00     0.041 A 
ATOM     56  F   UNL A   1      44.660  25.692  25.106  1.00  0.00    -0.206 F 
ATOM     57  C   UNL A   1      42.889  22.569  25.153  1.00  0.00     0.022 A 
BRANCH  54  58
ATOM     58  S   UNL A   1      40.862  21.452  26.673  1.00  0.00     0.124 S 
ATOM     59  O   UNL A   1      40.789  21.508  28.129  1.00  0.00    -0.237 OA
ATOM     60  O   UNL A   1      39.693  21.932  25.946  1.00  0.00    -0.237 OA
ATOM     61  O   UNL A   1      41.456  20.227  26.134  1.00  0.00    -0.744 OA
ENDBRANCH  54  58
ENDBRANCH  27  51
BRANCH  39  62
ATOM     62  C   UNL A   1      45.536  30.399  28.893  1.00  0.00     0.023 A 
ATOM     63  C   UNL A   1      46.874  30.731  28.588  1.00  0.00     0.031 A 
ATOM     64  C   UNL A   1      44.532  30.878  28.032  1.00  0.00     0.131 A 
ATOM     65  C   UNL A   1      47.164  31.527  27.465  1.00  0.00     0.055 A 
ATOM     66  C   UNL A   1      44.824  31.652  26.909  1.00  0.00     0.041 A 
ATOM     67  F   UNL A   1      43.243  30.566  28.247  1.00  0.00    -0.206 F 
ATOM     68  C   UNL A   1      46.143  31.986  26.625  1.00  0.00     0.022 A 
BRANCH  65  69
ATOM     69  S   UNL A   1      48.884  31.982  27.076  1.00  0.00     0.124 S 
ATOM     70  O   UNL A   1      49.450  30.751  26.536  1.00  0.00    -0.237 OA
ATOM     71  O   UNL A   1      48.714  33.079  26.126  1.00  0.00    -0.237 OA
ATOM     72  O   UNL A   1      49.429  32.385  28.373  1.00  0.00    -0.744 OA
ENDBRANCH  65  69
ENDBRANCH  39  62
ENDBRANCH  13  14
ENDBRANCH   6   8
ENDBRANCH   3   4
ENDBRANCH   2   3
ENDBRANCH   1   2
BRANCH   1  73
ATOM     73  C   UNL A   1      32.953  26.302  25.723  1.00  0.00     0.116 C 
BRANCH  73  74
ATOM     74  N   UNL A   1      32.652  25.076  26.431  1.00  0.00    -0.351 N 
ATOM     75  C   UNL A   1      33.097  23.805  26.186  1.00  0.00     0.262 C 
ATOM     76  H   UNL A   1      32.040  25.169  27.197  1.00  0.00     0.163 HD
ATOM     77  O   UNL A   1      32.526  22.890  26.782  1.00  0.00    -0.268 OA
BRANCH  75  78
ATOM     78  C   UNL A   1      34.128  23.578  25.200  1.00  0.00     0.112 A 
ATOM     79  S   UNL A   1      35.738  23.848  25.781  1.00  0.00    -0.137 S 
ATOM     80  C   UNL A   1      34.139  23.248  23.855  1.00  0.00     0.111 A 
ATOM     81  C   UNL A   1      36.439  23.426  24.293  1.00  0.00     0.067 A 
ATOM     82  C   UNL A   1      35.485  23.116  23.356  1.00  0.00     0.035 A 
BRANCH  80  83
ATOM     83  S   UNL A   1      32.830  23.011  22.737  1.00  0.00     0.263 S 
ATOM     84  O   UNL A   1      33.338  23.585  21.514  1.00  0.00    -0.201 OA
ATOM     85  O   UNL A   1      32.594  21.580  22.834  1.00  0.00    -0.201 OA
BRANCH  83  86
ATOM     86  N   UNL A   1      31.369  23.709  23.067  1.00  0.00    -0.280 N 
ATOM     87  H   UNL A   1      30.680  23.129  23.466  1.00  0.00     0.180 HD
BRANCH  86  88
ATOM     88  C   UNL A   1      31.012  25.054  22.836  1.00  0.00     0.049 A 
ATOM     89  C   UNL A   1      29.913  25.519  23.556  1.00  0.00     0.027 A 
ATOM     90  C   UNL A   1      31.758  25.938  22.068  1.00  0.00     0.027 A 
ATOM     91  C   UNL A   1      29.717  26.882  23.731  1.00  0.00     0.008 A 
ATOM     92  C   UNL A   1      31.537  27.312  22.206  1.00  0.00     0.008 A 
ATOM     93  C   UNL A   1      30.573  27.794  23.108  1.00  0.00    -0.026 A 
BRANCH  93  94
ATOM     94  C   UNL A   1      30.552  29.252  23.500  1.00  0.00     0.181 C 
BRANCH  94  95
ATOM     95  N   UNL A   1      29.453  29.965  22.884  1.00  0.00    -0.249 N 
ATOM     96  C   UNL A   1      28.645  30.901  23.454  1.00  0.00     0.220 A 
ATOM     97  N   UNL A   1      29.129  29.769  21.589  1.00  0.00    -0.160 NA
ATOM     98  N   UNL A   1      27.759  31.307  22.576  1.00  0.00    -0.224 NA
ATOM     99  C   UNL A   1      28.092  30.601  21.456  1.00  0.00     0.246 A 
ENDBRANCH  94  95
ENDBRANCH  93  94
ENDBRANCH  86  88
ENDBRANCH  83  86
ENDBRANCH  80  83
ENDBRANCH  75  78
ENDBRANCH  73  74
ENDBRANCH   1  73
TORSDOF 19
ENDMDL
