MODEL 1
REMARK VINA RESULT:     -12.7      0.000      0.000
REMARK SMILES Cc1ccc(/C=C2/SC(=O)N(CC(=O)NCCCCNC(=O)c3ccc(-c4c5nc(c(-c6cc(S(=O)(=O)[O-])ccc6F)c6ccc([nH]6)c(-c6cc(S(=O)(=O)[O-])ccc6F)c6nc(c(-c7cc(S(=O)(=O)[O-])ccc7F)c7ccc4[nH]7)C=C6)C=C5)cc3)C2=O)cc1
REMARK SMILES IDX 18 1 17 2 16 3 15 4 13 5 14 6 12 8 11 9 6 10 7 11 8 12 86 13
REMARK SMILES IDX 9 14 87 15 10 16 5 17 1 18 2 19 3 20 89 21 4 22 88 23 19 24
REMARK SMILES IDX 20 25 21 26 22 28 23 29 24 30 85 31 25 32 84 33 26 34 27 35
REMARK SMILES IDX 28 36 78 37 29 38 83 39 77 40 79 41 30 42 82 43 76 44 75 45
REMARK SMILES IDX 31 47 63 48 43 49 62 50 44 51 47 52 61 53 80 54 45 55 46 56
REMARK SMILES IDX 60 58 81 59 48 60 32 61 33 62 41 63 34 64 40 65 42 66 39 67
REMARK SMILES IDX 35 68 36 69 37 70 38 71 64 72 65 73 73 74 66 75 72 76 74 77
REMARK SMILES IDX 71 78 67 79 68 80 69 81 70 82 49 83 50 84 58 85 51 86 57 87
REMARK SMILES IDX 59 88 56 89 52 90 53 91 54 92 55 93
REMARK H PARENT 15 7 20 27 79 46 47 57
REMARK Flexibility Score: inf
ROOT
ATOM      1  C   UNL A   1      38.714  21.503  25.860  1.00  0.00     0.023 C 
ENDROOT
BRANCH   1   2
ATOM      2  C   UNL A   1      37.650  21.400  24.772  1.00  0.00     0.023 C 
BRANCH   2   3
ATOM      3  C   UNL A   1      36.317  20.780  25.205  1.00  0.00     0.116 C 
BRANCH   3   4
ATOM      4  N   UNL A   1      35.723  21.472  26.341  1.00  0.00    -0.355 N 
ATOM      5  C   UNL A   1      35.026  22.646  26.367  1.00  0.00     0.240 C 
ATOM      6  O   UNL A   1      34.424  22.936  27.405  1.00  0.00    -0.273 OA
ATOM      7  H   UNL A   1      35.840  21.030  27.214  1.00  0.00     0.163 HD
BRANCH   5   8
ATOM      8  C   UNL A   1      34.902  23.520  25.114  1.00  0.00     0.229 C 
BRANCH   8   9
ATOM      9  N   UNL A   1      33.524  23.889  24.849  1.00  0.00    -0.259 N 
ATOM     10  C   UNL A   1      30.890  26.392  24.904  1.00  0.00     0.029 C 
ATOM     11  C   UNL A   1      31.633  25.277  24.826  1.00  0.00     0.083 C 
ATOM     12  S   UNL A   1      31.057  23.792  24.158  1.00  0.00    -0.022 SA
ATOM     13  C   UNL A   1      33.044  25.099  25.285  1.00  0.00     0.268 C 
ATOM     14  C   UNL A   1      32.592  22.986  24.447  1.00  0.00     0.294 C 
ATOM     15  O   UNL A   1      33.659  25.883  25.986  1.00  0.00    -0.268 OA
ATOM     16  O   UNL A   1      32.715  21.762  24.408  1.00  0.00    -0.261 OA
BRANCH  10  17
ATOM     17  C   UNL A   1      31.365  27.635  25.515  1.00  0.00    -0.024 A 
ATOM     18  C   UNL A   1      33.334  30.953  27.420  1.00  0.00     0.044 C 
ATOM     19  C   UNL A   1      32.587  29.841  26.749  1.00  0.00    -0.051 A 
ATOM     20  C   UNL A   1      31.971  28.848  27.521  1.00  0.00     0.004 A 
ATOM     21  C   UNL A   1      32.535  29.750  25.354  1.00  0.00     0.004 A 
ATOM     22  C   UNL A   1      31.364  27.751  26.908  1.00  0.00     0.008 A 
ATOM     23  C   UNL A   1      31.918  28.658  24.739  1.00  0.00     0.008 A 
ENDBRANCH  10  17
ENDBRANCH   8   9
ENDBRANCH   5   8
ENDBRANCH   3   4
ENDBRANCH   2   3
ENDBRANCH   1   2
BRANCH   1  24
ATOM     24  C   UNL A   1      38.991  22.908  26.374  1.00  0.00     0.116 C 
BRANCH  24  25
ATOM     25  N   UNL A   1      40.261  23.105  27.066  1.00  0.00    -0.352 N 
ATOM     26  C   UNL A   1      40.869  24.296  27.449  1.00  0.00     0.251 C 
ATOM     27  H   UNL A   1      40.754  22.283  27.293  1.00  0.00     0.163 HD
ATOM     28  O   UNL A   1      42.012  24.331  27.895  1.00  0.00    -0.269 OA
BRANCH  26  29
ATOM     29  C   UNL A   1      40.044  25.532  27.517  1.00  0.00     0.039 A 
ATOM     30  C   UNL A   1      40.434  26.572  26.659  1.00  0.00     0.014 A 
ATOM     31  C   UNL A   1      39.282  25.801  28.644  1.00  0.00     0.014 A 
ATOM     32  C   UNL A   1      40.387  27.878  27.122  1.00  0.00     0.010 A 
ATOM     33  C   UNL A   1      39.385  27.060  29.178  1.00  0.00     0.010 A 
ATOM     34  C   UNL A   1      40.010  28.072  28.443  1.00  0.00    -0.014 A 
BRANCH  34  35
ATOM     35  C   UNL A   1      40.205  29.304  29.174  1.00  0.00     0.031 A 
ATOM     36  C   UNL A   1      39.133  30.302  29.101  1.00  0.00     0.074 A 
ATOM     37  C   UNL A   1      41.255  29.401  30.016  1.00  0.00     0.049 A 
ATOM     38  N   UNL A   1      39.260  31.537  29.417  1.00  0.00    -0.248 NA
ATOM     39  C   UNL A   1      37.808  29.970  28.583  1.00  0.00     0.031 C 
ATOM     40  C   UNL A   1      41.483  30.376  31.076  1.00  0.00     0.029 A 
ATOM     41  N   UNL A   1      42.471  28.727  29.903  1.00  0.00    -0.354 N 
ATOM     42  C   UNL A   1      37.991  32.070  29.473  1.00  0.00     0.074 A 
ATOM     43  C   UNL A   1      37.151  31.106  28.811  1.00  0.00     0.031 C 
ATOM     44  C   UNL A   1      42.804  30.440  31.325  1.00  0.00     0.029 A 
ATOM     45  C   UNL A   1      43.471  29.634  30.316  1.00  0.00     0.049 A 
ATOM     46  H   UNL A   1      42.605  27.802  29.595  1.00  0.00     0.167 HD
ATOM     47  C   UNL A   1      37.798  33.185  30.229  1.00  0.00     0.034 A 
ATOM     48  C   UNL A   1      44.359  30.104  29.386  1.00  0.00     0.034 A 
ATOM     49  C   UNL A   1      39.089  33.705  30.696  1.00  0.00     0.049 A 
ATOM     50  C   UNL A   1      44.175  31.584  29.085  1.00  0.00     0.074 A 
ATOM     51  C   UNL A   1      39.802  33.602  31.878  1.00  0.00     0.029 A 
ATOM     52  N   UNL A   1      39.988  34.158  29.748  1.00  0.00    -0.354 N 
ATOM     53  N   UNL A   1      43.188  32.310  29.543  1.00  0.00    -0.248 NA
ATOM     54  C   UNL A   1      45.057  32.349  28.205  1.00  0.00     0.031 C 
ATOM     55  C   UNL A   1      41.171  33.900  31.587  1.00  0.00     0.029 A 
ATOM     56  C   UNL A   1      41.273  34.225  30.245  1.00  0.00     0.049 A 
ATOM     57  H   UNL A   1      39.740  34.403  28.829  1.00  0.00     0.167 HD
ATOM     58  C   UNL A   1      43.266  33.578  29.033  1.00  0.00     0.074 A 
ATOM     59  C   UNL A   1      44.444  33.545  28.179  1.00  0.00     0.031 C 
ATOM     60  C   UNL A   1      42.357  34.557  29.330  1.00  0.00     0.034 A 
BRANCH  47  61
ATOM     61  C   UNL A   1      36.473  33.671  30.769  1.00  0.00     0.023 A 
ATOM     62  C   UNL A   1      35.566  34.230  29.847  1.00  0.00     0.031 A 
ATOM     63  C   UNL A   1      36.046  33.699  32.112  1.00  0.00     0.131 A 
ATOM     64  C   UNL A   1      34.366  34.833  30.259  1.00  0.00     0.055 A 
ATOM     65  C   UNL A   1      34.857  34.314  32.529  1.00  0.00     0.041 A 
ATOM     66  F   UNL A   1      36.725  33.114  33.102  1.00  0.00    -0.206 F 
ATOM     67  C   UNL A   1      34.011  34.895  31.602  1.00  0.00     0.022 A 
BRANCH  64  68
ATOM     68  S   UNL A   1      33.283  35.551  29.001  1.00  0.00     0.124 S 
ATOM     69  O   UNL A   1      32.763  34.363  28.333  1.00  0.00    -0.237 OA
ATOM     70  O   UNL A   1      32.334  36.309  29.808  1.00  0.00    -0.237 OA
ATOM     71  O   UNL A   1      34.195  36.364  28.196  1.00  0.00    -0.744 OA
ENDBRANCH  64  68
ENDBRANCH  47  61
BRANCH  48  72
ATOM     72  C   UNL A   1      44.726  29.034  28.397  1.00  0.00     0.023 A 
ATOM     73  C   UNL A   1      45.459  27.934  28.906  1.00  0.00     0.031 A 
ATOM     74  C   UNL A   1      43.988  28.837  27.223  1.00  0.00     0.131 A 
ATOM     75  C   UNL A   1      45.235  26.643  28.399  1.00  0.00     0.055 A 
ATOM     76  C   UNL A   1      43.856  27.560  26.658  1.00  0.00     0.041 A 
ATOM     77  F   UNL A   1      43.261  29.831  26.694  1.00  0.00    -0.206 F 
ATOM     78  C   UNL A   1      44.421  26.447  27.284  1.00  0.00     0.022 A 
BRANCH  75  79
ATOM     79  S   UNL A   1      45.734  25.215  29.412  1.00  0.00     0.124 S 
ATOM     80  O   UNL A   1      46.998  25.666  29.980  1.00  0.00    -0.237 OA
ATOM     81  O   UNL A   1      44.620  25.083  30.349  1.00  0.00    -0.237 OA
ATOM     82  O   UNL A   1      45.825  24.112  28.455  1.00  0.00    -0.744 OA
ENDBRANCH  75  79
ENDBRANCH  48  72
BRANCH  60  83
ATOM     83  C   UNL A   1      42.440  35.940  28.745  1.00  0.00     0.023 A 
ATOM     84  C   UNL A   1      42.869  37.024  29.518  1.00  0.00     0.031 A 
ATOM     85  C   UNL A   1      42.048  36.232  27.418  1.00  0.00     0.131 A 
ATOM     86  C   UNL A   1      43.006  38.297  28.947  1.00  0.00     0.055 A 
ATOM     87  C   UNL A   1      42.066  37.524  26.891  1.00  0.00     0.041 A 
ATOM     88  F   UNL A   1      41.690  35.270  26.555  1.00  0.00    -0.206 F 
ATOM     89  C   UNL A   1      42.572  38.566  27.651  1.00  0.00     0.022 A 
BRANCH  86  90
ATOM     90  S   UNL A   1      43.905  39.552  29.887  1.00  0.00     0.124 S 
ATOM     91  O   UNL A   1      44.417  38.795  31.024  1.00  0.00    -0.237 OA
ATOM     92  O   UNL A   1      44.905  39.983  28.912  1.00  0.00    -0.237 OA
ATOM     93  O   UNL A   1      42.882  40.544  30.205  1.00  0.00    -0.744 OA
ENDBRANCH  86  90
ENDBRANCH  60  83
ENDBRANCH  34  35
ENDBRANCH  26  29
ENDBRANCH  24  25
ENDBRANCH   1  24
TORSDOF 16
ENDMDL
MODEL 2
REMARK VINA RESULT:     -12.3      2.047      2.384
REMARK SMILES Cc1ccc(/C=C2/SC(=O)N(CC(=O)NCCCCNC(=O)c3ccc(-c4c5nc(c(-c6cc(S(=O)(=O)[O-])ccc6F)c6ccc([nH]6)c(-c6cc(S(=O)(=O)[O-])ccc6F)c6nc(c(-c7cc(S(=O)(=O)[O-])ccc7F)c7ccc4[nH]7)C=C6)C=C5)cc3)C2=O)cc1
REMARK SMILES IDX 18 1 17 2 16 3 15 4 13 5 14 6 12 8 11 9 6 10 7 11 8 12 86 13
REMARK SMILES IDX 9 14 87 15 10 16 5 17 1 18 2 19 3 20 89 21 4 22 88 23 19 24
REMARK SMILES IDX 20 25 21 26 22 28 23 29 24 30 85 31 25 32 84 33 26 34 27 35
REMARK SMILES IDX 28 36 78 37 29 38 83 39 77 40 79 41 30 42 82 43 76 44 75 45
REMARK SMILES IDX 31 47 63 48 43 49 62 50 44 51 47 52 61 53 80 54 45 55 46 56
REMARK SMILES IDX 60 58 81 59 48 60 32 61 33 62 41 63 34 64 40 65 42 66 39 67
REMARK SMILES IDX 35 68 36 69 37 70 38 71 64 72 65 73 73 74 66 75 72 76 74 77
REMARK SMILES IDX 71 78 67 79 68 80 69 81 70 82 49 83 50 84 58 85 51 86 57 87
REMARK SMILES IDX 59 88 56 89 52 90 53 91 54 92 55 93
REMARK H PARENT 15 7 20 27 79 46 47 57
REMARK Flexibility Score: inf
ROOT
ATOM      1  C   UNL A   1      38.015  21.026  25.943  1.00  0.00     0.023 C 
ENDROOT
BRANCH   1   2
ATOM      2  C   UNL A   1      37.208  20.419  24.801  1.00  0.00     0.023 C 
BRANCH   2   3
ATOM      3  C   UNL A   1      35.685  20.472  24.965  1.00  0.00     0.116 C 
BRANCH   3   4
ATOM      4  N   UNL A   1      35.278  21.173  26.175  1.00  0.00    -0.355 N 
ATOM      5  C   UNL A   1      34.800  22.444  26.316  1.00  0.00     0.240 C 
ATOM      6  O   UNL A   1      34.311  22.758  27.405  1.00  0.00    -0.273 OA
ATOM      7  H   UNL A   1      35.359  20.656  27.010  1.00  0.00     0.163 HD
BRANCH   5   8
ATOM      8  C   UNL A   1      34.770  23.414  25.130  1.00  0.00     0.229 C 
BRANCH   8   9
ATOM      9  N   UNL A   1      33.419  23.836  24.813  1.00  0.00    -0.259 N 
ATOM     10  C   UNL A   1      30.877  26.432  24.784  1.00  0.00     0.029 C 
ATOM     11  C   UNL A   1      31.582  25.292  24.726  1.00  0.00     0.083 C 
ATOM     12  S   UNL A   1      30.980  23.834  24.022  1.00  0.00    -0.022 SA
ATOM     13  C   UNL A   1      32.965  25.059  25.240  1.00  0.00     0.268 C 
ATOM     14  C   UNL A   1      32.471  22.970  24.365  1.00  0.00     0.294 C 
ATOM     15  O   UNL A   1      33.580  25.815  25.972  1.00  0.00    -0.268 OA
ATOM     16  O   UNL A   1      32.552  21.743  24.321  1.00  0.00    -0.261 OA
BRANCH  10  17
ATOM     17  C   UNL A   1      31.371  27.653  25.424  1.00  0.00    -0.024 A 
ATOM     18  C   UNL A   1      33.371  30.876  27.458  1.00  0.00     0.044 C 
ATOM     19  C   UNL A   1      32.616  29.799  26.738  1.00  0.00    -0.051 A 
ATOM     20  C   UNL A   1      31.897  28.844  27.466  1.00  0.00     0.004 A 
ATOM     21  C   UNL A   1      32.658  29.704  25.342  1.00  0.00     0.004 A 
ATOM     22  C   UNL A   1      31.278  27.776  26.814  1.00  0.00     0.008 A 
ATOM     23  C   UNL A   1      32.031  28.641  24.687  1.00  0.00     0.008 A 
ENDBRANCH  10  17
ENDBRANCH   8   9
ENDBRANCH   5   8
ENDBRANCH   3   4
ENDBRANCH   2   3
ENDBRANCH   1   2
BRANCH   1  24
ATOM     24  C   UNL A   1      38.847  22.247  25.580  1.00  0.00     0.116 C 
BRANCH  24  25
ATOM     25  N   UNL A   1      40.169  22.335  26.195  1.00  0.00    -0.352 N 
ATOM     26  C   UNL A   1      40.889  23.470  26.552  1.00  0.00     0.251 C 
ATOM     27  H   UNL A   1      40.610  21.475  26.381  1.00  0.00     0.163 HD
ATOM     28  O   UNL A   1      42.057  23.411  26.926  1.00  0.00    -0.269 OA
BRANCH  26  29
ATOM     29  C   UNL A   1      40.167  24.764  26.685  1.00  0.00     0.039 A 
ATOM     30  C   UNL A   1      40.807  25.878  26.118  1.00  0.00     0.014 A 
ATOM     31  C   UNL A   1      39.214  24.933  27.677  1.00  0.00     0.014 A 
ATOM     32  C   UNL A   1      40.769  27.089  26.791  1.00  0.00     0.010 A 
ATOM     33  C   UNL A   1      39.304  26.070  28.439  1.00  0.00     0.010 A 
ATOM     34  C   UNL A   1      40.145  27.109  28.030  1.00  0.00    -0.014 A 
BRANCH  34  35
ATOM     35  C   UNL A   1      40.282  28.178  28.995  1.00  0.00     0.031 A 
ATOM     36  C   UNL A   1      39.342  29.298  28.890  1.00  0.00     0.074 A 
ATOM     37  C   UNL A   1      41.128  28.012  30.033  1.00  0.00     0.049 A 
ATOM     38  N   UNL A   1      39.504  30.443  29.442  1.00  0.00    -0.248 NA
ATOM     39  C   UNL A   1      38.138  29.217  28.067  1.00  0.00     0.031 C 
ATOM     40  C   UNL A   1      41.204  28.772  31.275  1.00  0.00     0.029 A 
ATOM     41  N   UNL A   1      42.277  27.220  30.045  1.00  0.00    -0.354 N 
ATOM     42  C   UNL A   1      38.304  31.112  29.339  1.00  0.00     0.074 A 
ATOM     43  C   UNL A   1      37.548  30.375  28.361  1.00  0.00     0.031 C 
ATOM     44  C   UNL A   1      42.440  28.634  31.790  1.00  0.00     0.029 A 
ATOM     45  C   UNL A   1      43.238  27.920  30.805  1.00  0.00     0.049 A 
ATOM     46  H   UNL A   1      42.393  26.345  29.609  1.00  0.00     0.167 HD
ATOM     47  C   UNL A   1      38.048  32.110  30.229  1.00  0.00     0.034 A 
ATOM     48  C   UNL A   1      44.344  28.419  30.171  1.00  0.00     0.034 A 
ATOM     49  C   UNL A   1      39.247  32.387  31.030  1.00  0.00     0.049 A 
ATOM     50  C   UNL A   1      44.359  29.940  30.112  1.00  0.00     0.074 A 
ATOM     51  C   UNL A   1      39.674  32.012  32.293  1.00  0.00     0.029 A 
ATOM     52  N   UNL A   1      40.366  32.870  30.378  1.00  0.00    -0.354 N 
ATOM     53  N   UNL A   1      43.363  30.700  30.486  1.00  0.00    -0.248 NA
ATOM     54  C   UNL A   1      45.473  30.719  29.577  1.00  0.00     0.031 C 
ATOM     55  C   UNL A   1      41.094  32.182  32.339  1.00  0.00     0.029 A 
ATOM     56  C   UNL A   1      41.514  32.699  31.125  1.00  0.00     0.049 A 
ATOM     57  H   UNL A   1      40.347  33.285  29.487  1.00  0.00     0.167 HD
ATOM     58  C   UNL A   1      43.658  32.013  30.239  1.00  0.00     0.074 A 
ATOM     59  C   UNL A   1      44.987  31.971  29.645  1.00  0.00     0.031 C 
ATOM     60  C   UNL A   1      42.795  33.036  30.519  1.00  0.00     0.034 A 
BRANCH  47  61
ATOM     61  C   UNL A   1      36.685  32.663  30.572  1.00  0.00     0.023 A 
ATOM     62  C   UNL A   1      35.990  33.345  29.555  1.00  0.00     0.031 A 
ATOM     63  C   UNL A   1      36.035  32.642  31.823  1.00  0.00     0.131 A 
ATOM     64  C   UNL A   1      34.780  34.013  29.802  1.00  0.00     0.055 A 
ATOM     65  C   UNL A   1      34.834  33.321  32.077  1.00  0.00     0.041 A 
ATOM     66  F   UNL A   1      36.491  31.947  32.868  1.00  0.00    -0.206 F 
ATOM     67  C   UNL A   1      34.202  34.020  31.066  1.00  0.00     0.022 A 
BRANCH  64  68
ATOM     68  S   UNL A   1      33.981  34.888  28.435  1.00  0.00     0.124 S 
ATOM     69  O   UNL A   1      34.728  34.399  27.282  1.00  0.00    -0.237 OA
ATOM     70  O   UNL A   1      32.598  34.439  28.550  1.00  0.00    -0.237 OA
ATOM     71  O   UNL A   1      34.201  36.297  28.762  1.00  0.00    -0.744 OA
ENDBRANCH  64  68
ENDBRANCH  47  61
BRANCH  48  72
ATOM     72  C   UNL A   1      44.823  27.481  29.100  1.00  0.00     0.023 A 
ATOM     73  C   UNL A   1      44.927  28.021  27.794  1.00  0.00     0.031 A 
ATOM     74  C   UNL A   1      45.605  26.359  29.404  1.00  0.00     0.131 A 
ATOM     75  C   UNL A   1      45.962  27.605  26.941  1.00  0.00     0.055 A 
ATOM     76  C   UNL A   1      46.565  25.881  28.502  1.00  0.00     0.041 A 
ATOM     77  F   UNL A   1      45.566  25.807  30.625  1.00  0.00    -0.206 F 
ATOM     78  C   UNL A   1      46.796  26.546  27.295  1.00  0.00     0.022 A 
BRANCH  75  79
ATOM     79  S   UNL A   1      46.415  28.680  25.541  1.00  0.00     0.124 S 
ATOM     80  O   UNL A   1      45.719  29.918  25.865  1.00  0.00    -0.237 OA
ATOM     81  O   UNL A   1      47.873  28.720  25.628  1.00  0.00    -0.237 OA
ATOM     82  O   UNL A   1      45.921  27.961  24.366  1.00  0.00    -0.744 OA
ENDBRANCH  75  79
ENDBRANCH  48  72
BRANCH  60  83
ATOM     83  C   UNL A   1      43.123  34.474  30.221  1.00  0.00     0.023 A 
ATOM     84  C   UNL A   1      43.108  34.957  28.909  1.00  0.00     0.031 A 
ATOM     85  C   UNL A   1      43.508  35.392  31.225  1.00  0.00     0.131 A 
ATOM     86  C   UNL A   1      43.351  36.314  28.646  1.00  0.00     0.055 A 
ATOM     87  C   UNL A   1      43.873  36.710  30.944  1.00  0.00     0.041 A 
ATOM     88  F   UNL A   1      43.490  35.072  32.526  1.00  0.00    -0.206 F 
ATOM     89  C   UNL A   1      43.771  37.187  29.647  1.00  0.00     0.022 A 
BRANCH  86  90
ATOM     90  S   UNL A   1      42.955  36.939  26.997  1.00  0.00     0.124 S 
ATOM     91  O   UNL A   1      41.611  37.476  27.172  1.00  0.00    -0.237 OA
ATOM     92  O   UNL A   1      44.012  37.929  26.802  1.00  0.00    -0.237 OA
ATOM     93  O   UNL A   1      43.051  35.755  26.148  1.00  0.00    -0.744 OA
ENDBRANCH  86  90
ENDBRANCH  60  83
ENDBRANCH  34  35
ENDBRANCH  26  29
ENDBRANCH  24  25
ENDBRANCH   1  24
TORSDOF 16
ENDMDL
MODEL 3
REMARK VINA RESULT:     -12.0      4.086     10.669
REMARK SMILES Cc1ccc(/C=C2/SC(=O)N(CC(=O)NCCCCNC(=O)c3ccc(-c4c5nc(c(-c6cc(S(=O)(=O)[O-])ccc6F)c6ccc([nH]6)c(-c6cc(S(=O)(=O)[O-])ccc6F)c6nc(c(-c7cc(S(=O)(=O)[O-])ccc7F)c7ccc4[nH]7)C=C6)C=C5)cc3)C2=O)cc1
REMARK SMILES IDX 18 1 17 2 16 3 15 4 13 5 14 6 12 8 11 9 6 10 7 11 8 12 86 13
REMARK SMILES IDX 9 14 87 15 10 16 5 17 1 18 2 19 3 20 89 21 4 22 88 23 19 24
REMARK SMILES IDX 20 25 21 26 22 28 23 29 24 30 85 31 25 32 84 33 26 34 27 35
REMARK SMILES IDX 28 36 78 37 29 38 83 39 77 40 79 41 30 42 82 43 76 44 75 45
REMARK SMILES IDX 31 47 63 48 43 49 62 50 44 51 47 52 61 53 80 54 45 55 46 56
REMARK SMILES IDX 60 58 81 59 48 60 32 61 33 62 41 63 34 64 40 65 42 66 39 67
REMARK SMILES IDX 35 68 36 69 37 70 38 71 64 72 65 73 73 74 66 75 72 76 74 77
REMARK SMILES IDX 71 78 67 79 68 80 69 81 70 82 49 83 50 84 58 85 51 86 57 87
REMARK SMILES IDX 59 88 56 89 52 90 53 91 54 92 55 93
REMARK H PARENT 15 7 20 27 79 46 47 57
REMARK Flexibility Score: inf
ROOT
ATOM      1  C   UNL A   1      34.080  30.225  26.962  1.00  0.00     0.023 C 
ENDROOT
BRANCH   1   2
ATOM      2  C   UNL A   1      32.748  30.795  26.487  1.00  0.00     0.023 C 
BRANCH   2   3
ATOM      3  C   UNL A   1      31.718  29.765  26.011  1.00  0.00     0.116 C 
BRANCH   3   4
ATOM      4  N   UNL A   1      31.731  28.550  26.816  1.00  0.00    -0.355 N 
ATOM      5  C   UNL A   1      31.413  27.273  26.455  1.00  0.00     0.240 C 
ATOM      6  O   UNL A   1      31.705  26.363  27.236  1.00  0.00    -0.273 OA
ATOM      7  H   UNL A   1      32.010  28.668  27.753  1.00  0.00     0.163 HD
BRANCH   5   8
ATOM      8  C   UNL A   1      30.814  26.966  25.077  1.00  0.00     0.229 C 
BRANCH   8   9
ATOM      9  N   UNL A   1      31.825  26.521  24.137  1.00  0.00    -0.259 N 
ATOM     10  C   UNL A   1      33.741  23.813  22.653  1.00  0.00     0.029 C 
ATOM     11  C   UNL A   1      33.235  24.988  23.057  1.00  0.00     0.083 C 
ATOM     12  S   UNL A   1      33.653  26.503  22.340  1.00  0.00    -0.022 SA
ATOM     13  C   UNL A   1      32.257  25.218  24.163  1.00  0.00     0.268 C 
ATOM     14  C   UNL A   1      32.586  27.388  23.420  1.00  0.00     0.294 C 
ATOM     15  O   UNL A   1      31.930  24.390  24.996  1.00  0.00    -0.268 OA
ATOM     16  O   UNL A   1      32.654  28.609  23.566  1.00  0.00    -0.261 OA
BRANCH  10  17
ATOM     17  C   UNL A   1      33.421  22.536  23.294  1.00  0.00    -0.024 A 
ATOM     18  C   UNL A   1      32.821  18.503  24.671  1.00  0.00     0.044 C 
ATOM     19  C   UNL A   1      32.990  19.931  24.250  1.00  0.00    -0.051 A 
ATOM     20  C   UNL A   1      32.153  20.473  23.268  1.00  0.00     0.004 A 
ATOM     21  C   UNL A   1      34.008  20.724  24.792  1.00  0.00     0.004 A 
ATOM     22  C   UNL A   1      32.367  21.768  22.791  1.00  0.00     0.008 A 
ATOM     23  C   UNL A   1      34.217  22.024  24.324  1.00  0.00     0.008 A 
ENDBRANCH  10  17
ENDBRANCH   8   9
ENDBRANCH   5   8
ENDBRANCH   3   4
ENDBRANCH   2   3
ENDBRANCH   1   2
BRANCH   1  24
ATOM     24  C   UNL A   1      34.467  30.570  28.392  1.00  0.00     0.116 C 
BRANCH  24  25
ATOM     25  N   UNL A   1      35.571  31.511  28.555  1.00  0.00    -0.352 N 
ATOM     26  C   UNL A   1      36.910  31.245  28.824  1.00  0.00     0.251 C 
ATOM     27  H   UNL A   1      35.337  32.463  28.461  1.00  0.00     0.163 HD
ATOM     28  O   UNL A   1      37.713  32.137  29.085  1.00  0.00    -0.269 OA
BRANCH  26  29
ATOM     29  C   UNL A   1      37.429  29.871  28.586  1.00  0.00     0.039 A 
ATOM     30  C   UNL A   1      37.483  29.038  29.714  1.00  0.00     0.014 A 
ATOM     31  C   UNL A   1      38.223  29.607  27.480  1.00  0.00     0.014 A 
ATOM     32  C   UNL A   1      38.572  28.195  29.876  1.00  0.00     0.010 A 
ATOM     33  C   UNL A   1      39.383  28.910  27.700  1.00  0.00     0.010 A 
ATOM     34  C   UNL A   1      39.584  28.275  28.929  1.00  0.00    -0.014 A 
BRANCH  34  35
ATOM     35  C   UNL A   1      40.907  27.718  29.101  1.00  0.00     0.031 A 
ATOM     36  C   UNL A   1      41.105  26.325  28.690  1.00  0.00     0.074 A 
ATOM     37  C   UNL A   1      41.918  28.540  29.453  1.00  0.00     0.049 A 
ATOM     38  N   UNL A   1      42.092  25.589  29.044  1.00  0.00    -0.248 NA
ATOM     39  C   UNL A   1      40.124  25.619  27.869  1.00  0.00     0.031 C 
ATOM     40  C   UNL A   1      43.354  28.299  29.375  1.00  0.00     0.029 A 
ATOM     41  N   UNL A   1      41.807  29.719  30.190  1.00  0.00    -0.354 N 
ATOM     42  C   UNL A   1      42.063  24.465  28.249  1.00  0.00     0.074 A 
ATOM     43  C   UNL A   1      40.754  24.467  27.649  1.00  0.00     0.031 C 
ATOM     44  C   UNL A   1      43.975  29.112  30.250  1.00  0.00     0.029 A 
ATOM     45  C   UNL A   1      42.941  29.773  31.030  1.00  0.00     0.049 A 
ATOM     46  H   UNL A   1      41.081  30.381  30.136  1.00  0.00     0.167 HD
ATOM     47  C   UNL A   1      43.222  23.773  28.075  1.00  0.00     0.034 A 
ATOM     48  C   UNL A   1      42.767  29.647  32.382  1.00  0.00     0.034 A 
ATOM     49  C   UNL A   1      44.261  24.303  28.966  1.00  0.00     0.049 A 
ATOM     50  C   UNL A   1      43.333  28.347  32.934  1.00  0.00     0.074 A 
ATOM     51  C   UNL A   1      45.317  25.185  28.803  1.00  0.00     0.029 A 
ATOM     52  N   UNL A   1      44.067  24.191  30.329  1.00  0.00    -0.354 N 
ATOM     53  N   UNL A   1      43.804  27.377  32.194  1.00  0.00    -0.248 NA
ATOM     54  C   UNL A   1      43.364  28.016  34.357  1.00  0.00     0.031 C 
ATOM     55  C   UNL A   1      45.674  25.678  30.098  1.00  0.00     0.029 A 
ATOM     56  C   UNL A   1      44.868  25.061  31.040  1.00  0.00     0.049 A 
ATOM     57  H   UNL A   1      43.433  23.564  30.745  1.00  0.00     0.167 HD
ATOM     58  C   UNL A   1      44.167  26.320  32.984  1.00  0.00     0.074 A 
ATOM     59  C   UNL A   1      43.848  26.762  34.334  1.00  0.00     0.031 C 
ATOM     60  C   UNL A   1      44.684  25.157  32.482  1.00  0.00     0.034 A 
BRANCH  47  61
ATOM     61  C   UNL A   1      43.517  22.808  26.950  1.00  0.00     0.023 A 
ATOM     62  C   UNL A   1      42.885  21.551  26.996  1.00  0.00     0.031 A 
ATOM     63  C   UNL A   1      44.414  22.983  25.876  1.00  0.00     0.131 A 
ATOM     64  C   UNL A   1      43.191  20.532  26.078  1.00  0.00     0.055 A 
ATOM     65  C   UNL A   1      44.733  21.964  24.968  1.00  0.00     0.041 A 
ATOM     66  F   UNL A   1      45.014  24.146  25.612  1.00  0.00    -0.206 F 
ATOM     67  C   UNL A   1      44.128  20.725  25.070  1.00  0.00     0.022 A 
BRANCH  64  68
ATOM     68  S   UNL A   1      42.347  18.941  26.240  1.00  0.00     0.124 S 
ATOM     69  O   UNL A   1      43.151  18.080  25.379  1.00  0.00    -0.237 OA
ATOM     70  O   UNL A   1      42.438  18.690  27.674  1.00  0.00    -0.237 OA
ATOM     71  O   UNL A   1      40.998  19.223  25.748  1.00  0.00    -0.744 OA
ENDBRANCH  64  68
ENDBRANCH  47  61
BRANCH  48  72
ATOM     72  C   UNL A   1      41.508  30.332  32.833  1.00  0.00     0.023 A 
ATOM     73  C   UNL A   1      41.480  31.742  32.703  1.00  0.00     0.031 A 
ATOM     74  C   UNL A   1      40.281  29.658  32.872  1.00  0.00     0.131 A 
ATOM     75  C   UNL A   1      40.284  32.395  32.364  1.00  0.00     0.055 A 
ATOM     76  C   UNL A   1      39.076  30.336  32.638  1.00  0.00     0.041 A 
ATOM     77  F   UNL A   1      40.234  28.323  32.979  1.00  0.00    -0.206 F 
ATOM     78  C   UNL A   1      39.080  31.695  32.314  1.00  0.00     0.022 A 
BRANCH  75  79
ATOM     79  S   UNL A   1      40.381  34.071  31.659  1.00  0.00     0.124 S 
ATOM     80  O   UNL A   1      41.190  34.775  32.647  1.00  0.00    -0.237 OA
ATOM     81  O   UNL A   1      41.012  33.837  30.362  1.00  0.00    -0.237 OA
ATOM     82  O   UNL A   1      38.985  34.498  31.560  1.00  0.00    -0.744 OA
ENDBRANCH  75  79
ENDBRANCH  48  72
BRANCH  60  83
ATOM     83  C   UNL A   1      45.057  23.994  33.359  1.00  0.00     0.023 A 
ATOM     84  C   UNL A   1      46.349  23.871  33.879  1.00  0.00     0.031 A 
ATOM     85  C   UNL A   1      44.155  22.948  33.663  1.00  0.00     0.131 A 
ATOM     86  C   UNL A   1      46.670  22.819  34.749  1.00  0.00     0.055 A 
ATOM     87  C   UNL A   1      44.516  21.836  34.426  1.00  0.00     0.041 A 
ATOM     88  F   UNL A   1      42.869  22.986  33.287  1.00  0.00    -0.206 F 
ATOM     89  C   UNL A   1      45.777  21.779  34.997  1.00  0.00     0.022 A 
BRANCH  86  90
ATOM     90  S   UNL A   1      48.224  22.925  35.666  1.00  0.00     0.124 S 
ATOM     91  O   UNL A   1      47.777  22.928  37.055  1.00  0.00    -0.237 OA
ATOM     92  O   UNL A   1      48.905  21.709  35.223  1.00  0.00    -0.237 OA
ATOM     93  O   UNL A   1      48.817  24.173  35.196  1.00  0.00    -0.744 OA
ENDBRANCH  86  90
ENDBRANCH  60  83
ENDBRANCH  34  35
ENDBRANCH  26  29
ENDBRANCH  24  25
ENDBRANCH   1  24
TORSDOF 16
ENDMDL
