MODEL 1
REMARK VINA RESULT:     -11.8      0.000      0.000
REMARK SMILES N#C/C(=C/c1cccc(OCC(=O)NCCCCNC(=O)c2ccc(-c3c4nc(c(-c5cc(S(=O)(=O)[O-])ccc5F)c5ccc([nH]5)c(-c5cc(S(=O)(=O)[O-])ccc5F)c5nc(c(-c6cc(S(=O)(=O)[O-])ccc6F)c6ccc3[nH]6)C=C5)C=C4)cc2)c1)c1nc2ccccc2[nH]1
REMARK SMILES IDX 16 1 15 2 14 3 12 4 13 5 11 7 10 8 9 9 5 10 6 11 85 12 7 13
REMARK SMILES IDX 8 14 4 15 3 16 2 17 1 18 86 19 87 20 94 21 88 22 93 23 89 25
REMARK SMILES IDX 92 26 90 27 91 28 17 29 18 30 19 31 20 32 21 34 22 35 23 36
REMARK SMILES IDX 84 37 24 38 83 39 25 40 26 41 27 42 77 43 28 44 82 45 76 46
REMARK SMILES IDX 78 47 29 48 81 49 75 50 74 51 30 53 62 54 42 55 61 56 43 57
REMARK SMILES IDX 46 58 60 59 79 60 44 61 45 62 59 64 80 65 47 66 31 67 32 68
REMARK SMILES IDX 40 69 33 70 39 71 41 72 38 73 34 74 35 75 36 76 37 77 63 78
REMARK SMILES IDX 64 79 72 80 65 81 71 82 73 83 70 84 66 85 67 86 68 87 69 88
REMARK SMILES IDX 48 89 49 90 57 91 50 92 56 93 58 94 55 95 51 96 52 97 53 98
REMARK SMILES IDX 54 99
REMARK H PARENT 14 6 94 24 19 33 78 52 46 63
REMARK Flexibility Score: inf
ROOT
ATOM      1  C   UNL A   1      35.113  22.743  26.559  1.00  0.00     0.023 C 
ENDROOT
BRANCH   1   2
ATOM      2  C   UNL A   1      33.952  21.783  26.818  1.00  0.00     0.116 C 
BRANCH   2   3
ATOM      3  N   UNL A   1      32.801  22.370  27.480  1.00  0.00    -0.353 N 
ATOM      4  C   UNL A   1      31.667  22.877  26.902  1.00  0.00     0.257 C 
ATOM      5  O   UNL A   1      30.661  23.080  27.589  1.00  0.00    -0.271 OA
ATOM      6  H   UNL A   1      32.840  22.409  28.463  1.00  0.00     0.163 HD
BRANCH   4   7
ATOM      7  C   UNL A   1      31.633  23.150  25.395  1.00  0.00     0.329 C 
BRANCH   7   8
ATOM      8  O   UNL A   1      30.491  23.827  24.899  1.00  0.00    -0.484 OA
BRANCH   8   9
ATOM      9  C   UNL A   1      30.682  24.819  23.975  1.00  0.00     0.120 A 
ATOM     10  C   UNL A   1      30.335  26.992  22.933  1.00  0.00    -0.021 A 
ATOM     11  C   UNL A   1      31.344  26.706  22.010  1.00  0.00     0.008 A 
ATOM     12  C   UNL A   1      29.991  26.031  23.900  1.00  0.00     0.054 A 
ATOM     13  C   UNL A   1      32.016  25.484  22.063  1.00  0.00     0.004 A 
ATOM     14  C   UNL A   1      31.686  24.550  23.042  1.00  0.00     0.046 A 
BRANCH  10  15
ATOM     15  C   UNL A   1      29.651  28.296  22.873  1.00  0.00     0.031 C 
ATOM     16  C   UNL A   1      29.999  29.405  23.557  1.00  0.00     0.095 C 
BRANCH  16  17
ATOM     17  C   UNL A   1      29.196  30.684  23.382  1.00  0.00     0.103 C 
ATOM     18  N   UNL A   1      28.531  31.745  23.238  1.00  0.00    -0.192 NA
ENDBRANCH  16  17
BRANCH  16  19
ATOM     19  C   UNL A   1      31.149  29.451  24.394  1.00  0.00     0.149 A 
ATOM     20  N   UNL A   1      32.197  28.653  24.458  1.00  0.00    -0.228 NA
ATOM     21  N   UNL A   1      31.257  30.462  25.326  1.00  0.00    -0.337 N 
ATOM     22  C   UNL A   1      32.979  29.139  25.477  1.00  0.00     0.089 A 
ATOM     23  C   UNL A   1      32.404  30.263  26.051  1.00  0.00     0.066 A 
ATOM     24  H   UNL A   1      30.619  31.201  25.448  1.00  0.00     0.168 HD
ATOM     25  C   UNL A   1      34.196  28.664  25.982  1.00  0.00     0.030 A 
ATOM     26  C   UNL A   1      32.956  30.936  27.144  1.00  0.00     0.028 A 
ATOM     27  C   UNL A   1      34.769  29.311  27.087  1.00  0.00     0.002 A 
ATOM     28  C   UNL A   1      34.150  30.423  27.662  1.00  0.00     0.002 A 
ENDBRANCH  16  19
ENDBRANCH  10  15
ENDBRANCH   8   9
ENDBRANCH   7   8
ENDBRANCH   4   7
ENDBRANCH   2   3
ENDBRANCH   1   2
BRANCH   1  29
ATOM     29  C   UNL A   1      35.574  22.947  25.111  1.00  0.00     0.023 C 
BRANCH  29  30
ATOM     30  C   UNL A   1      37.032  23.329  24.855  1.00  0.00     0.116 C 
BRANCH  30  31
ATOM     31  N   UNL A   1      37.977  22.402  25.444  1.00  0.00    -0.352 N 
ATOM     32  C   UNL A   1      39.081  22.655  26.229  1.00  0.00     0.251 C 
ATOM     33  H   UNL A   1      37.804  21.451  25.257  1.00  0.00     0.163 HD
ATOM     34  O   UNL A   1      39.847  21.726  26.475  1.00  0.00    -0.269 OA
BRANCH  32  35
ATOM     35  C   UNL A   1      39.378  24.014  26.764  1.00  0.00     0.039 A 
ATOM     36  C   UNL A   1      40.054  24.919  25.936  1.00  0.00     0.014 A 
ATOM     37  C   UNL A   1      39.095  24.386  28.082  1.00  0.00     0.014 A 
ATOM     38  C   UNL A   1      40.423  26.185  26.414  1.00  0.00     0.010 A 
ATOM     39  C   UNL A   1      39.418  25.672  28.544  1.00  0.00     0.010 A 
ATOM     40  C   UNL A   1      40.106  26.582  27.723  1.00  0.00    -0.014 A 
BRANCH  40  41
ATOM     41  C   UNL A   1      40.553  27.910  28.241  1.00  0.00     0.031 A 
ATOM     42  C   UNL A   1      42.023  28.256  28.284  1.00  0.00     0.074 A 
ATOM     43  C   UNL A   1      39.650  28.824  28.654  1.00  0.00     0.049 A 
ATOM     44  N   UNL A   1      42.607  29.361  28.680  1.00  0.00    -0.248 NA
ATOM     45  C   UNL A   1      42.960  27.214  27.839  1.00  0.00     0.031 C 
ATOM     46  C   UNL A   1      38.200  28.621  28.688  1.00  0.00     0.029 A 
ATOM     47  N   UNL A   1      39.813  30.108  29.118  1.00  0.00    -0.354 N 
ATOM     48  C   UNL A   1      43.974  29.153  28.519  1.00  0.00     0.074 A 
ATOM     49  C   UNL A   1      44.133  27.788  28.061  1.00  0.00     0.031 C 
ATOM     50  C   UNL A   1      37.609  29.745  29.127  1.00  0.00     0.029 A 
ATOM     51  C   UNL A   1      38.632  30.742  29.434  1.00  0.00     0.049 A 
ATOM     52  H   UNL A   1      40.695  30.536  29.215  1.00  0.00     0.167 HD
ATOM     53  C   UNL A   1      45.002  30.021  28.703  1.00  0.00     0.034 A 
ATOM     54  C   UNL A   1      38.396  31.981  29.914  1.00  0.00     0.034 A 
ATOM     55  C   UNL A   1      44.846  31.380  29.164  1.00  0.00     0.049 A 
ATOM     56  C   UNL A   1      39.560  32.920  30.136  1.00  0.00     0.074 A 
ATOM     57  C   UNL A   1      45.824  32.334  29.394  1.00  0.00     0.029 A 
ATOM     58  N   UNL A   1      43.632  31.986  29.460  1.00  0.00    -0.354 N 
ATOM     59  N   UNL A   1      40.843  32.709  29.949  1.00  0.00    -0.248 NA
ATOM     60  C   UNL A   1      39.239  34.275  30.606  1.00  0.00     0.031 C 
ATOM     61  C   UNL A   1      45.209  33.495  29.874  1.00  0.00     0.029 A 
ATOM     62  C   UNL A   1      43.839  33.294  29.875  1.00  0.00     0.049 A 
ATOM     63  H   UNL A   1      42.751  31.551  29.387  1.00  0.00     0.167 HD
ATOM     64  C   UNL A   1      41.471  33.920  30.234  1.00  0.00     0.074 A 
ATOM     65  C   UNL A   1      40.427  34.858  30.584  1.00  0.00     0.031 C 
ATOM     66  C   UNL A   1      42.793  34.230  30.211  1.00  0.00     0.034 A 
BRANCH  53  67
ATOM     67  C   UNL A   1      46.395  29.515  28.409  1.00  0.00     0.023 A 
ATOM     68  C   UNL A   1      47.169  28.887  29.401  1.00  0.00     0.031 A 
ATOM     69  C   UNL A   1      46.964  29.668  27.132  1.00  0.00     0.131 A 
ATOM     70  C   UNL A   1      48.487  28.497  29.122  1.00  0.00     0.055 A 
ATOM     71  C   UNL A   1      48.248  29.205  26.837  1.00  0.00     0.041 A 
ATOM     72  F   UNL A   1      46.281  30.276  26.148  1.00  0.00    -0.206 F 
ATOM     73  C   UNL A   1      49.023  28.627  27.839  1.00  0.00     0.022 A 
BRANCH  70  74
ATOM     74  S   UNL A   1      49.534  27.935  30.491  1.00  0.00     0.124 S 
ATOM     75  O   UNL A   1      50.483  27.068  29.799  1.00  0.00    -0.237 OA
ATOM     76  O   UNL A   1      50.072  29.186  31.013  1.00  0.00    -0.237 OA
ATOM     77  O   UNL A   1      48.597  27.242  31.376  1.00  0.00    -0.744 OA
ENDBRANCH  70  74
ENDBRANCH  53  67
BRANCH  54  78
ATOM     78  C   UNL A   1      37.006  32.428  30.233  1.00  0.00     0.023 A 
ATOM     79  C   UNL A   1      36.205  33.060  29.267  1.00  0.00     0.031 A 
ATOM     80  C   UNL A   1      36.494  32.317  31.538  1.00  0.00     0.131 A 
ATOM     81  C   UNL A   1      34.974  33.626  29.637  1.00  0.00     0.055 A 
ATOM     82  C   UNL A   1      35.240  32.822  31.886  1.00  0.00     0.041 A 
ATOM     83  F   UNL A   1      37.215  31.720  32.501  1.00  0.00    -0.206 F 
ATOM     84  C   UNL A   1      34.481  33.500  30.937  1.00  0.00     0.022 A 
BRANCH  81  85
ATOM     85  S   UNL A   1      34.089  34.648  28.426  1.00  0.00     0.124 S 
ATOM     86  O   UNL A   1      34.948  34.529  27.253  1.00  0.00    -0.237 OA
ATOM     87  O   UNL A   1      32.798  33.974  28.348  1.00  0.00    -0.237 OA
ATOM     88  O   UNL A   1      34.064  35.970  29.051  1.00  0.00    -0.744 OA
ENDBRANCH  81  85
ENDBRANCH  54  78
BRANCH  66  89
ATOM     89  C   UNL A   1      43.170  35.666  30.500  1.00  0.00     0.023 A 
ATOM     90  C   UNL A   1      43.274  36.630  29.482  1.00  0.00     0.031 A 
ATOM     91  C   UNL A   1      43.472  36.062  31.816  1.00  0.00     0.131 A 
ATOM     92  C   UNL A   1      43.747  37.917  29.781  1.00  0.00     0.055 A 
ATOM     93  C   UNL A   1      43.876  37.364  32.118  1.00  0.00     0.041 A 
ATOM     94  F   UNL A   1      43.389  35.187  32.829  1.00  0.00    -0.206 F 
ATOM     95  C   UNL A   1      44.034  38.294  31.095  1.00  0.00     0.022 A 
BRANCH  92  96
ATOM     96  S   UNL A   1      44.100  39.056  28.414  1.00  0.00     0.124 S 
ATOM     97  O   UNL A   1      44.283  38.141  27.293  1.00  0.00    -0.237 OA
ATOM     98  O   UNL A   1      42.892  39.876  28.374  1.00  0.00    -0.237 OA
ATOM     99  O   UNL A   1      45.308  39.754  28.851  1.00  0.00    -0.744 OA
ENDBRANCH  92  96
ENDBRANCH  66  89
ENDBRANCH  40  41
ENDBRANCH  32  35
ENDBRANCH  30  31
ENDBRANCH  29  30
ENDBRANCH   1  29
TORSDOF 19
ENDMDL
MODEL 2
REMARK VINA RESULT:     -11.6      2.515      2.967
REMARK SMILES N#C/C(=C/c1cccc(OCC(=O)NCCCCNC(=O)c2ccc(-c3c4nc(c(-c5cc(S(=O)(=O)[O-])ccc5F)c5ccc([nH]5)c(-c5cc(S(=O)(=O)[O-])ccc5F)c5nc(c(-c6cc(S(=O)(=O)[O-])ccc6F)c6ccc3[nH]6)C=C5)C=C4)cc2)c1)c1nc2ccccc2[nH]1
REMARK SMILES IDX 16 1 15 2 14 3 12 4 13 5 11 7 10 8 9 9 5 10 6 11 85 12 7 13
REMARK SMILES IDX 8 14 4 15 3 16 2 17 1 18 86 19 87 20 94 21 88 22 93 23 89 25
REMARK SMILES IDX 92 26 90 27 91 28 17 29 18 30 19 31 20 32 21 34 22 35 23 36
REMARK SMILES IDX 84 37 24 38 83 39 25 40 26 41 27 42 77 43 28 44 82 45 76 46
REMARK SMILES IDX 78 47 29 48 81 49 75 50 74 51 30 53 62 54 42 55 61 56 43 57
REMARK SMILES IDX 46 58 60 59 79 60 44 61 45 62 59 64 80 65 47 66 31 67 32 68
REMARK SMILES IDX 40 69 33 70 39 71 41 72 38 73 34 74 35 75 36 76 37 77 63 78
REMARK SMILES IDX 64 79 72 80 65 81 71 82 73 83 70 84 66 85 67 86 68 87 69 88
REMARK SMILES IDX 48 89 49 90 57 91 50 92 56 93 58 94 55 95 51 96 52 97 53 98
REMARK SMILES IDX 54 99
REMARK H PARENT 14 6 94 24 19 33 78 52 46 63
REMARK Flexibility Score: inf
ROOT
ATOM      1  C   UNL A   1      35.013  21.957  26.502  1.00  0.00     0.023 C 
ENDROOT
BRANCH   1   2
ATOM      2  C   UNL A   1      33.643  21.333  26.762  1.00  0.00     0.116 C 
BRANCH   2   3
ATOM      3  N   UNL A   1      32.655  22.229  27.337  1.00  0.00    -0.353 N 
ATOM      4  C   UNL A   1      31.691  22.948  26.682  1.00  0.00     0.257 C 
ATOM      5  O   UNL A   1      30.750  23.439  27.314  1.00  0.00    -0.271 OA
ATOM      6  H   UNL A   1      32.681  22.332  28.316  1.00  0.00     0.163 HD
BRANCH   4   7
ATOM      7  C   UNL A   1      31.756  23.105  25.160  1.00  0.00     0.329 C 
BRANCH   7   8
ATOM      8  O   UNL A   1      30.631  23.700  24.535  1.00  0.00    -0.484 OA
BRANCH   8   9
ATOM      9  C   UNL A   1      30.845  24.770  23.708  1.00  0.00     0.120 A 
ATOM     10  C   UNL A   1      30.500  27.016  22.833  1.00  0.00    -0.021 A 
ATOM     11  C   UNL A   1      31.562  26.828  21.944  1.00  0.00     0.008 A 
ATOM     12  C   UNL A   1      30.130  25.971  23.698  1.00  0.00     0.054 A 
ATOM     13  C   UNL A   1      32.259  25.620  21.931  1.00  0.00     0.004 A 
ATOM     14  C   UNL A   1      31.902  24.600  22.811  1.00  0.00     0.046 A 
BRANCH  10  15
ATOM     15  C   UNL A   1      29.789  28.307  22.845  1.00  0.00     0.031 C 
ATOM     16  C   UNL A   1      30.100  29.375  23.607  1.00  0.00     0.095 C 
BRANCH  16  17
ATOM     17  C   UNL A   1      29.273  30.646  23.501  1.00  0.00     0.103 C 
ATOM     18  N   UNL A   1      28.587  31.701  23.414  1.00  0.00    -0.192 NA
ENDBRANCH  16  17
BRANCH  16  19
ATOM     19  C   UNL A   1      31.234  29.390  24.468  1.00  0.00     0.149 A 
ATOM     20  N   UNL A   1      32.213  28.518  24.614  1.00  0.00    -0.228 NA
ATOM     21  N   UNL A   1      31.405  30.453  25.329  1.00  0.00    -0.337 N 
ATOM     22  C   UNL A   1      33.011  29.012  25.615  1.00  0.00     0.089 A 
ATOM     23  C   UNL A   1      32.517  30.216  26.096  1.00  0.00     0.066 A 
ATOM     24  H   UNL A   1      30.826  31.247  25.385  1.00  0.00     0.168 HD
ATOM     25  C   UNL A   1      34.175  28.479  26.183  1.00  0.00     0.030 A 
ATOM     26  C   UNL A   1      33.100  30.919  27.153  1.00  0.00     0.028 A 
ATOM     27  C   UNL A   1      34.777  29.156  27.254  1.00  0.00     0.002 A 
ATOM     28  C   UNL A   1      34.239  30.351  27.735  1.00  0.00     0.002 A 
ENDBRANCH  16  19
ENDBRANCH  10  15
ENDBRANCH   8   9
ENDBRANCH   7   8
ENDBRANCH   4   7
ENDBRANCH   2   3
ENDBRANCH   1   2
BRANCH   1  29
ATOM     29  C   UNL A   1      35.733  21.603  25.195  1.00  0.00     0.023 C 
BRANCH  29  30
ATOM     30  C   UNL A   1      37.201  21.999  25.039  1.00  0.00     0.116 C 
BRANCH  30  31
ATOM     31  N   UNL A   1      38.120  20.960  25.457  1.00  0.00    -0.352 N 
ATOM     32  C   UNL A   1      39.335  21.069  26.098  1.00  0.00     0.251 C 
ATOM     33  H   UNL A   1      37.834  20.040  25.254  1.00  0.00     0.163 HD
ATOM     34  O   UNL A   1      40.034  20.063  26.201  1.00  0.00    -0.269 OA
BRANCH  32  35
ATOM     35  C   UNL A   1      39.828  22.365  26.647  1.00  0.00     0.039 A 
ATOM     36  C   UNL A   1      39.363  23.551  26.064  1.00  0.00     0.014 A 
ATOM     37  C   UNL A   1      40.799  22.439  27.650  1.00  0.00     0.014 A 
ATOM     38  C   UNL A   1      39.850  24.794  26.493  1.00  0.00     0.010 A 
ATOM     39  C   UNL A   1      41.247  23.686  28.115  1.00  0.00     0.010 A 
ATOM     40  C   UNL A   1      40.795  24.881  27.528  1.00  0.00    -0.014 A 
BRANCH  40  41
ATOM     41  C   UNL A   1      41.349  26.206  27.939  1.00  0.00     0.031 A 
ATOM     42  C   UNL A   1      42.772  26.578  27.593  1.00  0.00     0.074 A 
ATOM     43  C   UNL A   1      40.579  27.094  28.602  1.00  0.00     0.049 A 
ATOM     44  N   UNL A   1      43.427  27.685  27.845  1.00  0.00    -0.248 NA
ATOM     45  C   UNL A   1      43.566  25.563  26.887  1.00  0.00     0.031 C 
ATOM     46  C   UNL A   1      39.195  26.864  29.021  1.00  0.00     0.029 A 
ATOM     47  N   UNL A   1      40.846  28.372  29.037  1.00  0.00    -0.354 N 
ATOM     48  C   UNL A   1      44.702  27.506  27.316  1.00  0.00     0.074 A 
ATOM     49  C   UNL A   1      44.749  26.155  26.798  1.00  0.00     0.031 C 
ATOM     50  C   UNL A   1      38.731  27.968  29.631  1.00  0.00     0.029 A 
ATOM     51  C   UNL A   1      39.786  28.977  29.675  1.00  0.00     0.049 A 
ATOM     52  H   UNL A   1      41.716  28.814  28.903  1.00  0.00     0.167 HD
ATOM     53  C   UNL A   1      45.730  28.389  27.237  1.00  0.00     0.034 A 
ATOM     54  C   UNL A   1      39.673  30.202  30.231  1.00  0.00     0.034 A 
ATOM     55  C   UNL A   1      45.688  29.736  27.756  1.00  0.00     0.049 A 
ATOM     56  C   UNL A   1      40.842  31.157  30.155  1.00  0.00     0.074 A 
ATOM     57  C   UNL A   1      46.680  30.703  27.738  1.00  0.00     0.029 A 
ATOM     58  N   UNL A   1      44.592  30.312  28.384  1.00  0.00    -0.354 N 
ATOM     59  N   UNL A   1      42.029  30.974  29.623  1.00  0.00    -0.248 NA
ATOM     60  C   UNL A   1      40.643  32.496  30.727  1.00  0.00     0.031 C 
ATOM     61  C   UNL A   1      46.203  31.843  28.395  1.00  0.00     0.029 A 
ATOM     62  C   UNL A   1      44.887  31.616  28.760  1.00  0.00     0.049 A 
ATOM     63  H   UNL A   1      43.730  29.863  28.540  1.00  0.00     0.167 HD
ATOM     64  C   UNL A   1      42.696  32.191  29.759  1.00  0.00     0.074 A 
ATOM     65  C   UNL A   1      41.773  33.101  30.400  1.00  0.00     0.031 C 
ATOM     66  C   UNL A   1      43.958  32.525  29.388  1.00  0.00     0.034 A 
BRANCH  53  67
ATOM     67  C   UNL A   1      46.999  27.916  26.567  1.00  0.00     0.023 A 
ATOM     68  C   UNL A   1      47.188  28.053  25.180  1.00  0.00     0.031 A 
ATOM     69  C   UNL A   1      48.028  27.314  27.313  1.00  0.00     0.131 A 
ATOM     70  C   UNL A   1      48.342  27.535  24.573  1.00  0.00     0.055 A 
ATOM     71  C   UNL A   1      49.210  26.872  26.714  1.00  0.00     0.041 A 
ATOM     72  F   UNL A   1      47.899  27.138  28.638  1.00  0.00    -0.206 F 
ATOM     73  C   UNL A   1      49.367  26.970  25.334  1.00  0.00     0.022 A 
BRANCH  70  74
ATOM     74  S   UNL A   1      48.427  27.497  22.763  1.00  0.00     0.124 S 
ATOM     75  O   UNL A   1      48.451  26.060  22.500  1.00  0.00    -0.237 OA
ATOM     76  O   UNL A   1      47.209  28.199  22.374  1.00  0.00    -0.237 OA
ATOM     77  O   UNL A   1      49.675  28.199  22.463  1.00  0.00    -0.744 OA
ENDBRANCH  70  74
ENDBRANCH  53  67
BRANCH  54  78
ATOM     78  C   UNL A   1      38.415  30.616  30.924  1.00  0.00     0.023 A 
ATOM     79  C   UNL A   1      37.484  31.462  30.298  1.00  0.00     0.031 A 
ATOM     80  C   UNL A   1      38.173  30.250  32.260  1.00  0.00     0.131 A 
ATOM     81  C   UNL A   1      36.401  31.977  31.028  1.00  0.00     0.055 A 
ATOM     82  C   UNL A   1      37.058  30.711  32.962  1.00  0.00     0.041 A 
ATOM     83  F   UNL A   1      39.028  29.442  32.908  1.00  0.00    -0.206 F 
ATOM     84  C   UNL A   1      36.175  31.597  32.352  1.00  0.00     0.022 A 
BRANCH  81  85
ATOM     85  S   UNL A   1      35.367  33.258  30.263  1.00  0.00     0.124 S 
ATOM     86  O   UNL A   1      35.889  33.285  28.901  1.00  0.00    -0.237 OA
ATOM     87  O   UNL A   1      34.029  32.703  30.427  1.00  0.00    -0.237 OA
ATOM     88  O   UNL A   1      35.650  34.446  31.065  1.00  0.00    -0.744 OA
ENDBRANCH  81  85
ENDBRANCH  54  78
BRANCH  66  89
ATOM     89  C   UNL A   1      44.382  33.961  29.600  1.00  0.00     0.023 A 
ATOM     90  C   UNL A   1      44.984  34.393  30.794  1.00  0.00     0.031 A 
ATOM     91  C   UNL A   1      44.137  34.921  28.601  1.00  0.00     0.131 A 
ATOM     92  C   UNL A   1      45.247  35.758  30.993  1.00  0.00     0.055 A 
ATOM     93  C   UNL A   1      44.463  36.268  28.778  1.00  0.00     0.041 A 
ATOM     94  F   UNL A   1      43.566  34.568  27.438  1.00  0.00    -0.206 F 
ATOM     95  C   UNL A   1      45.004  36.695  29.987  1.00  0.00     0.022 A 
BRANCH  92  96
ATOM     96  S   UNL A   1      45.795  36.310  32.632  1.00  0.00     0.124 S 
ATOM     97  O   UNL A   1      44.976  37.499  32.844  1.00  0.00    -0.237 OA
ATOM     98  O   UNL A   1      45.475  35.159  33.470  1.00  0.00    -0.237 OA
ATOM     99  O   UNL A   1      47.223  36.565  32.449  1.00  0.00    -0.744 OA
ENDBRANCH  92  96
ENDBRANCH  66  89
ENDBRANCH  40  41
ENDBRANCH  32  35
ENDBRANCH  30  31
ENDBRANCH  29  30
ENDBRANCH   1  29
TORSDOF 19
ENDMDL
MODEL 3
REMARK VINA RESULT:     -11.6      4.164      9.607
REMARK SMILES N#C/C(=C/c1cccc(OCC(=O)NCCCCNC(=O)c2ccc(-c3c4nc(c(-c5cc(S(=O)(=O)[O-])ccc5F)c5ccc([nH]5)c(-c5cc(S(=O)(=O)[O-])ccc5F)c5nc(c(-c6cc(S(=O)(=O)[O-])ccc6F)c6ccc3[nH]6)C=C5)C=C4)cc2)c1)c1nc2ccccc2[nH]1
REMARK SMILES IDX 16 1 15 2 14 3 12 4 13 5 11 7 10 8 9 9 5 10 6 11 85 12 7 13
REMARK SMILES IDX 8 14 4 15 3 16 2 17 1 18 86 19 87 20 94 21 88 22 93 23 89 25
REMARK SMILES IDX 92 26 90 27 91 28 17 29 18 30 19 31 20 32 21 34 22 35 23 36
REMARK SMILES IDX 84 37 24 38 83 39 25 40 26 41 27 42 77 43 28 44 82 45 76 46
REMARK SMILES IDX 78 47 29 48 81 49 75 50 74 51 30 53 62 54 42 55 61 56 43 57
REMARK SMILES IDX 46 58 60 59 79 60 44 61 45 62 59 64 80 65 47 66 31 67 32 68
REMARK SMILES IDX 40 69 33 70 39 71 41 72 38 73 34 74 35 75 36 76 37 77 63 78
REMARK SMILES IDX 64 79 72 80 65 81 71 82 73 83 70 84 66 85 67 86 68 87 69 88
REMARK SMILES IDX 48 89 49 90 57 91 50 92 56 93 58 94 55 95 51 96 52 97 53 98
REMARK SMILES IDX 54 99
REMARK H PARENT 14 6 94 24 19 33 78 52 46 63
REMARK Flexibility Score: inf
ROOT
ATOM      1  C   UNL A   1      32.968  28.650  24.606  1.00  0.00     0.023 C 
ENDROOT
BRANCH   1   2
ATOM      2  C   UNL A   1      32.974  27.764  23.361  1.00  0.00     0.116 C 
BRANCH   2   3
ATOM      3  N   UNL A   1      33.776  26.558  23.464  1.00  0.00    -0.353 N 
ATOM      4  C   UNL A   1      33.642  25.397  22.751  1.00  0.00     0.257 C 
ATOM      5  O   UNL A   1      34.559  24.569  22.740  1.00  0.00    -0.271 OA
ATOM      6  H   UNL A   1      34.504  26.578  24.127  1.00  0.00     0.163 HD
BRANCH   4   7
ATOM      7  C   UNL A   1      32.374  25.145  21.930  1.00  0.00     0.329 C 
BRANCH   7   8
ATOM      8  O   UNL A   1      31.195  24.848  22.660  1.00  0.00    -0.484 OA
BRANCH   8   9
ATOM      9  C   UNL A   1      31.265  23.886  23.631  1.00  0.00     0.120 A 
ATOM     10  C   UNL A   1      31.801  21.708  24.579  1.00  0.00    -0.021 A 
ATOM     11  C   UNL A   1      31.369  22.151  25.832  1.00  0.00     0.008 A 
ATOM     12  C   UNL A   1      31.724  22.575  23.475  1.00  0.00     0.054 A 
ATOM     13  C   UNL A   1      30.882  23.449  25.986  1.00  0.00     0.004 A 
ATOM     14  C   UNL A   1      30.835  24.310  24.891  1.00  0.00     0.046 A 
BRANCH  10  15
ATOM     15  C   UNL A   1      32.330  20.339  24.441  1.00  0.00     0.031 C 
ATOM     16  C   UNL A   1      33.614  19.965  24.614  1.00  0.00     0.095 C 
BRANCH  16  17
ATOM     17  C   UNL A   1      34.007  18.507  24.444  1.00  0.00     0.103 C 
ATOM     18  N   UNL A   1      34.332  17.297  24.303  1.00  0.00    -0.192 NA
ENDBRANCH  16  17
BRANCH  16  19
ATOM     19  C   UNL A   1      34.623  20.881  25.028  1.00  0.00     0.149 A 
ATOM     20  N   UNL A   1      34.547  22.162  25.331  1.00  0.00    -0.228 NA
ATOM     21  N   UNL A   1      35.922  20.434  25.146  1.00  0.00    -0.337 N 
ATOM     22  C   UNL A   1      35.830  22.557  25.616  1.00  0.00     0.089 A 
ATOM     23  C   UNL A   1      36.716  21.498  25.490  1.00  0.00     0.066 A 
ATOM     24  H   UNL A   1      36.227  19.509  25.008  1.00  0.00     0.168 HD
ATOM     25  C   UNL A   1      36.324  23.817  25.981  1.00  0.00     0.030 A 
ATOM     26  C   UNL A   1      38.096  21.624  25.670  1.00  0.00     0.028 A 
ATOM     27  C   UNL A   1      37.706  23.977  26.157  1.00  0.00     0.002 A 
ATOM     28  C   UNL A   1      38.576  22.898  25.993  1.00  0.00     0.002 A 
ENDBRANCH  16  19
ENDBRANCH  10  15
ENDBRANCH   8   9
ENDBRANCH   7   8
ENDBRANCH   4   7
ENDBRANCH   2   3
ENDBRANCH   1   2
BRANCH   1  29
ATOM     29  C   UNL A   1      32.746  27.981  25.969  1.00  0.00     0.023 C 
BRANCH  29  30
ATOM     30  C   UNL A   1      33.484  28.540  27.185  1.00  0.00     0.116 C 
BRANCH  30  31
ATOM     31  N   UNL A   1      33.388  29.982  27.299  1.00  0.00    -0.352 N 
ATOM     32  C   UNL A   1      34.244  30.872  27.909  1.00  0.00     0.251 C 
ATOM     33  H   UNL A   1      32.595  30.384  26.877  1.00  0.00     0.163 HD
ATOM     34  O   UNL A   1      33.877  32.038  28.040  1.00  0.00    -0.269 OA
BRANCH  32  35
ATOM     35  C   UNL A   1      35.579  30.460  28.428  1.00  0.00     0.039 A 
ATOM     36  C   UNL A   1      36.711  30.758  27.658  1.00  0.00     0.014 A 
ATOM     37  C   UNL A   1      35.736  29.711  29.599  1.00  0.00     0.014 A 
ATOM     38  C   UNL A   1      37.982  30.329  28.063  1.00  0.00     0.010 A 
ATOM     39  C   UNL A   1      37.016  29.327  30.031  1.00  0.00     0.010 A 
ATOM     40  C   UNL A   1      38.155  29.612  29.258  1.00  0.00    -0.014 A 
BRANCH  40  41
ATOM     41  C   UNL A   1      39.506  29.111  29.652  1.00  0.00     0.031 A 
ATOM     42  C   UNL A   1      40.281  29.794  30.754  1.00  0.00     0.074 A 
ATOM     43  C   UNL A   1      40.040  28.030  29.045  1.00  0.00     0.049 A 
ATOM     44  N   UNL A   1      41.458  29.498  31.251  1.00  0.00    -0.248 NA
ATOM     45  C   UNL A   1      39.658  30.976  31.365  1.00  0.00     0.031 C 
ATOM     46  C   UNL A   1      39.415  27.282  27.952  1.00  0.00     0.029 A 
ATOM     47  N   UNL A   1      41.224  27.365  29.263  1.00  0.00    -0.354 N 
ATOM     48  C   UNL A   1      41.707  30.446  32.239  1.00  0.00     0.074 A 
ATOM     49  C   UNL A   1      40.593  31.370  32.217  1.00  0.00     0.031 C 
ATOM     50  C   UNL A   1      40.210  26.254  27.612  1.00  0.00     0.029 A 
ATOM     51  C   UNL A   1      41.415  26.280  28.437  1.00  0.00     0.049 A 
ATOM     52  H   UNL A   1      41.877  27.641  29.947  1.00  0.00     0.167 HD
ATOM     53  C   UNL A   1      42.748  30.527  33.108  1.00  0.00     0.034 A 
ATOM     54  C   UNL A   1      42.439  25.404  28.353  1.00  0.00     0.034 A 
ATOM     55  C   UNL A   1      43.863  29.609  33.129  1.00  0.00     0.049 A 
ATOM     56  C   UNL A   1      43.600  25.532  29.314  1.00  0.00     0.074 A 
ATOM     57  C   UNL A   1      44.971  29.613  33.960  1.00  0.00     0.029 A 
ATOM     58  N   UNL A   1      44.011  28.517  32.285  1.00  0.00    -0.354 N 
ATOM     59  N   UNL A   1      43.799  26.421  30.260  1.00  0.00    -0.248 NA
ATOM     60  C   UNL A   1      44.658  24.517  29.213  1.00  0.00     0.031 C 
ATOM     61  C   UNL A   1      45.810  28.557  33.588  1.00  0.00     0.029 A 
ATOM     62  C   UNL A   1      45.192  27.847  32.572  1.00  0.00     0.049 A 
ATOM     63  H   UNL A   1      43.371  28.255  31.583  1.00  0.00     0.167 HD
ATOM     64  C   UNL A   1      44.982  26.041  30.892  1.00  0.00     0.074 A 
ATOM     65  C   UNL A   1      45.435  24.834  30.236  1.00  0.00     0.031 C 
ATOM     66  C   UNL A   1      45.634  26.636  31.923  1.00  0.00     0.034 A 
BRANCH  53  67
ATOM     67  C   UNL A   1      42.730  31.661  34.107  1.00  0.00     0.023 A 
ATOM     68  C   UNL A   1      41.969  31.583  35.287  1.00  0.00     0.031 A 
ATOM     69  C   UNL A   1      43.469  32.835  33.878  1.00  0.00     0.131 A 
ATOM     70  C   UNL A   1      41.909  32.681  36.158  1.00  0.00     0.055 A 
ATOM     71  C   UNL A   1      43.469  33.894  34.789  1.00  0.00     0.041 A 
ATOM     72  F   UNL A   1      44.200  32.977  32.761  1.00  0.00    -0.206 F 
ATOM     73  C   UNL A   1      42.675  33.826  35.931  1.00  0.00     0.022 A 
BRANCH  70  74
ATOM     74  S   UNL A   1      40.718  32.639  37.524  1.00  0.00     0.124 S 
ATOM     75  O   UNL A   1      40.333  34.045  37.621  1.00  0.00    -0.237 OA
ATOM     76  O   UNL A   1      39.695  31.728  37.025  1.00  0.00    -0.237 OA
ATOM     77  O   UNL A   1      41.505  32.137  38.650  1.00  0.00    -0.744 OA
ENDBRANCH  70  74
ENDBRANCH  53  67
BRANCH  54  78
ATOM     78  C   UNL A   1      42.440  24.322  27.322  1.00  0.00     0.023 A 
ATOM     79  C   UNL A   1      41.885  23.059  27.591  1.00  0.00     0.031 A 
ATOM     80  C   UNL A   1      43.082  24.505  26.085  1.00  0.00     0.131 A 
ATOM     81  C   UNL A   1      42.054  22.009  26.675  1.00  0.00     0.055 A 
ATOM     82  C   UNL A   1      43.188  23.476  25.147  1.00  0.00     0.041 A 
ATOM     83  F   UNL A   1      43.628  25.692  25.772  1.00  0.00    -0.206 F 
ATOM     84  C   UNL A   1      42.690  22.212  25.449  1.00  0.00     0.022 A 
BRANCH  81  85
ATOM     85  S   UNL A   1      41.547  20.337  27.167  1.00  0.00     0.124 S 
ATOM     86  O   UNL A   1      42.789  19.798  27.709  1.00  0.00    -0.237 OA
ATOM     87  O   UNL A   1      40.491  20.615  28.134  1.00  0.00    -0.237 OA
ATOM     88  O   UNL A   1      41.098  19.735  25.913  1.00  0.00    -0.744 OA
ENDBRANCH  81  85
ENDBRANCH  54  78
BRANCH  66  89
ATOM     89  C   UNL A   1      46.870  25.941  32.450  1.00  0.00     0.023 A 
ATOM     90  C   UNL A   1      48.131  26.106  31.853  1.00  0.00     0.031 A 
ATOM     91  C   UNL A   1      46.770  25.064  33.546  1.00  0.00     0.131 A 
ATOM     92  C   UNL A   1      49.224  25.346  32.299  1.00  0.00     0.055 A 
ATOM     93  C   UNL A   1      47.875  24.361  34.029  1.00  0.00     0.041 A 
ATOM     94  F   UNL A   1      45.592  24.866  34.158  1.00  0.00    -0.206 F 
ATOM     95  C   UNL A   1      49.107  24.486  33.393  1.00  0.00     0.022 A 
BRANCH  92  96
ATOM     96  S   UNL A   1      50.771  25.403  31.353  1.00  0.00     0.124 S 
ATOM     97  O   UNL A   1      51.620  24.482  32.101  1.00  0.00    -0.237 OA
ATOM     98  O   UNL A   1      50.344  24.946  30.034  1.00  0.00    -0.237 OA
ATOM     99  O   UNL A   1      51.166  26.809  31.424  1.00  0.00    -0.744 OA
ENDBRANCH  92  96
ENDBRANCH  66  89
ENDBRANCH  40  41
ENDBRANCH  32  35
ENDBRANCH  30  31
ENDBRANCH  29  30
ENDBRANCH   1  29
TORSDOF 19
ENDMDL
