MODEL 1
REMARK VINA RESULT:     -11.8      0.000      0.000
REMARK SMILES O=C(CNc1ccccc1C(=O)N1CCCC1)NCCCCNC(=O)c1ccc(-c2c3nc(c(-c4cc(S(=O)(=O)[O-])ccc4F)c4ccc([nH]4)c(-c4cc(S(=O)(=O)[O-])ccc4F)c4nc(c(-c5cc(S(=O)(=O)[O-])ccc5F)c5ccc2[nH]5)C=C4)C=C3)cc1
REMARK SMILES IDX 20 1 19 2 18 3 1 4 2 5 3 7 4 8 5 10 6 11 10 12 7 13 9 14
REMARK SMILES IDX 8 15 11 16 12 17 13 18 14 19 17 20 15 21 16 22 21 23 22 24
REMARK SMILES IDX 23 25 24 26 25 28 26 29 27 30 88 31 28 32 87 33 29 34 30 35
REMARK SMILES IDX 31 36 81 37 32 38 86 39 80 40 82 41 33 42 85 43 79 44 78 45
REMARK SMILES IDX 34 47 66 48 46 49 65 50 47 51 50 52 64 53 83 54 48 55 49 56
REMARK SMILES IDX 63 58 84 59 51 60 35 61 36 62 44 63 37 64 43 65 45 66 42 67
REMARK SMILES IDX 38 68 39 69 40 70 41 71 67 72 68 73 76 74 69 75 75 76 77 77
REMARK SMILES IDX 74 78 70 79 71 80 72 81 73 82 52 83 53 84 61 85 54 86 60 87
REMARK SMILES IDX 62 88 59 89 55 90 56 91 57 92 58 93
REMARK H PARENT 18 6 4 9 23 27 82 46 50 57
REMARK Flexibility Score: inf
ROOT
ATOM      1  C   UNL A   1      35.240  23.693  24.201  1.00  0.00     0.023 C 
ENDROOT
BRANCH   1   2
ATOM      2  C   UNL A   1      33.819  23.421  23.694  1.00  0.00     0.116 C 
BRANCH   2   3
ATOM      3  N   UNL A   1      32.848  23.870  24.663  1.00  0.00    -0.355 N 
ATOM      4  O   UNL A   1      31.013  23.566  23.314  1.00  0.00    -0.273 OA
ATOM      5  C   UNL A   1      31.536  24.082  24.296  1.00  0.00     0.239 C 
ATOM      6  H   UNL A   1      33.124  24.025  25.595  1.00  0.00     0.163 HD
BRANCH   5   7
ATOM      7  C   UNL A   1      30.834  25.099  25.187  1.00  0.00     0.213 C 
BRANCH   7   8
ATOM      8  N   UNL A   1      30.735  26.405  24.543  1.00  0.00    -0.376 N 
ATOM      9  H   UNL A   1      30.454  26.493  23.603  1.00  0.00     0.161 HD
BRANCH   8  10
ATOM     10  C   UNL A   1      31.057  27.526  25.315  1.00  0.00     0.047 A 
ATOM     11  C   UNL A   1      31.392  27.284  26.662  1.00  0.00     0.026 A 
ATOM     12  C   UNL A   1      31.235  28.838  24.815  1.00  0.00     0.063 A 
ATOM     13  C   UNL A   1      31.939  28.282  27.472  1.00  0.00     0.002 A 
ATOM     14  C   UNL A   1      31.785  29.835  25.643  1.00  0.00     0.016 A 
ATOM     15  C   UNL A   1      32.144  29.557  26.960  1.00  0.00     0.001 A 
BRANCH  12  16
ATOM     16  C   UNL A   1      31.028  29.234  23.393  1.00  0.00     0.255 C 
ATOM     17  O   UNL A   1      31.792  28.751  22.554  1.00  0.00    -0.269 OA
ATOM     18  N   UNL A   1      29.982  30.057  23.019  1.00  0.00    -0.339 N 
ATOM     19  C   UNL A   1      29.154  30.930  23.823  1.00  0.00     0.120 C 
ATOM     20  C   UNL A   1      29.522  30.076  21.646  1.00  0.00     0.120 C 
ATOM     21  C   UNL A   1      27.775  30.812  23.187  1.00  0.00     0.023 C 
ATOM     22  C   UNL A   1      28.027  30.352  21.746  1.00  0.00     0.023 C 
ENDBRANCH  12  16
ENDBRANCH   8  10
ENDBRANCH   7   8
ENDBRANCH   5   7
ENDBRANCH   2   3
ENDBRANCH   1   2
BRANCH   1  23
ATOM     23  C   UNL A   1      36.114  22.443  24.379  1.00  0.00     0.023 C 
BRANCH  23  24
ATOM     24  C   UNL A   1      36.683  22.231  25.777  1.00  0.00     0.116 C 
BRANCH  24  25
ATOM     25  N   UNL A   1      37.764  21.265  25.808  1.00  0.00    -0.352 N 
ATOM     26  C   UNL A   1      39.081  21.461  26.142  1.00  0.00     0.251 C 
ATOM     27  H   UNL A   1      37.520  20.345  25.557  1.00  0.00     0.163 HD
ATOM     28  O   UNL A   1      39.885  20.543  26.016  1.00  0.00    -0.269 OA
BRANCH  26  29
ATOM     29  C   UNL A   1      39.526  22.793  26.604  1.00  0.00     0.039 A 
ATOM     30  C   UNL A   1      40.485  22.858  27.617  1.00  0.00     0.014 A 
ATOM     31  C   UNL A   1      39.023  23.964  26.030  1.00  0.00     0.014 A 
ATOM     32  C   UNL A   1      40.984  24.100  28.016  1.00  0.00     0.010 A 
ATOM     33  C   UNL A   1      39.566  25.197  26.385  1.00  0.00     0.010 A 
ATOM     34  C   UNL A   1      40.553  25.276  27.381  1.00  0.00    -0.014 A 
BRANCH  34  35
ATOM     35  C   UNL A   1      41.122  26.597  27.756  1.00  0.00     0.031 A 
ATOM     36  C   UNL A   1      42.559  26.913  27.445  1.00  0.00     0.074 A 
ATOM     37  C   UNL A   1      40.359  27.489  28.418  1.00  0.00     0.049 A 
ATOM     38  N   UNL A   1      43.257  27.978  27.745  1.00  0.00    -0.248 NA
ATOM     39  C   UNL A   1      43.318  25.879  26.726  1.00  0.00     0.031 C 
ATOM     40  C   UNL A   1      38.963  27.279  28.809  1.00  0.00     0.029 A 
ATOM     41  N   UNL A   1      40.647  28.746  28.887  1.00  0.00    -0.354 N 
ATOM     42  C   UNL A   1      44.538  27.742  27.260  1.00  0.00     0.074 A 
ATOM     43  C   UNL A   1      44.533  26.404  26.704  1.00  0.00     0.031 C 
ATOM     44  C   UNL A   1      38.513  28.375  29.440  1.00  0.00     0.029 A 
ATOM     45  C   UNL A   1      39.596  29.348  29.537  1.00  0.00     0.049 A 
ATOM     46  H   UNL A   1      41.524  29.175  28.768  1.00  0.00     0.167 HD
ATOM     47  C   UNL A   1      45.611  28.572  27.255  1.00  0.00     0.034 A 
ATOM     48  C   UNL A   1      39.516  30.545  30.153  1.00  0.00     0.034 A 
ATOM     49  C   UNL A   1      45.594  29.906  27.805  1.00  0.00     0.049 A 
ATOM     50  C   UNL A   1      40.727  31.443  30.153  1.00  0.00     0.074 A 
ATOM     51  C   UNL A   1      46.607  30.849  27.816  1.00  0.00     0.029 A 
ATOM     52  N   UNL A   1      44.508  30.487  28.450  1.00  0.00    -0.354 N 
ATOM     53  N   UNL A   1      41.920  31.223  29.649  1.00  0.00    -0.248 NA
ATOM     54  C   UNL A   1      40.576  32.757  30.793  1.00  0.00     0.031 C 
ATOM     55  C   UNL A   1      46.158  31.971  28.521  1.00  0.00     0.029 A 
ATOM     56  C   UNL A   1      44.838  31.762  28.886  1.00  0.00     0.049 A 
ATOM     57  H   UNL A   1      43.633  30.056  28.579  1.00  0.00     0.167 HD
ATOM     58  C   UNL A   1      42.652  32.383  29.887  1.00  0.00     0.074 A 
ATOM     59  C   UNL A   1      41.762  33.304  30.564  1.00  0.00     0.031 C 
ATOM     60  C   UNL A   1      43.942  32.664  29.570  1.00  0.00     0.034 A 
BRANCH  47  61
ATOM     61  C   UNL A   1      46.891  28.045  26.653  1.00  0.00     0.023 A 
ATOM     62  C   UNL A   1      47.158  28.152  25.276  1.00  0.00     0.031 A 
ATOM     63  C   UNL A   1      47.844  27.394  27.457  1.00  0.00     0.131 A 
ATOM     64  C   UNL A   1      48.302  27.548  24.734  1.00  0.00     0.055 A 
ATOM     65  C   UNL A   1      49.024  26.870  26.922  1.00  0.00     0.041 A 
ATOM     66  F   UNL A   1      47.638  27.241  28.774  1.00  0.00    -0.206 F 
ATOM     67  C   UNL A   1      49.251  26.931  25.551  1.00  0.00     0.022 A 
BRANCH  64  68
ATOM     68  S   UNL A   1      48.455  27.450  22.929  1.00  0.00     0.124 S 
ATOM     69  O   UNL A   1      49.739  28.111  22.707  1.00  0.00    -0.237 OA
ATOM     70  O   UNL A   1      48.427  26.012  22.688  1.00  0.00    -0.237 OA
ATOM     71  O   UNL A   1      47.291  28.189  22.445  1.00  0.00    -0.744 OA
ENDBRANCH  64  68
ENDBRANCH  47  61
BRANCH  48  72
ATOM     72  C   UNL A   1      38.256  30.962  30.832  1.00  0.00     0.023 A 
ATOM     73  C   UNL A   1      37.248  31.645  30.134  1.00  0.00     0.031 A 
ATOM     74  C   UNL A   1      38.060  30.718  32.203  1.00  0.00     0.131 A 
ATOM     75  C   UNL A   1      36.110  32.101  30.818  1.00  0.00     0.055 A 
ATOM     76  C   UNL A   1      36.902  31.128  32.867  1.00  0.00     0.041 A 
ATOM     77  F   UNL A   1      38.990  30.064  32.916  1.00  0.00    -0.206 F 
ATOM     78  C   UNL A   1      35.925  31.837  32.176  1.00  0.00     0.022 A 
BRANCH  75  79
ATOM     79  S   UNL A   1      34.910  33.123  29.919  1.00  0.00     0.124 S 
ATOM     80  O   UNL A   1      35.773  34.126  29.306  1.00  0.00    -0.237 OA
ATOM     81  O   UNL A   1      34.307  32.152  29.011  1.00  0.00    -0.237 OA
ATOM     82  O   UNL A   1      34.028  33.617  30.973  1.00  0.00    -0.744 OA
ENDBRANCH  75  79
ENDBRANCH  48  72
BRANCH  60  83
ATOM     83  C   UNL A   1      44.446  34.043  29.918  1.00  0.00     0.023 A 
ATOM     84  C   UNL A   1      44.323  35.123  29.028  1.00  0.00     0.031 A 
ATOM     85  C   UNL A   1      45.070  34.274  31.157  1.00  0.00     0.131 A 
ATOM     86  C   UNL A   1      44.866  36.372  29.365  1.00  0.00     0.055 A 
ATOM     87  C   UNL A   1      45.555  35.534  31.512  1.00  0.00     0.041 A 
ATOM     88  F   UNL A   1      45.215  33.278  32.046  1.00  0.00    -0.206 F 
ATOM     89  C   UNL A   1      45.466  36.588  30.609  1.00  0.00     0.022 A 
BRANCH  86  90
ATOM     90  S   UNL A   1      44.855  37.692  28.121  1.00  0.00     0.124 S 
ATOM     91  O   UNL A   1      43.885  37.189  27.153  1.00  0.00    -0.237 OA
ATOM     92  O   UNL A   1      44.434  38.852  28.900  1.00  0.00    -0.237 OA
ATOM     93  O   UNL A   1      46.238  37.732  27.651  1.00  0.00    -0.744 OA
ENDBRANCH  86  90
ENDBRANCH  60  83
ENDBRANCH  34  35
ENDBRANCH  26  29
ENDBRANCH  24  25
ENDBRANCH  23  24
ENDBRANCH   1  23
TORSDOF 17
ENDMDL
MODEL 2
REMARK VINA RESULT:     -11.6      1.993      2.352
REMARK SMILES O=C(CNc1ccccc1C(=O)N1CCCC1)NCCCCNC(=O)c1ccc(-c2c3nc(c(-c4cc(S(=O)(=O)[O-])ccc4F)c4ccc([nH]4)c(-c4cc(S(=O)(=O)[O-])ccc4F)c4nc(c(-c5cc(S(=O)(=O)[O-])ccc5F)c5ccc2[nH]5)C=C4)C=C3)cc1
REMARK SMILES IDX 20 1 19 2 18 3 1 4 2 5 3 7 4 8 5 10 6 11 10 12 7 13 9 14
REMARK SMILES IDX 8 15 11 16 12 17 13 18 14 19 17 20 15 21 16 22 21 23 22 24
REMARK SMILES IDX 23 25 24 26 25 28 26 29 27 30 88 31 28 32 87 33 29 34 30 35
REMARK SMILES IDX 31 36 81 37 32 38 86 39 80 40 82 41 33 42 85 43 79 44 78 45
REMARK SMILES IDX 34 47 66 48 46 49 65 50 47 51 50 52 64 53 83 54 48 55 49 56
REMARK SMILES IDX 63 58 84 59 51 60 35 61 36 62 44 63 37 64 43 65 45 66 42 67
REMARK SMILES IDX 38 68 39 69 40 70 41 71 67 72 68 73 76 74 69 75 75 76 77 77
REMARK SMILES IDX 74 78 70 79 71 80 72 81 73 82 52 83 53 84 61 85 54 86 60 87
REMARK SMILES IDX 62 88 59 89 55 90 56 91 57 92 58 93
REMARK H PARENT 18 6 4 9 23 27 82 46 50 57
REMARK Flexibility Score: inf
ROOT
ATOM      1  C   UNL A   1      34.907  22.784  24.366  1.00  0.00     0.023 C 
ENDROOT
BRANCH   1   2
ATOM      2  C   UNL A   1      34.127  23.212  23.117  1.00  0.00     0.116 C 
BRANCH   2   3
ATOM      3  N   UNL A   1      32.798  23.642  23.481  1.00  0.00    -0.355 N 
ATOM      4  O   UNL A   1      33.286  25.887  23.532  1.00  0.00    -0.273 OA
ATOM      5  C   UNL A   1      32.560  24.951  23.847  1.00  0.00     0.239 C 
ATOM      6  H   UNL A   1      32.055  22.997  23.467  1.00  0.00     0.163 HD
BRANCH   5   7
ATOM      7  C   UNL A   1      31.350  25.093  24.762  1.00  0.00     0.213 C 
BRANCH   7   8
ATOM      8  N   UNL A   1      30.612  26.323  24.493  1.00  0.00    -0.376 N 
ATOM      9  H   UNL A   1      29.926  26.366  23.788  1.00  0.00     0.161 HD
BRANCH   8  10
ATOM     10  C   UNL A   1      30.919  27.440  25.277  1.00  0.00     0.047 A 
ATOM     11  C   UNL A   1      31.222  27.191  26.631  1.00  0.00     0.026 A 
ATOM     12  C   UNL A   1      31.111  28.754  24.788  1.00  0.00     0.063 A 
ATOM     13  C   UNL A   1      31.752  28.183  27.458  1.00  0.00     0.002 A 
ATOM     14  C   UNL A   1      31.645  29.746  25.634  1.00  0.00     0.016 A 
ATOM     15  C   UNL A   1      31.973  29.460  26.957  1.00  0.00     0.001 A 
BRANCH  12  16
ATOM     16  C   UNL A   1      30.939  29.158  23.364  1.00  0.00     0.255 C 
ATOM     17  O   UNL A   1      31.693  28.642  22.535  1.00  0.00    -0.269 OA
ATOM     18  N   UNL A   1      29.932  30.022  22.977  1.00  0.00    -0.339 N 
ATOM     19  C   UNL A   1      29.131  30.929  23.771  1.00  0.00     0.120 C 
ATOM     20  C   UNL A   1      29.491  30.060  21.598  1.00  0.00     0.120 C 
ATOM     21  C   UNL A   1      27.756  30.867  23.118  1.00  0.00     0.023 C 
ATOM     22  C   UNL A   1      28.007  30.397  21.680  1.00  0.00     0.023 C 
ENDBRANCH  12  16
ENDBRANCH   8  10
ENDBRANCH   7   8
ENDBRANCH   5   7
ENDBRANCH   2   3
ENDBRANCH   1   2
BRANCH   1  23
ATOM     23  C   UNL A   1      36.155  23.626  24.670  1.00  0.00     0.023 C 
BRANCH  23  24
ATOM     24  C   UNL A   1      36.781  23.403  26.041  1.00  0.00     0.116 C 
BRANCH  24  25
ATOM     25  N   UNL A   1      37.787  22.357  26.041  1.00  0.00    -0.352 N 
ATOM     26  C   UNL A   1      39.120  22.450  26.353  1.00  0.00     0.251 C 
ATOM     27  H   UNL A   1      37.470  21.462  25.784  1.00  0.00     0.163 HD
ATOM     28  O   UNL A   1      39.850  21.475  26.202  1.00  0.00    -0.269 OA
BRANCH  26  29
ATOM     29  C   UNL A   1      39.672  23.739  26.822  1.00  0.00     0.039 A 
ATOM     30  C   UNL A   1      39.921  24.738  25.878  1.00  0.00     0.014 A 
ATOM     31  C   UNL A   1      39.919  23.970  28.179  1.00  0.00     0.014 A 
ATOM     32  C   UNL A   1      40.364  25.992  26.302  1.00  0.00     0.010 A 
ATOM     33  C   UNL A   1      40.301  25.240  28.605  1.00  0.00     0.010 A 
ATOM     34  C   UNL A   1      40.527  26.264  27.670  1.00  0.00    -0.014 A 
BRANCH  34  35
ATOM     35  C   UNL A   1      40.939  27.613  28.136  1.00  0.00     0.031 A 
ATOM     36  C   UNL A   1      42.395  27.986  28.170  1.00  0.00     0.074 A 
ATOM     37  C   UNL A   1      40.005  28.482  28.572  1.00  0.00     0.049 A 
ATOM     38  N   UNL A   1      42.959  29.085  28.600  1.00  0.00    -0.248 NA
ATOM     39  C   UNL A   1      43.343  26.975  27.680  1.00  0.00     0.031 C 
ATOM     40  C   UNL A   1      38.565  28.218  28.624  1.00  0.00     0.029 A 
ATOM     41  N   UNL A   1      40.125  29.758  29.064  1.00  0.00    -0.354 N 
ATOM     42  C   UNL A   1      44.327  28.897  28.441  1.00  0.00     0.074 A 
ATOM     43  C   UNL A   1      44.507  27.551  27.936  1.00  0.00     0.031 C 
ATOM     44  C   UNL A   1      37.936  29.304  29.101  1.00  0.00     0.029 A 
ATOM     45  C   UNL A   1      38.926  30.324  29.429  1.00  0.00     0.049 A 
ATOM     46  H   UNL A   1      40.988  30.223  29.148  1.00  0.00     0.167 HD
ATOM     47  C   UNL A   1      45.338  29.773  28.671  1.00  0.00     0.034 A 
ATOM     48  C   UNL A   1      38.655  31.526  29.977  1.00  0.00     0.034 A 
ATOM     49  C   UNL A   1      45.139  31.113  29.167  1.00  0.00     0.049 A 
ATOM     50  C   UNL A   1      39.795  32.476  30.243  1.00  0.00     0.074 A 
ATOM     51  C   UNL A   1      46.083  32.099  29.396  1.00  0.00     0.029 A 
ATOM     52  N   UNL A   1      43.908  31.657  29.518  1.00  0.00    -0.354 N 
ATOM     53  N   UNL A   1      41.082  32.300  30.044  1.00  0.00    -0.248 NA
ATOM     54  C   UNL A   1      39.446  33.792  30.794  1.00  0.00     0.031 C 
ATOM     55  C   UNL A   1      45.435  33.212  29.943  1.00  0.00     0.029 A 
ATOM     56  C   UNL A   1      44.075  32.952  29.987  1.00  0.00     0.049 A 
ATOM     57  H   UNL A   1      43.044  31.191  29.446  1.00  0.00     0.167 HD
ATOM     58  C   UNL A   1      41.690  33.493  30.420  1.00  0.00     0.074 A 
ATOM     59  C   UNL A   1      40.629  34.386  30.840  1.00  0.00     0.031 C 
ATOM     60  C   UNL A   1      43.007  33.825  30.414  1.00  0.00     0.034 A 
BRANCH  47  61
ATOM     61  C   UNL A   1      46.744  29.291  28.407  1.00  0.00     0.023 A 
ATOM     62  C   UNL A   1      47.202  29.034  27.103  1.00  0.00     0.031 A 
ATOM     63  C   UNL A   1      47.630  29.053  29.473  1.00  0.00     0.131 A 
ATOM     64  C   UNL A   1      48.475  28.477  26.903  1.00  0.00     0.055 A 
ATOM     65  C   UNL A   1      48.927  28.579  29.260  1.00  0.00     0.041 A 
ATOM     66  F   UNL A   1      47.245  29.258  30.742  1.00  0.00    -0.206 F 
ATOM     67  C   UNL A   1      49.351  28.272  27.970  1.00  0.00     0.022 A 
BRANCH  64  68
ATOM     68  S   UNL A   1      48.908  27.883  25.245  1.00  0.00     0.124 S 
ATOM     69  O   UNL A   1      49.074  26.451  25.481  1.00  0.00    -0.237 OA
ATOM     70  O   UNL A   1      47.743  28.269  24.457  1.00  0.00    -0.237 OA
ATOM     71  O   UNL A   1      50.141  28.603  24.933  1.00  0.00    -0.744 OA
ENDBRANCH  64  68
ENDBRANCH  47  61
BRANCH  48  72
ATOM     72  C   UNL A   1      37.254  31.900  30.324  1.00  0.00     0.023 A 
ATOM     73  C   UNL A   1      36.380  32.416  29.354  1.00  0.00     0.031 A 
ATOM     74  C   UNL A   1      36.781  31.781  31.642  1.00  0.00     0.131 A 
ATOM     75  C   UNL A   1      35.095  32.840  29.727  1.00  0.00     0.055 A 
ATOM     76  C   UNL A   1      35.483  32.155  31.997  1.00  0.00     0.041 A 
ATOM     77  F   UNL A   1      37.574  31.287  32.606  1.00  0.00    -0.206 F 
ATOM     78  C   UNL A   1      34.637  32.701  31.038  1.00  0.00     0.022 A 
BRANCH  75  79
ATOM     79  S   UNL A   1      34.055  33.655  28.482  1.00  0.00     0.124 S 
ATOM     80  O   UNL A   1      35.024  34.501  27.794  1.00  0.00    -0.237 OA
ATOM     81  O   UNL A   1      33.543  32.518  27.725  1.00  0.00    -0.237 OA
ATOM     82  O   UNL A   1      33.062  34.366  29.283  1.00  0.00    -0.744 OA
ENDBRANCH  75  79
ENDBRANCH  48  72
BRANCH  60  83
ATOM     83  C   UNL A   1      43.360  35.230  30.837  1.00  0.00     0.023 A 
ATOM     84  C   UNL A   1      43.405  35.607  32.190  1.00  0.00     0.031 A 
ATOM     85  C   UNL A   1      43.646  36.207  29.867  1.00  0.00     0.131 A 
ATOM     86  C   UNL A   1      43.673  36.941  32.535  1.00  0.00     0.055 A 
ATOM     87  C   UNL A   1      43.971  37.519  30.219  1.00  0.00     0.041 A 
ATOM     88  F   UNL A   1      43.617  35.903  28.560  1.00  0.00    -0.206 F 
ATOM     89  C   UNL A   1      43.972  37.894  31.558  1.00  0.00     0.022 A 
BRANCH  86  90
ATOM     90  S   UNL A   1      43.540  37.434  34.275  1.00  0.00     0.124 S 
ATOM     91  O   UNL A   1      44.942  37.544  34.667  1.00  0.00    -0.237 OA
ATOM     92  O   UNL A   1      42.803  38.690  34.188  1.00  0.00    -0.237 OA
ATOM     93  O   UNL A   1      42.808  36.329  34.890  1.00  0.00    -0.744 OA
ENDBRANCH  86  90
ENDBRANCH  60  83
ENDBRANCH  34  35
ENDBRANCH  26  29
ENDBRANCH  24  25
ENDBRANCH  23  24
ENDBRANCH   1  23
TORSDOF 17
ENDMDL
MODEL 3
REMARK VINA RESULT:     -11.6      2.829      3.571
REMARK SMILES O=C(CNc1ccccc1C(=O)N1CCCC1)NCCCCNC(=O)c1ccc(-c2c3nc(c(-c4cc(S(=O)(=O)[O-])ccc4F)c4ccc([nH]4)c(-c4cc(S(=O)(=O)[O-])ccc4F)c4nc(c(-c5cc(S(=O)(=O)[O-])ccc5F)c5ccc2[nH]5)C=C4)C=C3)cc1
REMARK SMILES IDX 20 1 19 2 18 3 1 4 2 5 3 7 4 8 5 10 6 11 10 12 7 13 9 14
REMARK SMILES IDX 8 15 11 16 12 17 13 18 14 19 17 20 15 21 16 22 21 23 22 24
REMARK SMILES IDX 23 25 24 26 25 28 26 29 27 30 88 31 28 32 87 33 29 34 30 35
REMARK SMILES IDX 31 36 81 37 32 38 86 39 80 40 82 41 33 42 85 43 79 44 78 45
REMARK SMILES IDX 34 47 66 48 46 49 65 50 47 51 50 52 64 53 83 54 48 55 49 56
REMARK SMILES IDX 63 58 84 59 51 60 35 61 36 62 44 63 37 64 43 65 45 66 42 67
REMARK SMILES IDX 38 68 39 69 40 70 41 71 67 72 68 73 76 74 69 75 75 76 77 77
REMARK SMILES IDX 74 78 70 79 71 80 72 81 73 82 52 83 53 84 61 85 54 86 60 87
REMARK SMILES IDX 62 88 59 89 55 90 56 91 57 92 58 93
REMARK H PARENT 18 6 4 9 23 27 82 46 50 57
REMARK Flexibility Score: inf
ROOT
ATOM      1  C   UNL A   1      34.166  22.713  26.527  1.00  0.00     0.023 C 
ENDROOT
BRANCH   1   2
ATOM      2  C   UNL A   1      32.708  22.615  26.062  1.00  0.00     0.116 C 
BRANCH   2   3
ATOM      3  N   UNL A   1      32.113  23.928  26.004  1.00  0.00    -0.355 N 
ATOM      4  O   UNL A   1      30.306  23.424  27.330  1.00  0.00    -0.273 OA
ATOM      5  C   UNL A   1      30.843  24.146  26.497  1.00  0.00     0.239 C 
ATOM      6  H   UNL A   1      32.617  24.676  25.609  1.00  0.00     0.163 HD
BRANCH   5   7
ATOM      7  C   UNL A   1      30.148  25.325  25.829  1.00  0.00     0.213 C 
BRANCH   7   8
ATOM      8  N   UNL A   1      30.765  25.662  24.550  1.00  0.00    -0.376 N 
ATOM      9  H   UNL A   1      31.230  24.981  24.010  1.00  0.00     0.161 HD
BRANCH   8  10
ATOM     10  C   UNL A   1      30.671  26.990  24.122  1.00  0.00     0.047 A 
ATOM     11  C   UNL A   1      29.502  27.339  23.415  1.00  0.00     0.026 A 
ATOM     12  C   UNL A   1      31.559  28.030  24.484  1.00  0.00     0.063 A 
ATOM     13  C   UNL A   1      29.189  28.668  23.127  1.00  0.00     0.002 A 
ATOM     14  C   UNL A   1      31.232  29.367  24.185  1.00  0.00     0.016 A 
ATOM     15  C   UNL A   1      30.050  29.685  23.520  1.00  0.00     0.001 A 
BRANCH  12  16
ATOM     16  C   UNL A   1      32.779  27.845  25.320  1.00  0.00     0.255 C 
ATOM     17  O   UNL A   1      33.554  26.942  24.998  1.00  0.00    -0.269 OA
ATOM     18  N   UNL A   1      33.066  28.694  26.373  1.00  0.00    -0.339 N 
ATOM     19  C   UNL A   1      32.206  29.618  27.082  1.00  0.00     0.120 C 
ATOM     20  C   UNL A   1      34.418  28.798  26.880  1.00  0.00     0.120 C 
ATOM     21  C   UNL A   1      33.115  30.803  27.383  1.00  0.00     0.023 C 
ATOM     22  C   UNL A   1      34.542  30.244  27.348  1.00  0.00     0.023 C 
ENDBRANCH  12  16
ENDBRANCH   8  10
ENDBRANCH   7   8
ENDBRANCH   5   7
ENDBRANCH   2   3
ENDBRANCH   1   2
BRANCH   1  23
ATOM     23  C   UNL A   1      35.147  23.250  25.475  1.00  0.00     0.023 C 
BRANCH  23  24
ATOM     24  C   UNL A   1      36.500  23.707  26.009  1.00  0.00     0.116 C 
BRANCH  24  25
ATOM     25  N   UNL A   1      37.495  22.651  26.009  1.00  0.00    -0.352 N 
ATOM     26  C   UNL A   1      38.824  22.726  26.339  1.00  0.00     0.251 C 
ATOM     27  H   UNL A   1      37.171  21.762  25.736  1.00  0.00     0.163 HD
ATOM     28  O   UNL A   1      39.546  21.745  26.186  1.00  0.00    -0.269 OA
BRANCH  26  29
ATOM     29  C   UNL A   1      39.383  24.003  26.832  1.00  0.00     0.039 A 
ATOM     30  C   UNL A   1      39.970  24.871  25.909  1.00  0.00     0.014 A 
ATOM     31  C   UNL A   1      39.308  24.353  28.183  1.00  0.00     0.014 A 
ATOM     32  C   UNL A   1      40.432  26.119  26.332  1.00  0.00     0.010 A 
ATOM     33  C   UNL A   1      39.713  25.622  28.592  1.00  0.00     0.010 A 
ATOM     34  C   UNL A   1      40.278  26.517  27.670  1.00  0.00    -0.014 A 
BRANCH  34  35
ATOM     35  C   UNL A   1      40.710  27.867  28.118  1.00  0.00     0.031 A 
ATOM     36  C   UNL A   1      42.172  28.218  28.149  1.00  0.00     0.074 A 
ATOM     37  C   UNL A   1      39.789  28.755  28.542  1.00  0.00     0.049 A 
ATOM     38  N   UNL A   1      42.752  29.313  28.565  1.00  0.00    -0.248 NA
ATOM     39  C   UNL A   1      43.105  27.186  27.674  1.00  0.00     0.031 C 
ATOM     40  C   UNL A   1      38.345  28.514  28.595  1.00  0.00     0.029 A 
ATOM     41  N   UNL A   1      39.928  30.035  29.017  1.00  0.00    -0.354 N 
ATOM     42  C   UNL A   1      44.117  29.103  28.411  1.00  0.00     0.074 A 
ATOM     43  C   UNL A   1      44.277  27.748  27.923  1.00  0.00     0.031 C 
ATOM     44  C   UNL A   1      37.732  29.615  29.057  1.00  0.00     0.029 A 
ATOM     45  C   UNL A   1      38.737  30.625  29.372  1.00  0.00     0.049 A 
ATOM     46  H   UNL A   1      40.797  30.488  29.096  1.00  0.00     0.167 HD
ATOM     47  C   UNL A   1      45.141  29.966  28.631  1.00  0.00     0.034 A 
ATOM     48  C   UNL A   1      38.484  31.838  29.904  1.00  0.00     0.034 A 
ATOM     49  C   UNL A   1      44.962  31.315  29.108  1.00  0.00     0.049 A 
ATOM     50  C   UNL A   1      39.639  32.774  30.159  1.00  0.00     0.074 A 
ATOM     51  C   UNL A   1      45.921  32.290  29.325  1.00  0.00     0.029 A 
ATOM     52  N   UNL A   1      43.740  31.882  29.451  1.00  0.00    -0.354 N 
ATOM     53  N   UNL A   1      40.922  32.575  29.965  1.00  0.00    -0.248 NA
ATOM     54  C   UNL A   1      39.309  34.102  30.692  1.00  0.00     0.031 C 
ATOM     55  C   UNL A   1      45.289  33.420  29.857  1.00  0.00     0.029 A 
ATOM     56  C   UNL A   1      43.925  33.181  29.903  1.00  0.00     0.049 A 
ATOM     57  H   UNL A   1      42.869  31.429  29.383  1.00  0.00     0.167 HD
ATOM     58  C   UNL A   1      41.549  33.764  30.325  1.00  0.00     0.074 A 
ATOM     59  C   UNL A   1      40.501  34.679  30.733  1.00  0.00     0.031 C 
ATOM     60  C   UNL A   1      42.870  34.076  30.317  1.00  0.00     0.034 A 
BRANCH  47  61
ATOM     61  C   UNL A   1      46.540  29.459  28.375  1.00  0.00     0.023 A 
ATOM     62  C   UNL A   1      47.289  28.822  29.381  1.00  0.00     0.031 A 
ATOM     63  C   UNL A   1      47.150  29.644  27.121  1.00  0.00     0.131 A 
ATOM     64  C   UNL A   1      48.626  28.469  29.143  1.00  0.00     0.055 A 
ATOM     65  C   UNL A   1      48.453  29.212  26.865  1.00  0.00     0.041 A 
ATOM     66  F   UNL A   1      46.495  30.265  26.127  1.00  0.00    -0.206 F 
ATOM     67  C   UNL A   1      49.205  28.636  27.884  1.00  0.00     0.022 A 
BRANCH  64  68
ATOM     68  S   UNL A   1      49.640  27.931  30.547  1.00  0.00     0.124 S 
ATOM     69  O   UNL A   1      50.989  28.203  30.055  1.00  0.00    -0.237 OA
ATOM     70  O   UNL A   1      49.168  28.791  31.626  1.00  0.00    -0.237 OA
ATOM     71  O   UNL A   1      49.310  26.514  30.686  1.00  0.00    -0.744 OA
ENDBRANCH  64  68
ENDBRANCH  47  61
BRANCH  48  72
ATOM     72  C   UNL A   1      37.089  32.237  30.244  1.00  0.00     0.023 A 
ATOM     73  C   UNL A   1      36.296  32.953  29.333  1.00  0.00     0.031 A 
ATOM     74  C   UNL A   1      36.540  31.941  31.505  1.00  0.00     0.131 A 
ATOM     75  C   UNL A   1      35.018  33.390  29.712  1.00  0.00     0.055 A 
ATOM     76  C   UNL A   1      35.247  32.333  31.858  1.00  0.00     0.041 A 
ATOM     77  F   UNL A   1      37.253  31.254  32.411  1.00  0.00    -0.206 F 
ATOM     78  C   UNL A   1      34.484  33.075  30.962  1.00  0.00     0.022 A 
BRANCH  75  79
ATOM     79  S   UNL A   1      34.091  34.454  28.570  1.00  0.00     0.124 S 
ATOM     80  O   UNL A   1      34.311  35.774  29.149  1.00  0.00    -0.237 OA
ATOM     81  O   UNL A   1      34.761  34.190  27.301  1.00  0.00    -0.237 OA
ATOM     82  O   UNL A   1      32.725  33.947  28.668  1.00  0.00    -0.744 OA
ENDBRANCH  75  79
ENDBRANCH  48  72
BRANCH  60  83
ATOM     83  C   UNL A   1      43.245  35.481  30.721  1.00  0.00     0.023 A 
ATOM     84  C   UNL A   1      43.371  35.854  32.070  1.00  0.00     0.031 A 
ATOM     85  C   UNL A   1      43.467  36.462  29.739  1.00  0.00     0.131 A 
ATOM     86  C   UNL A   1      43.656  37.187  32.402  1.00  0.00     0.055 A 
ATOM     87  C   UNL A   1      43.808  37.773  30.074  1.00  0.00     0.041 A 
ATOM     88  F   UNL A   1      43.359  36.161  28.434  1.00  0.00    -0.206 F 
ATOM     89  C   UNL A   1      43.892  38.145  31.412  1.00  0.00     0.022 A 
BRANCH  86  90
ATOM     90  S   UNL A   1      43.629  37.675  34.148  1.00  0.00     0.124 S 
ATOM     91  O   UNL A   1      42.958  38.970  34.092  1.00  0.00    -0.237 OA
ATOM     92  O   UNL A   1      42.871  36.591  34.764  1.00  0.00    -0.237 OA
ATOM     93  O   UNL A   1      45.044  37.725  34.513  1.00  0.00    -0.744 OA
ENDBRANCH  86  90
ENDBRANCH  60  83
ENDBRANCH  34  35
ENDBRANCH  26  29
ENDBRANCH  24  25
ENDBRANCH  23  24
ENDBRANCH   1  23
TORSDOF 17
ENDMDL
