MODEL 1
REMARK VINA RESULT:     -12.1      0.000      0.000
REMARK SMILES O=C(NCCCCNC(=O)c1cc(Cl)cc(S(=O)(=O)N[C@@H]2CONC2=O)c1F)c1ccc(-c2c3nc(c(-c4cc(S(=O)(=O)[O-])ccc4F)c4ccc([nH]4)c(-c4cc(S(=O)(=O)[O-])ccc4F)c4nc(c(-c5cc(S(=O)(=O)[O-])ccc5F)c5ccc2[nH]5)C=C4)C=C3)cc1
REMARK SMILES IDX 5 1 4 2 3 3 1 4 2 5 29 7 30 8 91 9 31 10 90 11 32 12 33 13
REMARK SMILES IDX 34 14 84 15 35 16 89 17 83 18 85 19 36 20 88 21 82 22 81 23
REMARK SMILES IDX 37 25 69 26 49 27 68 28 50 29 53 30 67 31 86 32 51 33 52 34
REMARK SMILES IDX 66 36 87 37 54 38 38 39 39 40 47 41 40 42 46 43 48 44 45 45
REMARK SMILES IDX 41 46 42 47 43 48 44 49 70 50 71 51 79 52 72 53 78 54 80 55
REMARK SMILES IDX 77 56 73 57 74 58 75 59 76 60 55 61 56 62 64 63 57 64 63 65
REMARK SMILES IDX 65 66 62 67 58 68 59 69 60 70 61 71 6 72 7 73 8 74 9 75
REMARK SMILES IDX 10 77 11 78 12 79 27 80 13 81 16 82 28 83 14 84 15 85 17 86
REMARK SMILES IDX 18 87 19 88 20 89 21 91 22 92 25 93 23 94 24 95 26 96
REMARK H PARENT 3 6 85 24 53 35 8 76 20 90 24 97
REMARK Flexibility Score: inf
ROOT
ATOM      1  C   UNL A   1      35.777  23.589  24.829  1.00  0.00     0.023 C 
ENDROOT
BRANCH   1   2
ATOM      2  C   UNL A   1      36.627  23.624  26.091  1.00  0.00     0.116 C 
BRANCH   2   3
ATOM      3  N   UNL A   1      37.650  22.587  26.114  1.00  0.00    -0.352 N 
ATOM      4  O   UNL A   1      39.748  21.754  26.195  1.00  0.00    -0.269 OA
ATOM      5  C   UNL A   1      38.998  22.709  26.364  1.00  0.00     0.251 C 
ATOM      6  H   UNL A   1      37.335  21.674  25.926  1.00  0.00     0.163 HD
BRANCH   5   7
ATOM      7  C   UNL A   1      39.527  24.011  26.819  1.00  0.00     0.039 A 
ATOM      8  C   UNL A   1      39.499  24.336  28.177  1.00  0.00     0.014 A 
ATOM      9  C   UNL A   1      40.020  24.922  25.883  1.00  0.00     0.014 A 
ATOM     10  C   UNL A   1      39.810  25.627  28.580  1.00  0.00     0.010 A 
ATOM     11  C   UNL A   1      40.437  26.187  26.308  1.00  0.00     0.010 A 
ATOM     12  C   UNL A   1      40.313  26.557  27.657  1.00  0.00    -0.014 A 
BRANCH  12  13
ATOM     13  C   UNL A   1      40.795  27.873  28.148  1.00  0.00     0.031 A 
ATOM     14  C   UNL A   1      42.255  28.226  28.142  1.00  0.00     0.074 A 
ATOM     15  C   UNL A   1      39.878  28.755  28.596  1.00  0.00     0.049 A 
ATOM     16  N   UNL A   1      42.836  29.317  28.570  1.00  0.00    -0.248 NA
ATOM     17  C   UNL A   1      43.182  27.227  27.593  1.00  0.00     0.031 C 
ATOM     18  C   UNL A   1      38.432  28.513  28.641  1.00  0.00     0.029 A 
ATOM     19  N   UNL A   1      40.013  30.026  29.089  1.00  0.00    -0.354 N 
ATOM     20  C   UNL A   1      44.200  29.131  28.365  1.00  0.00     0.074 A 
ATOM     21  C   UNL A   1      44.358  27.809  27.794  1.00  0.00     0.031 C 
ATOM     22  C   UNL A   1      37.814  29.609  29.098  1.00  0.00     0.029 A 
ATOM     23  C   UNL A   1      38.821  30.596  29.469  1.00  0.00     0.049 A 
ATOM     24  H   UNL A   1      40.880  30.487  29.165  1.00  0.00     0.167 HD
ATOM     25  C   UNL A   1      45.217  29.989  28.632  1.00  0.00     0.034 A 
ATOM     26  C   UNL A   1      38.562  31.763  30.090  1.00  0.00     0.034 A 
ATOM     27  C   UNL A   1      45.028  31.303  29.202  1.00  0.00     0.049 A 
ATOM     28  C   UNL A   1      39.716  32.662  30.435  1.00  0.00     0.074 A 
ATOM     29  C   UNL A   1      45.983  32.272  29.463  1.00  0.00     0.029 A 
ATOM     30  N   UNL A   1      43.810  31.827  29.620  1.00  0.00    -0.354 N 
ATOM     31  N   UNL A   1      40.997  32.486  30.199  1.00  0.00    -0.248 NA
ATOM     32  C   UNL A   1      39.395  33.914  31.128  1.00  0.00     0.031 C 
ATOM     33  C   UNL A   1      45.358  33.338  30.119  1.00  0.00     0.029 A 
ATOM     34  C   UNL A   1      43.999  33.081  30.183  1.00  0.00     0.049 A 
ATOM     35  H   UNL A   1      42.941  31.374  29.529  1.00  0.00     0.167 HD
ATOM     36  C   UNL A   1      41.630  33.619  30.699  1.00  0.00     0.074 A 
ATOM     37  C   UNL A   1      40.589  34.479  31.225  1.00  0.00     0.031 C 
ATOM     38  C   UNL A   1      42.953  33.921  30.719  1.00  0.00     0.034 A 
BRANCH  25  39
ATOM     39  C   UNL A   1      46.628  29.518  28.366  1.00  0.00     0.023 A 
ATOM     40  C   UNL A   1      47.420  28.929  29.366  1.00  0.00     0.031 A 
ATOM     41  C   UNL A   1      47.186  29.655  27.081  1.00  0.00     0.131 A 
ATOM     42  C   UNL A   1      48.743  28.551  29.079  1.00  0.00     0.055 A 
ATOM     43  C   UNL A   1      48.474  29.206  26.783  1.00  0.00     0.041 A 
ATOM     44  F   UNL A   1      46.486  30.230  26.091  1.00  0.00    -0.206 F 
ATOM     45  C   UNL A   1      49.266  28.661  27.789  1.00  0.00     0.022 A 
BRANCH  42  46
ATOM     46  S   UNL A   1      49.814  28.036  30.451  1.00  0.00     0.124 S 
ATOM     47  O   UNL A   1      49.874  26.590  30.253  1.00  0.00    -0.237 OA
ATOM     48  O   UNL A   1      51.045  28.769  30.179  1.00  0.00    -0.237 OA
ATOM     49  O   UNL A   1      49.080  28.465  31.639  1.00  0.00    -0.744 OA
ENDBRANCH  42  46
ENDBRANCH  25  39
BRANCH  26  50
ATOM     50  C   UNL A   1      37.166  32.113  30.478  1.00  0.00     0.023 A 
ATOM     51  C   UNL A   1      36.294  32.731  29.570  1.00  0.00     0.031 A 
ATOM     52  C   UNL A   1      36.694  31.870  31.782  1.00  0.00     0.131 A 
ATOM     53  C   UNL A   1      35.017  33.132  29.991  1.00  0.00     0.055 A 
ATOM     54  C   UNL A   1      35.400  32.208  32.176  1.00  0.00     0.041 A 
ATOM     55  F   UNL A   1      37.486  31.281  32.692  1.00  0.00    -0.206 F 
ATOM     56  C   UNL A   1      34.558  32.859  31.282  1.00  0.00     0.022 A 
BRANCH  53  57
ATOM     57  S   UNL A   1      34.005  34.119  28.857  1.00  0.00     0.124 S 
ATOM     58  O   UNL A   1      35.001  35.008  28.269  1.00  0.00    -0.237 OA
ATOM     59  O   UNL A   1      33.456  33.096  27.973  1.00  0.00    -0.237 OA
ATOM     60  O   UNL A   1      33.036  34.764  29.741  1.00  0.00    -0.744 OA
ENDBRANCH  53  57
ENDBRANCH  26  50
BRANCH  38  61
ATOM     61  C   UNL A   1      43.339  35.261  31.298  1.00  0.00     0.023 A 
ATOM     62  C   UNL A   1      43.463  35.458  32.685  1.00  0.00     0.031 A 
ATOM     63  C   UNL A   1      43.579  36.355  30.449  1.00  0.00     0.131 A 
ATOM     64  C   UNL A   1      43.768  36.734  33.183  1.00  0.00     0.055 A 
ATOM     65  C   UNL A   1      43.947  37.605  30.948  1.00  0.00     0.041 A 
ATOM     66  F   UNL A   1      43.466  36.224  29.117  1.00  0.00    -0.206 F 
ATOM     67  C   UNL A   1      44.030  37.803  32.322  1.00  0.00     0.022 A 
BRANCH  64  68
ATOM     68  S   UNL A   1      43.727  37.002  34.976  1.00  0.00     0.124 S 
ATOM     69  O   UNL A   1      42.297  37.143  35.230  1.00  0.00    -0.237 OA
ATOM     70  O   UNL A   1      44.348  35.785  35.488  1.00  0.00    -0.237 OA
ATOM     71  O   UNL A   1      44.513  38.221  35.159  1.00  0.00    -0.744 OA
ENDBRANCH  64  68
ENDBRANCH  38  61
ENDBRANCH  12  13
ENDBRANCH   5   7
ENDBRANCH   2   3
ENDBRANCH   1   2
BRANCH   1  72
ATOM     72  C   UNL A   1      34.749  24.707  24.721  1.00  0.00     0.023 C 
BRANCH  72  73
ATOM     73  C   UNL A   1      33.365  24.251  24.291  1.00  0.00     0.116 C 
BRANCH  73  74
ATOM     74  N   UNL A   1      32.491  23.939  25.411  1.00  0.00    -0.352 N 
ATOM     75  C   UNL A   1      31.707  24.789  26.151  1.00  0.00     0.254 C 
ATOM     76  H   UNL A   1      32.459  22.990  25.676  1.00  0.00     0.163 HD
ATOM     77  O   UNL A   1      31.092  24.386  27.132  1.00  0.00    -0.269 OA
BRANCH  75  78
ATOM     78  C   UNL A   1      31.614  26.212  25.785  1.00  0.00     0.078 A 
ATOM     79  C   UNL A   1      32.401  27.145  26.463  1.00  0.00     0.037 A 
ATOM     80  C   UNL A   1      30.736  26.625  24.785  1.00  0.00     0.156 A 
ATOM     81  C   UNL A   1      32.335  28.485  26.090  1.00  0.00     0.043 A 
ATOM     82  C   UNL A   1      30.662  27.959  24.427  1.00  0.00     0.120 A 
ATOM     83  F   UNL A   1      30.001  25.706  24.150  1.00  0.00    -0.205 F 
ATOM     84  Cl  UNL A   1      33.344  29.635  26.875  1.00  0.00    -0.084 Cl
ATOM     85  C   UNL A   1      31.473  28.901  25.072  1.00  0.00     0.045 A 
BRANCH  82  86
ATOM     86  S   UNL A   1      29.580  28.502  23.150  1.00  0.00     0.244 S 
ATOM     87  O   UNL A   1      30.320  28.538  21.907  1.00  0.00    -0.207 OA
ATOM     88  O   UNL A   1      28.391  27.691  23.281  1.00  0.00    -0.207 OA
BRANCH  86  89
ATOM     89  N   UNL A   1      29.072  30.057  23.472  1.00  0.00    -0.196 NA
ATOM     90  H   UNL A   1      29.638  30.372  24.259  1.00  0.00     0.142 HD
BRANCH  89  91
ATOM     91  C   UNL A   1      29.096  31.156  22.505  1.00  0.00     0.189 C 
ATOM     92  C   UNL A   1      28.760  32.485  23.172  1.00  0.00     0.224 C 
ATOM     93  C   UNL A   1      28.179  31.210  21.324  1.00  0.00     0.264 C 
ATOM     94  O   UNL A   1      28.342  33.371  22.126  1.00  0.00    -0.271 OA
ATOM     95  N   UNL A   1      27.843  32.522  21.117  1.00  0.00    -0.233 N 
ATOM     96  O   UNL A   1      27.860  30.283  20.596  1.00  0.00    -0.271 OA
ATOM     97  H   UNL A   1      27.312  32.836  20.349  1.00  0.00     0.199 HD
ENDBRANCH  89  91
ENDBRANCH  86  89
ENDBRANCH  82  86
ENDBRANCH  75  78
ENDBRANCH  73  74
ENDBRANCH  72  73
ENDBRANCH   1  72
TORSDOF 17
ENDMDL
MODEL 2
REMARK VINA RESULT:     -12.1      2.462      8.150
REMARK SMILES O=C(NCCCCNC(=O)c1cc(Cl)cc(S(=O)(=O)N[C@@H]2CONC2=O)c1F)c1ccc(-c2c3nc(c(-c4cc(S(=O)(=O)[O-])ccc4F)c4ccc([nH]4)c(-c4cc(S(=O)(=O)[O-])ccc4F)c4nc(c(-c5cc(S(=O)(=O)[O-])ccc5F)c5ccc2[nH]5)C=C4)C=C3)cc1
REMARK SMILES IDX 5 1 4 2 3 3 1 4 2 5 29 7 30 8 91 9 31 10 90 11 32 12 33 13
REMARK SMILES IDX 34 14 84 15 35 16 89 17 83 18 85 19 36 20 88 21 82 22 81 23
REMARK SMILES IDX 37 25 69 26 49 27 68 28 50 29 53 30 67 31 86 32 51 33 52 34
REMARK SMILES IDX 66 36 87 37 54 38 38 39 39 40 47 41 40 42 46 43 48 44 45 45
REMARK SMILES IDX 41 46 42 47 43 48 44 49 70 50 71 51 79 52 72 53 78 54 80 55
REMARK SMILES IDX 77 56 73 57 74 58 75 59 76 60 55 61 56 62 64 63 57 64 63 65
REMARK SMILES IDX 65 66 62 67 58 68 59 69 60 70 61 71 6 72 7 73 8 74 9 75
REMARK SMILES IDX 10 77 11 78 12 79 27 80 13 81 16 82 28 83 14 84 15 85 17 86
REMARK SMILES IDX 18 87 19 88 20 89 21 91 22 92 25 93 23 94 24 95 26 96
REMARK H PARENT 3 6 85 24 53 35 8 76 20 90 24 97
REMARK Flexibility Score: inf
ROOT
ATOM      1  C   UNL A   1      35.742  23.306  24.776  1.00  0.00     0.023 C 
ENDROOT
BRANCH   1   2
ATOM      2  C   UNL A   1      36.267  22.762  26.096  1.00  0.00     0.116 C 
BRANCH   2   3
ATOM      3  N   UNL A   1      37.168  21.630  25.925  1.00  0.00    -0.352 N 
ATOM      4  O   UNL A   1      39.157  20.588  25.681  1.00  0.00    -0.269 OA
ATOM      5  C   UNL A   1      38.541  21.599  26.002  1.00  0.00     0.251 C 
ATOM      6  H   UNL A   1      36.735  20.768  25.727  1.00  0.00     0.163 HD
BRANCH   5   7
ATOM      7  C   UNL A   1      39.260  22.806  26.459  1.00  0.00     0.039 A 
ATOM      8  C   UNL A   1      38.995  24.040  25.862  1.00  0.00     0.014 A 
ATOM      9  C   UNL A   1      40.225  22.697  27.462  1.00  0.00     0.014 A 
ATOM     10  C   UNL A   1      39.804  25.130  26.151  1.00  0.00     0.010 A 
ATOM     11  C   UNL A   1      40.965  23.825  27.829  1.00  0.00     0.010 A 
ATOM     12  C   UNL A   1      40.776  25.045  27.159  1.00  0.00    -0.014 A 
BRANCH  12  13
ATOM     13  C   UNL A   1      41.509  26.272  27.560  1.00  0.00     0.031 A 
ATOM     14  C   UNL A   1      40.827  27.387  28.301  1.00  0.00     0.074 A 
ATOM     15  C   UNL A   1      42.818  26.358  27.248  1.00  0.00     0.049 A 
ATOM     16  N   UNL A   1      41.318  28.536  28.687  1.00  0.00    -0.248 NA
ATOM     17  C   UNL A   1      39.411  27.193  28.644  1.00  0.00     0.031 C 
ATOM     18  C   UNL A   1      43.579  25.328  26.533  1.00  0.00     0.029 A 
ATOM     19  N   UNL A   1      43.743  27.340  27.490  1.00  0.00    -0.354 N 
ATOM     20  C   UNL A   1      40.270  29.215  29.301  1.00  0.00     0.074 A 
ATOM     21  C   UNL A   1      39.109  28.354  29.212  1.00  0.00     0.031 C 
ATOM     22  C   UNL A   1      44.857  25.715  26.429  1.00  0.00     0.029 A 
ATOM     23  C   UNL A   1      44.989  27.057  26.981  1.00  0.00     0.049 A 
ATOM     24  H   UNL A   1      43.535  28.168  27.981  1.00  0.00     0.167 HD
ATOM     25  C   UNL A   1      40.286  30.442  29.881  1.00  0.00     0.034 A 
ATOM     26  C   UNL A   1      46.104  27.808  26.919  1.00  0.00     0.034 A 
ATOM     27  C   UNL A   1      41.462  31.278  29.954  1.00  0.00     0.049 A 
ATOM     28  C   UNL A   1      46.071  29.191  27.509  1.00  0.00     0.074 A 
ATOM     29  C   UNL A   1      41.600  32.514  30.566  1.00  0.00     0.029 A 
ATOM     30  N   UNL A   1      42.693  30.981  29.384  1.00  0.00    -0.354 N 
ATOM     31  N   UNL A   1      45.081  29.803  28.119  1.00  0.00    -0.248 NA
ATOM     32  C   UNL A   1      47.299  29.985  27.404  1.00  0.00     0.031 C 
ATOM     33  C   UNL A   1      42.882  33.000  30.286  1.00  0.00     0.029 A 
ATOM     34  C   UNL A   1      43.578  32.030  29.583  1.00  0.00     0.049 A 
ATOM     35  H   UNL A   1      42.907  30.146  28.907  1.00  0.00     0.167 HD
ATOM     36  C   UNL A   1      45.579  31.047  28.488  1.00  0.00     0.074 A 
ATOM     37  C   UNL A   1      46.960  31.088  28.054  1.00  0.00     0.031 C 
ATOM     38  C   UNL A   1      44.949  32.064  29.131  1.00  0.00     0.034 A 
BRANCH  25  39
ATOM     39  C   UNL A   1      38.986  30.981  30.431  1.00  0.00     0.023 A 
ATOM     40  C   UNL A   1      38.003  31.551  29.603  1.00  0.00     0.031 A 
ATOM     41  C   UNL A   1      38.723  30.913  31.812  1.00  0.00     0.131 A 
ATOM     42  C   UNL A   1      36.832  32.081  30.170  1.00  0.00     0.055 A 
ATOM     43  C   UNL A   1      37.523  31.371  32.359  1.00  0.00     0.041 A 
ATOM     44  F   UNL A   1      39.632  30.399  32.655  1.00  0.00    -0.206 F 
ATOM     45  C   UNL A   1      36.574  31.971  31.538  1.00  0.00     0.022 A 
BRANCH  42  46
ATOM     46  S   UNL A   1      35.710  33.036  29.110  1.00  0.00     0.124 S 
ATOM     47  O   UNL A   1      36.386  34.329  29.053  1.00  0.00    -0.237 OA
ATOM     48  O   UNL A   1      35.709  32.261  27.875  1.00  0.00    -0.237 OA
ATOM     49  O   UNL A   1      34.451  33.032  29.853  1.00  0.00    -0.744 OA
ENDBRANCH  42  46
ENDBRANCH  25  39
BRANCH  26  50
ATOM     50  C   UNL A   1      47.318  27.294  26.222  1.00  0.00     0.023 A 
ATOM     51  C   UNL A   1      48.270  26.521  26.900  1.00  0.00     0.031 A 
ATOM     52  C   UNL A   1      47.563  27.606  24.871  1.00  0.00     0.131 A 
ATOM     53  C   UNL A   1      49.447  26.129  26.244  1.00  0.00     0.055 A 
ATOM     54  C   UNL A   1      48.701  27.156  24.203  1.00  0.00     0.041 A 
ATOM     55  F   UNL A   1      46.684  28.342  24.173  1.00  0.00    -0.206 F 
ATOM     56  C   UNL A   1      49.660  26.426  24.895  1.00  0.00     0.022 A 
BRANCH  53  57
ATOM     57  S   UNL A   1      50.748  25.321  27.212  1.00  0.00     0.124 S 
ATOM     58  O   UNL A   1      51.674  24.898  26.168  1.00  0.00    -0.237 OA
ATOM     59  O   UNL A   1      51.204  26.408  28.072  1.00  0.00    -0.237 OA
ATOM     60  O   UNL A   1      50.041  24.241  27.896  1.00  0.00    -0.744 OA
ENDBRANCH  53  57
ENDBRANCH  26  50
BRANCH  38  61
ATOM     61  C   UNL A   1      45.772  33.293  29.434  1.00  0.00     0.023 A 
ATOM     62  C   UNL A   1      45.816  34.389  28.555  1.00  0.00     0.031 A 
ATOM     63  C   UNL A   1      46.528  33.362  30.617  1.00  0.00     0.131 A 
ATOM     64  C   UNL A   1      46.639  35.487  28.849  1.00  0.00     0.055 A 
ATOM     65  C   UNL A   1      47.292  34.485  30.936  1.00  0.00     0.041 A 
ATOM     66  F   UNL A   1      46.529  32.340  31.489  1.00  0.00    -0.206 F 
ATOM     67  C   UNL A   1      47.361  35.550  30.044  1.00  0.00     0.022 A 
BRANCH  64  68
ATOM     68  S   UNL A   1      46.825  36.794  27.605  1.00  0.00     0.124 S 
ATOM     69  O   UNL A   1      48.165  36.533  27.090  1.00  0.00    -0.237 OA
ATOM     70  O   UNL A   1      45.724  36.514  26.690  1.00  0.00    -0.237 OA
ATOM     71  O   UNL A   1      46.687  38.026  28.380  1.00  0.00    -0.744 OA
ENDBRANCH  64  68
ENDBRANCH  38  61
ENDBRANCH  12  13
ENDBRANCH   5   7
ENDBRANCH   2   3
ENDBRANCH   1   2
BRANCH   1  72
ATOM     72  C   UNL A   1      34.865  24.544  24.899  1.00  0.00     0.023 C 
BRANCH  72  73
ATOM     73  C   UNL A   1      33.432  24.352  24.429  1.00  0.00     0.116 C 
BRANCH  73  74
ATOM     74  N   UNL A   1      32.515  24.027  25.511  1.00  0.00    -0.352 N 
ATOM     75  C   UNL A   1      31.688  24.866  26.216  1.00  0.00     0.254 C 
ATOM     76  H   UNL A   1      32.484  23.078  25.773  1.00  0.00     0.163 HD
ATOM     77  O   UNL A   1      31.036  24.453  27.169  1.00  0.00    -0.269 OA
BRANCH  75  78
ATOM     78  C   UNL A   1      31.592  26.288  25.847  1.00  0.00     0.078 A 
ATOM     79  C   UNL A   1      32.355  27.227  26.543  1.00  0.00     0.037 A 
ATOM     80  C   UNL A   1      30.733  26.693  24.827  1.00  0.00     0.156 A 
ATOM     81  C   UNL A   1      32.287  28.567  26.167  1.00  0.00     0.043 A 
ATOM     82  C   UNL A   1      30.657  28.027  24.465  1.00  0.00     0.120 A 
ATOM     83  F   UNL A   1      30.021  25.768  24.175  1.00  0.00    -0.205 F 
ATOM     84  Cl  UNL A   1      33.268  29.725  26.974  1.00  0.00    -0.084 Cl
ATOM     85  C   UNL A   1      31.446  28.975  25.129  1.00  0.00     0.045 A 
BRANCH  82  86
ATOM     86  S   UNL A   1      29.601  28.560  23.163  1.00  0.00     0.244 S 
ATOM     87  O   UNL A   1      30.371  28.607  21.939  1.00  0.00    -0.207 OA
ATOM     88  O   UNL A   1      28.418  27.736  23.264  1.00  0.00    -0.207 OA
BRANCH  86  89
ATOM     89  N   UNL A   1      29.068  30.109  23.476  1.00  0.00    -0.196 NA
ATOM     90  H   UNL A   1      29.621  30.434  24.268  1.00  0.00     0.142 HD
BRANCH  89  91
ATOM     91  C   UNL A   1      29.089  31.206  22.506  1.00  0.00     0.189 C 
ATOM     92  C   UNL A   1      28.700  32.527  23.160  1.00  0.00     0.224 C 
ATOM     93  C   UNL A   1      28.201  31.232  21.301  1.00  0.00     0.264 C 
ATOM     94  O   UNL A   1      28.286  33.399  22.100  1.00  0.00    -0.271 OA
ATOM     95  N   UNL A   1      27.836  32.534  21.081  1.00  0.00    -0.233 N 
ATOM     96  O   UNL A   1      27.927  30.294  20.568  1.00  0.00    -0.271 OA
ATOM     97  H   UNL A   1      27.317  32.831  20.299  1.00  0.00     0.199 HD
ENDBRANCH  89  91
ENDBRANCH  86  89
ENDBRANCH  82  86
ENDBRANCH  75  78
ENDBRANCH  73  74
ENDBRANCH  72  73
ENDBRANCH   1  72
TORSDOF 17
ENDMDL
MODEL 3
REMARK VINA RESULT:     -12.0      2.972      3.574
REMARK SMILES O=C(NCCCCNC(=O)c1cc(Cl)cc(S(=O)(=O)N[C@@H]2CONC2=O)c1F)c1ccc(-c2c3nc(c(-c4cc(S(=O)(=O)[O-])ccc4F)c4ccc([nH]4)c(-c4cc(S(=O)(=O)[O-])ccc4F)c4nc(c(-c5cc(S(=O)(=O)[O-])ccc5F)c5ccc2[nH]5)C=C4)C=C3)cc1
REMARK SMILES IDX 5 1 4 2 3 3 1 4 2 5 29 7 30 8 91 9 31 10 90 11 32 12 33 13
REMARK SMILES IDX 34 14 84 15 35 16 89 17 83 18 85 19 36 20 88 21 82 22 81 23
REMARK SMILES IDX 37 25 69 26 49 27 68 28 50 29 53 30 67 31 86 32 51 33 52 34
REMARK SMILES IDX 66 36 87 37 54 38 38 39 39 40 47 41 40 42 46 43 48 44 45 45
REMARK SMILES IDX 41 46 42 47 43 48 44 49 70 50 71 51 79 52 72 53 78 54 80 55
REMARK SMILES IDX 77 56 73 57 74 58 75 59 76 60 55 61 56 62 64 63 57 64 63 65
REMARK SMILES IDX 65 66 62 67 58 68 59 69 60 70 61 71 6 72 7 73 8 74 9 75
REMARK SMILES IDX 10 77 11 78 12 79 27 80 13 81 16 82 28 83 14 84 15 85 17 86
REMARK SMILES IDX 18 87 19 88 20 89 21 91 22 92 25 93 23 94 24 95 26 96
REMARK H PARENT 3 6 85 24 53 35 8 76 20 90 24 97
REMARK Flexibility Score: inf
ROOT
ATOM      1  C   UNL A   1      35.725  23.184  24.729  1.00  0.00     0.023 C 
ENDROOT
BRANCH   1   2
ATOM      2  C   UNL A   1      36.119  22.586  26.072  1.00  0.00     0.116 C 
BRANCH   2   3
ATOM      3  N   UNL A   1      37.046  21.469  25.945  1.00  0.00    -0.352 N 
ATOM      4  O   UNL A   1      39.059  20.466  25.738  1.00  0.00    -0.269 OA
ATOM      5  C   UNL A   1      38.420  21.475  26.018  1.00  0.00     0.251 C 
ATOM      6  H   UNL A   1      36.634  20.590  25.785  1.00  0.00     0.163 HD
BRANCH   5   7
ATOM      7  C   UNL A   1      39.111  22.716  26.421  1.00  0.00     0.039 A 
ATOM      8  C   UNL A   1      38.793  23.924  25.795  1.00  0.00     0.014 A 
ATOM      9  C   UNL A   1      40.103  22.668  27.403  1.00  0.00     0.014 A 
ATOM     10  C   UNL A   1      39.573  25.046  26.032  1.00  0.00     0.010 A 
ATOM     11  C   UNL A   1      40.816  23.829  27.717  1.00  0.00     0.010 A 
ATOM     12  C   UNL A   1      40.571  25.021  27.018  1.00  0.00    -0.014 A 
BRANCH  12  13
ATOM     13  C   UNL A   1      41.275  26.282  27.364  1.00  0.00     0.031 A 
ATOM     14  C   UNL A   1      42.661  26.570  26.861  1.00  0.00     0.074 A 
ATOM     15  C   UNL A   1      40.630  27.174  28.142  1.00  0.00     0.049 A 
ATOM     16  N   UNL A   1      43.423  27.605  27.104  1.00  0.00    -0.248 NA
ATOM     17  C   UNL A   1      43.275  25.566  25.979  1.00  0.00     0.031 C 
ATOM     18  C   UNL A   1      39.278  26.994  28.682  1.00  0.00     0.029 A 
ATOM     19  N   UNL A   1      41.008  28.405  28.610  1.00  0.00    -0.354 N 
ATOM     20  C   UNL A   1      44.616  27.372  26.425  1.00  0.00     0.074 A 
ATOM     21  C   UNL A   1      44.481  26.083  25.780  1.00  0.00     0.031 C 
ATOM     22  C   UNL A   1      38.928  28.087  29.373  1.00  0.00     0.029 A 
ATOM     23  C   UNL A   1      40.061  29.003  29.408  1.00  0.00     0.049 A 
ATOM     24  H   UNL A   1      41.875  28.822  28.396  1.00  0.00     0.167 HD
ATOM     25  C   UNL A   1      45.713  28.166  26.354  1.00  0.00     0.034 A 
ATOM     26  C   UNL A   1      40.108  30.139  30.129  1.00  0.00     0.034 A 
ATOM     27  C   UNL A   1      45.818  29.449  27.010  1.00  0.00     0.049 A 
ATOM     28  C   UNL A   1      41.365  30.964  30.085  1.00  0.00     0.074 A 
ATOM     29  C   UNL A   1      46.863  30.357  26.959  1.00  0.00     0.029 A 
ATOM     30  N   UNL A   1      44.858  30.000  27.850  1.00  0.00    -0.354 N 
ATOM     31  N   UNL A   1      42.470  30.746  29.408  1.00  0.00    -0.248 NA
ATOM     32  C   UNL A   1      41.386  32.183  30.899  1.00  0.00     0.031 C 
ATOM     33  C   UNL A   1      46.575  31.407  27.837  1.00  0.00     0.029 A 
ATOM     34  C   UNL A   1      45.309  31.207  28.364  1.00  0.00     0.049 A 
ATOM     35  H   UNL A   1      43.985  29.593  28.051  1.00  0.00     0.167 HD
ATOM     36  C   UNL A   1      43.307  31.817  29.701  1.00  0.00     0.074 A 
ATOM     37  C   UNL A   1      42.572  32.688  30.595  1.00  0.00     0.031 C 
ATOM     38  C   UNL A   1      44.571  32.059  29.268  1.00  0.00     0.034 A 
BRANCH  25  39
ATOM     39  C   UNL A   1      46.911  27.651  25.590  1.00  0.00     0.023 A 
ATOM     40  C   UNL A   1      47.148  27.998  24.249  1.00  0.00     0.031 A 
ATOM     41  C   UNL A   1      47.839  26.802  26.222  1.00  0.00     0.131 A 
ATOM     42  C   UNL A   1      48.251  27.455  23.569  1.00  0.00     0.055 A 
ATOM     43  C   UNL A   1      48.975  26.328  25.564  1.00  0.00     0.041 A 
ATOM     44  F   UNL A   1      47.655  26.418  27.495  1.00  0.00    -0.206 F 
ATOM     45  C   UNL A   1      49.180  26.644  24.225  1.00  0.00     0.022 A 
BRANCH  42  46
ATOM     46  S   UNL A   1      48.381  27.716  21.778  1.00  0.00     0.124 S 
ATOM     47  O   UNL A   1      48.666  26.365  21.302  1.00  0.00    -0.237 OA
ATOM     48  O   UNL A   1      47.066  28.248  21.442  1.00  0.00    -0.237 OA
ATOM     49  O   UNL A   1      49.489  28.661  21.649  1.00  0.00    -0.744 OA
ENDBRANCH  42  46
ENDBRANCH  25  39
BRANCH  26  50
ATOM     50  C   UNL A   1      38.960  30.526  30.997  1.00  0.00     0.023 A 
ATOM     51  C   UNL A   1      37.935  31.354  30.517  1.00  0.00     0.031 A 
ATOM     52  C   UNL A   1      38.892  30.105  32.339  1.00  0.00     0.131 A 
ATOM     53  C   UNL A   1      36.915  31.776  31.383  1.00  0.00     0.055 A 
ATOM     54  C   UNL A   1      37.840  30.472  33.177  1.00  0.00     0.041 A 
ATOM     55  F   UNL A   1      39.846  29.312  32.851  1.00  0.00    -0.206 F 
ATOM     56  C   UNL A   1      36.851  31.327  32.705  1.00  0.00     0.022 A 
BRANCH  53  57
ATOM     57  S   UNL A   1      35.734  33.015  30.788  1.00  0.00     0.124 S 
ATOM     58  O   UNL A   1      34.461  32.427  31.190  1.00  0.00    -0.237 OA
ATOM     59  O   UNL A   1      36.151  34.206  31.521  1.00  0.00    -0.237 OA
ATOM     60  O   UNL A   1      35.979  33.053  29.347  1.00  0.00    -0.744 OA
ENDBRANCH  53  57
ENDBRANCH  26  50
BRANCH  38  61
ATOM     61  C   UNL A   1      45.218  33.341  29.731  1.00  0.00     0.023 A 
ATOM     62  C   UNL A   1      45.084  34.540  29.009  1.00  0.00     0.031 A 
ATOM     63  C   UNL A   1      45.986  33.359  30.909  1.00  0.00     0.131 A 
ATOM     64  C   UNL A   1      45.750  35.695  29.446  1.00  0.00     0.055 A 
ATOM     65  C   UNL A   1      46.590  34.527  31.374  1.00  0.00     0.041 A 
ATOM     66  F   UNL A   1      46.153  32.240  31.633  1.00  0.00    -0.206 F 
ATOM     67  C   UNL A   1      46.485  35.701  30.635  1.00  0.00     0.022 A 
BRANCH  64  68
ATOM     68  S   UNL A   1      45.719  37.170  28.391  1.00  0.00     0.124 S 
ATOM     69  O   UNL A   1      47.131  37.531  28.332  1.00  0.00    -0.237 OA
ATOM     70  O   UNL A   1      45.139  36.658  27.154  1.00  0.00    -0.237 OA
ATOM     71  O   UNL A   1      44.870  38.103  29.132  1.00  0.00    -0.744 OA
ENDBRANCH  64  68
ENDBRANCH  38  61
ENDBRANCH  12  13
ENDBRANCH   5   7
ENDBRANCH   2   3
ENDBRANCH   1   2
BRANCH   1  72
ATOM     72  C   UNL A   1      34.886  24.452  24.816  1.00  0.00     0.023 C 
BRANCH  72  73
ATOM     73  C   UNL A   1      33.436  24.279  24.397  1.00  0.00     0.116 C 
BRANCH  73  74
ATOM     74  N   UNL A   1      32.554  23.961  25.509  1.00  0.00    -0.352 N 
ATOM     75  C   UNL A   1      31.764  24.807  26.248  1.00  0.00     0.254 C 
ATOM     76  H   UNL A   1      32.519  23.011  25.768  1.00  0.00     0.163 HD
ATOM     77  O   UNL A   1      31.141  24.399  27.222  1.00  0.00    -0.269 OA
BRANCH  75  78
ATOM     78  C   UNL A   1      31.674  26.233  25.889  1.00  0.00     0.078 A 
ATOM     79  C   UNL A   1      32.407  27.169  26.621  1.00  0.00     0.037 A 
ATOM     80  C   UNL A   1      30.851  26.644  24.842  1.00  0.00     0.156 A 
ATOM     81  C   UNL A   1      32.345  28.512  26.256  1.00  0.00     0.043 A 
ATOM     82  C   UNL A   1      30.782  27.981  24.491  1.00  0.00     0.120 A 
ATOM     83  F   UNL A   1      30.167  25.721  24.157  1.00  0.00    -0.205 F 
ATOM     84  Cl  UNL A   1      33.292  29.667  27.109  1.00  0.00    -0.084 Cl
ATOM     85  C   UNL A   1      31.541  28.926  25.192  1.00  0.00     0.045 A 
BRANCH  82  86
ATOM     86  S   UNL A   1      29.770  28.521  23.157  1.00  0.00     0.244 S 
ATOM     87  O   UNL A   1      30.432  28.184  21.915  1.00  0.00    -0.207 OA
ATOM     88  O   UNL A   1      28.446  28.023  23.450  1.00  0.00    -0.207 OA
BRANCH  86  89
ATOM     89  N   UNL A   1      29.622  30.182  23.207  1.00  0.00    -0.196 NA
ATOM     90  H   UNL A   1      30.484  30.546  22.803  1.00  0.00     0.142 HD
BRANCH  89  91
ATOM     91  C   UNL A   1      28.541  30.938  22.572  1.00  0.00     0.189 C 
ATOM     92  C   UNL A   1      28.286  30.449  21.151  1.00  0.00     0.224 C 
ATOM     93  C   UNL A   1      28.622  32.414  22.336  1.00  0.00     0.264 C 
ATOM     94  O   UNL A   1      27.597  31.508  20.473  1.00  0.00    -0.271 OA
ATOM     95  N   UNL A   1      27.995  32.681  21.148  1.00  0.00    -0.233 N 
ATOM     96  O   UNL A   1      29.064  33.259  23.099  1.00  0.00    -0.271 OA
ATOM     97  H   UNL A   1      27.840  33.591  20.803  1.00  0.00     0.199 HD
ENDBRANCH  89  91
ENDBRANCH  86  89
ENDBRANCH  82  86
ENDBRANCH  75  78
ENDBRANCH  73  74
ENDBRANCH  72  73
ENDBRANCH   1  72
TORSDOF 17
ENDMDL
