MODEL 1
REMARK VINA RESULT:     -10.6      0.000      0.000
REMARK SMILES O=C(CC1(NS(=O)(=O)C[C@H]2CCCO2)CCC1)NCCCCNC(=O)c1ccc(-c2c3nc(c(-c4cc(S(=O)(=O)[O-])ccc4F)c4ccc([nH]4)c(-c4cc(S(=O)(=O)[O-])ccc4F)c4nc(c(-c5cc(S(=O)(=O)[O-])ccc5F)c5ccc2[nH]5)C=C4)C=C3)cc1
REMARK SMILES IDX 19 1 18 2 1 3 2 4 3 6 4 7 15 8 17 9 16 10 5 11 6 13 7 14
REMARK SMILES IDX 8 15 9 16 10 17 11 18 14 19 12 20 13 21 20 22 21 23 22 24
REMARK SMILES IDX 23 25 24 26 25 28 26 29 27 30 88 31 28 32 87 33 29 34 30 35
REMARK SMILES IDX 31 36 81 37 32 38 86 39 80 40 82 41 33 42 85 43 79 44 78 45
REMARK SMILES IDX 34 47 66 48 46 49 65 50 47 51 50 52 64 53 83 54 48 55 49 56
REMARK SMILES IDX 63 58 84 59 51 60 35 61 36 62 44 63 37 64 43 65 45 66 42 67
REMARK SMILES IDX 38 68 39 69 40 70 41 71 67 72 68 73 76 74 69 75 75 76 77 77
REMARK SMILES IDX 74 78 70 79 71 80 72 81 73 82 52 83 53 84 61 85 54 86 60 87
REMARK SMILES IDX 62 88 59 89 55 90 56 91 57 92 58 93
REMARK H PARENT 18 5 5 12 23 27 82 46 50 57
REMARK Flexibility Score: inf
ROOT
ATOM      1  C   UNL A   1      37.417  21.941  25.125  1.00  0.00     0.116 C 
ENDROOT
BRANCH   1   2
ATOM      2  N   UNL A   1      36.261  22.760  24.836  1.00  0.00    -0.356 N 
ATOM      3  O   UNL A   1      36.633  23.006  22.593  1.00  0.00    -0.275 OA
ATOM      4  C   UNL A   1      35.946  23.224  23.587  1.00  0.00     0.221 C 
ATOM      5  H   UNL A   1      35.664  22.999  25.582  1.00  0.00     0.163 HD
BRANCH   4   6
ATOM      6  C   UNL A   1      34.718  24.098  23.531  1.00  0.00     0.123 C 
BRANCH   6   7
ATOM      7  C   UNL A   1      33.438  23.547  24.177  1.00  0.00     0.042 C 
ATOM      8  C   UNL A   1      32.905  24.238  25.479  1.00  0.00     0.024 C 
ATOM      9  C   UNL A   1      32.188  24.200  23.474  1.00  0.00     0.024 C 
ATOM     10  C   UNL A   1      31.512  24.304  24.847  1.00  0.00     0.004 C 
BRANCH   7  11
ATOM     11  N   UNL A   1      33.420  22.036  24.102  1.00  0.00    -0.208 NA
ATOM     12  H   UNL A   1      34.335  21.796  23.723  1.00  0.00     0.141 HD
BRANCH  11  13
ATOM     13  S   UNL A   1      33.165  20.894  25.300  1.00  0.00     0.214 S 
ATOM     14  O   UNL A   1      33.990  21.247  26.434  1.00  0.00    -0.212 OA
ATOM     15  O   UNL A   1      31.725  20.822  25.443  1.00  0.00    -0.212 OA
BRANCH  13  16
ATOM     16  C   UNL A   1      33.765  19.338  24.664  1.00  0.00     0.185 C 
BRANCH  16  17
ATOM     17  C   UNL A   1      32.700  18.361  24.192  1.00  0.00     0.134 C 
ATOM     18  C   UNL A   1      33.283  17.354  23.199  1.00  0.00     0.035 C 
ATOM     19  O   UNL A   1      32.225  17.571  25.301  1.00  0.00    -0.377 OA
ATOM     20  C   UNL A   1      33.750  16.235  24.097  1.00  0.00     0.031 C 
ATOM     21  C   UNL A   1      32.648  16.211  25.129  1.00  0.00     0.160 C 
ENDBRANCH  16  17
ENDBRANCH  13  16
ENDBRANCH  11  13
ENDBRANCH   7  11
ENDBRANCH   6   7
ENDBRANCH   4   6
ENDBRANCH   1   2
BRANCH   1  22
ATOM     22  C   UNL A   1      37.236  20.514  24.613  1.00  0.00     0.023 C 
BRANCH  22  23
ATOM     23  C   UNL A   1      38.160  19.474  25.259  1.00  0.00     0.023 C 
BRANCH  23  24
ATOM     24  C   UNL A   1      39.363  20.039  26.009  1.00  0.00     0.116 C 
BRANCH  24  25
ATOM     25  N   UNL A   1      40.504  19.143  25.984  1.00  0.00    -0.352 N 
ATOM     26  C   UNL A   1      41.844  19.441  26.052  1.00  0.00     0.251 C 
ATOM     27  H   UNL A   1      40.288  18.184  25.907  1.00  0.00     0.163 HD
ATOM     28  O   UNL A   1      42.673  18.565  25.824  1.00  0.00    -0.269 OA
BRANCH  26  29
ATOM     29  C   UNL A   1      42.282  20.821  26.368  1.00  0.00     0.039 A 
ATOM     30  C   UNL A   1      42.448  21.732  25.323  1.00  0.00     0.014 A 
ATOM     31  C   UNL A   1      42.524  21.216  27.687  1.00  0.00     0.014 A 
ATOM     32  C   UNL A   1      42.793  23.057  25.606  1.00  0.00     0.010 A 
ATOM     33  C   UNL A   1      42.795  22.555  27.972  1.00  0.00     0.010 A 
ATOM     34  C   UNL A   1      42.932  23.491  26.935  1.00  0.00    -0.014 A 
BRANCH  34  35
ATOM     35  C   UNL A   1      43.214  24.918  27.254  1.00  0.00     0.031 A 
ATOM     36  C   UNL A   1      44.581  25.495  27.004  1.00  0.00     0.074 A 
ATOM     37  C   UNL A   1      42.253  25.680  27.815  1.00  0.00     0.049 A 
ATOM     38  N   UNL A   1      45.035  26.694  27.270  1.00  0.00    -0.248 NA
ATOM     39  C   UNL A   1      45.576  24.599  26.399  1.00  0.00     0.031 C 
ATOM     40  C   UNL A   1      40.896  25.228  28.135  1.00  0.00     0.029 A 
ATOM     41  N   UNL A   1      42.265  26.992  28.222  1.00  0.00    -0.354 N 
ATOM     42  C   UNL A   1      46.369  26.692  26.876  1.00  0.00     0.074 A 
ATOM     43  C   UNL A   1      46.665  25.353  26.411  1.00  0.00     0.031 C 
ATOM     44  C   UNL A   1      40.201  26.252  28.654  1.00  0.00     0.029 A 
ATOM     45  C   UNL A   1      41.072  27.419  28.758  1.00  0.00     0.049 A 
ATOM     46  H   UNL A   1      43.055  27.573  28.136  1.00  0.00     0.167 HD
ATOM     47  C   UNL A   1      47.258  27.716  26.883  1.00  0.00     0.034 A 
ATOM     48  C   UNL A   1      40.721  28.608  29.287  1.00  0.00     0.034 A 
ATOM     49  C   UNL A   1      46.945  29.049  27.342  1.00  0.00     0.049 A 
ATOM     50  C   UNL A   1      41.743  29.719  29.326  1.00  0.00     0.074 A 
ATOM     51  C   UNL A   1      47.754  30.171  27.339  1.00  0.00     0.029 A 
ATOM     52  N   UNL A   1      45.733  29.436  27.898  1.00  0.00    -0.354 N 
ATOM     53  N   UNL A   1      42.985  29.713  28.901  1.00  0.00    -0.248 NA
ATOM     54  C   UNL A   1      41.311  30.996  29.906  1.00  0.00     0.031 C 
ATOM     55  C   UNL A   1      47.064  31.212  27.969  1.00  0.00     0.029 A 
ATOM     56  C   UNL A   1      45.788  30.769  28.280  1.00  0.00     0.049 A 
ATOM     57  H   UNL A   1      44.949  28.851  28.006  1.00  0.00     0.167 HD
ATOM     58  C   UNL A   1      43.469  30.999  29.129  1.00  0.00     0.074 A 
ATOM     59  C   UNL A   1      42.380  31.754  29.714  1.00  0.00     0.031 C 
ATOM     60  C   UNL A   1      44.700  31.512  28.872  1.00  0.00     0.034 A 
BRANCH  47  61
ATOM     61  C   UNL A   1      48.665  27.426  26.409  1.00  0.00     0.023 A 
ATOM     62  C   UNL A   1      49.703  27.122  27.308  1.00  0.00     0.031 A 
ATOM     63  C   UNL A   1      48.975  27.466  25.039  1.00  0.00     0.131 A 
ATOM     64  C   UNL A   1      51.011  26.944  26.834  1.00  0.00     0.055 A 
ATOM     65  C   UNL A   1      50.262  27.201  24.566  1.00  0.00     0.041 A 
ATOM     66  F   UNL A   1      48.034  27.774  24.132  1.00  0.00    -0.206 F 
ATOM     67  C   UNL A   1      51.293  26.954  25.467  1.00  0.00     0.022 A 
BRANCH  64  68
ATOM     68  S   UNL A   1      52.363  26.850  28.040  1.00  0.00     0.124 S 
ATOM     69  O   UNL A   1      52.872  28.220  28.019  1.00  0.00    -0.237 OA
ATOM     70  O   UNL A   1      51.672  26.443  29.257  1.00  0.00    -0.237 OA
ATOM     71  O   UNL A   1      53.264  25.851  27.468  1.00  0.00    -0.744 OA
ENDBRANCH  64  68
ENDBRANCH  47  61
BRANCH  48  72
ATOM     72  C   UNL A   1      39.350  28.821  29.840  1.00  0.00     0.023 A 
ATOM     73  C   UNL A   1      38.336  29.394  29.057  1.00  0.00     0.031 A 
ATOM     74  C   UNL A   1      39.048  28.509  31.179  1.00  0.00     0.131 A 
ATOM     75  C   UNL A   1      37.089  29.689  29.630  1.00  0.00     0.055 A 
ATOM     76  C   UNL A   1      37.787  28.745  31.726  1.00  0.00     0.041 A 
ATOM     77  F   UNL A   1      39.980  27.960  31.974  1.00  0.00    -0.206 F 
ATOM     78  C   UNL A   1      36.802  29.354  30.954  1.00  0.00     0.022 A 
BRANCH  75  79
ATOM     79  S   UNL A   1      35.880  30.618  28.647  1.00  0.00     0.124 S 
ATOM     80  O   UNL A   1      35.245  31.446  29.666  1.00  0.00    -0.237 OA
ATOM     81  O   UNL A   1      36.737  31.316  27.694  1.00  0.00    -0.237 OA
ATOM     82  O   UNL A   1      35.034  29.574  28.073  1.00  0.00    -0.744 OA
ENDBRANCH  75  79
ENDBRANCH  48  72
BRANCH  60  83
ATOM     83  C   UNL A   1      44.916  32.976  29.176  1.00  0.00     0.023 A 
ATOM     84  C   UNL A   1      44.613  33.984  28.243  1.00  0.00     0.031 A 
ATOM     85  C   UNL A   1      45.443  33.368  30.421  1.00  0.00     0.131 A 
ATOM     86  C   UNL A   1      44.895  35.325  28.546  1.00  0.00     0.055 A 
ATOM     87  C   UNL A   1      45.654  34.708  30.743  1.00  0.00     0.041 A 
ATOM     88  F   UNL A   1      45.755  32.450  31.350  1.00  0.00    -0.206 F 
ATOM     89  C   UNL A   1      45.395  35.695  29.797  1.00  0.00     0.022 A 
BRANCH  86  90
ATOM     90  S   UNL A   1      44.700  36.571  27.243  1.00  0.00     0.124 S 
ATOM     91  O   UNL A   1      44.705  37.814  28.007  1.00  0.00    -0.237 OA
ATOM     92  O   UNL A   1      45.871  36.333  26.406  1.00  0.00    -0.237 OA
ATOM     93  O   UNL A   1      43.419  36.227  26.628  1.00  0.00    -0.744 OA
ENDBRANCH  86  90
ENDBRANCH  60  83
ENDBRANCH  34  35
ENDBRANCH  26  29
ENDBRANCH  24  25
ENDBRANCH  23  24
ENDBRANCH  22  23
ENDBRANCH   1  22
TORSDOF 19
ENDMDL
MODEL 2
REMARK VINA RESULT:     -10.4      3.643      8.994
REMARK SMILES O=C(CC1(NS(=O)(=O)C[C@H]2CCCO2)CCC1)NCCCCNC(=O)c1ccc(-c2c3nc(c(-c4cc(S(=O)(=O)[O-])ccc4F)c4ccc([nH]4)c(-c4cc(S(=O)(=O)[O-])ccc4F)c4nc(c(-c5cc(S(=O)(=O)[O-])ccc5F)c5ccc2[nH]5)C=C4)C=C3)cc1
REMARK SMILES IDX 19 1 18 2 1 3 2 4 3 6 4 7 15 8 17 9 16 10 5 11 6 13 7 14
REMARK SMILES IDX 8 15 9 16 10 17 11 18 14 19 12 20 13 21 20 22 21 23 22 24
REMARK SMILES IDX 23 25 24 26 25 28 26 29 27 30 88 31 28 32 87 33 29 34 30 35
REMARK SMILES IDX 31 36 81 37 32 38 86 39 80 40 82 41 33 42 85 43 79 44 78 45
REMARK SMILES IDX 34 47 66 48 46 49 65 50 47 51 50 52 64 53 83 54 48 55 49 56
REMARK SMILES IDX 63 58 84 59 51 60 35 61 36 62 44 63 37 64 43 65 45 66 42 67
REMARK SMILES IDX 38 68 39 69 40 70 41 71 67 72 68 73 76 74 69 75 75 76 77 77
REMARK SMILES IDX 74 78 70 79 71 80 72 81 73 82 52 83 53 84 61 85 54 86 60 87
REMARK SMILES IDX 62 88 59 89 55 90 56 91 57 92 58 93
REMARK H PARENT 18 5 5 12 23 27 82 46 50 57
REMARK Flexibility Score: inf
ROOT
ATOM      1  C   UNL A   1      33.768  22.423  26.740  1.00  0.00     0.116 C 
ENDROOT
BRANCH   1   2
ATOM      2  N   UNL A   1      33.346  23.763  26.402  1.00  0.00    -0.356 N 
ATOM      3  O   UNL A   1      31.248  23.643  27.304  1.00  0.00    -0.275 OA
ATOM      4  C   UNL A   1      32.120  24.281  26.720  1.00  0.00     0.221 C 
ATOM      5  H   UNL A   1      33.979  24.339  25.915  1.00  0.00     0.163 HD
BRANCH   4   6
ATOM      6  C   UNL A   1      31.882  25.687  26.227  1.00  0.00     0.123 C 
BRANCH   6   7
ATOM      7  C   UNL A   1      31.634  25.866  24.723  1.00  0.00     0.042 C 
ATOM      8  C   UNL A   1      32.756  25.413  23.725  1.00  0.00     0.024 C 
ATOM      9  C   UNL A   1      30.832  24.623  24.183  1.00  0.00     0.024 C 
ATOM     10  C   UNL A   1      31.700  24.652  22.918  1.00  0.00     0.004 C 
BRANCH   7  11
ATOM     11  N   UNL A   1      30.920  27.174  24.459  1.00  0.00    -0.208 NA
ATOM     12  H   UNL A   1      31.128  27.740  25.281  1.00  0.00     0.141 HD
BRANCH  11  13
ATOM     13  S   UNL A   1      31.059  28.248  23.182  1.00  0.00     0.214 S 
ATOM     14  O   UNL A   1      32.426  28.719  23.143  1.00  0.00    -0.212 OA
ATOM     15  O   UNL A   1      30.500  27.546  22.044  1.00  0.00    -0.212 OA
BRANCH  13  16
ATOM     16  C   UNL A   1      30.020  29.646  23.569  1.00  0.00     0.185 C 
BRANCH  16  17
ATOM     17  C   UNL A   1      28.960  29.990  22.535  1.00  0.00     0.134 C 
ATOM     18  C   UNL A   1      27.597  30.200  23.199  1.00  0.00     0.035 C 
ATOM     19  O   UNL A   1      29.273  31.247  21.902  1.00  0.00    -0.377 OA
ATOM     20  C   UNL A   1      27.605  31.676  23.513  1.00  0.00     0.031 C 
ATOM     21  C   UNL A   1      28.304  32.229  22.295  1.00  0.00     0.160 C 
ENDBRANCH  16  17
ENDBRANCH  13  16
ENDBRANCH  11  13
ENDBRANCH   7  11
ENDBRANCH   6   7
ENDBRANCH   4   6
ENDBRANCH   1   2
BRANCH   1  22
ATOM     22  C   UNL A   1      33.788  21.514  25.512  1.00  0.00     0.023 C 
BRANCH  22  23
ATOM     23  C   UNL A   1      35.153  21.390  24.824  1.00  0.00     0.023 C 
BRANCH  23  24
ATOM     24  C   UNL A   1      36.360  21.746  25.686  1.00  0.00     0.116 C 
BRANCH  24  25
ATOM     25  N   UNL A   1      37.365  20.700  25.694  1.00  0.00    -0.352 N 
ATOM     26  C   UNL A   1      38.721  20.799  25.897  1.00  0.00     0.251 C 
ATOM     27  H   UNL A   1      37.029  19.788  25.531  1.00  0.00     0.163 HD
ATOM     28  O   UNL A   1      39.441  19.829  25.679  1.00  0.00    -0.269 OA
BRANCH  26  29
ATOM     29  C   UNL A   1      39.312  22.082  26.346  1.00  0.00     0.039 A 
ATOM     30  C   UNL A   1      40.372  22.056  27.255  1.00  0.00     0.014 A 
ATOM     31  C   UNL A   1      38.826  23.304  25.872  1.00  0.00     0.014 A 
ATOM     32  C   UNL A   1      40.987  23.251  27.637  1.00  0.00     0.010 A 
ATOM     33  C   UNL A   1      39.489  24.488  26.196  1.00  0.00     0.010 A 
ATOM     34  C   UNL A   1      40.578  24.475  27.082  1.00  0.00    -0.014 A 
BRANCH  34  35
ATOM     35  C   UNL A   1      41.281  25.745  27.414  1.00  0.00     0.031 A 
ATOM     36  C   UNL A   1      40.590  26.805  28.230  1.00  0.00     0.074 A 
ATOM     37  C   UNL A   1      42.524  25.965  26.939  1.00  0.00     0.049 A 
ATOM     38  N   UNL A   1      41.014  27.996  28.570  1.00  0.00    -0.248 NA
ATOM     39  C   UNL A   1      39.234  26.493  28.703  1.00  0.00     0.031 C 
ATOM     40  C   UNL A   1      43.290  25.028  26.112  1.00  0.00     0.029 A 
ATOM     41  N   UNL A   1      43.364  27.043  27.075  1.00  0.00    -0.354 N 
ATOM     42  C   UNL A   1      39.974  28.579  29.286  1.00  0.00     0.074 A 
ATOM     43  C   UNL A   1      38.878  27.633  29.277  1.00  0.00     0.031 C 
ATOM     44  C   UNL A   1      44.494  25.558  25.845  1.00  0.00     0.029 A 
ATOM     45  C   UNL A   1      44.572  26.892  26.432  1.00  0.00     0.049 A 
ATOM     46  H   UNL A   1      43.125  27.849  27.588  1.00  0.00     0.167 HD
ATOM     47  C   UNL A   1      39.944  29.783  29.911  1.00  0.00     0.034 A 
ATOM     48  C   UNL A   1      45.616  27.736  26.313  1.00  0.00     0.034 A 
ATOM     49  C   UNL A   1      41.049  30.712  29.920  1.00  0.00     0.049 A 
ATOM     50  C   UNL A   1      45.540  29.089  26.979  1.00  0.00     0.074 A 
ATOM     51  C   UNL A   1      41.143  31.931  30.567  1.00  0.00     0.029 A 
ATOM     52  N   UNL A   1      42.246  30.533  29.238  1.00  0.00    -0.354 N 
ATOM     53  N   UNL A   1      44.567  29.603  27.696  1.00  0.00    -0.248 NA
ATOM     54  C   UNL A   1      46.705  29.969  26.827  1.00  0.00     0.031 C 
ATOM     55  C   UNL A   1      42.357  32.526  30.210  1.00  0.00     0.029 A 
ATOM     56  C   UNL A   1      43.066  31.638  29.417  1.00  0.00     0.049 A 
ATOM     57  H   UNL A   1      42.480  29.738  28.706  1.00  0.00     0.167 HD
ATOM     58  C   UNL A   1      45.023  30.852  28.111  1.00  0.00     0.074 A 
ATOM     59  C   UNL A   1      46.360  31.004  27.576  1.00  0.00     0.031 C 
ATOM     60  C   UNL A   1      44.396  31.786  28.871  1.00  0.00     0.034 A 
BRANCH  47  61
ATOM     61  C   UNL A   1      38.662  30.178  30.610  1.00  0.00     0.023 A 
ATOM     62  C   UNL A   1      37.640  30.879  29.945  1.00  0.00     0.031 A 
ATOM     63  C   UNL A   1      38.464  29.859  31.964  1.00  0.00     0.131 A 
ATOM     64  C   UNL A   1      36.505  31.301  30.652  1.00  0.00     0.055 A 
ATOM     65  C   UNL A   1      37.292  30.205  32.640  1.00  0.00     0.041 A 
ATOM     66  F   UNL A   1      39.412  29.210  32.661  1.00  0.00    -0.206 F 
ATOM     67  C   UNL A   1      36.310  30.945  31.989  1.00  0.00     0.022 A 
BRANCH  64  68
ATOM     68  S   UNL A   1      35.358  32.450  29.843  1.00  0.00     0.124 S 
ATOM     69  O   UNL A   1      34.908  31.659  28.699  1.00  0.00    -0.237 OA
ATOM     70  O   UNL A   1      34.366  32.690  30.884  1.00  0.00    -0.237 OA
ATOM     71  O   UNL A   1      36.201  33.595  29.505  1.00  0.00    -0.744 OA
ENDBRANCH  64  68
ENDBRANCH  47  61
BRANCH  48  72
ATOM     72  C   UNL A   1      46.824  27.347  25.526  1.00  0.00     0.023 A 
ATOM     73  C   UNL A   1      47.027  27.834  24.225  1.00  0.00     0.031 A 
ATOM     74  C   UNL A   1      47.766  26.437  26.041  1.00  0.00     0.131 A 
ATOM     75  C   UNL A   1      48.109  27.367  23.462  1.00  0.00     0.055 A 
ATOM     76  C   UNL A   1      48.876  26.025  25.301  1.00  0.00     0.041 A 
ATOM     77  F   UNL A   1      47.623  25.938  27.279  1.00  0.00    -0.206 F 
ATOM     78  C   UNL A   1      49.043  26.479  23.996  1.00  0.00     0.022 A 
BRANCH  75  79
ATOM     79  S   UNL A   1      48.216  27.856  21.718  1.00  0.00     0.124 S 
ATOM     80  O   UNL A   1      48.499  26.581  21.071  1.00  0.00    -0.237 OA
ATOM     81  O   UNL A   1      46.891  28.419  21.480  1.00  0.00    -0.237 OA
ATOM     82  O   UNL A   1      49.313  28.821  21.703  1.00  0.00    -0.744 OA
ENDBRANCH  75  79
ENDBRANCH  48  72
BRANCH  60  83
ATOM     83  C   UNL A   1      45.173  33.036  29.212  1.00  0.00     0.023 A 
ATOM     84  C   UNL A   1      45.985  33.120  30.357  1.00  0.00     0.031 A 
ATOM     85  C   UNL A   1      45.091  34.167  28.377  1.00  0.00     0.131 A 
ATOM     86  C   UNL A   1      46.634  34.325  30.667  1.00  0.00     0.055 A 
ATOM     87  C   UNL A   1      45.795  35.338  28.654  1.00  0.00     0.041 A 
ATOM     88  F   UNL A   1      44.328  34.147  27.273  1.00  0.00    -0.206 F 
ATOM     89  C   UNL A   1      46.560  35.428  29.813  1.00  0.00     0.022 A 
BRANCH  86  90
ATOM     90  S   UNL A   1      47.490  34.467  32.260  1.00  0.00     0.124 S 
ATOM     91  O   UNL A   1      48.097  33.147  32.397  1.00  0.00    -0.237 OA
ATOM     92  O   UNL A   1      48.414  35.571  32.021  1.00  0.00    -0.237 OA
ATOM     93  O   UNL A   1      46.412  34.754  33.204  1.00  0.00    -0.744 OA
ENDBRANCH  86  90
ENDBRANCH  60  83
ENDBRANCH  34  35
ENDBRANCH  26  29
ENDBRANCH  24  25
ENDBRANCH  23  24
ENDBRANCH  22  23
ENDBRANCH   1  22
TORSDOF 19
ENDMDL
MODEL 3
REMARK VINA RESULT:     -10.3      6.267     11.344
REMARK SMILES O=C(CC1(NS(=O)(=O)C[C@H]2CCCO2)CCC1)NCCCCNC(=O)c1ccc(-c2c3nc(c(-c4cc(S(=O)(=O)[O-])ccc4F)c4ccc([nH]4)c(-c4cc(S(=O)(=O)[O-])ccc4F)c4nc(c(-c5cc(S(=O)(=O)[O-])ccc5F)c5ccc2[nH]5)C=C4)C=C3)cc1
REMARK SMILES IDX 19 1 18 2 1 3 2 4 3 6 4 7 15 8 17 9 16 10 5 11 6 13 7 14
REMARK SMILES IDX 8 15 9 16 10 17 11 18 14 19 12 20 13 21 20 22 21 23 22 24
REMARK SMILES IDX 23 25 24 26 25 28 26 29 27 30 88 31 28 32 87 33 29 34 30 35
REMARK SMILES IDX 31 36 81 37 32 38 86 39 80 40 82 41 33 42 85 43 79 44 78 45
REMARK SMILES IDX 34 47 66 48 46 49 65 50 47 51 50 52 64 53 83 54 48 55 49 56
REMARK SMILES IDX 63 58 84 59 51 60 35 61 36 62 44 63 37 64 43 65 45 66 42 67
REMARK SMILES IDX 38 68 39 69 40 70 41 71 67 72 68 73 76 74 69 75 75 76 77 77
REMARK SMILES IDX 74 78 70 79 71 80 72 81 73 82 52 83 53 84 61 85 54 86 60 87
REMARK SMILES IDX 62 88 59 89 55 90 56 91 57 92 58 93
REMARK H PARENT 18 5 5 12 23 27 82 46 50 57
REMARK Flexibility Score: inf
ROOT
ATOM      1  C   UNL A   1      32.867  29.964  25.847  1.00  0.00     0.116 C 
ENDROOT
BRANCH   1   2
ATOM      2  N   UNL A   1      32.897  28.521  25.767  1.00  0.00    -0.356 N 
ATOM      3  O   UNL A   1      33.962  28.363  23.750  1.00  0.00    -0.275 OA
ATOM      4  C   UNL A   1      33.454  27.825  24.729  1.00  0.00     0.221 C 
ATOM      5  H   UNL A   1      32.493  28.009  26.505  1.00  0.00     0.163 HD
BRANCH   4   6
ATOM      6  C   UNL A   1      33.329  26.325  24.837  1.00  0.00     0.123 C 
BRANCH   6   7
ATOM      7  C   UNL A   1      31.915  25.734  24.739  1.00  0.00     0.042 C 
ATOM      8  C   UNL A   1      31.723  24.391  23.951  1.00  0.00     0.024 C 
ATOM      9  C   UNL A   1      31.630  24.869  26.024  1.00  0.00     0.024 C 
ATOM     10  C   UNL A   1      30.926  23.837  25.135  1.00  0.00     0.004 C 
BRANCH   7  11
ATOM     11  N   UNL A   1      30.896  26.835  24.545  1.00  0.00    -0.208 NA
ATOM     12  H   UNL A   1      31.396  27.684  24.806  1.00  0.00     0.141 HD
BRANCH  11  13
ATOM     13  S   UNL A   1      30.025  27.281  23.185  1.00  0.00     0.214 S 
ATOM     14  O   UNL A   1      30.815  26.946  22.022  1.00  0.00    -0.212 OA
ATOM     15  O   UNL A   1      28.717  26.686  23.372  1.00  0.00    -0.212 OA
BRANCH  13  16
ATOM     16  C   UNL A   1      29.868  29.058  23.235  1.00  0.00     0.185 C 
BRANCH  16  17
ATOM     17  C   UNL A   1      28.477  29.607  22.964  1.00  0.00     0.134 C 
ATOM     18  C   UNL A   1      28.339  31.034  23.500  1.00  0.00     0.035 C 
ATOM     19  O   UNL A   1      28.251  29.710  21.544  1.00  0.00    -0.377 OA
ATOM     20  C   UNL A   1      28.774  31.873  22.323  1.00  0.00     0.031 C 
ATOM     21  C   UNL A   1      28.180  31.094  21.174  1.00  0.00     0.160 C 
ENDBRANCH  16  17
ENDBRANCH  13  16
ENDBRANCH  11  13
ENDBRANCH   7  11
ENDBRANCH   6   7
ENDBRANCH   4   6
ENDBRANCH   1   2
BRANCH   1  22
ATOM     22  C   UNL A   1      31.725  30.455  26.735  1.00  0.00     0.023 C 
BRANCH  22  23
ATOM     23  C   UNL A   1      31.626  31.979  26.874  1.00  0.00     0.023 C 
BRANCH  23  24
ATOM     24  C   UNL A   1      32.927  32.694  27.229  1.00  0.00     0.116 C 
BRANCH  24  25
ATOM     25  N   UNL A   1      32.700  34.004  27.811  1.00  0.00    -0.352 N 
ATOM     26  C   UNL A   1      33.314  34.592  28.891  1.00  0.00     0.251 C 
ATOM     27  H   UNL A   1      32.009  34.549  27.369  1.00  0.00     0.163 HD
ATOM     28  O   UNL A   1      32.858  35.633  29.356  1.00  0.00    -0.269 OA
BRANCH  26  29
ATOM     29  C   UNL A   1      34.500  33.954  29.509  1.00  0.00     0.039 A 
ATOM     30  C   UNL A   1      34.307  32.958  30.469  1.00  0.00     0.014 A 
ATOM     31  C   UNL A   1      35.795  34.332  29.144  1.00  0.00     0.014 A 
ATOM     32  C   UNL A   1      35.411  32.296  31.013  1.00  0.00     0.010 A 
ATOM     33  C   UNL A   1      36.890  33.619  29.632  1.00  0.00     0.010 A 
ATOM     34  C   UNL A   1      36.711  32.592  30.572  1.00  0.00    -0.014 A 
BRANCH  34  35
ATOM     35  C   UNL A   1      37.888  31.835  31.080  1.00  0.00     0.031 A 
ATOM     36  C   UNL A   1      38.471  32.154  32.430  1.00  0.00     0.074 A 
ATOM     37  C   UNL A   1      38.462  30.893  30.303  1.00  0.00     0.049 A 
ATOM     38  N   UNL A   1      39.526  31.648  33.017  1.00  0.00    -0.248 NA
ATOM     39  C   UNL A   1      37.794  33.199  33.211  1.00  0.00     0.031 C 
ATOM     40  C   UNL A   1      38.009  30.512  28.963  1.00  0.00     0.029 A 
ATOM     41  N   UNL A   1      39.553  30.087  30.522  1.00  0.00    -0.354 N 
ATOM     42  C   UNL A   1      39.645  32.319  34.230  1.00  0.00     0.074 A 
ATOM     43  C   UNL A   1      38.591  33.310  34.264  1.00  0.00     0.031 C 
ATOM     44  C   UNL A   1      38.792  29.527  28.497  1.00  0.00     0.029 A 
ATOM     45  C   UNL A   1      39.836  29.240  29.475  1.00  0.00     0.049 A 
ATOM     46  H   UNL A   1      40.082  30.111  31.352  1.00  0.00     0.167 HD
ATOM     47  C   UNL A   1      40.538  32.114  35.230  1.00  0.00     0.034 A 
ATOM     48  C   UNL A   1      40.832  28.345  29.312  1.00  0.00     0.034 A 
ATOM     49  C   UNL A   1      41.579  31.114  35.186  1.00  0.00     0.049 A 
ATOM     50  C   UNL A   1      41.841  28.167  30.421  1.00  0.00     0.074 A 
ATOM     51  C   UNL A   1      42.498  30.786  36.166  1.00  0.00     0.029 A 
ATOM     52  N   UNL A   1      41.848  30.292  34.099  1.00  0.00    -0.354 N 
ATOM     53  N   UNL A   1      41.907  28.776  31.583  1.00  0.00    -0.248 NA
ATOM     54  C   UNL A   1      42.901  27.177  30.199  1.00  0.00     0.031 C 
ATOM     55  C   UNL A   1      43.375  29.829  35.644  1.00  0.00     0.029 A 
ATOM     56  C   UNL A   1      42.945  29.487  34.371  1.00  0.00     0.049 A 
ATOM     57  H   UNL A   1      41.335  30.280  33.259  1.00  0.00     0.167 HD
ATOM     58  C   UNL A   1      42.995  28.211  32.244  1.00  0.00     0.074 A 
ATOM     59  C   UNL A   1      43.543  27.207  31.357  1.00  0.00     0.031 C 
ATOM     60  C   UNL A   1      43.492  28.493  33.476  1.00  0.00     0.034 A 
BRANCH  47  61
ATOM     61  C   UNL A   1      40.449  33.010  36.444  1.00  0.00     0.023 A 
ATOM     62  C   UNL A   1      39.668  32.669  37.563  1.00  0.00     0.031 A 
ATOM     63  C   UNL A   1      41.145  34.231  36.479  1.00  0.00     0.131 A 
ATOM     64  C   UNL A   1      39.544  33.568  38.632  1.00  0.00     0.055 A 
ATOM     65  C   UNL A   1      41.088  35.082  37.585  1.00  0.00     0.041 A 
ATOM     66  F   UNL A   1      41.890  34.625  35.433  1.00  0.00    -0.206 F 
ATOM     67  C   UNL A   1      40.270  34.760  38.664  1.00  0.00     0.022 A 
BRANCH  64  68
ATOM     68  S   UNL A   1      38.303  33.227  39.911  1.00  0.00     0.124 S 
ATOM     69  O   UNL A   1      38.860  32.036  40.551  1.00  0.00    -0.237 OA
ATOM     70  O   UNL A   1      38.325  34.449  40.705  1.00  0.00    -0.237 OA
ATOM     71  O   UNL A   1      37.078  32.999  39.148  1.00  0.00    -0.744 OA
ENDBRANCH  64  68
ENDBRANCH  47  61
BRANCH  48  72
ATOM     72  C   UNL A   1      40.945  27.552  28.052  1.00  0.00     0.023 A 
ATOM     73  C   UNL A   1      40.596  26.193  28.019  1.00  0.00     0.031 A 
ATOM     74  C   UNL A   1      41.458  28.126  26.874  1.00  0.00     0.131 A 
ATOM     75  C   UNL A   1      40.816  25.440  26.856  1.00  0.00     0.055 A 
ATOM     76  C   UNL A   1      41.615  27.389  25.700  1.00  0.00     0.041 A 
ATOM     77  F   UNL A   1      41.808  29.422  26.847  1.00  0.00    -0.206 F 
ATOM     78  C   UNL A   1      41.308  26.031  25.691  1.00  0.00     0.022 A 
BRANCH  75  79
ATOM     79  S   UNL A   1      40.552  23.646  26.919  1.00  0.00     0.124 S 
ATOM     80  O   UNL A   1      39.153  23.539  26.521  1.00  0.00    -0.237 OA
ATOM     81  O   UNL A   1      41.534  23.161  25.955  1.00  0.00    -0.237 OA
ATOM     82  O   UNL A   1      40.832  23.311  28.314  1.00  0.00    -0.744 OA
ENDBRANCH  75  79
ENDBRANCH  48  72
BRANCH  60  83
ATOM     83  C   UNL A   1      44.660  27.664  33.956  1.00  0.00     0.023 A 
ATOM     84  C   UNL A   1      44.481  26.482  34.697  1.00  0.00     0.031 A 
ATOM     85  C   UNL A   1      45.977  28.071  33.673  1.00  0.00     0.131 A 
ATOM     86  C   UNL A   1      45.599  25.783  35.179  1.00  0.00     0.055 A 
ATOM     87  C   UNL A   1      47.083  27.334  34.096  1.00  0.00     0.041 A 
ATOM     88  F   UNL A   1      46.210  29.194  32.975  1.00  0.00    -0.206 F 
ATOM     89  C   UNL A   1      46.898  26.190  34.867  1.00  0.00     0.022 A 
BRANCH  86  90
ATOM     90  S   UNL A   1      45.332  24.392  36.313  1.00  0.00     0.124 S 
ATOM     91  O   UNL A   1      46.265  23.396  35.796  1.00  0.00    -0.237 OA
ATOM     92  O   UNL A   1      45.672  24.975  37.607  1.00  0.00    -0.237 OA
ATOM     93  O   UNL A   1      43.918  24.069  36.132  1.00  0.00    -0.744 OA
ENDBRANCH  86  90
ENDBRANCH  60  83
ENDBRANCH  34  35
ENDBRANCH  26  29
ENDBRANCH  24  25
ENDBRANCH  23  24
ENDBRANCH  22  23
ENDBRANCH   1  22
TORSDOF 19
ENDMDL
