MODEL 1
REMARK VINA RESULT:     -11.2      0.000      0.000
REMARK SMILES O=C(CS(=O)(=O)NCc1ccc(N2CCOCC2)nc1)NCCCCNC(=O)c1ccc(-c2c3nc(c(-c4cc(S(=O)(=O)[O-])ccc4F)c4ccc([nH]4)c(-c4cc(S(=O)(=O)[O-])ccc4F)c4nc(c(-c5cc(S(=O)(=O)[O-])ccc5F)c5ccc2[nH]5)C=C4)C=C3)cc1
REMARK SMILES IDX 22 1 21 2 1 3 2 4 3 6 4 7 5 8 6 9 7 10 8 12 9 13 10 14 20 15
REMARK SMILES IDX 11 16 19 17 12 18 13 19 14 20 18 21 15 22 17 23 16 24 23 25
REMARK SMILES IDX 24 26 25 27 26 28 27 29 28 31 29 32 30 33 91 34 31 35 90 36
REMARK SMILES IDX 32 37 33 38 34 39 84 40 35 41 89 42 83 43 85 44 36 45 88 46
REMARK SMILES IDX 82 47 81 48 37 50 69 51 49 52 68 53 50 54 53 55 67 56 86 57
REMARK SMILES IDX 51 58 52 59 66 61 87 62 54 63 38 64 39 65 47 66 40 67 46 68
REMARK SMILES IDX 48 69 45 70 41 71 42 72 43 73 44 74 70 75 71 76 79 77 72 78
REMARK SMILES IDX 78 79 80 80 77 81 73 82 74 83 75 84 76 85 55 86 56 87 64 88
REMARK SMILES IDX 57 89 63 90 65 91 62 92 58 93 59 94 60 95 61 96
REMARK H PARENT 21 5 7 11 26 30 85 49 53 60
REMARK Flexibility Score: inf
ROOT
ATOM      1  C   UNL A   1      35.443  24.293  24.753  1.00  0.00     0.116 C 
ENDROOT
BRANCH   1   2
ATOM      2  N   UNL A   1      34.376  25.229  24.440  1.00  0.00    -0.355 N 
ATOM      3  O   UNL A   1      33.155  24.818  26.331  1.00  0.00    -0.274 OA
ATOM      4  C   UNL A   1      33.315  25.456  25.289  1.00  0.00     0.236 C 
ATOM      5  H   UNL A   1      34.413  25.721  23.588  1.00  0.00     0.163 HD
BRANCH   4   6
ATOM      6  C   UNL A   1      32.309  26.481  24.872  1.00  0.00     0.253 C 
BRANCH   6   7
ATOM      7  S   UNL A   1      30.651  25.973  25.203  1.00  0.00     0.220 S 
ATOM      8  O   UNL A   1      30.394  26.210  26.603  1.00  0.00    -0.212 OA
ATOM      9  O   UNL A   1      29.803  26.592  24.201  1.00  0.00    -0.212 OA
BRANCH   7  10
ATOM     10  N   UNL A   1      30.552  24.343  24.863  1.00  0.00    -0.210 NA
ATOM     11  H   UNL A   1      29.554  24.137  24.811  1.00  0.00     0.141 HD
BRANCH  10  12
ATOM     12  C   UNL A   1      31.150  23.687  23.690  1.00  0.00     0.135 C 
BRANCH  12  13
ATOM     13  C   UNL A   1      31.653  22.283  23.854  1.00  0.00    -0.015 A 
ATOM     14  C   UNL A   1      32.050  21.491  22.789  1.00  0.00     0.010 A 
ATOM     15  C   UNL A   1      31.755  21.702  25.115  1.00  0.00     0.118 A 
ATOM     16  C   UNL A   1      32.419  20.170  23.009  1.00  0.00     0.047 A 
ATOM     17  N   UNL A   1      32.151  20.423  25.354  1.00  0.00    -0.239 NA
ATOM     18  C   UNL A   1      32.501  19.655  24.301  1.00  0.00     0.128 A 
BRANCH  18  19
ATOM     19  N   UNL A   1      32.908  18.348  24.487  1.00  0.00    -0.352 N 
ATOM     20  C   UNL A   1      34.143  17.884  23.832  1.00  0.00     0.146 C 
ATOM     21  C   UNL A   1      32.619  17.645  25.745  1.00  0.00     0.146 C 
ATOM     22  C   UNL A   1      34.016  16.385  23.571  1.00  0.00     0.181 C 
ATOM     23  C   UNL A   1      32.695  16.121  25.508  1.00  0.00     0.181 C 
ATOM     24  O   UNL A   1      33.882  15.697  24.824  1.00  0.00    -0.378 OA
ENDBRANCH  18  19
ENDBRANCH  12  13
ENDBRANCH  10  12
ENDBRANCH   7  10
ENDBRANCH   6   7
ENDBRANCH   4   6
ENDBRANCH   1   2
BRANCH   1  25
ATOM     25  C   UNL A   1      35.446  23.068  23.844  1.00  0.00     0.023 C 
BRANCH  25  26
ATOM     26  C   UNL A   1      36.190  21.853  24.400  1.00  0.00     0.023 C 
BRANCH  26  27
ATOM     27  C   UNL A   1      36.745  21.992  25.814  1.00  0.00     0.116 C 
BRANCH  27  28
ATOM     28  N   UNL A   1      37.886  21.131  26.067  1.00  0.00    -0.352 N 
ATOM     29  C   UNL A   1      39.208  21.389  26.340  1.00  0.00     0.251 C 
ATOM     30  H   UNL A   1      37.670  20.171  26.036  1.00  0.00     0.163 HD
ATOM     31  O   UNL A   1      39.966  20.417  26.391  1.00  0.00    -0.269 OA
BRANCH  29  32
ATOM     32  C   UNL A   1      39.766  22.753  26.590  1.00  0.00     0.039 A 
ATOM     33  C   UNL A   1      40.677  22.909  27.651  1.00  0.00     0.014 A 
ATOM     34  C   UNL A   1      39.352  23.896  25.906  1.00  0.00     0.014 A 
ATOM     35  C   UNL A   1      41.163  24.177  28.010  1.00  0.00     0.010 A 
ATOM     36  C   UNL A   1      39.866  25.152  26.227  1.00  0.00     0.010 A 
ATOM     37  C   UNL A   1      40.758  25.304  27.291  1.00  0.00    -0.014 A 
BRANCH  37  38
ATOM     38  C   UNL A   1      41.314  26.654  27.519  1.00  0.00     0.031 A 
ATOM     39  C   UNL A   1      42.750  26.971  27.220  1.00  0.00     0.074 A 
ATOM     40  C   UNL A   1      40.545  27.509  28.216  1.00  0.00     0.049 A 
ATOM     41  N   UNL A   1      43.436  28.048  27.506  1.00  0.00    -0.248 NA
ATOM     42  C   UNL A   1      43.528  25.924  26.546  1.00  0.00     0.031 C 
ATOM     43  C   UNL A   1      39.167  27.238  28.634  1.00  0.00     0.029 A 
ATOM     44  N   UNL A   1      40.823  28.738  28.744  1.00  0.00    -0.354 N 
ATOM     45  C   UNL A   1      44.729  27.811  27.050  1.00  0.00     0.074 A 
ATOM     46  C   UNL A   1      44.740  26.464  26.518  1.00  0.00     0.031 C 
ATOM     47  C   UNL A   1      38.729  28.262  29.379  1.00  0.00     0.029 A 
ATOM     48  C   UNL A   1      39.795  29.249  29.498  1.00  0.00     0.049 A 
ATOM     49  H   UNL A   1      41.675  29.211  28.600  1.00  0.00     0.167 HD
ATOM     50  C   UNL A   1      45.795  28.654  27.070  1.00  0.00     0.034 A 
ATOM     51  C   UNL A   1      39.723  30.388  30.211  1.00  0.00     0.034 A 
ATOM     52  C   UNL A   1      45.735  29.991  27.623  1.00  0.00     0.049 A 
ATOM     53  C   UNL A   1      40.903  31.318  30.193  1.00  0.00     0.074 A 
ATOM     54  C   UNL A   1      46.703  30.980  27.597  1.00  0.00     0.029 A 
ATOM     55  N   UNL A   1      44.655  30.517  28.323  1.00  0.00    -0.354 N 
ATOM     56  N   UNL A   1      42.086  31.142  29.649  1.00  0.00    -0.248 NA
ATOM     57  C   UNL A   1      40.727  32.615  30.854  1.00  0.00     0.031 C 
ATOM     58  C   UNL A   1      46.242  32.068  28.348  1.00  0.00     0.029 A 
ATOM     59  C   UNL A   1      44.949  31.799  28.766  1.00  0.00     0.049 A 
ATOM     60  H   UNL A   1      43.805  30.047  28.482  1.00  0.00     0.167 HD
ATOM     61  C   UNL A   1      42.781  32.327  29.865  1.00  0.00     0.074 A 
ATOM     62  C   UNL A   1      41.878  33.209  30.578  1.00  0.00     0.031 C 
ATOM     63  C   UNL A   1      44.046  32.658  29.500  1.00  0.00     0.034 A 
BRANCH  50  64
ATOM     64  C   UNL A   1      47.109  28.168  26.492  1.00  0.00     0.023 A 
ATOM     65  C   UNL A   1      47.322  28.072  25.104  1.00  0.00     0.031 A 
ATOM     66  C   UNL A   1      48.185  27.835  27.337  1.00  0.00     0.131 A 
ATOM     67  C   UNL A   1      48.550  27.605  24.607  1.00  0.00     0.055 A 
ATOM     68  C   UNL A   1      49.430  27.446  26.835  1.00  0.00     0.041 A 
ATOM     69  F   UNL A   1      48.047  27.886  28.672  1.00  0.00    -0.206 F 
ATOM     70  C   UNL A   1      49.615  27.319  25.462  1.00  0.00     0.022 A 
BRANCH  67  71
ATOM     71  S   UNL A   1      48.702  27.271  22.830  1.00  0.00     0.124 S 
ATOM     72  O   UNL A   1      47.708  28.182  22.268  1.00  0.00    -0.237 OA
ATOM     73  O   UNL A   1      50.096  27.606  22.565  1.00  0.00    -0.237 OA
ATOM     74  O   UNL A   1      48.370  25.853  22.718  1.00  0.00    -0.744 OA
ENDBRANCH  67  71
ENDBRANCH  50  64
BRANCH  51  75
ATOM     75  C   UNL A   1      38.468  30.729  30.927  1.00  0.00     0.023 A 
ATOM     76  C   UNL A   1      37.451  31.435  30.269  1.00  0.00     0.031 A 
ATOM     77  C   UNL A   1      38.251  30.341  32.260  1.00  0.00     0.131 A 
ATOM     78  C   UNL A   1      36.279  31.774  30.957  1.00  0.00     0.055 A 
ATOM     79  C   UNL A   1      37.059  30.633  32.924  1.00  0.00     0.041 A 
ATOM     80  F   UNL A   1      39.186  29.644  32.926  1.00  0.00    -0.206 F 
ATOM     81  C   UNL A   1      36.068  31.366  32.276  1.00  0.00     0.022 A 
BRANCH  78  82
ATOM     82  S   UNL A   1      35.069  32.830  30.119  1.00  0.00     0.124 S 
ATOM     83  O   UNL A   1      34.544  31.929  29.099  1.00  0.00    -0.237 OA
ATOM     84  O   UNL A   1      34.159  33.167  31.209  1.00  0.00    -0.237 OA
ATOM     85  O   UNL A   1      35.877  33.939  29.618  1.00  0.00    -0.744 OA
ENDBRANCH  78  82
ENDBRANCH  51  75
BRANCH  63  86
ATOM     86  C   UNL A   1      44.503  34.056  29.840  1.00  0.00     0.023 A 
ATOM     87  C   UNL A   1      44.311  35.133  28.956  1.00  0.00     0.031 A 
ATOM     88  C   UNL A   1      45.172  34.308  31.051  1.00  0.00     0.131 A 
ATOM     89  C   UNL A   1      44.846  36.392  29.261  1.00  0.00     0.055 A 
ATOM     90  C   UNL A   1      45.636  35.582  31.383  1.00  0.00     0.041 A 
ATOM     91  F   UNL A   1      45.391  33.318  31.931  1.00  0.00    -0.206 F 
ATOM     92  C   UNL A   1      45.490  36.629  30.478  1.00  0.00     0.022 A 
BRANCH  89  93
ATOM     93  S   UNL A   1      44.795  37.688  27.993  1.00  0.00     0.124 S 
ATOM     94  O   UNL A   1      46.098  37.535  27.353  1.00  0.00    -0.237 OA
ATOM     95  O   UNL A   1      43.641  37.294  27.192  1.00  0.00    -0.237 OA
ATOM     96  O   UNL A   1      44.625  38.917  28.765  1.00  0.00    -0.744 OA
ENDBRANCH  89  93
ENDBRANCH  63  86
ENDBRANCH  37  38
ENDBRANCH  29  32
ENDBRANCH  27  28
ENDBRANCH  26  27
ENDBRANCH  25  26
ENDBRANCH   1  25
TORSDOF 19
ENDMDL
MODEL 2
REMARK VINA RESULT:     -11.2      2.190      4.707
REMARK SMILES O=C(CS(=O)(=O)NCc1ccc(N2CCOCC2)nc1)NCCCCNC(=O)c1ccc(-c2c3nc(c(-c4cc(S(=O)(=O)[O-])ccc4F)c4ccc([nH]4)c(-c4cc(S(=O)(=O)[O-])ccc4F)c4nc(c(-c5cc(S(=O)(=O)[O-])ccc5F)c5ccc2[nH]5)C=C4)C=C3)cc1
REMARK SMILES IDX 22 1 21 2 1 3 2 4 3 6 4 7 5 8 6 9 7 10 8 12 9 13 10 14 20 15
REMARK SMILES IDX 11 16 19 17 12 18 13 19 14 20 18 21 15 22 17 23 16 24 23 25
REMARK SMILES IDX 24 26 25 27 26 28 27 29 28 31 29 32 30 33 91 34 31 35 90 36
REMARK SMILES IDX 32 37 33 38 34 39 84 40 35 41 89 42 83 43 85 44 36 45 88 46
REMARK SMILES IDX 82 47 81 48 37 50 69 51 49 52 68 53 50 54 53 55 67 56 86 57
REMARK SMILES IDX 51 58 52 59 66 61 87 62 54 63 38 64 39 65 47 66 40 67 46 68
REMARK SMILES IDX 48 69 45 70 41 71 42 72 43 73 44 74 70 75 71 76 79 77 72 78
REMARK SMILES IDX 78 79 80 80 77 81 73 82 74 83 75 84 76 85 55 86 56 87 64 88
REMARK SMILES IDX 57 89 63 90 65 91 62 92 58 93 59 94 60 95 61 96
REMARK H PARENT 21 5 7 11 26 30 85 49 53 60
REMARK Flexibility Score: inf
ROOT
ATOM      1  C   UNL A   1      34.363  21.878  24.068  1.00  0.00     0.116 C 
ENDROOT
BRANCH   1   2
ATOM      2  N   UNL A   1      33.434  22.619  24.906  1.00  0.00    -0.355 N 
ATOM      3  O   UNL A   1      33.957  21.520  26.844  1.00  0.00    -0.274 OA
ATOM      4  C   UNL A   1      33.331  22.409  26.264  1.00  0.00     0.236 C 
ATOM      5  H   UNL A   1      32.857  23.298  24.487  1.00  0.00     0.163 HD
BRANCH   4   6
ATOM      6  C   UNL A   1      32.372  23.271  27.021  1.00  0.00     0.253 C 
BRANCH   6   7
ATOM      7  S   UNL A   1      30.933  23.667  26.079  1.00  0.00     0.220 S 
ATOM      8  O   UNL A   1      30.468  22.448  25.462  1.00  0.00    -0.212 OA
ATOM      9  O   UNL A   1      30.043  24.418  26.947  1.00  0.00    -0.212 OA
BRANCH   7  10
ATOM     10  N   UNL A   1      31.387  24.771  24.914  1.00  0.00    -0.210 NA
ATOM     11  H   UNL A   1      30.568  24.887  24.317  1.00  0.00     0.141 HD
BRANCH  10  12
ATOM     12  C   UNL A   1      31.872  26.133  25.185  1.00  0.00     0.135 C 
BRANCH  12  13
ATOM     13  C   UNL A   1      31.112  27.278  24.584  1.00  0.00    -0.015 A 
ATOM     14  C   UNL A   1      30.031  27.108  23.735  1.00  0.00     0.010 A 
ATOM     15  C   UNL A   1      31.462  28.596  24.866  1.00  0.00     0.118 A 
ATOM     16  C   UNL A   1      29.433  28.215  23.146  1.00  0.00     0.047 A 
ATOM     17  N   UNL A   1      30.864  29.693  24.329  1.00  0.00    -0.239 NA
ATOM     18  C   UNL A   1      29.834  29.508  23.477  1.00  0.00     0.128 A 
BRANCH  18  19
ATOM     19  N   UNL A   1      29.193  30.586  22.900  1.00  0.00    -0.352 N 
ATOM     20  C   UNL A   1      28.201  30.344  21.839  1.00  0.00     0.146 C 
ATOM     21  C   UNL A   1      28.922  31.802  23.680  1.00  0.00     0.146 C 
ATOM     22  C   UNL A   1      28.177  31.559  20.914  1.00  0.00     0.181 C 
ATOM     23  C   UNL A   1      28.698  32.989  22.717  1.00  0.00     0.181 C 
ATOM     24  O   UNL A   1      27.767  32.713  21.662  1.00  0.00    -0.378 OA
ENDBRANCH  18  19
ENDBRANCH  12  13
ENDBRANCH  10  12
ENDBRANCH   7  10
ENDBRANCH   6   7
ENDBRANCH   4   6
ENDBRANCH   1   2
BRANCH   1  25
ATOM     25  C   UNL A   1      35.586  22.697  23.667  1.00  0.00     0.023 C 
BRANCH  25  26
ATOM     26  C   UNL A   1      36.924  22.141  24.154  1.00  0.00     0.023 C 
BRANCH  26  27
ATOM     27  C   UNL A   1      37.106  22.052  25.666  1.00  0.00     0.116 C 
BRANCH  27  28
ATOM     28  N   UNL A   1      38.218  21.204  26.058  1.00  0.00    -0.352 N 
ATOM     29  C   UNL A   1      39.507  21.477  26.450  1.00  0.00     0.251 C 
ATOM     30  H   UNL A   1      38.006  20.243  26.039  1.00  0.00     0.163 HD
ATOM     31  O   UNL A   1      40.257  20.511  26.609  1.00  0.00    -0.269 OA
BRANCH  29  32
ATOM     32  C   UNL A   1      40.035  22.851  26.707  1.00  0.00     0.039 A 
ATOM     33  C   UNL A   1      40.870  23.039  27.826  1.00  0.00     0.014 A 
ATOM     34  C   UNL A   1      39.662  23.976  25.971  1.00  0.00     0.014 A 
ATOM     35  C   UNL A   1      41.320  24.319  28.188  1.00  0.00     0.010 A 
ATOM     36  C   UNL A   1      40.144  25.243  26.298  1.00  0.00     0.010 A 
ATOM     37  C   UNL A   1      40.958  25.426  27.418  1.00  0.00    -0.014 A 
BRANCH  37  38
ATOM     38  C   UNL A   1      41.487  26.786  27.653  1.00  0.00     0.031 A 
ATOM     39  C   UNL A   1      42.925  27.123  27.391  1.00  0.00     0.074 A 
ATOM     40  C   UNL A   1      40.686  27.632  28.324  1.00  0.00     0.049 A 
ATOM     41  N   UNL A   1      43.587  28.212  27.690  1.00  0.00    -0.248 NA
ATOM     42  C   UNL A   1      43.737  26.085  26.745  1.00  0.00     0.031 C 
ATOM     43  C   UNL A   1      39.302  27.342  28.706  1.00  0.00     0.029 A 
ATOM     44  N   UNL A   1      40.932  28.869  28.853  1.00  0.00    -0.354 N 
ATOM     45  C   UNL A   1      44.896  27.993  27.271  1.00  0.00     0.074 A 
ATOM     46  C   UNL A   1      44.941  26.643  26.746  1.00  0.00     0.031 C 
ATOM     47  C   UNL A   1      38.828  28.364  29.433  1.00  0.00     0.029 A 
ATOM     48  C   UNL A   1      39.875  29.367  29.575  1.00  0.00     0.049 A 
ATOM     49  H   UNL A   1      41.779  29.354  28.729  1.00  0.00     0.167 HD
ATOM     50  C   UNL A   1      45.948  28.851  27.314  1.00  0.00     0.034 A 
ATOM     51  C   UNL A   1      39.767  30.509  30.279  1.00  0.00     0.034 A 
ATOM     52  C   UNL A   1      45.852  30.190  27.858  1.00  0.00     0.049 A 
ATOM     53  C   UNL A   1      40.932  31.457  30.289  1.00  0.00     0.074 A 
ATOM     54  C   UNL A   1      46.806  31.195  27.853  1.00  0.00     0.029 A 
ATOM     55  N   UNL A   1      44.746  30.703  28.525  1.00  0.00    -0.354 N 
ATOM     56  N   UNL A   1      42.132  31.296  29.777  1.00  0.00    -0.248 NA
ATOM     57  C   UNL A   1      40.719  32.755  30.936  1.00  0.00     0.031 C 
ATOM     58  C   UNL A   1      46.308  32.279  28.584  1.00  0.00     0.029 A 
ATOM     59  C   UNL A   1      45.007  31.992  28.969  1.00  0.00     0.049 A 
ATOM     60  H   UNL A   1      43.899  30.222  28.664  1.00  0.00     0.167 HD
ATOM     61  C   UNL A   1      42.803  32.492  30.006  1.00  0.00     0.074 A 
ATOM     62  C   UNL A   1      41.867  33.365  30.689  1.00  0.00     0.031 C 
ATOM     63  C   UNL A   1      44.073  32.842  29.673  1.00  0.00     0.034 A 
BRANCH  50  64
ATOM     64  C   UNL A   1      47.284  28.383  26.775  1.00  0.00     0.023 A 
ATOM     65  C   UNL A   1      47.496  28.160  25.402  1.00  0.00     0.031 A 
ATOM     66  C   UNL A   1      48.380  28.195  27.638  1.00  0.00     0.131 A 
ATOM     67  C   UNL A   1      48.746  27.714  24.942  1.00  0.00     0.055 A 
ATOM     68  C   UNL A   1      49.643  27.827  27.165  1.00  0.00     0.041 A 
ATOM     69  F   UNL A   1      48.245  28.372  28.963  1.00  0.00    -0.206 F 
ATOM     70  C   UNL A   1      49.829  27.573  25.811  1.00  0.00     0.022 A 
BRANCH  67  71
ATOM     71  S   UNL A   1      48.909  27.213  23.205  1.00  0.00     0.124 S 
ATOM     72  O   UNL A   1      48.292  25.889  23.217  1.00  0.00    -0.237 OA
ATOM     73  O   UNL A   1      48.168  28.256  22.506  1.00  0.00    -0.237 OA
ATOM     74  O   UNL A   1      50.352  27.217  22.981  1.00  0.00    -0.744 OA
ENDBRANCH  67  71
ENDBRANCH  50  64
BRANCH  51  75
ATOM     75  C   UNL A   1      38.488  30.834  30.959  1.00  0.00     0.023 A 
ATOM     76  C   UNL A   1      37.478  31.518  30.269  1.00  0.00     0.031 A 
ATOM     77  C   UNL A   1      38.242  30.452  32.289  1.00  0.00     0.131 A 
ATOM     78  C   UNL A   1      36.282  31.843  30.923  1.00  0.00     0.055 A 
ATOM     79  C   UNL A   1      37.028  30.729  32.919  1.00  0.00     0.041 A 
ATOM     80  F   UNL A   1      39.170  29.775  32.985  1.00  0.00    -0.206 F 
ATOM     81  C   UNL A   1      36.043  31.441  32.239  1.00  0.00     0.022 A 
BRANCH  78  82
ATOM     82  S   UNL A   1      35.078  32.873  30.045  1.00  0.00     0.124 S 
ATOM     83  O   UNL A   1      34.621  31.968  28.997  1.00  0.00    -0.237 OA
ATOM     84  O   UNL A   1      34.114  33.173  31.100  1.00  0.00    -0.237 OA
ATOM     85  O   UNL A   1      35.873  34.009  29.588  1.00  0.00    -0.744 OA
ENDBRANCH  78  82
ENDBRANCH  51  75
BRANCH  63  86
ATOM     86  C   UNL A   1      44.499  34.248  30.017  1.00  0.00     0.023 A 
ATOM     87  C   UNL A   1      44.402  35.299  29.088  1.00  0.00     0.031 A 
ATOM     88  C   UNL A   1      45.043  34.534  31.283  1.00  0.00     0.131 A 
ATOM     89  C   UNL A   1      44.908  36.566  29.410  1.00  0.00     0.055 A 
ATOM     90  C   UNL A   1      45.476  35.816  31.623  1.00  0.00     0.041 A 
ATOM     91  F   UNL A   1      45.166  33.570  32.208  1.00  0.00    -0.206 F 
ATOM     92  C   UNL A   1      45.427  36.837  30.678  1.00  0.00     0.022 A 
BRANCH  89  93
ATOM     93  S   UNL A   1      44.992  37.824  28.106  1.00  0.00     0.124 S 
ATOM     94  O   UNL A   1      43.795  38.615  28.372  1.00  0.00    -0.237 OA
ATOM     95  O   UNL A   1      46.265  38.481  28.389  1.00  0.00    -0.237 OA
ATOM     96  O   UNL A   1      44.958  37.043  26.872  1.00  0.00    -0.744 OA
ENDBRANCH  89  93
ENDBRANCH  63  86
ENDBRANCH  37  38
ENDBRANCH  29  32
ENDBRANCH  27  28
ENDBRANCH  26  27
ENDBRANCH  25  26
ENDBRANCH   1  25
TORSDOF 19
ENDMDL
MODEL 3
REMARK VINA RESULT:     -11.2      2.237      8.775
REMARK SMILES O=C(CS(=O)(=O)NCc1ccc(N2CCOCC2)nc1)NCCCCNC(=O)c1ccc(-c2c3nc(c(-c4cc(S(=O)(=O)[O-])ccc4F)c4ccc([nH]4)c(-c4cc(S(=O)(=O)[O-])ccc4F)c4nc(c(-c5cc(S(=O)(=O)[O-])ccc5F)c5ccc2[nH]5)C=C4)C=C3)cc1
REMARK SMILES IDX 22 1 21 2 1 3 2 4 3 6 4 7 5 8 6 9 7 10 8 12 9 13 10 14 20 15
REMARK SMILES IDX 11 16 19 17 12 18 13 19 14 20 18 21 15 22 17 23 16 24 23 25
REMARK SMILES IDX 24 26 25 27 26 28 27 29 28 31 29 32 30 33 91 34 31 35 90 36
REMARK SMILES IDX 32 37 33 38 34 39 84 40 35 41 89 42 83 43 85 44 36 45 88 46
REMARK SMILES IDX 82 47 81 48 37 50 69 51 49 52 68 53 50 54 53 55 67 56 86 57
REMARK SMILES IDX 51 58 52 59 66 61 87 62 54 63 38 64 39 65 47 66 40 67 46 68
REMARK SMILES IDX 48 69 45 70 41 71 42 72 43 73 44 74 70 75 71 76 79 77 72 78
REMARK SMILES IDX 78 79 80 80 77 81 73 82 74 83 75 84 76 85 55 86 56 87 64 88
REMARK SMILES IDX 57 89 63 90 65 91 62 92 58 93 59 94 60 95 61 96
REMARK H PARENT 21 5 7 11 26 30 85 49 53 60
REMARK Flexibility Score: inf
ROOT
ATOM      1  C   UNL A   1      34.574  20.798  25.002  1.00  0.00     0.116 C 
ENDROOT
BRANCH   1   2
ATOM      2  N   UNL A   1      33.497  21.774  24.999  1.00  0.00    -0.355 N 
ATOM      3  O   UNL A   1      31.808  20.246  25.215  1.00  0.00    -0.274 OA
ATOM      4  C   UNL A   1      32.174  21.420  25.152  1.00  0.00     0.236 C 
ATOM      5  H   UNL A   1      33.722  22.726  24.885  1.00  0.00     0.163 HD
BRANCH   4   6
ATOM      6  C   UNL A   1      31.167  22.525  25.182  1.00  0.00     0.253 C 
BRANCH   6   7
ATOM      7  S   UNL A   1      31.543  23.747  26.398  1.00  0.00     0.220 S 
ATOM      8  O   UNL A   1      30.291  24.239  26.922  1.00  0.00    -0.212 OA
ATOM      9  O   UNL A   1      32.523  23.171  27.300  1.00  0.00    -0.212 OA
BRANCH   7  10
ATOM     10  N   UNL A   1      32.373  24.975  25.632  1.00  0.00    -0.210 NA
ATOM     11  H   UNL A   1      32.016  24.989  24.677  1.00  0.00     0.141 HD
BRANCH  10  12
ATOM     12  C   UNL A   1      32.392  26.381  26.065  1.00  0.00     0.135 C 
BRANCH  12  13
ATOM     13  C   UNL A   1      31.552  27.359  25.299  1.00  0.00    -0.015 A 
ATOM     14  C   UNL A   1      30.539  26.976  24.435  1.00  0.00     0.010 A 
ATOM     15  C   UNL A   1      31.750  28.731  25.432  1.00  0.00     0.118 A 
ATOM     16  C   UNL A   1      29.864  27.935  23.692  1.00  0.00     0.047 A 
ATOM     17  N   UNL A   1      31.073  29.687  24.742  1.00  0.00    -0.239 NA
ATOM     18  C   UNL A   1      30.113  29.293  23.879  1.00  0.00     0.128 A 
BRANCH  18  19
ATOM     19  N   UNL A   1      29.397  30.222  23.149  1.00  0.00    -0.352 N 
ATOM     20  C   UNL A   1      28.434  29.749  22.139  1.00  0.00     0.146 C 
ATOM     21  C   UNL A   1      29.027  31.516  23.739  1.00  0.00     0.146 C 
ATOM     22  C   UNL A   1      28.326  30.807  21.043  1.00  0.00     0.181 C 
ATOM     23  C   UNL A   1      28.722  32.525  22.611  1.00  0.00     0.181 C 
ATOM     24  O   UNL A   1      27.824  32.025  21.612  1.00  0.00    -0.378 OA
ENDBRANCH  18  19
ENDBRANCH  12  13
ENDBRANCH  10  12
ENDBRANCH   7  10
ENDBRANCH   6   7
ENDBRANCH   4   6
ENDBRANCH   1   2
BRANCH   1  25
ATOM     25  C   UNL A   1      35.946  21.425  24.776  1.00  0.00     0.023 C 
BRANCH  25  26
ATOM     26  C   UNL A   1      37.129  20.474  24.964  1.00  0.00     0.023 C 
BRANCH  26  27
ATOM     27  C   UNL A   1      38.485  21.128  25.211  1.00  0.00     0.116 C 
BRANCH  27  28
ATOM     28  N   UNL A   1      39.424  20.254  25.892  1.00  0.00    -0.352 N 
ATOM     29  C   UNL A   1      40.571  20.495  26.611  1.00  0.00     0.251 C 
ATOM     30  H   UNL A   1      39.194  19.300  25.824  1.00  0.00     0.163 HD
ATOM     31  O   UNL A   1      41.219  19.510  26.971  1.00  0.00    -0.269 OA
BRANCH  29  32
ATOM     32  C   UNL A   1      41.057  21.856  26.989  1.00  0.00     0.039 A 
ATOM     33  C   UNL A   1      41.707  22.004  28.230  1.00  0.00     0.014 A 
ATOM     34  C   UNL A   1      40.807  23.005  26.239  1.00  0.00     0.014 A 
ATOM     35  C   UNL A   1      42.100  23.269  28.697  1.00  0.00     0.010 A 
ATOM     36  C   UNL A   1      41.235  24.258  26.675  1.00  0.00     0.010 A 
ATOM     37  C   UNL A   1      41.866  24.402  27.914  1.00  0.00    -0.014 A 
BRANCH  37  38
ATOM     38  C   UNL A   1      42.356  25.749  28.270  1.00  0.00     0.031 A 
ATOM     39  C   UNL A   1      41.433  26.800  28.813  1.00  0.00     0.074 A 
ATOM     40  C   UNL A   1      43.603  26.058  27.872  1.00  0.00     0.049 A 
ATOM     41  N   UNL A   1      41.663  28.071  29.027  1.00  0.00    -0.248 NA
ATOM     42  C   UNL A   1      40.061  26.377  29.118  1.00  0.00     0.031 C 
ATOM     43  C   UNL A   1      44.532  25.117  27.243  1.00  0.00     0.029 A 
ATOM     44  N   UNL A   1      44.277  27.247  27.878  1.00  0.00    -0.354 N 
ATOM     45  C   UNL A   1      40.463  28.604  29.491  1.00  0.00     0.074 A 
ATOM     46  C   UNL A   1      39.497  27.525  29.473  1.00  0.00     0.031 C 
ATOM     47  C   UNL A   1      45.649  25.772  26.899  1.00  0.00     0.029 A 
ATOM     48  C   UNL A   1      45.507  27.174  27.271  1.00  0.00     0.049 A 
ATOM     49  H   UNL A   1      43.918  28.072  28.277  1.00  0.00     0.167 HD
ATOM     50  C   UNL A   1      40.211  29.875  29.900  1.00  0.00     0.034 A 
ATOM     51  C   UNL A   1      46.418  28.137  27.038  1.00  0.00     0.034 A 
ATOM     52  C   UNL A   1      41.211  30.922  29.889  1.00  0.00     0.049 A 
ATOM     53  C   UNL A   1      46.130  29.528  27.527  1.00  0.00     0.074 A 
ATOM     54  C   UNL A   1      41.118  32.211  30.386  1.00  0.00     0.029 A 
ATOM     55  N   UNL A   1      42.480  30.807  29.332  1.00  0.00    -0.354 N 
ATOM     56  N   UNL A   1      45.036  29.998  28.083  1.00  0.00    -0.248 NA
ATOM     57  C   UNL A   1      47.210  30.510  27.390  1.00  0.00     0.031 C 
ATOM     58  C   UNL A   1      42.293  32.896  30.059  1.00  0.00     0.029 A 
ATOM     59  C   UNL A   1      43.161  32.012  29.438  1.00  0.00     0.049 A 
ATOM     60  H   UNL A   1      42.842  29.990  28.921  1.00  0.00     0.167 HD
ATOM     61  C   UNL A   1      45.315  31.322  28.403  1.00  0.00     0.074 A 
ATOM     62  C   UNL A   1      46.682  31.567  27.987  1.00  0.00     0.031 C 
ATOM     63  C   UNL A   1      44.517  32.249  28.995  1.00  0.00     0.034 A 
BRANCH  50  64
ATOM     64  C   UNL A   1      38.815  30.212  30.385  1.00  0.00     0.023 A 
ATOM     65  C   UNL A   1      37.838  30.750  29.526  1.00  0.00     0.031 A 
ATOM     66  C   UNL A   1      38.436  29.955  31.716  1.00  0.00     0.131 A 
ATOM     67  C   UNL A   1      36.559  31.061  30.016  1.00  0.00     0.055 A 
ATOM     68  C   UNL A   1      37.139  30.193  32.178  1.00  0.00     0.041 A 
ATOM     69  F   UNL A   1      39.322  29.459  32.596  1.00  0.00    -0.206 F 
ATOM     70  C   UNL A   1      36.194  30.760  31.329  1.00  0.00     0.022 A 
BRANCH  67  71
ATOM     71  S   UNL A   1      35.410  31.968  28.943  1.00  0.00     0.124 S 
ATOM     72  O   UNL A   1      34.599  32.692  29.918  1.00  0.00    -0.237 OA
ATOM     73  O   UNL A   1      36.311  32.780  28.133  1.00  0.00    -0.237 OA
ATOM     74  O   UNL A   1      34.707  30.910  28.222  1.00  0.00    -0.744 OA
ENDBRANCH  67  71
ENDBRANCH  50  64
BRANCH  51  75
ATOM     75  C   UNL A   1      47.701  27.789  26.378  1.00  0.00     0.023 A 
ATOM     76  C   UNL A   1      47.807  27.823  24.981  1.00  0.00     0.031 A 
ATOM     77  C   UNL A   1      48.842  27.443  27.122  1.00  0.00     0.131 A 
ATOM     78  C   UNL A   1      49.014  27.471  24.363  1.00  0.00     0.055 A 
ATOM     79  C   UNL A   1      50.058  27.147  26.505  1.00  0.00     0.041 A 
ATOM     80  F   UNL A   1      48.798  27.418  28.464  1.00  0.00    -0.206 F 
ATOM     81  C   UNL A   1      50.146  27.148  25.115  1.00  0.00     0.022 A 
BRANCH  78  82
ATOM     82  S   UNL A   1      49.053  27.366  22.555  1.00  0.00     0.124 S 
ATOM     83  O   UNL A   1      48.111  28.413  22.177  1.00  0.00    -0.237 OA
ATOM     84  O   UNL A   1      50.459  27.632  22.269  1.00  0.00    -0.237 OA
ATOM     85  O   UNL A   1      48.612  26.000  22.286  1.00  0.00    -0.744 OA
ENDBRANCH  78  82
ENDBRANCH  51  75
BRANCH  63  86
ATOM     86  C   UNL A   1      45.132  33.602  29.256  1.00  0.00     0.023 A 
ATOM     87  C   UNL A   1      45.263  34.564  28.239  1.00  0.00     0.031 A 
ATOM     88  C   UNL A   1      45.626  33.921  30.534  1.00  0.00     0.131 A 
ATOM     89  C   UNL A   1      45.937  35.766  28.496  1.00  0.00     0.055 A 
ATOM     90  C   UNL A   1      46.230  35.150  30.802  1.00  0.00     0.041 A 
ATOM     91  F   UNL A   1      45.536  33.040  31.542  1.00  0.00    -0.206 F 
ATOM     92  C   UNL A   1      46.404  36.075  29.776  1.00  0.00     0.022 A 
BRANCH  89  93
ATOM     93  S   UNL A   1      46.303  36.871  27.105  1.00  0.00     0.124 S 
ATOM     94  O   UNL A   1      45.319  37.932  27.294  1.00  0.00    -0.237 OA
ATOM     95  O   UNL A   1      47.693  37.239  27.358  1.00  0.00    -0.237 OA
ATOM     96  O   UNL A   1      46.088  36.028  25.931  1.00  0.00    -0.744 OA
ENDBRANCH  89  93
ENDBRANCH  63  86
ENDBRANCH  37  38
ENDBRANCH  29  32
ENDBRANCH  27  28
ENDBRANCH  26  27
ENDBRANCH  25  26
ENDBRANCH   1  25
TORSDOF 19
ENDMDL
