MODEL 1
REMARK VINA RESULT:     -12.1      0.000      0.000
REMARK SMILES O=C(NCCCCNC(=O)c1ccc(OC[C@H]2C[C@H]3CC[C@@H]2C3)c(Cl)c1)c1ccc(-c2c3nc(c(-c4cc(S(=O)(=O)[O-])ccc4F)c4ccc([nH]4)c(-c4cc(S(=O)(=O)[O-])ccc4F)c4nc(c(-c5cc(S(=O)(=O)[O-])ccc5F)c5ccc2[nH]5)C=C4)C=C3)cc1
REMARK SMILES IDX 5 1 4 2 3 3 1 4 2 5 27 7 28 8 89 9 29 10 88 11 30 12 31 13
REMARK SMILES IDX 32 14 82 15 33 16 87 17 81 18 83 19 34 20 86 21 80 22 79 23
REMARK SMILES IDX 35 25 67 26 47 27 66 28 48 29 51 30 65 31 84 32 49 33 50 34
REMARK SMILES IDX 64 36 85 37 52 38 36 39 37 40 45 41 38 42 44 43 46 44 43 45
REMARK SMILES IDX 39 46 40 47 41 48 42 49 68 50 69 51 77 52 70 53 76 54 78 55
REMARK SMILES IDX 75 56 71 57 72 58 73 59 74 60 53 61 54 62 62 63 55 64 61 65
REMARK SMILES IDX 63 66 60 67 56 68 57 69 58 70 59 71 6 72 7 73 8 74 9 75
REMARK SMILES IDX 10 77 11 78 12 79 26 80 13 81 24 82 14 83 25 84 15 85 16 86
REMARK SMILES IDX 17 87 18 88 22 89 19 90 21 91 23 92 20 93
REMARK H PARENT 3 6 83 24 51 35 8 76
REMARK Flexibility Score: inf
ROOT
ATOM      1  C   UNL A   1      31.547  31.494  26.614  1.00  0.00     0.023 C 
ENDROOT
BRANCH   1   2
ATOM      2  C   UNL A   1      32.803  32.220  27.083  1.00  0.00     0.116 C 
BRANCH   2   3
ATOM      3  N   UNL A   1      32.545  33.588  27.503  1.00  0.00    -0.352 N 
ATOM      4  O   UNL A   1      32.761  35.420  28.800  1.00  0.00    -0.269 OA
ATOM      5  C   UNL A   1      33.179  34.310  28.486  1.00  0.00     0.251 C 
ATOM      6  H   UNL A   1      31.825  34.057  27.022  1.00  0.00     0.163 HD
BRANCH   5   7
ATOM      7  C   UNL A   1      34.350  33.727  29.176  1.00  0.00     0.039 A 
ATOM      8  C   UNL A   1      34.181  32.748  30.159  1.00  0.00     0.014 A 
ATOM      9  C   UNL A   1      35.631  34.167  28.829  1.00  0.00     0.014 A 
ATOM     10  C   UNL A   1      35.284  32.283  30.867  1.00  0.00     0.010 A 
ATOM     11  C   UNL A   1      36.744  33.650  29.498  1.00  0.00     0.010 A 
ATOM     12  C   UNL A   1      36.577  32.715  30.531  1.00  0.00    -0.014 A 
BRANCH  12  13
ATOM     13  C   UNL A   1      37.748  32.100  31.203  1.00  0.00     0.031 A 
ATOM     14  C   UNL A   1      38.538  31.004  30.545  1.00  0.00     0.074 A 
ATOM     15  C   UNL A   1      38.088  32.552  32.426  1.00  0.00     0.049 A 
ATOM     16  N   UNL A   1      39.578  30.356  31.000  1.00  0.00    -0.248 NA
ATOM     17  C   UNL A   1      38.101  30.576  29.208  1.00  0.00     0.031 C 
ATOM     18  C   UNL A   1      37.375  33.602  33.161  1.00  0.00     0.029 A 
ATOM     19  N   UNL A   1      39.109  32.195  33.267  1.00  0.00    -0.354 N 
ATOM     20  C   UNL A   1      39.913  29.431  30.018  1.00  0.00     0.074 A 
ATOM     21  C   UNL A   1      38.953  29.592  28.946  1.00  0.00     0.031 C 
ATOM     22  C   UNL A   1      37.994  33.819  34.330  1.00  0.00     0.029 A 
ATOM     23  C   UNL A   1      39.107  32.886  34.457  1.00  0.00     0.049 A 
ATOM     24  H   UNL A   1      39.780  31.511  33.042  1.00  0.00     0.167 HD
ATOM     25  C   UNL A   1      40.930  28.534  30.018  1.00  0.00     0.034 A 
ATOM     26  C   UNL A   1      39.893  32.762  35.544  1.00  0.00     0.034 A 
ATOM     27  C   UNL A   1      41.887  28.401  31.091  1.00  0.00     0.049 A 
ATOM     28  C   UNL A   1      40.992  31.736  35.522  1.00  0.00     0.074 A 
ATOM     29  C   UNL A   1      43.003  27.585  31.153  1.00  0.00     0.029 A 
ATOM     30  N   UNL A   1      41.831  29.087  32.298  1.00  0.00    -0.354 N 
ATOM     31  N   UNL A   1      41.326  30.907  34.561  1.00  0.00    -0.248 NA
ATOM     32  C   UNL A   1      41.818  31.629  36.730  1.00  0.00     0.031 C 
ATOM     33  C   UNL A   1      43.584  27.729  32.418  1.00  0.00     0.029 A 
ATOM     34  C   UNL A   1      42.867  28.680  33.126  1.00  0.00     0.049 A 
ATOM     35  H   UNL A   1      41.156  29.763  32.530  1.00  0.00     0.167 HD
ATOM     36  C   UNL A   1      42.407  30.181  35.050  1.00  0.00     0.074 A 
ATOM     37  C   UNL A   1      42.685  30.692  36.377  1.00  0.00     0.031 C 
ATOM     38  C   UNL A   1      43.105  29.179  34.458  1.00  0.00     0.034 A 
BRANCH  25  39
ATOM     39  C   UNL A   1      41.042  27.594  28.845  1.00  0.00     0.023 A 
ATOM     40  C   UNL A   1      42.015  27.761  27.845  1.00  0.00     0.031 A 
ATOM     41  C   UNL A   1      40.173  26.492  28.747  1.00  0.00     0.131 A 
ATOM     42  C   UNL A   1      42.072  26.861  26.769  1.00  0.00     0.055 A 
ATOM     43  C   UNL A   1      40.271  25.569  27.704  1.00  0.00     0.041 A 
ATOM     44  F   UNL A   1      39.215  26.295  29.665  1.00  0.00    -0.206 F 
ATOM     45  C   UNL A   1      41.220  25.753  26.704  1.00  0.00     0.022 A 
BRANCH  42  46
ATOM     46  S   UNL A   1      43.227  27.194  25.412  1.00  0.00     0.124 S 
ATOM     47  O   UNL A   1      42.423  28.049  24.542  1.00  0.00    -0.237 OA
ATOM     48  O   UNL A   1      44.339  27.844  26.094  1.00  0.00    -0.237 OA
ATOM     49  O   UNL A   1      43.517  25.866  24.873  1.00  0.00    -0.744 OA
ENDBRANCH  42  46
ENDBRANCH  25  39
BRANCH  26  50
ATOM     50  C   UNL A   1      39.633  33.585  36.757  1.00  0.00     0.023 A 
ATOM     51  C   UNL A   1      39.015  33.035  37.889  1.00  0.00     0.031 A 
ATOM     52  C   UNL A   1      39.972  34.950  36.785  1.00  0.00     0.131 A 
ATOM     53  C   UNL A   1      38.717  33.855  38.989  1.00  0.00     0.055 A 
ATOM     54  C   UNL A   1      39.720  35.750  37.900  1.00  0.00     0.041 A 
ATOM     55  F   UNL A   1      40.569  35.523  35.728  1.00  0.00    -0.206 F 
ATOM     56  C   UNL A   1      39.076  35.205  39.005  1.00  0.00     0.022 A 
BRANCH  53  57
ATOM     57  S   UNL A   1      37.767  33.152  40.363  1.00  0.00     0.124 S 
ATOM     58  O   UNL A   1      38.508  31.928  40.646  1.00  0.00    -0.237 OA
ATOM     59  O   UNL A   1      37.864  34.207  41.366  1.00  0.00    -0.237 OA
ATOM     60  O   UNL A   1      36.435  32.957  39.792  1.00  0.00    -0.744 OA
ENDBRANCH  53  57
ENDBRANCH  26  50
BRANCH  38  61
ATOM     61  C   UNL A   1      44.237  28.591  35.258  1.00  0.00     0.023 A 
ATOM     62  C   UNL A   1      44.010  27.570  36.197  1.00  0.00     0.031 A 
ATOM     63  C   UNL A   1      45.544  29.082  35.108  1.00  0.00     0.131 A 
ATOM     64  C   UNL A   1      45.068  27.111  36.995  1.00  0.00     0.055 A 
ATOM     65  C   UNL A   1      46.604  28.583  35.867  1.00  0.00     0.041 A 
ATOM     66  F   UNL A   1      45.812  30.058  34.227  1.00  0.00    -0.206 F 
ATOM     67  C   UNL A   1      46.366  27.601  36.826  1.00  0.00     0.022 A 
BRANCH  64  68
ATOM     68  S   UNL A   1      44.708  25.922  38.316  1.00  0.00     0.124 S 
ATOM     69  O   UNL A   1      43.439  26.423  38.836  1.00  0.00    -0.237 OA
ATOM     70  O   UNL A   1      44.645  24.657  37.591  1.00  0.00    -0.237 OA
ATOM     71  O   UNL A   1      45.847  26.060  39.222  1.00  0.00    -0.744 OA
ENDBRANCH  64  68
ENDBRANCH  38  61
ENDBRANCH  12  13
ENDBRANCH   5   7
ENDBRANCH   2   3
ENDBRANCH   1   2
BRANCH   1  72
ATOM     72  C   UNL A   1      31.702  29.986  26.406  1.00  0.00     0.023 C 
BRANCH  72  73
ATOM     73  C   UNL A   1      31.853  29.555  24.949  1.00  0.00     0.116 C 
BRANCH  73  74
ATOM     74  N   UNL A   1      30.749  30.018  24.122  1.00  0.00    -0.352 N 
ATOM     75  C   UNL A   1      29.928  29.270  23.318  1.00  0.00     0.251 C 
ATOM     76  H   UNL A   1      30.569  30.986  24.141  1.00  0.00     0.163 HD
ATOM     77  O   UNL A   1      28.979  29.754  22.713  1.00  0.00    -0.269 OA
BRANCH  75  78
ATOM     78  C   UNL A   1      30.201  27.831  23.214  1.00  0.00     0.041 A 
ATOM     79  C   UNL A   1      29.602  26.964  24.126  1.00  0.00     0.018 A 
ATOM     80  C   UNL A   1      31.154  27.378  22.300  1.00  0.00     0.038 A 
ATOM     81  C   UNL A   1      29.973  25.623  24.123  1.00  0.00     0.049 A 
ATOM     82  C   UNL A   1      31.550  26.039  22.328  1.00  0.00     0.083 A 
ATOM     83  C   UNL A   1      30.931  25.146  23.216  1.00  0.00     0.137 A 
ATOM     84  Cl  UNL A   1      32.900  25.616  21.338  1.00  0.00    -0.080 Cl
BRANCH  83  85
ATOM     85  O   UNL A   1      31.251  23.833  23.405  1.00  0.00    -0.492 OA
BRANCH  85  86
ATOM     86  C   UNL A   1      31.422  23.358  24.745  1.00  0.00     0.233 C 
BRANCH  86  87
ATOM     87  C   UNL A   1      32.848  22.914  25.100  1.00  0.00     0.030 C 
ATOM     88  C   UNL A   1      33.869  23.083  23.947  1.00  0.00     0.011 C 
ATOM     89  C   UNL A   1      33.502  23.761  26.227  1.00  0.00    -0.004 C 
ATOM     90  C   UNL A   1      34.946  23.998  24.555  1.00  0.00    -0.010 C 
ATOM     91  C   UNL A   1      33.419  25.265  25.916  1.00  0.00     0.004 C 
ATOM     92  C   UNL A   1      34.992  23.499  25.997  1.00  0.00     0.007 C 
ATOM     93  C   UNL A   1      34.360  25.414  24.714  1.00  0.00     0.004 C 
ENDBRANCH  86  87
ENDBRANCH  85  86
ENDBRANCH  83  85
ENDBRANCH  75  78
ENDBRANCH  73  74
ENDBRANCH  72  73
ENDBRANCH   1  72
TORSDOF 17
ENDMDL
MODEL 2
REMARK VINA RESULT:     -11.8      5.257      8.496
REMARK SMILES O=C(NCCCCNC(=O)c1ccc(OC[C@H]2C[C@H]3CC[C@@H]2C3)c(Cl)c1)c1ccc(-c2c3nc(c(-c4cc(S(=O)(=O)[O-])ccc4F)c4ccc([nH]4)c(-c4cc(S(=O)(=O)[O-])ccc4F)c4nc(c(-c5cc(S(=O)(=O)[O-])ccc5F)c5ccc2[nH]5)C=C4)C=C3)cc1
REMARK SMILES IDX 5 1 4 2 3 3 1 4 2 5 27 7 28 8 89 9 29 10 88 11 30 12 31 13
REMARK SMILES IDX 32 14 82 15 33 16 87 17 81 18 83 19 34 20 86 21 80 22 79 23
REMARK SMILES IDX 35 25 67 26 47 27 66 28 48 29 51 30 65 31 84 32 49 33 50 34
REMARK SMILES IDX 64 36 85 37 52 38 36 39 37 40 45 41 38 42 44 43 46 44 43 45
REMARK SMILES IDX 39 46 40 47 41 48 42 49 68 50 69 51 77 52 70 53 76 54 78 55
REMARK SMILES IDX 75 56 71 57 72 58 73 59 74 60 53 61 54 62 62 63 55 64 61 65
REMARK SMILES IDX 63 66 60 67 56 68 57 69 58 70 59 71 6 72 7 73 8 74 9 75
REMARK SMILES IDX 10 77 11 78 12 79 26 80 13 81 24 82 14 83 25 84 15 85 16 86
REMARK SMILES IDX 17 87 18 88 22 89 19 90 21 91 23 92 20 93
REMARK H PARENT 3 6 83 24 51 35 8 76
REMARK Flexibility Score: inf
ROOT
ATOM      1  C   UNL A   1      35.286  23.004  26.114  1.00  0.00     0.023 C 
ENDROOT
BRANCH   1   2
ATOM      2  C   UNL A   1      36.688  23.582  25.965  1.00  0.00     0.116 C 
BRANCH   2   3
ATOM      3  N   UNL A   1      37.734  22.580  26.099  1.00  0.00    -0.352 N 
ATOM      4  O   UNL A   1      39.832  21.825  26.434  1.00  0.00    -0.269 OA
ATOM      5  C   UNL A   1      39.040  22.760  26.487  1.00  0.00     0.251 C 
ATOM      6  H   UNL A   1      37.473  21.655  25.884  1.00  0.00     0.163 HD
BRANCH   5   7
ATOM      7  C   UNL A   1      39.485  24.094  26.944  1.00  0.00     0.039 A 
ATOM      8  C   UNL A   1      39.361  24.465  28.286  1.00  0.00     0.014 A 
ATOM      9  C   UNL A   1      40.035  24.981  26.015  1.00  0.00     0.014 A 
ATOM     10  C   UNL A   1      39.691  25.758  28.679  1.00  0.00     0.010 A 
ATOM     11  C   UNL A   1      40.428  26.258  26.425  1.00  0.00     0.010 A 
ATOM     12  C   UNL A   1      40.245  26.660  27.757  1.00  0.00    -0.014 A 
BRANCH  12  13
ATOM     13  C   UNL A   1      40.722  27.983  28.231  1.00  0.00     0.031 A 
ATOM     14  C   UNL A   1      42.183  28.333  28.224  1.00  0.00     0.074 A 
ATOM     15  C   UNL A   1      39.805  28.869  28.668  1.00  0.00     0.049 A 
ATOM     16  N   UNL A   1      42.762  29.439  28.612  1.00  0.00    -0.248 NA
ATOM     17  C   UNL A   1      43.114  27.310  27.725  1.00  0.00     0.031 C 
ATOM     18  C   UNL A   1      38.361  28.620  28.731  1.00  0.00     0.029 A 
ATOM     19  N   UNL A   1      39.941  30.147  29.140  1.00  0.00    -0.354 N 
ATOM     20  C   UNL A   1      44.126  29.244  28.423  1.00  0.00     0.074 A 
ATOM     21  C   UNL A   1      44.288  27.904  27.899  1.00  0.00     0.031 C 
ATOM     22  C   UNL A   1      37.745  29.718  29.190  1.00  0.00     0.029 A 
ATOM     23  C   UNL A   1      38.749  30.725  29.513  1.00  0.00     0.049 A 
ATOM     24  H   UNL A   1      40.808  30.610  29.205  1.00  0.00     0.167 HD
ATOM     25  C   UNL A   1      45.142  30.108  28.666  1.00  0.00     0.034 A 
ATOM     26  C   UNL A   1      38.494  31.919  30.081  1.00  0.00     0.034 A 
ATOM     27  C   UNL A   1      44.956  31.447  29.175  1.00  0.00     0.049 A 
ATOM     28  C   UNL A   1      39.646  32.841  30.366  1.00  0.00     0.074 A 
ATOM     29  C   UNL A   1      45.909  32.431  29.376  1.00  0.00     0.029 A 
ATOM     30  N   UNL A   1      43.742  31.984  29.580  1.00  0.00    -0.354 N 
ATOM     31  N   UNL A   1      40.924  32.658  30.130  1.00  0.00    -0.248 NA
ATOM     32  C   UNL A   1      39.323  34.127  30.993  1.00  0.00     0.031 C 
ATOM     33  C   UNL A   1      45.282  33.537  29.961  1.00  0.00     0.029 A 
ATOM     34  C   UNL A   1      43.928  33.268  30.071  1.00  0.00     0.049 A 
ATOM     35  H   UNL A   1      42.875  31.521  29.527  1.00  0.00     0.167 HD
ATOM     36  C   UNL A   1      41.559  33.812  30.578  1.00  0.00     0.074 A 
ATOM     37  C   UNL A   1      40.518  34.693  31.069  1.00  0.00     0.031 C 
ATOM     38  C   UNL A   1      42.881  34.115  30.587  1.00  0.00     0.034 A 
BRANCH  25  39
ATOM     39  C   UNL A   1      46.551  29.626  28.429  1.00  0.00     0.023 A 
ATOM     40  C   UNL A   1      47.283  28.951  29.419  1.00  0.00     0.031 A 
ATOM     41  C   UNL A   1      47.156  29.824  27.175  1.00  0.00     0.131 A 
ATOM     42  C   UNL A   1      48.596  28.529  29.150  1.00  0.00     0.055 A 
ATOM     43  C   UNL A   1      48.440  29.354  26.896  1.00  0.00     0.041 A 
ATOM     44  F   UNL A   1      46.507  30.479  26.200  1.00  0.00    -0.206 F 
ATOM     45  C   UNL A   1      49.171  28.707  27.887  1.00  0.00     0.022 A 
BRANCH  42  46
ATOM     46  S   UNL A   1      49.574  27.807  30.495  1.00  0.00     0.124 S 
ATOM     47  O   UNL A   1      48.659  26.793  31.015  1.00  0.00    -0.237 OA
ATOM     48  O   UNL A   1      50.751  27.305  29.798  1.00  0.00    -0.237 OA
ATOM     49  O   UNL A   1      49.814  28.937  31.391  1.00  0.00    -0.744 OA
ENDBRANCH  42  46
ENDBRANCH  25  39
BRANCH  26  50
ATOM     50  C   UNL A   1      37.103  32.284  30.470  1.00  0.00     0.023 A 
ATOM     51  C   UNL A   1      36.224  32.879  29.555  1.00  0.00     0.031 A 
ATOM     52  C   UNL A   1      36.646  32.070  31.784  1.00  0.00     0.131 A 
ATOM     53  C   UNL A   1      34.946  33.279  29.973  1.00  0.00     0.055 A 
ATOM     54  C   UNL A   1      35.357  32.422  32.183  1.00  0.00     0.041 A 
ATOM     55  F   UNL A   1      37.448  31.500  32.698  1.00  0.00    -0.206 F 
ATOM     56  C   UNL A   1      34.503  33.043  31.277  1.00  0.00     0.022 A 
BRANCH  53  57
ATOM     57  S   UNL A   1      33.900  34.196  28.812  1.00  0.00     0.124 S 
ATOM     58  O   UNL A   1      34.832  35.186  28.283  1.00  0.00    -0.237 OA
ATOM     59  O   UNL A   1      33.486  33.147  27.886  1.00  0.00    -0.237 OA
ATOM     60  O   UNL A   1      32.837  34.731  29.661  1.00  0.00    -0.744 OA
ENDBRANCH  53  57
ENDBRANCH  26  50
BRANCH  38  61
ATOM     61  C   UNL A   1      43.253  35.465  31.143  1.00  0.00     0.023 A 
ATOM     62  C   UNL A   1      43.425  36.576  30.300  1.00  0.00     0.031 A 
ATOM     63  C   UNL A   1      43.476  35.630  32.520  1.00  0.00     0.131 A 
ATOM     64  C   UNL A   1      43.866  37.794  30.836  1.00  0.00     0.055 A 
ATOM     65  C   UNL A   1      43.862  36.860  33.055  1.00  0.00     0.041 A 
ATOM     66  F   UNL A   1      43.327  34.599  33.366  1.00  0.00    -0.206 F 
ATOM     67  C   UNL A   1      44.071  37.947  32.210  1.00  0.00     0.022 A 
BRANCH  64  68
ATOM     68  S   UNL A   1      44.247  39.156  29.700  1.00  0.00     0.124 S 
ATOM     69  O   UNL A   1      44.232  40.309  30.596  1.00  0.00    -0.237 OA
ATOM     70  O   UNL A   1      45.554  38.772  29.177  1.00  0.00    -0.237 OA
ATOM     71  O   UNL A   1      43.155  39.110  28.730  1.00  0.00    -0.744 OA
ENDBRANCH  64  68
ENDBRANCH  38  61
ENDBRANCH  12  13
ENDBRANCH   5   7
ENDBRANCH   2   3
ENDBRANCH   1   2
BRANCH   1  72
ATOM     72  C   UNL A   1      35.219  21.485  26.291  1.00  0.00     0.023 C 
BRANCH  72  73
ATOM     73  C   UNL A   1      35.089  20.697  24.991  1.00  0.00     0.116 C 
BRANCH  73  74
ATOM     74  N   UNL A   1      34.168  19.578  25.115  1.00  0.00    -0.352 N 
ATOM     75  C   UNL A   1      32.814  19.574  24.897  1.00  0.00     0.251 C 
ATOM     76  H   UNL A   1      34.563  18.720  25.389  1.00  0.00     0.163 HD
ATOM     77  O   UNL A   1      32.140  18.554  24.964  1.00  0.00    -0.269 OA
BRANCH  75  78
ATOM     78  C   UNL A   1      32.175  20.848  24.545  1.00  0.00     0.041 A 
ATOM     79  C   UNL A   1      32.273  21.311  23.234  1.00  0.00     0.018 A 
ATOM     80  C   UNL A   1      31.607  21.631  25.551  1.00  0.00     0.038 A 
ATOM     81  C   UNL A   1      31.798  22.583  22.933  1.00  0.00     0.049 A 
ATOM     82  C   UNL A   1      31.167  22.922  25.250  1.00  0.00     0.083 A 
ATOM     83  C   UNL A   1      31.225  23.390  23.929  1.00  0.00     0.137 A 
ATOM     84  Cl  UNL A   1      30.705  23.908  26.591  1.00  0.00    -0.080 Cl
BRANCH  83  85
ATOM     85  O   UNL A   1      30.896  24.640  23.492  1.00  0.00    -0.492 OA
BRANCH  85  86
ATOM     86  C   UNL A   1      31.807  25.321  22.623  1.00  0.00     0.233 C 
BRANCH  86  87
ATOM     87  C   UNL A   1      32.168  26.751  23.051  1.00  0.00     0.030 C 
ATOM     88  C   UNL A   1      31.432  27.235  24.327  1.00  0.00     0.011 C 
ATOM     89  C   UNL A   1      33.657  26.921  23.462  1.00  0.00    -0.004 C 
ATOM     90  C   UNL A   1      32.580  27.599  25.283  1.00  0.00    -0.010 C 
ATOM     91  C   UNL A   1      34.071  25.876  24.512  1.00  0.00     0.004 C 
ATOM     92  C   UNL A   1      33.606  28.188  24.319  1.00  0.00     0.007 C 
ATOM     93  C   UNL A   1      33.269  26.302  25.748  1.00  0.00     0.004 C 
ENDBRANCH  86  87
ENDBRANCH  85  86
ENDBRANCH  83  85
ENDBRANCH  75  78
ENDBRANCH  73  74
ENDBRANCH  72  73
ENDBRANCH   1  72
TORSDOF 17
ENDMDL
MODEL 3
REMARK VINA RESULT:     -11.7      3.229      8.466
REMARK SMILES O=C(NCCCCNC(=O)c1ccc(OC[C@H]2C[C@H]3CC[C@@H]2C3)c(Cl)c1)c1ccc(-c2c3nc(c(-c4cc(S(=O)(=O)[O-])ccc4F)c4ccc([nH]4)c(-c4cc(S(=O)(=O)[O-])ccc4F)c4nc(c(-c5cc(S(=O)(=O)[O-])ccc5F)c5ccc2[nH]5)C=C4)C=C3)cc1
REMARK SMILES IDX 5 1 4 2 3 3 1 4 2 5 27 7 28 8 89 9 29 10 88 11 30 12 31 13
REMARK SMILES IDX 32 14 82 15 33 16 87 17 81 18 83 19 34 20 86 21 80 22 79 23
REMARK SMILES IDX 35 25 67 26 47 27 66 28 48 29 51 30 65 31 84 32 49 33 50 34
REMARK SMILES IDX 64 36 85 37 52 38 36 39 37 40 45 41 38 42 44 43 46 44 43 45
REMARK SMILES IDX 39 46 40 47 41 48 42 49 68 50 69 51 77 52 70 53 76 54 78 55
REMARK SMILES IDX 75 56 71 57 72 58 73 59 74 60 53 61 54 62 62 63 55 64 61 65
REMARK SMILES IDX 63 66 60 67 56 68 57 69 58 70 59 71 6 72 7 73 8 74 9 75
REMARK SMILES IDX 10 77 11 78 12 79 26 80 13 81 24 82 14 83 25 84 15 85 16 86
REMARK SMILES IDX 17 87 18 88 22 89 19 90 21 91 23 92 20 93
REMARK H PARENT 3 6 83 24 51 35 8 76
REMARK Flexibility Score: inf
ROOT
ATOM      1  C   UNL A   1      33.909  28.308  25.351  1.00  0.00     0.023 C 
ENDROOT
BRANCH   1   2
ATOM      2  C   UNL A   1      33.871  28.579  26.851  1.00  0.00     0.116 C 
BRANCH   2   3
ATOM      3  N   UNL A   1      33.675  29.985  27.170  1.00  0.00    -0.352 N 
ATOM      4  O   UNL A   1      34.130  31.950  28.177  1.00  0.00    -0.269 OA
ATOM      5  C   UNL A   1      34.498  30.814  27.894  1.00  0.00     0.251 C 
ATOM      6  H   UNL A   1      32.849  30.393  26.824  1.00  0.00     0.163 HD
BRANCH   5   7
ATOM      7  C   UNL A   1      35.815  30.318  28.348  1.00  0.00     0.039 A 
ATOM      8  C   UNL A   1      36.947  30.462  27.541  1.00  0.00     0.014 A 
ATOM      9  C   UNL A   1      35.914  29.703  29.599  1.00  0.00     0.014 A 
ATOM     10  C   UNL A   1      38.155  29.901  27.939  1.00  0.00     0.010 A 
ATOM     11  C   UNL A   1      37.144  29.197  30.026  1.00  0.00     0.010 A 
ATOM     12  C   UNL A   1      38.270  29.280  29.193  1.00  0.00    -0.014 A 
BRANCH  12  13
ATOM     13  C   UNL A   1      39.602  28.816  29.656  1.00  0.00     0.031 A 
ATOM     14  C   UNL A   1      40.326  29.516  30.771  1.00  0.00     0.074 A 
ATOM     15  C   UNL A   1      40.147  27.744  29.048  1.00  0.00     0.049 A 
ATOM     16  N   UNL A   1      41.496  29.243  31.286  1.00  0.00    -0.248 NA
ATOM     17  C   UNL A   1      39.656  30.673  31.382  1.00  0.00     0.031 C 
ATOM     18  C   UNL A   1      39.532  27.003  27.942  1.00  0.00     0.029 A 
ATOM     19  N   UNL A   1      41.331  27.091  29.266  1.00  0.00    -0.354 N 
ATOM     20  C   UNL A   1      41.716  30.201  32.269  1.00  0.00     0.074 A 
ATOM     21  C   UNL A   1      40.560  31.074  32.268  1.00  0.00     0.031 C 
ATOM     22  C   UNL A   1      40.332  25.985  27.596  1.00  0.00     0.029 A 
ATOM     23  C   UNL A   1      41.542  26.035  28.409  1.00  0.00     0.049 A 
ATOM     24  H   UNL A   1      41.970  27.350  29.969  1.00  0.00     0.167 HD
ATOM     25  C   UNL A   1      42.784  30.333  33.093  1.00  0.00     0.034 A 
ATOM     26  C   UNL A   1      42.602  25.218  28.269  1.00  0.00     0.034 A 
ATOM     27  C   UNL A   1      43.920  29.442  33.089  1.00  0.00     0.049 A 
ATOM     28  C   UNL A   1      43.783  25.411  29.178  1.00  0.00     0.074 A 
ATOM     29  C   UNL A   1      45.013  29.437  33.938  1.00  0.00     0.029 A 
ATOM     30  N   UNL A   1      44.119  28.410  32.181  1.00  0.00    -0.354 N 
ATOM     31  N   UNL A   1      43.948  26.291  30.138  1.00  0.00    -0.248 NA
ATOM     32  C   UNL A   1      44.921  24.504  28.985  1.00  0.00     0.031 C 
ATOM     33  C   UNL A   1      45.902  28.445  33.505  1.00  0.00     0.029 A 
ATOM     34  C   UNL A   1      45.336  27.791  32.423  1.00  0.00     0.049 A 
ATOM     35  H   UNL A   1      43.488  28.155  31.471  1.00  0.00     0.167 HD
ATOM     36  C   UNL A   1      45.209  26.039  30.668  1.00  0.00     0.074 A 
ATOM     37  C   UNL A   1      45.746  24.907  29.939  1.00  0.00     0.031 C 
ATOM     38  C   UNL A   1      45.867  26.686  31.662  1.00  0.00     0.034 A 
BRANCH  25  39
ATOM     39  C   UNL A   1      42.804  31.506  34.041  1.00  0.00     0.023 A 
ATOM     40  C   UNL A   1      42.254  31.430  35.332  1.00  0.00     0.031 A 
ATOM     41  C   UNL A   1      43.413  32.712  33.649  1.00  0.00     0.131 A 
ATOM     42  C   UNL A   1      42.293  32.554  36.173  1.00  0.00     0.055 A 
ATOM     43  C   UNL A   1      43.496  33.807  34.510  1.00  0.00     0.041 A 
ATOM     44  F   UNL A   1      43.938  32.843  32.421  1.00  0.00    -0.206 F 
ATOM     45  C   UNL A   1      42.929  33.735  35.778  1.00  0.00     0.022 A 
BRANCH  42  46
ATOM     46  S   UNL A   1      41.433  32.480  37.768  1.00  0.00     0.124 S 
ATOM     47  O   UNL A   1      40.127  31.954  37.377  1.00  0.00    -0.237 OA
ATOM     48  O   UNL A   1      42.278  31.578  38.542  1.00  0.00    -0.237 OA
ATOM     49  O   UNL A   1      41.427  33.870  38.221  1.00  0.00    -0.744 OA
ENDBRANCH  42  46
ENDBRANCH  25  39
BRANCH  26  50
ATOM     50  C   UNL A   1      42.620  24.187  27.195  1.00  0.00     0.023 A 
ATOM     51  C   UNL A   1      41.987  22.947  27.366  1.00  0.00     0.031 A 
ATOM     52  C   UNL A   1      43.306  24.419  25.988  1.00  0.00     0.131 A 
ATOM     53  C   UNL A   1      42.086  21.969  26.364  1.00  0.00     0.055 A 
ATOM     54  C   UNL A   1      43.358  23.463  24.973  1.00  0.00     0.041 A 
ATOM     55  F   UNL A   1      43.925  25.590  25.774  1.00  0.00    -0.206 F 
ATOM     56  C   UNL A   1      42.756  22.224  25.165  1.00  0.00     0.022 A 
BRANCH  53  57
ATOM     57  S   UNL A   1      41.401  20.323  26.689  1.00  0.00     0.124 S 
ATOM     58  O   UNL A   1      42.276  19.836  27.749  1.00  0.00    -0.237 OA
ATOM     59  O   UNL A   1      40.032  20.639  27.081  1.00  0.00    -0.237 OA
ATOM     60  O   UNL A   1      41.537  19.639  25.403  1.00  0.00    -0.744 OA
ENDBRANCH  53  57
ENDBRANCH  26  50
BRANCH  38  61
ATOM     61  C   UNL A   1      47.236  26.162  32.009  1.00  0.00     0.023 A 
ATOM     62  C   UNL A   1      47.412  25.203  33.021  1.00  0.00     0.031 A 
ATOM     63  C   UNL A   1      48.375  26.656  31.352  1.00  0.00     0.131 A 
ATOM     64  C   UNL A   1      48.707  24.807  33.387  1.00  0.00     0.055 A 
ATOM     65  C   UNL A   1      49.657  26.218  31.683  1.00  0.00     0.041 A 
ATOM     66  F   UNL A   1      48.259  27.576  30.381  1.00  0.00    -0.206 F 
ATOM     67  C   UNL A   1      49.829  25.298  32.715  1.00  0.00     0.022 A 
BRANCH  64  68
ATOM     68  S   UNL A   1      48.908  23.702  34.811  1.00  0.00     0.124 S 
ATOM     69  O   UNL A   1      47.644  22.971  34.807  1.00  0.00    -0.237 OA
ATOM     70  O   UNL A   1      50.092  22.932  34.446  1.00  0.00    -0.237 OA
ATOM     71  O   UNL A   1      49.089  24.620  35.934  1.00  0.00    -0.744 OA
ENDBRANCH  64  68
ENDBRANCH  38  61
ENDBRANCH  12  13
ENDBRANCH   5   7
ENDBRANCH   2   3
ENDBRANCH   1   2
BRANCH   1  72
ATOM     72  C   UNL A   1      33.139  29.308  24.486  1.00  0.00     0.023 C 
BRANCH  72  73
ATOM     73  C   UNL A   1      31.627  29.297  24.691  1.00  0.00     0.116 C 
BRANCH  73  74
ATOM     74  N   UNL A   1      30.906  29.703  23.494  1.00  0.00    -0.352 N 
ATOM     75  C   UNL A   1      30.294  28.901  22.566  1.00  0.00     0.251 C 
ATOM     76  H   UNL A   1      30.851  30.673  23.331  1.00  0.00     0.163 HD
ATOM     77  O   UNL A   1      29.653  29.353  21.626  1.00  0.00    -0.269 OA
BRANCH  75  78
ATOM     78  C   UNL A   1      30.406  27.447  22.741  1.00  0.00     0.041 A 
ATOM     79  C   UNL A   1      29.602  26.820  23.690  1.00  0.00     0.018 A 
ATOM     80  C   UNL A   1      31.403  26.749  22.058  1.00  0.00     0.038 A 
ATOM     81  C   UNL A   1      29.809  25.471  23.961  1.00  0.00     0.049 A 
ATOM     82  C   UNL A   1      31.631  25.405  22.362  1.00  0.00     0.083 A 
ATOM     83  C   UNL A   1      30.807  24.749  23.290  1.00  0.00     0.137 A 
ATOM     84  Cl  UNL A   1      33.033  24.685  21.656  1.00  0.00    -0.080 Cl
BRANCH  83  85
ATOM     85  O   UNL A   1      30.944  23.467  23.736  1.00  0.00    -0.492 OA
BRANCH  85  86
ATOM     86  C   UNL A   1      31.028  23.241  25.147  1.00  0.00     0.233 C 
BRANCH  86  87
ATOM     87  C   UNL A   1      32.325  22.570  25.622  1.00  0.00     0.030 C 
ATOM     88  C   UNL A   1      33.374  22.356  24.501  1.00  0.00     0.011 C 
ATOM     89  C   UNL A   1      33.126  23.420  26.647  1.00  0.00    -0.004 C 
ATOM     90  C   UNL A   1      34.610  23.109  25.022  1.00  0.00    -0.010 C 
ATOM     91  C   UNL A   1      33.365  24.848  26.126  1.00  0.00     0.004 C 
ATOM     92  C   UNL A   1      34.532  22.827  26.520  1.00  0.00     0.007 C 
ATOM     93  C   UNL A   1      34.332  24.624  24.956  1.00  0.00     0.004 C 
ENDBRANCH  86  87
ENDBRANCH  85  86
ENDBRANCH  83  85
ENDBRANCH  75  78
ENDBRANCH  73  74
ENDBRANCH  72  73
ENDBRANCH   1  72
TORSDOF 17
ENDMDL
