MODEL 1
REMARK VINA RESULT:     -12.2      0.000      0.000
REMARK SMILES Cc1cc(C[N@H+]2CCN(C)C(=O)C2(C)C)oc1C(=O)NCCCCNC(=O)c1ccc(-c2c3nc(c(-c4cc(S(=O)(=O)[O-])ccc4F)c4ccc([nH]4)c(-c4cc(S(=O)(=O)[O-])ccc4F)c4nc(c(-c5cc(S(=O)(=O)[O-])ccc5F)c5ccc2[nH]5)C=C4)C=C3)cc1
REMARK SMILES IDX 23 1 22 2 21 3 20 4 18 5 19 6 17 8 1 9 2 10 3 11 4 12 16 13
REMARK SMILES IDX 5 14 6 15 7 16 13 17 8 19 11 20 14 21 15 22 9 23 12 24 10 25
REMARK SMILES IDX 24 26 25 27 26 28 27 30 28 31 29 32 90 33 30 34 89 35 31 36
REMARK SMILES IDX 32 37 33 38 83 39 34 40 88 41 82 42 84 43 35 44 87 45 81 46
REMARK SMILES IDX 80 47 36 49 68 50 48 51 67 52 49 53 52 54 66 55 85 56 50 57
REMARK SMILES IDX 51 58 65 60 86 61 53 62 37 63 38 64 46 65 39 66 45 67 47 68
REMARK SMILES IDX 44 69 40 70 41 71 42 72 43 73 69 74 70 75 78 76 71 77 77 78
REMARK SMILES IDX 79 79 76 80 72 81 73 82 74 83 75 84 54 85 55 86 63 87 56 88
REMARK SMILES IDX 62 89 64 90 61 91 57 92 58 93 59 94 60 95
REMARK H PARENT 20 7 6 18 25 29 84 48 52 59
REMARK Flexibility Score: inf
ROOT
ATOM      1  C   UNL A   1      31.990  30.704  26.815  1.00  0.00     0.023 C 
ENDROOT
BRANCH   1   2
ATOM      2  C   UNL A   1      32.037  29.935  25.494  1.00  0.00     0.023 C 
BRANCH   2   3
ATOM      3  C   UNL A   1      33.285  29.094  25.256  1.00  0.00     0.116 C 
BRANCH   3   4
ATOM      4  N   UNL A   1      33.752  29.106  23.890  1.00  0.00    -0.349 N 
ATOM      5  C   UNL A   1      33.659  28.122  22.928  1.00  0.00     0.287 C 
ATOM      6  O   UNL A   1      34.254  28.339  21.874  1.00  0.00    -0.266 OA
ATOM      7  H   UNL A   1      34.203  29.934  23.605  1.00  0.00     0.163 HD
BRANCH   5   8
ATOM      8  C   UNL A   1      32.935  26.885  23.180  1.00  0.00     0.194 A 
ATOM      9  C   UNL A   1      30.361  27.330  23.366  1.00  0.00     0.049 C 
ATOM     10  C   UNL A   1      31.602  26.517  23.346  1.00  0.00     0.001 A 
ATOM     11  C   UNL A   1      31.598  25.105  23.497  1.00  0.00     0.056 A 
ATOM     12  C   UNL A   1      32.906  24.689  23.515  1.00  0.00     0.159 A 
ATOM     13  O   UNL A   1      33.716  25.748  23.253  1.00  0.00    -0.450 OA
BRANCH  12  14
ATOM     14  C   UNL A   1      33.555  23.365  23.742  1.00  0.00     0.339 C 
BRANCH  14  15
ATOM     15  N   UNL A   1      33.307  22.709  25.045  1.00  0.00    -0.315 N 
ATOM     16  C   UNL A   1      32.185  21.760  24.992  1.00  0.00     0.285 C 
ATOM     17  C   UNL A   1      34.484  22.122  25.752  1.00  0.00     0.172 C 
ATOM     18  H   UNL A   1      33.050  23.499  25.635  1.00  0.00     0.349 HD
ATOM     19  C   UNL A   1      32.531  20.358  24.478  1.00  0.00     0.180 C 
ATOM     20  C   UNL A   1      34.905  20.741  25.155  1.00  0.00     0.283 C 
ATOM     21  C   UNL A   1      35.672  23.106  25.829  1.00  0.00     0.090 C 
ATOM     22  C   UNL A   1      34.127  21.820  27.232  1.00  0.00     0.090 C 
ATOM     23  N   UNL A   1      33.868  19.874  24.810  1.00  0.00    -0.335 N 
ATOM     24  O   UNL A   1      36.088  20.392  25.120  1.00  0.00    -0.268 OA
ATOM     25  C   UNL A   1      34.156  18.491  24.480  1.00  0.00     0.147 C 
ENDBRANCH  14  15
ENDBRANCH  12  14
ENDBRANCH   5   8
ENDBRANCH   3   4
ENDBRANCH   2   3
ENDBRANCH   1   2
BRANCH   1  26
ATOM     26  C   UNL A   1      33.164  31.638  27.097  1.00  0.00     0.116 C 
BRANCH  26  27
ATOM     27  N   UNL A   1      32.769  33.016  27.350  1.00  0.00    -0.352 N 
ATOM     28  C   UNL A   1      33.255  33.934  28.254  1.00  0.00     0.251 C 
ATOM     29  H   UNL A   1      32.036  33.346  26.781  1.00  0.00     0.163 HD
ATOM     30  O   UNL A   1      32.699  35.025  28.360  1.00  0.00    -0.269 OA
BRANCH  28  31
ATOM     31  C   UNL A   1      34.401  33.596  29.127  1.00  0.00     0.039 A 
ATOM     32  C   UNL A   1      34.196  32.718  30.195  1.00  0.00     0.014 A 
ATOM     33  C   UNL A   1      35.674  34.117  28.890  1.00  0.00     0.014 A 
ATOM     34  C   UNL A   1      35.286  32.279  30.954  1.00  0.00     0.010 A 
ATOM     35  C   UNL A   1      36.769  33.615  29.590  1.00  0.00     0.010 A 
ATOM     36  C   UNL A   1      36.590  32.679  30.620  1.00  0.00    -0.014 A 
BRANCH  36  37
ATOM     37  C   UNL A   1      37.779  32.115  31.316  1.00  0.00     0.031 A 
ATOM     38  C   UNL A   1      38.583  31.016  30.675  1.00  0.00     0.074 A 
ATOM     39  C   UNL A   1      38.083  32.532  32.563  1.00  0.00     0.049 A 
ATOM     40  N   UNL A   1      39.576  30.320  31.166  1.00  0.00    -0.248 NA
ATOM     41  C   UNL A   1      38.191  30.626  29.313  1.00  0.00     0.031 C 
ATOM     42  C   UNL A   1      37.353  33.555  33.315  1.00  0.00     0.029 A 
ATOM     43  N   UNL A   1      39.077  32.138  33.425  1.00  0.00    -0.354 N 
ATOM     44  C   UNL A   1      39.913  29.395  30.184  1.00  0.00     0.074 A 
ATOM     45  C   UNL A   1      38.977  29.583  29.095  1.00  0.00     0.031 C 
ATOM     46  C   UNL A   1      37.935  33.722  34.514  1.00  0.00     0.029 A 
ATOM     47  C   UNL A   1      39.050  32.788  34.637  1.00  0.00     0.049 A 
ATOM     48  H   UNL A   1      39.746  31.453  33.197  1.00  0.00     0.167 HD
ATOM     49  C   UNL A   1      40.924  28.490  30.179  1.00  0.00     0.034 A 
ATOM     50  C   UNL A   1      39.824  32.642  35.731  1.00  0.00     0.034 A 
ATOM     51  C   UNL A   1      41.863  28.329  31.262  1.00  0.00     0.049 A 
ATOM     52  C   UNL A   1      40.937  31.626  35.706  1.00  0.00     0.074 A 
ATOM     53  C   UNL A   1      42.962  27.489  31.334  1.00  0.00     0.029 A 
ATOM     54  N   UNL A   1      41.814  29.017  32.468  1.00  0.00    -0.354 N 
ATOM     55  N   UNL A   1      41.274  30.794  34.747  1.00  0.00    -0.248 NA
ATOM     56  C   UNL A   1      41.778  31.536  36.906  1.00  0.00     0.031 C 
ATOM     57  C   UNL A   1      43.540  27.628  32.601  1.00  0.00     0.029 A 
ATOM     58  C   UNL A   1      42.845  28.602  33.297  1.00  0.00     0.049 A 
ATOM     59  H   UNL A   1      41.144  29.701  32.699  1.00  0.00     0.167 HD
ATOM     60  C   UNL A   1      42.385  30.101  35.222  1.00  0.00     0.074 A 
ATOM     61  C   UNL A   1      42.667  30.623  36.542  1.00  0.00     0.031 C 
ATOM     62  C   UNL A   1      43.107  29.123  34.618  1.00  0.00     0.034 A 
BRANCH  49  63
ATOM     63  C   UNL A   1      41.043  27.592  28.970  1.00  0.00     0.023 A 
ATOM     64  C   UNL A   1      42.041  27.792  28.000  1.00  0.00     0.031 A 
ATOM     65  C   UNL A   1      40.128  26.545  28.763  1.00  0.00     0.131 A 
ATOM     66  C   UNL A   1      42.049  27.017  26.831  1.00  0.00     0.055 A 
ATOM     67  C   UNL A   1      40.193  25.722  27.637  1.00  0.00     0.041 A 
ATOM     68  F   UNL A   1      39.141  26.316  29.644  1.00  0.00    -0.206 F 
ATOM     69  C   UNL A   1      41.147  25.966  26.653  1.00  0.00     0.022 A 
BRANCH  66  70
ATOM     70  S   UNL A   1      43.158  27.503  25.480  1.00  0.00     0.124 S 
ATOM     71  O   UNL A   1      44.142  28.320  26.187  1.00  0.00    -0.237 OA
ATOM     72  O   UNL A   1      43.633  26.216  24.984  1.00  0.00    -0.237 OA
ATOM     73  O   UNL A   1      42.286  28.241  24.569  1.00  0.00    -0.744 OA
ENDBRANCH  66  70
ENDBRANCH  49  63
BRANCH  50  74
ATOM     74  C   UNL A   1      39.577  33.465  36.949  1.00  0.00     0.023 A 
ATOM     75  C   UNL A   1      38.901  32.929  38.057  1.00  0.00     0.031 A 
ATOM     76  C   UNL A   1      39.978  34.811  37.008  1.00  0.00     0.131 A 
ATOM     77  C   UNL A   1      38.604  33.747  39.158  1.00  0.00     0.055 A 
ATOM     78  C   UNL A   1      39.723  35.607  38.126  1.00  0.00     0.041 A 
ATOM     79  F   UNL A   1      40.635  35.370  35.980  1.00  0.00    -0.206 F 
ATOM     80  C   UNL A   1      39.019  35.079  39.205  1.00  0.00     0.022 A 
BRANCH  77  81
ATOM     81  S   UNL A   1      37.593  33.062  40.499  1.00  0.00     0.124 S 
ATOM     82  O   UNL A   1      36.341  32.773  39.811  1.00  0.00    -0.237 OA
ATOM     83  O   UNL A   1      38.381  31.905  40.911  1.00  0.00    -0.237 OA
ATOM     84  O   UNL A   1      37.535  34.153  41.472  1.00  0.00    -0.744 OA
ENDBRANCH  77  81
ENDBRANCH  50  74
BRANCH  62  85
ATOM     85  C   UNL A   1      44.299  28.590  35.374  1.00  0.00     0.023 A 
ATOM     86  C   UNL A   1      44.175  27.548  36.309  1.00  0.00     0.031 A 
ATOM     87  C   UNL A   1      45.574  29.146  35.165  1.00  0.00     0.131 A 
ATOM     88  C   UNL A   1      45.298  27.128  37.040  1.00  0.00     0.055 A 
ATOM     89  C   UNL A   1      46.697  28.686  35.854  1.00  0.00     0.041 A 
ATOM     90  F   UNL A   1      45.748  30.145  34.285  1.00  0.00    -0.206 F 
ATOM     91  C   UNL A   1      46.561  27.681  36.806  1.00  0.00     0.022 A 
BRANCH  88  92
ATOM     92  S   UNL A   1      45.071  25.907  38.362  1.00  0.00     0.124 S 
ATOM     93  O   UNL A   1      44.534  26.728  39.443  1.00  0.00    -0.237 OA
ATOM     94  O   UNL A   1      44.140  24.962  37.757  1.00  0.00    -0.237 OA
ATOM     95  O   UNL A   1      46.420  25.391  38.586  1.00  0.00    -0.744 OA
ENDBRANCH  88  92
ENDBRANCH  62  85
ENDBRANCH  36  37
ENDBRANCH  28  31
ENDBRANCH  26  27
ENDBRANCH   1  26
TORSDOF 16
ENDMDL
MODEL 2
REMARK VINA RESULT:     -12.1      3.263      8.420
REMARK SMILES Cc1cc(C[N@H+]2CCN(C)C(=O)C2(C)C)oc1C(=O)NCCCCNC(=O)c1ccc(-c2c3nc(c(-c4cc(S(=O)(=O)[O-])ccc4F)c4ccc([nH]4)c(-c4cc(S(=O)(=O)[O-])ccc4F)c4nc(c(-c5cc(S(=O)(=O)[O-])ccc5F)c5ccc2[nH]5)C=C4)C=C3)cc1
REMARK SMILES IDX 23 1 22 2 21 3 20 4 18 5 19 6 17 8 1 9 2 10 3 11 4 12 16 13
REMARK SMILES IDX 5 14 6 15 7 16 13 17 8 19 11 20 14 21 15 22 9 23 12 24 10 25
REMARK SMILES IDX 24 26 25 27 26 28 27 30 28 31 29 32 90 33 30 34 89 35 31 36
REMARK SMILES IDX 32 37 33 38 83 39 34 40 88 41 82 42 84 43 35 44 87 45 81 46
REMARK SMILES IDX 80 47 36 49 68 50 48 51 67 52 49 53 52 54 66 55 85 56 50 57
REMARK SMILES IDX 51 58 65 60 86 61 53 62 37 63 38 64 46 65 39 66 45 67 47 68
REMARK SMILES IDX 44 69 40 70 41 71 42 72 43 73 69 74 70 75 78 76 71 77 77 78
REMARK SMILES IDX 79 79 76 80 72 81 73 82 74 83 75 84 54 85 55 86 63 87 56 88
REMARK SMILES IDX 62 89 64 90 61 91 57 92 58 93 59 94 60 95
REMARK H PARENT 20 7 6 18 25 29 84 48 52 59
REMARK Flexibility Score: inf
ROOT
ATOM      1  C   UNL A   1      33.444  27.589  26.524  1.00  0.00     0.023 C 
ENDROOT
BRANCH   1   2
ATOM      2  C   UNL A   1      31.946  27.805  26.743  1.00  0.00     0.023 C 
BRANCH   2   3
ATOM      3  C   UNL A   1      31.031  26.703  26.223  1.00  0.00     0.116 C 
BRANCH   3   4
ATOM      4  N   UNL A   1      30.342  27.038  24.999  1.00  0.00    -0.349 N 
ATOM      5  C   UNL A   1      30.750  26.862  23.693  1.00  0.00     0.287 C 
ATOM      6  O   UNL A   1      30.024  27.352  22.830  1.00  0.00    -0.266 OA
ATOM      7  H   UNL A   1      29.455  27.452  25.113  1.00  0.00     0.163 HD
BRANCH   5   8
ATOM      8  C   UNL A   1      31.994  26.176  23.376  1.00  0.00     0.194 A 
ATOM      9  C   UNL A   1      33.752  27.842  22.381  1.00  0.00     0.049 C 
ATOM     10  C   UNL A   1      33.236  26.537  22.861  1.00  0.00     0.001 A 
ATOM     11  C   UNL A   1      34.027  25.356  22.875  1.00  0.00     0.056 A 
ATOM     12  C   UNL A   1      33.222  24.327  23.296  1.00  0.00     0.159 A 
ATOM     13  O   UNL A   1      32.014  24.826  23.667  1.00  0.00    -0.450 OA
BRANCH  12  14
ATOM     14  C   UNL A   1      33.428  22.855  23.423  1.00  0.00     0.339 C 
BRANCH  14  15
ATOM     15  N   UNL A   1      33.232  22.261  24.764  1.00  0.00    -0.315 N 
ATOM     16  C   UNL A   1      32.204  21.211  24.769  1.00  0.00     0.285 C 
ATOM     17  C   UNL A   1      34.454  21.832  25.508  1.00  0.00     0.172 C 
ATOM     18  H   UNL A   1      32.899  23.060  25.303  1.00  0.00     0.349 HD
ATOM     19  C   UNL A   1      32.682  19.818  24.345  1.00  0.00     0.180 C 
ATOM     20  C   UNL A   1      35.006  20.462  25.000  1.00  0.00     0.283 C 
ATOM     21  C   UNL A   1      35.545  22.925  25.525  1.00  0.00     0.090 C 
ATOM     22  C   UNL A   1      34.116  21.591  27.004  1.00  0.00     0.090 C 
ATOM     23  N   UNL A   1      34.056  19.482  24.709  1.00  0.00    -0.335 N 
ATOM     24  O   UNL A   1      36.216  20.223  24.988  1.00  0.00    -0.268 OA
ATOM     25  C   UNL A   1      34.473  18.114  24.466  1.00  0.00     0.147 C 
ENDBRANCH  14  15
ENDBRANCH  12  14
ENDBRANCH   5   8
ENDBRANCH   3   4
ENDBRANCH   2   3
ENDBRANCH   1   2
BRANCH   1  26
ATOM     26  C   UNL A   1      34.228  28.779  25.976  1.00  0.00     0.116 C 
BRANCH  26  27
ATOM     27  N   UNL A   1      33.756  30.067  26.465  1.00  0.00    -0.352 N 
ATOM     28  C   UNL A   1      34.265  30.893  27.441  1.00  0.00     0.251 C 
ATOM     29  H   UNL A   1      32.940  30.401  26.026  1.00  0.00     0.163 HD
ATOM     30  O   UNL A   1      33.641  31.902  27.759  1.00  0.00    -0.269 OA
BRANCH  28  31
ATOM     31  C   UNL A   1      35.524  30.548  28.138  1.00  0.00     0.039 A 
ATOM     32  C   UNL A   1      35.461  29.749  29.284  1.00  0.00     0.014 A 
ATOM     33  C   UNL A   1      36.762  30.983  27.661  1.00  0.00     0.014 A 
ATOM     34  C   UNL A   1      36.642  29.300  29.884  1.00  0.00     0.010 A 
ATOM     35  C   UNL A   1      37.934  30.466  28.207  1.00  0.00     0.010 A 
ATOM     36  C   UNL A   1      37.888  29.606  29.315  1.00  0.00    -0.014 A 
BRANCH  36  37
ATOM     37  C   UNL A   1      39.151  29.023  29.847  1.00  0.00     0.031 A 
ATOM     38  C   UNL A   1      39.830  29.643  31.039  1.00  0.00     0.074 A 
ATOM     39  C   UNL A   1      39.733  27.991  29.203  1.00  0.00     0.049 A 
ATOM     40  N   UNL A   1      40.986  29.357  31.577  1.00  0.00    -0.248 NA
ATOM     41  C   UNL A   1      39.126  30.760  31.686  1.00  0.00     0.031 C 
ATOM     42  C   UNL A   1      39.203  27.332  28.007  1.00  0.00     0.029 A 
ATOM     43  N   UNL A   1      40.905  27.321  29.454  1.00  0.00    -0.354 N 
ATOM     44  C   UNL A   1      41.161  30.269  32.611  1.00  0.00     0.074 A 
ATOM     45  C   UNL A   1      40.016  31.155  32.583  1.00  0.00     0.031 C 
ATOM     46  C   UNL A   1      40.034  26.341  27.643  1.00  0.00     0.029 A 
ATOM     47  C   UNL A   1      41.179  26.322  28.548  1.00  0.00     0.049 A 
ATOM     48  H   UNL A   1      41.495  27.535  30.212  1.00  0.00     0.167 HD
ATOM     49  C   UNL A   1      42.169  30.347  33.517  1.00  0.00     0.034 A 
ATOM     50  C   UNL A   1      42.237  25.493  28.445  1.00  0.00     0.034 A 
ATOM     51  C   UNL A   1      43.293  29.442  33.547  1.00  0.00     0.049 A 
ATOM     52  C   UNL A   1      43.348  25.601  29.458  1.00  0.00     0.074 A 
ATOM     53  C   UNL A   1      44.335  29.390  34.458  1.00  0.00     0.029 A 
ATOM     54  N   UNL A   1      43.527  28.433  32.622  1.00  0.00    -0.354 N 
ATOM     55  N   UNL A   1      43.472  26.438  30.462  1.00  0.00    -0.248 NA
ATOM     56  C   UNL A   1      44.457  24.647  29.328  1.00  0.00     0.031 C 
ATOM     57  C   UNL A   1      45.225  28.391  34.051  1.00  0.00     0.029 A 
ATOM     58  C   UNL A   1      44.708  27.772  32.925  1.00  0.00     0.049 A 
ATOM     59  H   UNL A   1      42.939  28.217  31.862  1.00  0.00     0.167 HD
ATOM     60  C   UNL A   1      44.660  26.092  31.099  1.00  0.00     0.074 A 
ATOM     61  C   UNL A   1      45.206  24.962  30.374  1.00  0.00     0.031 C 
ATOM     62  C   UNL A   1      45.247  26.655  32.186  1.00  0.00     0.034 A 
BRANCH  49  63
ATOM     63  C   UNL A   1      42.105  31.465  34.530  1.00  0.00     0.023 A 
ATOM     64  C   UNL A   1      41.152  31.467  35.565  1.00  0.00     0.031 A 
ATOM     65  C   UNL A   1      42.981  32.561  34.443  1.00  0.00     0.131 A 
ATOM     66  C   UNL A   1      41.041  32.577  36.414  1.00  0.00     0.055 A 
ATOM     67  C   UNL A   1      42.921  33.625  35.345  1.00  0.00     0.041 A 
ATOM     68  F   UNL A   1      43.900  32.625  33.467  1.00  0.00    -0.206 F 
ATOM     69  C   UNL A   1      41.936  33.647  36.328  1.00  0.00     0.022 A 
BRANCH  66  70
ATOM     70  S   UNL A   1      39.616  32.672  37.532  1.00  0.00     0.124 S 
ATOM     71  O   UNL A   1      39.020  33.947  37.140  1.00  0.00    -0.237 OA
ATOM     72  O   UNL A   1      38.858  31.477  37.179  1.00  0.00    -0.237 OA
ATOM     73  O   UNL A   1      40.221  32.659  38.862  1.00  0.00    -0.744 OA
ENDBRANCH  66  70
ENDBRANCH  49  63
BRANCH  50  74
ATOM     74  C   UNL A   1      42.312  24.493  27.343  1.00  0.00     0.023 A 
ATOM     75  C   UNL A   1      41.551  23.314  27.385  1.00  0.00     0.031 A 
ATOM     76  C   UNL A   1      43.176  24.682  26.251  1.00  0.00     0.131 A 
ATOM     77  C   UNL A   1      41.701  22.347  26.378  1.00  0.00     0.055 A 
ATOM     78  C   UNL A   1      43.287  23.740  25.226  1.00  0.00     0.041 A 
ATOM     79  F   UNL A   1      43.920  25.796  26.158  1.00  0.00    -0.206 F 
ATOM     80  C   UNL A   1      42.557  22.557  25.294  1.00  0.00     0.022 A 
BRANCH  77  81
ATOM     81  S   UNL A   1      40.820  20.772  26.550  1.00  0.00     0.124 S 
ATOM     82  O   UNL A   1      39.513  21.099  25.992  1.00  0.00    -0.237 OA
ATOM     83  O   UNL A   1      41.651  19.872  25.756  1.00  0.00    -0.237 OA
ATOM     84  O   UNL A   1      40.840  20.527  27.992  1.00  0.00    -0.744 OA
ENDBRANCH  77  81
ENDBRANCH  50  74
BRANCH  62  85
ATOM     85  C   UNL A   1      46.525  26.022  32.676  1.00  0.00     0.023 A 
ATOM     86  C   UNL A   1      47.783  26.423  32.190  1.00  0.00     0.031 A 
ATOM     87  C   UNL A   1      46.483  24.991  33.633  1.00  0.00     0.131 A 
ATOM     88  C   UNL A   1      48.942  25.761  32.623  1.00  0.00     0.055 A 
ATOM     89  C   UNL A   1      47.644  24.376  34.101  1.00  0.00     0.041 A 
ATOM     90  F   UNL A   1      45.309  24.568  34.128  1.00  0.00    -0.206 F 
ATOM     91  C   UNL A   1      48.881  24.750  33.586  1.00  0.00     0.022 A 
BRANCH  88  92
ATOM     92  S   UNL A   1      50.526  26.181  31.846  1.00  0.00     0.124 S 
ATOM     93  O   UNL A   1      51.164  26.994  32.878  1.00  0.00    -0.237 OA
ATOM     94  O   UNL A   1      51.118  24.869  31.613  1.00  0.00    -0.237 OA
ATOM     95  O   UNL A   1      50.135  26.907  30.640  1.00  0.00    -0.744 OA
ENDBRANCH  88  92
ENDBRANCH  62  85
ENDBRANCH  36  37
ENDBRANCH  28  31
ENDBRANCH  26  27
ENDBRANCH   1  26
TORSDOF 16
ENDMDL
MODEL 3
REMARK VINA RESULT:     -12.1      5.547     11.034
REMARK SMILES Cc1cc(C[N@H+]2CCN(C)C(=O)C2(C)C)oc1C(=O)NCCCCNC(=O)c1ccc(-c2c3nc(c(-c4cc(S(=O)(=O)[O-])ccc4F)c4ccc([nH]4)c(-c4cc(S(=O)(=O)[O-])ccc4F)c4nc(c(-c5cc(S(=O)(=O)[O-])ccc5F)c5ccc2[nH]5)C=C4)C=C3)cc1
REMARK SMILES IDX 23 1 22 2 21 3 20 4 18 5 19 6 17 8 1 9 2 10 3 11 4 12 16 13
REMARK SMILES IDX 5 14 6 15 7 16 13 17 8 19 11 20 14 21 15 22 9 23 12 24 10 25
REMARK SMILES IDX 24 26 25 27 26 28 27 30 28 31 29 32 90 33 30 34 89 35 31 36
REMARK SMILES IDX 32 37 33 38 83 39 34 40 88 41 82 42 84 43 35 44 87 45 81 46
REMARK SMILES IDX 80 47 36 49 68 50 48 51 67 52 49 53 52 54 66 55 85 56 50 57
REMARK SMILES IDX 51 58 65 60 86 61 53 62 37 63 38 64 46 65 39 66 45 67 47 68
REMARK SMILES IDX 44 69 40 70 41 71 42 72 43 73 69 74 70 75 78 76 71 77 77 78
REMARK SMILES IDX 79 79 76 80 72 81 73 82 74 83 75 84 54 85 55 86 63 87 56 88
REMARK SMILES IDX 62 89 64 90 61 91 57 92 58 93 59 94 60 95
REMARK H PARENT 20 7 6 18 25 29 84 48 52 59
REMARK Flexibility Score: inf
ROOT
ATOM      1  C   UNL A   1      36.853  20.436  24.786  1.00  0.00     0.023 C 
ENDROOT
BRANCH   1   2
ATOM      2  C   UNL A   1      35.508  21.124  25.022  1.00  0.00     0.023 C 
BRANCH   2   3
ATOM      3  C   UNL A   1      35.526  22.313  25.975  1.00  0.00     0.116 C 
BRANCH   3   4
ATOM      4  N   UNL A   1      34.700  22.141  27.147  1.00  0.00    -0.349 N 
ATOM      5  C   UNL A   1      33.369  22.452  27.329  1.00  0.00     0.287 C 
ATOM      6  O   UNL A   1      32.935  22.320  28.471  1.00  0.00    -0.266 OA
ATOM      7  H   UNL A   1      35.152  21.746  27.928  1.00  0.00     0.163 HD
BRANCH   5   8
ATOM      8  C   UNL A   1      32.553  22.951  26.231  1.00  0.00     0.194 A 
ATOM      9  C   UNL A   1      32.071  21.058  24.488  1.00  0.00     0.049 C 
ATOM     10  C   UNL A   1      31.992  22.418  25.074  1.00  0.00     0.001 A 
ATOM     11  C   UNL A   1      31.245  23.469  24.477  1.00  0.00     0.056 A 
ATOM     12  C   UNL A   1      31.455  24.600  25.226  1.00  0.00     0.159 A 
ATOM     13  O   UNL A   1      32.186  24.279  26.326  1.00  0.00    -0.450 OA
BRANCH  12  14
ATOM     14  C   UNL A   1      31.041  26.024  25.066  1.00  0.00     0.339 C 
BRANCH  14  15
ATOM     15  N   UNL A   1      31.713  26.805  24.003  1.00  0.00    -0.315 N 
ATOM     16  C   UNL A   1      30.874  26.962  22.806  1.00  0.00     0.285 C 
ATOM     17  C   UNL A   1      32.346  28.099  24.400  1.00  0.00     0.172 C 
ATOM     18  H   UNL A   1      32.512  26.214  23.779  1.00  0.00     0.349 HD
ATOM     19  C   UNL A   1      29.862  28.112  22.856  1.00  0.00     0.180 C 
ATOM     20  C   UNL A   1      31.297  29.246  24.559  1.00  0.00     0.283 C 
ATOM     21  C   UNL A   1      33.240  27.955  25.652  1.00  0.00     0.090 C 
ATOM     22  C   UNL A   1      33.306  28.592  23.285  1.00  0.00     0.090 C 
ATOM     23  N   UNL A   1      30.285  29.296  23.599  1.00  0.00    -0.335 N 
ATOM     24  O   UNL A   1      31.441  30.132  25.405  1.00  0.00    -0.268 OA
ATOM     25  C   UNL A   1      29.416  30.454  23.520  1.00  0.00     0.147 C 
ENDBRANCH  14  15
ENDBRANCH  12  14
ENDBRANCH   5   8
ENDBRANCH   3   4
ENDBRANCH   2   3
ENDBRANCH   1   2
BRANCH   1  26
ATOM     26  C   UNL A   1      38.084  21.143  25.348  1.00  0.00     0.116 C 
BRANCH  26  27
ATOM     27  N   UNL A   1      39.110  20.234  25.836  1.00  0.00    -0.352 N 
ATOM     28  C   UNL A   1      40.261  20.484  26.550  1.00  0.00     0.251 C 
ATOM     29  H   UNL A   1      38.957  19.285  25.622  1.00  0.00     0.163 HD
ATOM     30  O   UNL A   1      41.040  19.562  26.776  1.00  0.00    -0.269 OA
BRANCH  28  31
ATOM     31  C   UNL A   1      40.585  21.858  26.997  1.00  0.00     0.039 A 
ATOM     32  C   UNL A   1      41.430  22.025  28.097  1.00  0.00     0.014 A 
ATOM     33  C   UNL A   1      40.082  22.976  26.331  1.00  0.00     0.014 A 
ATOM     34  C   UNL A   1      41.857  23.307  28.459  1.00  0.00     0.010 A 
ATOM     35  C   UNL A   1      40.573  24.243  26.637  1.00  0.00     0.010 A 
ATOM     36  C   UNL A   1      41.478  24.422  27.694  1.00  0.00    -0.014 A 
BRANCH  36  37
ATOM     37  C   UNL A   1      42.032  25.777  27.967  1.00  0.00     0.031 A 
ATOM     38  C   UNL A   1      41.200  26.806  28.684  1.00  0.00     0.074 A 
ATOM     39  C   UNL A   1      43.250  26.110  27.491  1.00  0.00     0.049 A 
ATOM     40  N   UNL A   1      41.456  28.068  28.913  1.00  0.00    -0.248 NA
ATOM     41  C   UNL A   1      39.888  26.360  29.176  1.00  0.00     0.031 C 
ATOM     42  C   UNL A   1      44.136  25.220  26.736  1.00  0.00     0.029 A 
ATOM     43  N   UNL A   1      43.950  27.289  27.559  1.00  0.00    -0.354 N 
ATOM     44  C   UNL A   1      40.332  28.574  29.555  1.00  0.00     0.074 A 
ATOM     45  C   UNL A   1      39.370  27.493  29.623  1.00  0.00     0.031 C 
ATOM     46  C   UNL A   1      45.267  25.877  26.431  1.00  0.00     0.029 A 
ATOM     47  C   UNL A   1      45.170  27.247  26.924  1.00  0.00     0.049 A 
ATOM     48  H   UNL A   1      43.610  28.091  28.018  1.00  0.00     0.167 HD
ATOM     49  C   UNL A   1      40.128  29.816  30.063  1.00  0.00     0.034 A 
ATOM     50  C   UNL A   1      46.102  28.205  26.747  1.00  0.00     0.034 A 
ATOM     51  C   UNL A   1      41.105  30.876  30.008  1.00  0.00     0.049 A 
ATOM     52  C   UNL A   1      45.852  29.579  27.313  1.00  0.00     0.074 A 
ATOM     53  C   UNL A   1      41.029  32.150  30.546  1.00  0.00     0.029 A 
ATOM     54  N   UNL A   1      42.337  30.791  29.371  1.00  0.00    -0.354 N 
ATOM     55  N   UNL A   1      44.803  30.026  27.964  1.00  0.00    -0.248 NA
ATOM     56  C   UNL A   1      46.917  30.574  27.130  1.00  0.00     0.031 C 
ATOM     57  C   UNL A   1      42.185  32.850  30.186  1.00  0.00     0.029 A 
ATOM     58  C   UNL A   1      43.016  31.995  29.481  1.00  0.00     0.049 A 
ATOM     59  H   UNL A   1      42.679  29.990  28.909  1.00  0.00     0.167 HD
ATOM     60  C   UNL A   1      45.095  31.348  28.289  1.00  0.00     0.074 A 
ATOM     61  C   UNL A   1      46.422  31.618  27.777  1.00  0.00     0.031 C 
ATOM     62  C   UNL A   1      44.335  32.255  28.954  1.00  0.00     0.034 A 
BRANCH  49  63
ATOM     63  C   UNL A   1      38.787  30.092  30.700  1.00  0.00     0.023 A 
ATOM     64  C   UNL A   1      37.765  30.761  30.003  1.00  0.00     0.031 A 
ATOM     65  C   UNL A   1      38.535  29.715  32.030  1.00  0.00     0.131 A 
ATOM     66  C   UNL A   1      36.577  31.108  30.663  1.00  0.00     0.055 A 
ATOM     67  C   UNL A   1      37.317  29.988  32.656  1.00  0.00     0.041 A 
ATOM     68  F   UNL A   1      39.478  29.089  32.754  1.00  0.00    -0.206 F 
ATOM     69  C   UNL A   1      36.335  30.705  31.978  1.00  0.00     0.022 A 
BRANCH  66  70
ATOM     70  S   UNL A   1      35.419  32.226  29.826  1.00  0.00     0.124 S 
ATOM     71  O   UNL A   1      34.412  32.436  30.865  1.00  0.00    -0.237 OA
ATOM     72  O   UNL A   1      36.260  33.374  29.511  1.00  0.00    -0.237 OA
ATOM     73  O   UNL A   1      34.962  31.449  28.676  1.00  0.00    -0.744 OA
ENDBRANCH  66  70
ENDBRANCH  49  63
BRANCH  50  74
ATOM     74  C   UNL A   1      47.354  27.913  25.992  1.00  0.00     0.023 A 
ATOM     75  C   UNL A   1      47.392  28.008  24.592  1.00  0.00     0.031 A 
ATOM     76  C   UNL A   1      48.520  27.494  26.657  1.00  0.00     0.131 A 
ATOM     77  C   UNL A   1      48.556  27.645  23.897  1.00  0.00     0.055 A 
ATOM     78  C   UNL A   1      49.691  27.181  25.965  1.00  0.00     0.041 A 
ATOM     79  F   UNL A   1      48.540  27.395  27.996  1.00  0.00    -0.206 F 
ATOM     80  C   UNL A   1      49.710  27.243  24.575  1.00  0.00     0.022 A 
BRANCH  77  81
ATOM     81  S   UNL A   1      48.515  27.631  22.084  1.00  0.00     0.124 S 
ATOM     82  O   UNL A   1      48.709  26.216  21.792  1.00  0.00    -0.237 OA
ATOM     83  O   UNL A   1      47.187  28.168  21.808  1.00  0.00    -0.237 OA
ATOM     84  O   UNL A   1      49.628  28.504  21.713  1.00  0.00    -0.744 OA
ENDBRANCH  77  81
ENDBRANCH  50  74
BRANCH  62  85
ATOM     85  C   UNL A   1      44.948  33.611  29.198  1.00  0.00     0.023 A 
ATOM     86  C   UNL A   1      44.872  34.640  28.243  1.00  0.00     0.031 A 
ATOM     87  C   UNL A   1      45.633  33.871  30.399  1.00  0.00     0.131 A 
ATOM     88  C   UNL A   1      45.515  35.865  28.482  1.00  0.00     0.055 A 
ATOM     89  C   UNL A   1      46.223  35.110  30.654  1.00  0.00     0.041 A 
ATOM     90  F   UNL A   1      45.739  32.923  31.344  1.00  0.00    -0.206 F 
ATOM     91  C   UNL A   1      46.177  36.110  29.689  1.00  0.00     0.022 A 
BRANCH  88  92
ATOM     92  S   UNL A   1      45.548  37.105  27.159  1.00  0.00     0.124 S 
ATOM     93  O   UNL A   1      46.332  38.176  27.767  1.00  0.00    -0.237 OA
ATOM     94  O   UNL A   1      46.194  36.382  26.070  1.00  0.00    -0.237 OA
ATOM     95  O   UNL A   1      44.136  37.414  26.945  1.00  0.00    -0.744 OA
ENDBRANCH  88  92
ENDBRANCH  62  85
ENDBRANCH  36  37
ENDBRANCH  28  31
ENDBRANCH  26  27
ENDBRANCH   1  26
TORSDOF 16
ENDMDL
