MODEL 1
REMARK VINA RESULT:     -12.9      0.000      0.000
REMARK SMILES O=C(NCCCCNC(=O)c1ccc(C[N@H+]2CC[N@H+]3CCCC[C@@H]3C2)c(F)c1)c1ccc(-c2c3nc(c(-c4cc(S(=O)(=O)[O-])ccc4F)c4ccc([nH]4)c(-c4cc(S(=O)(=O)[O-])ccc4F)c4nc(c(-c5cc(S(=O)(=O)[O-])ccc5F)c5ccc2[nH]5)C=C4)C=C3)cc1
REMARK SMILES IDX 5 1 4 2 3 3 1 4 2 5 29 7 30 8 91 9 31 10 90 11 32 12 33 13
REMARK SMILES IDX 34 14 84 15 35 16 89 17 83 18 85 19 36 20 88 21 82 22 81 23
REMARK SMILES IDX 37 25 69 26 49 27 68 28 50 29 53 30 67 31 86 32 51 33 52 34
REMARK SMILES IDX 66 36 87 37 54 38 38 39 39 40 47 41 40 42 46 43 48 44 45 45
REMARK SMILES IDX 41 46 42 47 43 48 44 49 70 50 71 51 79 52 72 53 78 54 80 55
REMARK SMILES IDX 77 56 73 57 74 58 75 59 76 60 55 61 56 62 64 63 57 64 63 65
REMARK SMILES IDX 65 66 62 67 58 68 59 69 60 70 61 71 6 72 7 73 8 74 9 75
REMARK SMILES IDX 10 77 11 78 12 79 28 80 13 81 26 82 14 83 27 84 15 85 16 86
REMARK SMILES IDX 17 87 25 88 18 90 24 91 19 92 23 93 20 94 22 96 21 97
REMARK H PARENT 3 6 85 24 53 35 8 76 16 89 19 95
REMARK Flexibility Score: inf
ROOT
ATOM      1  C   UNL A   1      35.910  21.018  25.418  1.00  0.00     0.023 C 
ENDROOT
BRANCH   1   2
ATOM      2  C   UNL A   1      37.360  21.349  25.076  1.00  0.00     0.116 C 
BRANCH   2   3
ATOM      3  N   UNL A   1      38.327  20.317  25.434  1.00  0.00    -0.352 N 
ATOM      4  O   UNL A   1      40.262  19.525  26.311  1.00  0.00    -0.269 OA
ATOM      5  C   UNL A   1      39.517  20.472  26.126  1.00  0.00     0.251 C 
ATOM      6  H   UNL A   1      38.107  19.400  25.150  1.00  0.00     0.163 HD
BRANCH   5   7
ATOM      7  C   UNL A   1      39.889  21.829  26.595  1.00  0.00     0.039 A 
ATOM      8  C   UNL A   1      39.271  22.948  26.041  1.00  0.00     0.014 A 
ATOM      9  C   UNL A   1      40.930  21.983  27.517  1.00  0.00     0.014 A 
ATOM     10  C   UNL A   1      39.827  24.203  26.242  1.00  0.00     0.010 A 
ATOM     11  C   UNL A   1      41.416  23.265  27.805  1.00  0.00     0.010 A 
ATOM     12  C   UNL A   1      40.905  24.382  27.128  1.00  0.00    -0.014 A 
BRANCH  12  13
ATOM     13  C   UNL A   1      41.431  25.760  27.331  1.00  0.00     0.031 A 
ATOM     14  C   UNL A   1      40.729  26.753  28.220  1.00  0.00     0.074 A 
ATOM     15  C   UNL A   1      42.620  26.074  26.778  1.00  0.00     0.049 A 
ATOM     16  N   UNL A   1      41.119  27.953  28.576  1.00  0.00    -0.248 NA
ATOM     17  C   UNL A   1      39.425  26.363  28.772  1.00  0.00     0.031 C 
ATOM     18  C   UNL A   1      43.389  25.190  25.897  1.00  0.00     0.029 A 
ATOM     19  N   UNL A   1      43.416  27.181  26.913  1.00  0.00    -0.354 N 
ATOM     20  C   UNL A   1      40.101  28.470  29.370  1.00  0.00     0.074 A 
ATOM     21  C   UNL A   1      39.066  27.460  29.427  1.00  0.00     0.031 C 
ATOM     22  C   UNL A   1      44.584  25.743  25.656  1.00  0.00     0.029 A 
ATOM     23  C   UNL A   1      44.636  27.055  26.290  1.00  0.00     0.049 A 
ATOM     24  H   UNL A   1      43.142  27.988  27.406  1.00  0.00     0.167 HD
ATOM     25  C   UNL A   1      40.041  29.673  29.992  1.00  0.00     0.034 A 
ATOM     26  C   UNL A   1      45.684  27.897  26.226  1.00  0.00     0.034 A 
ATOM     27  C   UNL A   1      41.094  30.659  29.945  1.00  0.00     0.049 A 
ATOM     28  C   UNL A   1      45.589  29.228  26.907  1.00  0.00     0.074 A 
ATOM     29  C   UNL A   1      41.147  31.892  30.577  1.00  0.00     0.029 A 
ATOM     30  N   UNL A   1      42.275  30.532  29.226  1.00  0.00    -0.354 N 
ATOM     31  N   UNL A   1      44.607  29.707  27.634  1.00  0.00    -0.248 NA
ATOM     32  C   UNL A   1      46.728  30.140  26.748  1.00  0.00     0.031 C 
ATOM     33  C   UNL A   1      42.328  32.534  30.188  1.00  0.00     0.029 A 
ATOM     34  C   UNL A   1      43.046  31.676  29.371  1.00  0.00     0.049 A 
ATOM     35  H   UNL A   1      42.528  29.745  28.692  1.00  0.00     0.167 HD
ATOM     36  C   UNL A   1      45.008  30.980  28.017  1.00  0.00     0.074 A 
ATOM     37  C   UNL A   1      46.326  31.192  27.451  1.00  0.00     0.031 C 
ATOM     38  C   UNL A   1      44.343  31.888  28.775  1.00  0.00     0.034 A 
BRANCH  25  39
ATOM     39  C   UNL A   1      38.777  30.017  30.742  1.00  0.00     0.023 A 
ATOM     40  C   UNL A   1      37.758  30.797  30.170  1.00  0.00     0.031 A 
ATOM     41  C   UNL A   1      38.582  29.533  32.049  1.00  0.00     0.131 A 
ATOM     42  C   UNL A   1      36.612  31.109  30.919  1.00  0.00     0.055 A 
ATOM     43  C   UNL A   1      37.412  29.794  32.765  1.00  0.00     0.041 A 
ATOM     44  F   UNL A   1      39.528  28.796  32.652  1.00  0.00    -0.206 F 
ATOM     45  C   UNL A   1      36.422  30.593  32.204  1.00  0.00     0.022 A 
BRANCH  42  46
ATOM     46  S   UNL A   1      35.410  32.278  30.226  1.00  0.00     0.124 S 
ATOM     47  O   UNL A   1      34.949  31.558  29.041  1.00  0.00    -0.237 OA
ATOM     48  O   UNL A   1      34.441  32.413  31.308  1.00  0.00    -0.237 OA
ATOM     49  O   UNL A   1      36.209  33.471  29.952  1.00  0.00    -0.744 OA
ENDBRANCH  42  46
ENDBRANCH  25  39
BRANCH  26  50
ATOM     50  C   UNL A   1      46.889  27.491  25.455  1.00  0.00     0.023 A 
ATOM     51  C   UNL A   1      47.000  27.770  24.085  1.00  0.00     0.031 A 
ATOM     52  C   UNL A   1      47.985  26.898  26.108  1.00  0.00     0.131 A 
ATOM     53  C   UNL A   1      48.192  27.460  23.410  1.00  0.00     0.055 A 
ATOM     54  C   UNL A   1      49.178  26.623  25.440  1.00  0.00     0.041 A 
ATOM     55  F   UNL A   1      47.928  26.634  27.422  1.00  0.00    -0.206 F 
ATOM     56  C   UNL A   1      49.285  26.906  24.081  1.00  0.00     0.022 A 
BRANCH  53  57
ATOM     57  S   UNL A   1      48.310  27.813  21.635  1.00  0.00     0.124 S 
ATOM     58  O   UNL A   1      49.395  28.789  21.599  1.00  0.00    -0.237 OA
ATOM     59  O   UNL A   1      48.610  26.498  21.078  1.00  0.00    -0.237 OA
ATOM     60  O   UNL A   1      46.987  28.336  21.303  1.00  0.00    -0.744 OA
ENDBRANCH  53  57
ENDBRANCH  26  50
BRANCH  38  61
ATOM     61  C   UNL A   1      45.036  33.194  29.049  1.00  0.00     0.023 A 
ATOM     62  C   UNL A   1      44.737  34.351  28.310  1.00  0.00     0.031 A 
ATOM     63  C   UNL A   1      45.970  33.290  30.095  1.00  0.00     0.131 A 
ATOM     64  C   UNL A   1      45.387  35.556  28.614  1.00  0.00     0.055 A 
ATOM     65  C   UNL A   1      46.583  34.500  30.418  1.00  0.00     0.041 A 
ATOM     66  F   UNL A   1      46.285  32.211  30.829  1.00  0.00    -0.206 F 
ATOM     67  C   UNL A   1      46.294  35.640  29.674  1.00  0.00     0.022 A 
BRANCH  64  68
ATOM     68  S   UNL A   1      45.043  37.017  27.597  1.00  0.00     0.124 S 
ATOM     69  O   UNL A   1      46.353  37.296  27.018  1.00  0.00    -0.237 OA
ATOM     70  O   UNL A   1      44.026  36.530  26.671  1.00  0.00    -0.237 OA
ATOM     71  O   UNL A   1      44.571  38.005  28.567  1.00  0.00    -0.744 OA
ENDBRANCH  64  68
ENDBRANCH  38  61
ENDBRANCH  12  13
ENDBRANCH   5   7
ENDBRANCH   2   3
ENDBRANCH   1   2
BRANCH   1  72
ATOM     72  C   UNL A   1      35.210  22.031  26.321  1.00  0.00     0.023 C 
BRANCH  72  73
ATOM     73  C   UNL A   1      34.072  21.465  27.178  1.00  0.00     0.116 C 
BRANCH  73  74
ATOM     74  N   UNL A   1      33.396  20.342  26.554  1.00  0.00    -0.352 N 
ATOM     75  C   UNL A   1      32.585  20.327  25.446  1.00  0.00     0.251 C 
ATOM     76  H   UNL A   1      33.540  19.470  26.985  1.00  0.00     0.163 HD
ATOM     77  O   UNL A   1      32.094  19.285  25.028  1.00  0.00    -0.269 OA
BRANCH  75  78
ATOM     78  C   UNL A   1      32.260  21.588  24.756  1.00  0.00     0.042 A 
ATOM     79  C   UNL A   1      32.750  21.853  23.474  1.00  0.00     0.014 A 
ATOM     80  C   UNL A   1      31.397  22.486  25.381  1.00  0.00     0.053 A 
ATOM     81  C   UNL A   1      32.432  23.067  22.849  1.00  0.00     0.013 A 
ATOM     82  C   UNL A   1      31.107  23.695  24.755  1.00  0.00     0.132 A 
ATOM     83  C   UNL A   1      31.660  24.038  23.515  1.00  0.00     0.042 A 
ATOM     84  F   UNL A   1      30.306  24.563  25.389  1.00  0.00    -0.206 F 
BRANCH  83  85
ATOM     85  C   UNL A   1      31.428  25.413  22.922  1.00  0.00     0.302 C 
BRANCH  85  86
ATOM     86  N   UNL A   1      32.540  26.381  22.864  1.00  0.00    -0.322 N 
ATOM     87  C   UNL A   1      32.236  27.690  22.268  1.00  0.00     0.324 C 
ATOM     88  C   UNL A   1      33.310  26.566  24.102  1.00  0.00     0.328 C 
ATOM     89  H   UNL A   1      33.143  25.884  22.208  1.00  0.00     0.348 HD
ATOM     90  C   UNL A   1      31.693  28.773  23.235  1.00  0.00     0.324 C 
ATOM     91  C   UNL A   1      32.641  27.525  25.104  1.00  0.00     0.239 C 
ATOM     92  N   UNL A   1      32.377  28.868  24.548  1.00  0.00    -0.323 N 
ATOM     93  C   UNL A   1      33.436  27.654  26.407  1.00  0.00     0.071 C 
ATOM     94  C   UNL A   1      31.524  29.620  25.482  1.00  0.00     0.262 C 
ATOM     95  H   UNL A   1      33.270  29.344  24.418  1.00  0.00     0.348 HD
ATOM     96  C   UNL A   1      32.557  28.354  27.442  1.00  0.00     0.012 C 
ATOM     97  C   UNL A   1      32.074  29.701  26.911  1.00  0.00     0.062 C 
ENDBRANCH  85  86
ENDBRANCH  83  85
ENDBRANCH  75  78
ENDBRANCH  73  74
ENDBRANCH  72  73
ENDBRANCH   1  72
TORSDOF 16
ENDMDL
MODEL 2
REMARK VINA RESULT:     -12.8      4.955     10.569
REMARK SMILES O=C(NCCCCNC(=O)c1ccc(C[N@H+]2CC[N@H+]3CCCC[C@@H]3C2)c(F)c1)c1ccc(-c2c3nc(c(-c4cc(S(=O)(=O)[O-])ccc4F)c4ccc([nH]4)c(-c4cc(S(=O)(=O)[O-])ccc4F)c4nc(c(-c5cc(S(=O)(=O)[O-])ccc5F)c5ccc2[nH]5)C=C4)C=C3)cc1
REMARK SMILES IDX 5 1 4 2 3 3 1 4 2 5 29 7 30 8 91 9 31 10 90 11 32 12 33 13
REMARK SMILES IDX 34 14 84 15 35 16 89 17 83 18 85 19 36 20 88 21 82 22 81 23
REMARK SMILES IDX 37 25 69 26 49 27 68 28 50 29 53 30 67 31 86 32 51 33 52 34
REMARK SMILES IDX 66 36 87 37 54 38 38 39 39 40 47 41 40 42 46 43 48 44 45 45
REMARK SMILES IDX 41 46 42 47 43 48 44 49 70 50 71 51 79 52 72 53 78 54 80 55
REMARK SMILES IDX 77 56 73 57 74 58 75 59 76 60 55 61 56 62 64 63 57 64 63 65
REMARK SMILES IDX 65 66 62 67 58 68 59 69 60 70 61 71 6 72 7 73 8 74 9 75
REMARK SMILES IDX 10 77 11 78 12 79 28 80 13 81 26 82 14 83 27 84 15 85 16 86
REMARK SMILES IDX 17 87 25 88 18 90 24 91 19 92 23 93 20 94 22 96 21 97
REMARK H PARENT 3 6 85 24 53 35 8 76 16 89 19 95
REMARK Flexibility Score: inf
ROOT
ATOM      1  C   UNL A   1      31.999  29.822  25.405  1.00  0.00     0.023 C 
ENDROOT
BRANCH   1   2
ATOM      2  C   UNL A   1      32.242  30.342  26.819  1.00  0.00     0.116 C 
BRANCH   2   3
ATOM      3  N   UNL A   1      32.223  31.796  26.949  1.00  0.00    -0.352 N 
ATOM      4  O   UNL A   1      33.038  33.816  27.577  1.00  0.00    -0.269 OA
ATOM      5  C   UNL A   1      33.208  32.613  27.479  1.00  0.00     0.251 C 
ATOM      6  H   UNL A   1      31.413  32.250  26.621  1.00  0.00     0.163 HD
BRANCH   5   7
ATOM      7  C   UNL A   1      34.459  31.984  27.970  1.00  0.00     0.039 A 
ATOM      8  C   UNL A   1      34.488  30.617  28.241  1.00  0.00     0.014 A 
ATOM      9  C   UNL A   1      35.571  32.782  28.255  1.00  0.00     0.014 A 
ATOM     10  C   UNL A   1      35.535  30.093  28.985  1.00  0.00     0.010 A 
ATOM     11  C   UNL A   1      36.678  32.222  28.907  1.00  0.00     0.010 A 
ATOM     12  C   UNL A   1      36.646  30.884  29.327  1.00  0.00    -0.014 A 
BRANCH  12  13
ATOM     13  C   UNL A   1      37.756  30.252  30.092  1.00  0.00     0.031 A 
ATOM     14  C   UNL A   1      38.797  29.398  29.417  1.00  0.00     0.074 A 
ATOM     15  C   UNL A   1      37.872  30.546  31.403  1.00  0.00     0.049 A 
ATOM     16  N   UNL A   1      39.879  28.866  29.931  1.00  0.00    -0.248 NA
ATOM     17  C   UNL A   1      38.601  29.091  27.994  1.00  0.00     0.031 C 
ATOM     18  C   UNL A   1      36.920  31.362  32.162  1.00  0.00     0.029 A 
ATOM     19  N   UNL A   1      38.853  30.250  32.312  1.00  0.00    -0.354 N 
ATOM     20  C   UNL A   1      40.478  28.142  28.906  1.00  0.00     0.074 A 
ATOM     21  C   UNL A   1      39.628  28.288  27.743  1.00  0.00     0.031 C 
ATOM     22  C   UNL A   1      37.414  31.587  33.386  1.00  0.00     0.029 A 
ATOM     23  C   UNL A   1      38.671  30.862  33.530  1.00  0.00     0.049 A 
ATOM     24  H   UNL A   1      39.613  29.657  32.114  1.00  0.00     0.167 HD
ATOM     25  C   UNL A   1      41.630  27.427  28.935  1.00  0.00     0.034 A 
ATOM     26  C   UNL A   1      39.422  30.845  34.647  1.00  0.00     0.034 A 
ATOM     27  C   UNL A   1      42.479  27.313  30.096  1.00  0.00     0.049 A 
ATOM     28  C   UNL A   1      40.683  30.035  34.662  1.00  0.00     0.074 A 
ATOM     29  C   UNL A   1      43.689  26.647  30.216  1.00  0.00     0.029 A 
ATOM     30  N   UNL A   1      42.212  27.871  31.339  1.00  0.00    -0.354 N 
ATOM     31  N   UNL A   1      41.219  29.339  33.688  1.00  0.00    -0.248 NA
ATOM     32  C   UNL A   1      41.429  29.990  35.925  1.00  0.00     0.031 C 
ATOM     33  C   UNL A   1      44.118  26.749  31.543  1.00  0.00     0.029 A 
ATOM     34  C   UNL A   1      43.214  27.537  32.237  1.00  0.00     0.049 A 
ATOM     35  H   UNL A   1      41.426  28.424  31.551  1.00  0.00     0.167 HD
ATOM     36  C   UNL A   1      42.368  28.768  34.220  1.00  0.00     0.074 A 
ATOM     37  C   UNL A   1      42.453  29.209  35.599  1.00  0.00     0.031 C 
ATOM     38  C   UNL A   1      43.271  27.956  33.617  1.00  0.00     0.034 A 
BRANCH  25  39
ATOM     39  C   UNL A   1      42.023  26.671  27.689  1.00  0.00     0.023 A 
ATOM     40  C   UNL A   1      41.767  25.297  27.538  1.00  0.00     0.031 A 
ATOM     41  C   UNL A   1      42.645  27.347  26.623  1.00  0.00     0.131 A 
ATOM     42  C   UNL A   1      42.174  24.634  26.369  1.00  0.00     0.055 A 
ATOM     43  C   UNL A   1      42.990  26.695  25.438  1.00  0.00     0.041 A 
ATOM     44  F   UNL A   1      42.928  28.655  26.718  1.00  0.00    -0.206 F 
ATOM     45  C   UNL A   1      42.762  25.329  25.309  1.00  0.00     0.022 A 
BRANCH  42  46
ATOM     46  S   UNL A   1      42.009  22.830  26.288  1.00  0.00     0.124 S 
ATOM     47  O   UNL A   1      42.738  22.414  27.485  1.00  0.00    -0.237 OA
ATOM     48  O   UNL A   1      40.564  22.642  26.324  1.00  0.00    -0.237 OA
ATOM     49  O   UNL A   1      42.653  22.482  25.023  1.00  0.00    -0.744 OA
ENDBRANCH  42  46
ENDBRANCH  25  39
BRANCH  26  50
ATOM     50  C   UNL A   1      38.960  31.606  35.838  1.00  0.00     0.023 A 
ATOM     51  C   UNL A   1      38.112  31.018  36.788  1.00  0.00     0.031 A 
ATOM     52  C   UNL A   1      39.441  32.904  36.084  1.00  0.00     0.131 A 
ATOM     53  C   UNL A   1      37.774  31.731  37.950  1.00  0.00     0.055 A 
ATOM     54  C   UNL A   1      39.130  33.594  37.255  1.00  0.00     0.041 A 
ATOM     55  F   UNL A   1      40.273  33.495  35.211  1.00  0.00    -0.206 F 
ATOM     56  C   UNL A   1      38.291  33.006  38.197  1.00  0.00     0.022 A 
BRANCH  53  57
ATOM     57  S   UNL A   1      36.662  30.961  39.158  1.00  0.00     0.124 S 
ATOM     58  O   UNL A   1      35.593  31.950  39.250  1.00  0.00    -0.237 OA
ATOM     59  O   UNL A   1      36.319  29.703  38.503  1.00  0.00    -0.237 OA
ATOM     60  O   UNL A   1      37.496  30.827  40.350  1.00  0.00    -0.744 OA
ENDBRANCH  53  57
ENDBRANCH  26  50
BRANCH  38  61
ATOM     61  C   UNL A   1      44.442  27.498  34.441  1.00  0.00     0.023 A 
ATOM     62  C   UNL A   1      44.399  26.301  35.175  1.00  0.00     0.031 A 
ATOM     63  C   UNL A   1      45.632  28.247  34.452  1.00  0.00     0.131 A 
ATOM     64  C   UNL A   1      45.522  25.896  35.910  1.00  0.00     0.055 A 
ATOM     65  C   UNL A   1      46.758  27.820  35.153  1.00  0.00     0.041 A 
ATOM     66  F   UNL A   1      45.719  29.397  33.764  1.00  0.00    -0.206 F 
ATOM     67  C   UNL A   1      46.706  26.639  35.890  1.00  0.00     0.022 A 
BRANCH  64  68
ATOM     68  S   UNL A   1      45.417  24.387  36.910  1.00  0.00     0.124 S 
ATOM     69  O   UNL A   1      44.608  24.831  38.041  1.00  0.00    -0.237 OA
ATOM     70  O   UNL A   1      44.777  23.444  35.999  1.00  0.00    -0.237 OA
ATOM     71  O   UNL A   1      46.814  24.089  37.226  1.00  0.00    -0.744 OA
ENDBRANCH  64  68
ENDBRANCH  38  61
ENDBRANCH  12  13
ENDBRANCH   5   7
ENDBRANCH   2   3
ENDBRANCH   1   2
BRANCH   1  72
ATOM     72  C   UNL A   1      33.160  29.041  24.794  1.00  0.00     0.023 C 
BRANCH  72  73
ATOM     73  C   UNL A   1      33.223  29.056  23.262  1.00  0.00     0.116 C 
BRANCH  73  74
ATOM     74  N   UNL A   1      31.937  29.320  22.644  1.00  0.00    -0.352 N 
ATOM     75  C   UNL A   1      30.909  28.449  22.376  1.00  0.00     0.251 C 
ATOM     76  H   UNL A   1      31.779  30.255  22.380  1.00  0.00     0.163 HD
ATOM     77  O   UNL A   1      29.867  28.831  21.857  1.00  0.00    -0.269 OA
BRANCH  75  78
ATOM     78  C   UNL A   1      31.063  27.016  22.681  1.00  0.00     0.042 A 
ATOM     79  C   UNL A   1      30.285  26.403  23.667  1.00  0.00     0.014 A 
ATOM     80  C   UNL A   1      31.956  26.265  21.920  1.00  0.00     0.053 A 
ATOM     81  C   UNL A   1      30.464  25.040  23.942  1.00  0.00     0.013 A 
ATOM     82  C   UNL A   1      32.136  24.917  22.218  1.00  0.00     0.132 A 
ATOM     83  C   UNL A   1      31.446  24.292  23.266  1.00  0.00     0.042 A 
ATOM     84  F   UNL A   1      33.027  24.220  21.500  1.00  0.00    -0.206 F 
BRANCH  83  85
ATOM     85  C   UNL A   1      31.759  22.860  23.647  1.00  0.00     0.302 C 
BRANCH  85  86
ATOM     86  N   UNL A   1      32.100  22.534  25.045  1.00  0.00    -0.322 N 
ATOM     87  C   UNL A   1      32.201  21.105  25.375  1.00  0.00     0.324 C 
ATOM     88  C   UNL A   1      33.237  23.261  25.627  1.00  0.00     0.328 C 
ATOM     89  H   UNL A   1      31.256  22.888  25.496  1.00  0.00     0.348 HD
ATOM     90  C   UNL A   1      33.590  20.450  25.163  1.00  0.00     0.324 C 
ATOM     91  C   UNL A   1      34.605  22.666  25.245  1.00  0.00     0.239 C 
ATOM     92  N   UNL A   1      34.756  21.246  25.620  1.00  0.00    -0.323 N 
ATOM     93  C   UNL A   1      35.772  23.477  25.818  1.00  0.00     0.071 C 
ATOM     94  C   UNL A   1      35.978  20.708  25.001  1.00  0.00     0.262 C 
ATOM     95  H   UNL A   1      34.815  21.185  26.636  1.00  0.00     0.348 HD
ATOM     96  C   UNL A   1      37.060  23.015  25.139  1.00  0.00     0.012 C 
ATOM     97  C   UNL A   1      37.247  21.509  25.312  1.00  0.00     0.062 C 
ENDBRANCH  85  86
ENDBRANCH  83  85
ENDBRANCH  75  78
ENDBRANCH  73  74
ENDBRANCH  72  73
ENDBRANCH   1  72
TORSDOF 16
ENDMDL
MODEL 3
REMARK VINA RESULT:     -12.7      1.047      7.534
REMARK SMILES O=C(NCCCCNC(=O)c1ccc(C[N@H+]2CC[N@H+]3CCCC[C@@H]3C2)c(F)c1)c1ccc(-c2c3nc(c(-c4cc(S(=O)(=O)[O-])ccc4F)c4ccc([nH]4)c(-c4cc(S(=O)(=O)[O-])ccc4F)c4nc(c(-c5cc(S(=O)(=O)[O-])ccc5F)c5ccc2[nH]5)C=C4)C=C3)cc1
REMARK SMILES IDX 5 1 4 2 3 3 1 4 2 5 29 7 30 8 91 9 31 10 90 11 32 12 33 13
REMARK SMILES IDX 34 14 84 15 35 16 89 17 83 18 85 19 36 20 88 21 82 22 81 23
REMARK SMILES IDX 37 25 69 26 49 27 68 28 50 29 53 30 67 31 86 32 51 33 52 34
REMARK SMILES IDX 66 36 87 37 54 38 38 39 39 40 47 41 40 42 46 43 48 44 45 45
REMARK SMILES IDX 41 46 42 47 43 48 44 49 70 50 71 51 79 52 72 53 78 54 80 55
REMARK SMILES IDX 77 56 73 57 74 58 75 59 76 60 55 61 56 62 64 63 57 64 63 65
REMARK SMILES IDX 65 66 62 67 58 68 59 69 60 70 61 71 6 72 7 73 8 74 9 75
REMARK SMILES IDX 10 77 11 78 12 79 28 80 13 81 26 82 14 83 27 84 15 85 16 86
REMARK SMILES IDX 17 87 25 88 18 90 24 91 19 92 23 93 20 94 22 96 21 97
REMARK H PARENT 3 6 85 24 53 35 8 76 16 89 19 95
REMARK Flexibility Score: inf
ROOT
ATOM      1  C   UNL A   1      34.774  21.575  26.226  1.00  0.00     0.023 C 
ENDROOT
BRANCH   1   2
ATOM      2  C   UNL A   1      36.163  22.118  25.907  1.00  0.00     0.116 C 
BRANCH   2   3
ATOM      3  N   UNL A   1      37.152  21.106  25.550  1.00  0.00    -0.352 N 
ATOM      4  O   UNL A   1      39.244  20.260  25.329  1.00  0.00    -0.269 OA
ATOM      5  C   UNL A   1      38.525  21.162  25.725  1.00  0.00     0.251 C 
ATOM      6  H   UNL A   1      36.800  20.285  25.136  1.00  0.00     0.163 HD
BRANCH   5   7
ATOM      7  C   UNL A   1      39.107  22.368  26.364  1.00  0.00     0.039 A 
ATOM      8  C   UNL A   1      38.673  23.635  25.978  1.00  0.00     0.014 A 
ATOM      9  C   UNL A   1      40.159  22.231  27.274  1.00  0.00     0.014 A 
ATOM     10  C   UNL A   1      39.421  24.748  26.332  1.00  0.00     0.010 A 
ATOM     11  C   UNL A   1      40.842  23.370  27.720  1.00  0.00     0.010 A 
ATOM     12  C   UNL A   1      40.514  24.635  27.210  1.00  0.00    -0.014 A 
BRANCH  12  13
ATOM     13  C   UNL A   1      41.251  25.872  27.585  1.00  0.00     0.031 A 
ATOM     14  C   UNL A   1      42.597  26.203  26.994  1.00  0.00     0.074 A 
ATOM     15  C   UNL A   1      40.638  26.756  28.398  1.00  0.00     0.049 A 
ATOM     16  N   UNL A   1      43.313  27.290  27.144  1.00  0.00    -0.248 NA
ATOM     17  C   UNL A   1      43.226  25.189  26.137  1.00  0.00     0.031 C 
ATOM     18  C   UNL A   1      39.333  26.540  29.031  1.00  0.00     0.029 A 
ATOM     19  N   UNL A   1      40.988  28.023  28.786  1.00  0.00    -0.354 N 
ATOM     20  C   UNL A   1      44.484  27.083  26.424  1.00  0.00     0.074 A 
ATOM     21  C   UNL A   1      44.392  25.756  25.853  1.00  0.00     0.031 C 
ATOM     22  C   UNL A   1      38.949  27.669  29.639  1.00  0.00     0.029 A 
ATOM     23  C   UNL A   1      40.012  28.659  29.516  1.00  0.00     0.049 A 
ATOM     24  H   UNL A   1      41.854  28.436  28.565  1.00  0.00     0.167 HD
ATOM     25  C   UNL A   1      45.535  27.924  26.256  1.00  0.00     0.034 A 
ATOM     26  C   UNL A   1      39.968  29.900  30.037  1.00  0.00     0.034 A 
ATOM     27  C   UNL A   1      45.600  29.255  26.812  1.00  0.00     0.049 A 
ATOM     28  C   UNL A   1      41.147  30.806  29.853  1.00  0.00     0.074 A 
ATOM     29  C   UNL A   1      46.602  30.201  26.664  1.00  0.00     0.029 A 
ATOM     30  N   UNL A   1      44.631  29.829  27.624  1.00  0.00    -0.354 N 
ATOM     31  N   UNL A   1      42.256  30.582  29.188  1.00  0.00    -0.248 NA
ATOM     32  C   UNL A   1      41.083  32.122  30.501  1.00  0.00     0.031 C 
ATOM     33  C   UNL A   1      46.268  31.319  27.437  1.00  0.00     0.029 A 
ATOM     34  C   UNL A   1      45.027  31.100  28.012  1.00  0.00     0.049 A 
ATOM     35  H   UNL A   1      43.787  29.396  27.886  1.00  0.00     0.167 HD
ATOM     36  C   UNL A   1      43.025  31.728  29.340  1.00  0.00     0.074 A 
ATOM     37  C   UNL A   1      42.250  32.648  30.150  1.00  0.00     0.031 C 
ATOM     38  C   UNL A   1      44.260  31.994  28.847  1.00  0.00     0.034 A 
BRANCH  25  39
ATOM     39  C   UNL A   1      46.725  27.420  25.477  1.00  0.00     0.023 A 
ATOM     40  C   UNL A   1      46.985  27.834  24.160  1.00  0.00     0.031 A 
ATOM     41  C   UNL A   1      47.629  26.522  26.076  1.00  0.00     0.131 A 
ATOM     42  C   UNL A   1      48.093  27.317  23.469  1.00  0.00     0.055 A 
ATOM     43  C   UNL A   1      48.763  26.060  25.406  1.00  0.00     0.041 A 
ATOM     44  F   UNL A   1      47.422  26.079  27.326  1.00  0.00    -0.206 F 
ATOM     45  C   UNL A   1      48.996  26.451  24.091  1.00  0.00     0.022 A 
BRANCH  42  46
ATOM     46  S   UNL A   1      48.289  27.717  21.711  1.00  0.00     0.124 S 
ATOM     47  O   UNL A   1      49.397  28.669  21.748  1.00  0.00    -0.237 OA
ATOM     48  O   UNL A   1      48.584  26.417  21.121  1.00  0.00    -0.237 OA
ATOM     49  O   UNL A   1      46.996  28.291  21.342  1.00  0.00    -0.744 OA
ENDBRANCH  42  46
ENDBRANCH  25  39
BRANCH  26  50
ATOM     50  C   UNL A   1      38.765  30.318  30.804  1.00  0.00     0.023 A 
ATOM     51  C   UNL A   1      37.754  31.082  30.205  1.00  0.00     0.031 A 
ATOM     52  C   UNL A   1      38.575  29.875  32.125  1.00  0.00     0.131 A 
ATOM     53  C   UNL A   1      36.587  31.376  30.929  1.00  0.00     0.055 A 
ATOM     54  C   UNL A   1      37.400  30.141  32.828  1.00  0.00     0.041 A 
ATOM     55  F   UNL A   1      39.509  29.124  32.729  1.00  0.00    -0.206 F 
ATOM     56  C   UNL A   1      36.397  30.896  32.228  1.00  0.00     0.022 A 
BRANCH  53  57
ATOM     57  S   UNL A   1      35.297  32.379  30.142  1.00  0.00     0.124 S 
ATOM     58  O   UNL A   1      36.051  33.555  29.722  1.00  0.00    -0.237 OA
ATOM     59  O   UNL A   1      34.830  31.500  29.075  1.00  0.00    -0.237 OA
ATOM     60  O   UNL A   1      34.336  32.604  31.220  1.00  0.00    -0.744 OA
ENDBRANCH  53  57
ENDBRANCH  26  50
BRANCH  38  61
ATOM     61  C   UNL A   1      44.850  33.341  29.158  1.00  0.00     0.023 A 
ATOM     62  C   UNL A   1      44.567  34.466  28.366  1.00  0.00     0.031 A 
ATOM     63  C   UNL A   1      45.667  33.508  30.290  1.00  0.00     0.131 A 
ATOM     64  C   UNL A   1      45.116  35.711  28.705  1.00  0.00     0.055 A 
ATOM     65  C   UNL A   1      46.179  34.755  30.644  1.00  0.00     0.041 A 
ATOM     66  F   UNL A   1      45.963  32.461  31.077  1.00  0.00    -0.206 F 
ATOM     67  C   UNL A   1      45.906  35.865  29.849  1.00  0.00     0.022 A 
BRANCH  64  68
ATOM     68  S   UNL A   1      44.799  37.132  27.625  1.00  0.00     0.124 S 
ATOM     69  O   UNL A   1      43.592  36.713  26.922  1.00  0.00    -0.237 OA
ATOM     70  O   UNL A   1      44.636  38.226  28.578  1.00  0.00    -0.237 OA
ATOM     71  O   UNL A   1      46.004  37.209  26.799  1.00  0.00    -0.744 OA
ENDBRANCH  64  68
ENDBRANCH  38  61
ENDBRANCH  12  13
ENDBRANCH   5   7
ENDBRANCH   2   3
ENDBRANCH   1   2
BRANCH   1  72
ATOM     72  C   UNL A   1      34.012  21.004  25.032  1.00  0.00     0.023 C 
BRANCH  72  73
ATOM     73  C   UNL A   1      32.496  21.228  25.057  1.00  0.00     0.116 C 
BRANCH  73  74
ATOM     74  N   UNL A   1      32.033  21.847  26.286  1.00  0.00    -0.352 N 
ATOM     75  C   UNL A   1      31.608  23.136  26.499  1.00  0.00     0.251 C 
ATOM     76  H   UNL A   1      32.023  21.262  27.077  1.00  0.00     0.163 HD
ATOM     77  O   UNL A   1      31.230  23.509  27.603  1.00  0.00    -0.269 OA
BRANCH  75  78
ATOM     78  C   UNL A   1      31.635  24.110  25.395  1.00  0.00     0.042 A 
ATOM     79  C   UNL A   1      30.480  24.800  25.015  1.00  0.00     0.014 A 
ATOM     80  C   UNL A   1      32.853  24.383  24.776  1.00  0.00     0.053 A 
ATOM     81  C   UNL A   1      30.536  25.712  23.952  1.00  0.00     0.013 A 
ATOM     82  C   UNL A   1      32.889  25.277  23.710  1.00  0.00     0.132 A 
ATOM     83  C   UNL A   1      31.732  25.911  23.237  1.00  0.00     0.042 A 
ATOM     84  F   UNL A   1      34.063  25.497  23.103  1.00  0.00    -0.206 F 
BRANCH  83  85
ATOM     85  C   UNL A   1      31.782  26.777  21.995  1.00  0.00     0.302 C 
BRANCH  85  86
ATOM     86  N   UNL A   1      32.083  28.216  22.119  1.00  0.00    -0.322 N 
ATOM     87  C   UNL A   1      30.953  29.091  22.462  1.00  0.00     0.324 C 
ATOM     88  C   UNL A   1      33.252  28.570  22.936  1.00  0.00     0.328 C 
ATOM     89  H   UNL A   1      32.328  28.407  21.147  1.00  0.00     0.348 HD
ATOM     90  C   UNL A   1      30.674  29.289  23.974  1.00  0.00     0.324 C 
ATOM     91  C   UNL A   1      32.962  28.588  24.448  1.00  0.00     0.239 C 
ATOM     92  N   UNL A   1      31.868  29.505  24.828  1.00  0.00    -0.323 N 
ATOM     93  C   UNL A   1      34.211  28.904  25.277  1.00  0.00     0.071 C 
ATOM     94  C   UNL A   1      31.503  29.270  26.234  1.00  0.00     0.262 C 
ATOM     95  H   UNL A   1      32.192  30.464  24.700  1.00  0.00     0.348 HD
ATOM     96  C   UNL A   1      33.910  28.590  26.742  1.00  0.00     0.012 C 
ATOM     97  C   UNL A   1      32.679  29.360  27.213  1.00  0.00     0.062 C 
ENDBRANCH  85  86
ENDBRANCH  83  85
ENDBRANCH  75  78
ENDBRANCH  73  74
ENDBRANCH  72  73
ENDBRANCH   1  72
TORSDOF 16
ENDMDL
