MODEL 1
REMARK VINA RESULT:     -11.9      0.000      0.000
REMARK SMILES C[NH2+][C@]1(C(=O)NCCCCNC(=O)c2ccc(-c3c4nc(c(-c5cc(S(=O)(=O)[O-])ccc5F)c5ccc([nH]5)c(-c5cc(S(=O)(=O)[O-])ccc5F)c5nc(c(-c6cc(S(=O)(=O)[O-])ccc6F)c6ccc3[nH]6)C=C5)C=C4)cc2)CC[C@@H](OCCCc2ccccc2)C1
REMARK SMILES IDX 7 1 6 2 4 3 5 4 3 6 77 7 90 8 78 9 79 10 2 11 1 12 80 15
REMARK SMILES IDX 81 16 82 17 83 18 84 19 85 20 89 21 86 22 88 23 87 24 8 25
REMARK SMILES IDX 9 26 10 27 11 28 12 29 13 31 14 32 15 33 76 34 16 35 75 36
REMARK SMILES IDX 17 37 18 38 19 39 69 40 20 41 74 42 68 43 70 44 21 45 73 46
REMARK SMILES IDX 67 47 66 48 22 50 54 51 34 52 53 53 35 54 38 55 52 56 71 57
REMARK SMILES IDX 36 58 37 59 51 61 72 62 39 63 23 64 24 65 32 66 25 67 31 68
REMARK SMILES IDX 33 69 30 70 26 71 27 72 28 73 29 74 55 75 56 76 64 77 57 78
REMARK SMILES IDX 63 79 65 80 62 81 58 82 59 83 60 84 61 85 40 86 41 87 49 88
REMARK SMILES IDX 42 89 48 90 50 91 47 92 43 93 44 94 45 95 46 96
REMARK H PARENT 6 5 2 13 2 14 11 30 70 49 38 60
REMARK Flexibility Score: inf
ROOT
ATOM      1  C   UNL A   1      34.365  22.960  27.136  1.00  0.00     0.116 C 
ENDROOT
BRANCH   1   2
ATOM      2  N   UNL A   1      32.842  23.490  26.808  1.00  0.00    -0.351 N 
ATOM      3  C   UNL A   1      31.693  24.082  25.334  1.00  0.00     0.281 C 
ATOM      4  O   UNL A   1      30.531  24.622  25.414  1.00  0.00    -0.268 OA
ATOM      5  H   UNL A   1      32.326  23.519  27.646  1.00  0.00     0.163 HD
BRANCH   3   6
ATOM      6  C   UNL A   1      32.010  24.109  23.482  1.00  0.00     0.177 C 
ATOM      7  C   UNL A   1      30.967  25.052  22.776  1.00  0.00     0.082 C 
ATOM      8  C   UNL A   1      33.322  24.342  22.621  1.00  0.00     0.111 C 
ATOM      9  C   UNL A   1      31.691  25.928  21.748  1.00  0.00     0.039 C 
ATOM     10  C   UNL A   1      33.180  25.682  21.887  1.00  0.00     0.125 C 
BRANCH   6  11
ATOM     11  N   UNL A   1      31.487  22.752  22.976  1.00  0.00    -0.336 N 
ATOM     12  C   UNL A   1      32.464  21.744  22.620  1.00  0.00     0.331 C 
ATOM     13  H   UNL A   1      30.898  22.360  23.710  1.00  0.00     0.346 HD
ATOM     14  H   UNL A   1      31.012  22.969  22.100  1.00  0.00     0.346 HD
ENDBRANCH   6  11
BRANCH  10  15
ATOM     15  O   UNL A   1      33.952  26.853  22.098  1.00  0.00    -0.378 OA
BRANCH  15  16
ATOM     16  C   UNL A   1      33.511  28.152  22.412  1.00  0.00     0.161 C 
BRANCH  16  17
ATOM     17  C   UNL A   1      33.250  28.511  23.867  1.00  0.00     0.033 C 
BRANCH  17  18
ATOM     18  C   UNL A   1      31.903  28.200  24.486  1.00  0.00     0.038 C 
BRANCH  18  19
ATOM     19  C   UNL A   1      30.656  28.875  23.982  1.00  0.00    -0.048 A 
ATOM     20  C   UNL A   1      29.181  28.051  23.205  1.00  0.00     0.004 A 
ATOM     21  C   UNL A   1      30.537  30.650  24.421  1.00  0.00     0.004 A 
ATOM     22  C   UNL A   1      27.675  29.019  22.849  1.00  0.00     0.000 A 
ATOM     23  C   UNL A   1      29.010  31.587  24.120  1.00  0.00     0.000 A 
ATOM     24  C   UNL A   1      27.596  30.767  23.305  1.00  0.00     0.000 A 
ENDBRANCH  18  19
ENDBRANCH  17  18
ENDBRANCH  16  17
ENDBRANCH  15  16
ENDBRANCH  10  15
ENDBRANCH   3   6
ENDBRANCH   1   2
BRANCH   1  25
ATOM     25  C   UNL A   1      35.236  22.989  25.884  1.00  0.00     0.023 C 
BRANCH  25  26
ATOM     26  C   UNL A   1      35.882  21.648  25.586  1.00  0.00     0.023 C 
BRANCH  26  27
ATOM     27  C   UNL A   1      37.284  21.777  25.007  1.00  0.00     0.116 C 
BRANCH  27  28
ATOM     28  N   UNL A   1      38.143  20.649  25.382  1.00  0.00    -0.352 N 
ATOM     29  C   UNL A   1      39.350  20.685  26.031  1.00  0.00     0.251 C 
ATOM     30  H   UNL A   1      37.812  19.756  25.136  1.00  0.00     0.163 HD
ATOM     31  O   UNL A   1      40.081  19.703  26.076  1.00  0.00    -0.269 OA
BRANCH  29  32
ATOM     32  C   UNL A   1      39.720  21.961  26.648  1.00  0.00     0.039 A 
ATOM     33  C   UNL A   1      40.723  21.990  27.612  1.00  0.00     0.014 A 
ATOM     34  C   UNL A   1      39.193  23.133  26.097  1.00  0.00     0.014 A 
ATOM     35  C   UNL A   1      41.249  23.221  27.986  1.00  0.00     0.010 A 
ATOM     36  C   UNL A   1      39.812  24.338  26.373  1.00  0.00     0.010 A 
ATOM     37  C   UNL A   1      40.829  24.396  27.336  1.00  0.00    -0.014 A 
BRANCH  37  38
ATOM     38  C   UNL A   1      41.412  25.712  27.681  1.00  0.00     0.031 A 
ATOM     39  C   UNL A   1      42.815  26.027  27.238  1.00  0.00     0.074 A 
ATOM     40  C   UNL A   1      40.702  26.591  28.415  1.00  0.00     0.049 A 
ATOM     41  N   UNL A   1      43.530  27.097  27.465  1.00  0.00    -0.248 NA
ATOM     42  C   UNL A   1      43.520  24.986  26.473  1.00  0.00     0.031 C 
ATOM     43  C   UNL A   1      39.351  26.363  28.934  1.00  0.00     0.029 A 
ATOM     44  N   UNL A   1      41.013  27.854  28.846  1.00  0.00    -0.354 N 
ATOM     45  C   UNL A   1      44.765  26.852  26.877  1.00  0.00     0.074 A 
ATOM     46  C   UNL A   1      44.733  25.502  26.366  1.00  0.00     0.031 C 
ATOM     47  C   UNL A   1      38.931  27.470  29.567  1.00  0.00     0.029 A 
ATOM     48  C   UNL A   1      40.001  28.461  29.554  1.00  0.00     0.049 A 
ATOM     49  H   UNL A   1      41.878  28.286  28.665  1.00  0.00     0.167 HD
ATOM     50  C   UNL A   1      45.816  27.694  26.743  1.00  0.00     0.034 A 
ATOM     51  C   UNL A   1      39.951  29.677  30.134  1.00  0.00     0.034 A 
ATOM     52  C   UNL A   1      45.819  29.040  27.253  1.00  0.00     0.049 A 
ATOM     53  C   UNL A   1      41.155  30.579  30.013  1.00  0.00     0.074 A 
ATOM     54  C   UNL A   1      46.809  29.998  27.139  1.00  0.00     0.029 A 
ATOM     55  N   UNL A   1      44.788  29.614  27.986  1.00  0.00    -0.354 N 
ATOM     56  N   UNL A   1      42.298  30.354  29.403  1.00  0.00    -0.248 NA
ATOM     57  C   UNL A   1      41.059  31.899  30.645  1.00  0.00     0.031 C 
ATOM     58  C   UNL A   1      46.417  31.115  27.881  1.00  0.00     0.029 A 
ATOM     59  C   UNL A   1      45.138  30.899  28.368  1.00  0.00     0.049 A 
ATOM     60  H   UNL A   1      43.935  29.172  28.202  1.00  0.00     0.167 HD
ATOM     61  C   UNL A   1      43.042  31.523  29.551  1.00  0.00     0.074 A 
ATOM     62  C   UNL A   1      42.210  32.450  30.291  1.00  0.00     0.031 C 
ATOM     63  C   UNL A   1      44.296  31.806  29.113  1.00  0.00     0.034 A 
BRANCH  50  64
ATOM     64  C   UNL A   1      47.047  27.164  26.045  1.00  0.00     0.023 A 
ATOM     65  C   UNL A   1      48.047  26.460  26.740  1.00  0.00     0.031 A 
ATOM     66  C   UNL A   1      47.238  27.396  24.673  1.00  0.00     0.131 A 
ATOM     67  C   UNL A   1      49.224  26.081  26.078  1.00  0.00     0.055 A 
ATOM     68  C   UNL A   1      48.369  26.933  24.000  1.00  0.00     0.041 A 
ATOM     69  F   UNL A   1      46.335  28.092  23.964  1.00  0.00    -0.206 F 
ATOM     70  C   UNL A   1      49.379  26.284  24.706  1.00  0.00     0.022 A 
BRANCH  67  71
ATOM     71  S   UNL A   1      50.615  25.471  27.069  1.00  0.00     0.124 S 
ATOM     72  O   UNL A   1      51.623  25.225  26.041  1.00  0.00    -0.237 OA
ATOM     73  O   UNL A   1      50.878  26.588  27.967  1.00  0.00    -0.237 OA
ATOM     74  O   UNL A   1      50.081  24.268  27.706  1.00  0.00    -0.744 OA
ENDBRANCH  67  71
ENDBRANCH  50  64
BRANCH  51  75
ATOM     75  C   UNL A   1      38.739  30.111  30.887  1.00  0.00     0.023 A 
ATOM     76  C   UNL A   1      37.721  30.850  30.263  1.00  0.00     0.031 A 
ATOM     77  C   UNL A   1      38.603  29.837  32.261  1.00  0.00     0.131 A 
ATOM     78  C   UNL A   1      36.645  31.338  31.021  1.00  0.00     0.055 A 
ATOM     79  C   UNL A   1      37.496  30.266  32.995  1.00  0.00     0.041 A 
ATOM     80  F   UNL A   1      39.546  29.137  32.910  1.00  0.00    -0.206 F 
ATOM     81  C   UNL A   1      36.516  31.035  32.378  1.00  0.00     0.022 A 
BRANCH  78  82
ATOM     82  S   UNL A   1      35.471  32.473  30.230  1.00  0.00     0.124 S 
ATOM     83  O   UNL A   1      34.379  32.488  31.196  1.00  0.00    -0.237 OA
ATOM     84  O   UNL A   1      36.257  33.698  30.128  1.00  0.00    -0.237 OA
ATOM     85  O   UNL A   1      35.171  31.818  28.958  1.00  0.00    -0.744 OA
ENDBRANCH  78  82
ENDBRANCH  51  75
BRANCH  63  86
ATOM     86  C   UNL A   1      44.821  33.197  29.377  1.00  0.00     0.023 A 
ATOM     87  C   UNL A   1      44.773  34.207  28.402  1.00  0.00     0.031 A 
ATOM     88  C   UNL A   1      45.382  33.511  30.628  1.00  0.00     0.131 A 
ATOM     89  C   UNL A   1      45.336  35.463  28.671  1.00  0.00     0.055 A 
ATOM     90  C   UNL A   1      45.867  34.787  30.917  1.00  0.00     0.041 A 
ATOM     91  F   UNL A   1      45.460  32.584  31.596  1.00  0.00    -0.206 F 
ATOM     92  C   UNL A   1      45.861  35.767  29.930  1.00  0.00     0.022 A 
BRANCH  89  93
ATOM     93  S   UNL A   1      45.487  36.655  27.313  1.00  0.00     0.124 S 
ATOM     94  O   UNL A   1      46.690  37.390  27.689  1.00  0.00    -0.237 OA
ATOM     95  O   UNL A   1      45.609  35.786  26.147  1.00  0.00    -0.237 OA
ATOM     96  O   UNL A   1      44.243  37.419  27.389  1.00  0.00    -0.744 OA
ENDBRANCH  89  93
ENDBRANCH  63  86
ENDBRANCH  37  38
ENDBRANCH  29  32
ENDBRANCH  27  28
ENDBRANCH  26  27
ENDBRANCH  25  26
ENDBRANCH   1  25
TORSDOF 20
ENDMDL
MODEL 2
REMARK VINA RESULT:     -11.8      1.754      3.074
REMARK SMILES C[NH2+][C@]1(C(=O)NCCCCNC(=O)c2ccc(-c3c4nc(c(-c5cc(S(=O)(=O)[O-])ccc5F)c5ccc([nH]5)c(-c5cc(S(=O)(=O)[O-])ccc5F)c5nc(c(-c6cc(S(=O)(=O)[O-])ccc6F)c6ccc3[nH]6)C=C5)C=C4)cc2)CC[C@@H](OCCCc2ccccc2)C1
REMARK SMILES IDX 7 1 6 2 4 3 5 4 3 6 77 7 90 8 78 9 79 10 2 11 1 12 80 15
REMARK SMILES IDX 81 16 82 17 83 18 84 19 85 20 89 21 86 22 88 23 87 24 8 25
REMARK SMILES IDX 9 26 10 27 11 28 12 29 13 31 14 32 15 33 76 34 16 35 75 36
REMARK SMILES IDX 17 37 18 38 19 39 69 40 20 41 74 42 68 43 70 44 21 45 73 46
REMARK SMILES IDX 67 47 66 48 22 50 54 51 34 52 53 53 35 54 38 55 52 56 71 57
REMARK SMILES IDX 36 58 37 59 51 61 72 62 39 63 23 64 24 65 32 66 25 67 31 68
REMARK SMILES IDX 33 69 30 70 26 71 27 72 28 73 29 74 55 75 56 76 64 77 57 78
REMARK SMILES IDX 63 79 65 80 62 81 58 82 59 83 60 84 61 85 40 86 41 87 49 88
REMARK SMILES IDX 42 89 48 90 50 91 47 92 43 93 44 94 45 95 46 96
REMARK H PARENT 6 5 2 13 2 14 11 30 70 49 38 60
REMARK Flexibility Score: inf
ROOT
ATOM      1  C   UNL A   1      33.953  23.249  26.708  1.00  0.00     0.116 C 
ENDROOT
BRANCH   1   2
ATOM      2  N   UNL A   1      32.639  24.238  26.766  1.00  0.00    -0.351 N 
ATOM      3  C   UNL A   1      32.076  26.085  26.429  1.00  0.00     0.281 C 
ATOM      4  O   UNL A   1      30.957  26.633  26.741  1.00  0.00    -0.268 OA
ATOM      5  H   UNL A   1      31.863  23.720  27.080  1.00  0.00     0.163 HD
BRANCH   3   6
ATOM      6  C   UNL A   1      33.019  27.525  25.675  1.00  0.00     0.177 C 
ATOM      7  C   UNL A   1      33.905  27.014  24.480  1.00  0.00     0.082 C 
ATOM      8  C   UNL A   1      32.566  28.962  25.179  1.00  0.00     0.111 C 
ATOM      9  C   UNL A   1      33.771  27.984  23.300  1.00  0.00     0.039 C 
ATOM     10  C   UNL A   1      32.709  29.007  23.651  1.00  0.00     0.125 C 
BRANCH   6  11
ATOM     11  N   UNL A   1      34.137  27.834  26.688  1.00  0.00    -0.336 N 
ATOM     12  C   UNL A   1      34.144  29.144  27.306  1.00  0.00     0.331 C 
ATOM     13  H   UNL A   1      34.069  27.144  27.436  1.00  0.00     0.346 HD
ATOM     14  H   UNL A   1      34.997  27.804  26.140  1.00  0.00     0.346 HD
ENDBRANCH   6  11
BRANCH  10  15
ATOM     15  O   UNL A   1      31.661  29.116  22.702  1.00  0.00    -0.378 OA
BRANCH  15  16
ATOM     16  C   UNL A   1      30.327  28.682  22.810  1.00  0.00     0.161 C 
BRANCH  16  17
ATOM     17  C   UNL A   1      29.955  27.708  23.919  1.00  0.00     0.033 C 
BRANCH  17  18
ATOM     18  C   UNL A   1      29.553  26.291  23.568  1.00  0.00     0.038 C 
BRANCH  18  19
ATOM     19  C   UNL A   1      30.563  25.327  23.004  1.00  0.00    -0.048 A 
ATOM     20  C   UNL A   1      31.824  25.683  21.685  1.00  0.00     0.004 A 
ATOM     21  C   UNL A   1      30.669  23.740  23.913  1.00  0.00     0.004 A 
ATOM     22  C   UNL A   1      33.101  24.442  21.284  1.00  0.00     0.000 A 
ATOM     23  C   UNL A   1      31.983  22.541  23.548  1.00  0.00     0.000 A 
ATOM     24  C   UNL A   1      33.176  22.891  22.209  1.00  0.00     0.000 A 
ENDBRANCH  18  19
ENDBRANCH  17  18
ENDBRANCH  16  17
ENDBRANCH  15  16
ENDBRANCH  10  15
ENDBRANCH   3   6
ENDBRANCH   1   2
BRANCH   1  25
ATOM     25  C   UNL A   1      34.891  23.651  25.573  1.00  0.00     0.023 C 
BRANCH  25  26
ATOM     26  C   UNL A   1      35.624  22.468  24.969  1.00  0.00     0.023 C 
BRANCH  26  27
ATOM     27  C   UNL A   1      37.127  22.687  24.868  1.00  0.00     0.116 C 
BRANCH  27  28
ATOM     28  N   UNL A   1      37.887  21.490  25.243  1.00  0.00    -0.352 N 
ATOM     29  C   UNL A   1      39.058  21.419  25.952  1.00  0.00     0.251 C 
ATOM     30  H   UNL A   1      37.509  20.631  24.949  1.00  0.00     0.163 HD
ATOM     31  O   UNL A   1      39.717  20.388  25.997  1.00  0.00    -0.269 OA
BRANCH  29  32
ATOM     32  C   UNL A   1      39.481  22.646  26.634  1.00  0.00     0.039 A 
ATOM     33  C   UNL A   1      40.514  22.589  27.565  1.00  0.00     0.014 A 
ATOM     34  C   UNL A   1      38.971  23.863  26.171  1.00  0.00     0.014 A 
ATOM     35  C   UNL A   1      41.084  23.782  27.996  1.00  0.00     0.010 A 
ATOM     36  C   UNL A   1      39.631  25.031  26.499  1.00  0.00     0.010 A 
ATOM     37  C   UNL A   1      40.677  25.005  27.432  1.00  0.00    -0.014 A 
BRANCH  37  38
ATOM     38  C   UNL A   1      41.307  26.281  27.837  1.00  0.00     0.031 A 
ATOM     39  C   UNL A   1      42.716  26.571  27.399  1.00  0.00     0.074 A 
ATOM     40  C   UNL A   1      40.632  27.145  28.620  1.00  0.00     0.049 A 
ATOM     41  N   UNL A   1      43.469  27.604  27.673  1.00  0.00    -0.248 NA
ATOM     42  C   UNL A   1      43.382  25.547  26.577  1.00  0.00     0.031 C 
ATOM     43  C   UNL A   1      39.277  26.937  29.139  1.00  0.00     0.029 A 
ATOM     44  N   UNL A   1      40.988  28.374  29.111  1.00  0.00    -0.354 N 
ATOM     45  C   UNL A   1      44.691  27.348  27.064  1.00  0.00     0.074 A 
ATOM     46  C   UNL A   1      44.610  26.026  26.486  1.00  0.00     0.031 C 
ATOM     47  C   UNL A   1      38.900  28.024  29.830  1.00  0.00     0.029 A 
ATOM     48  C   UNL A   1      40.002  28.978  29.857  1.00  0.00     0.049 A 
ATOM     49  H   UNL A   1      41.866  28.785  28.945  1.00  0.00     0.167 HD
ATOM     50  C   UNL A   1      45.769  28.159  26.963  1.00  0.00     0.034 A 
ATOM     51  C   UNL A   1      39.997  30.165  30.497  1.00  0.00     0.034 A 
ATOM     52  C   UNL A   1      45.821  29.477  27.539  1.00  0.00     0.049 A 
ATOM     53  C   UNL A   1      41.230  31.031  30.411  1.00  0.00     0.074 A 
ATOM     54  C   UNL A   1      46.841  30.407  27.465  1.00  0.00     0.029 A 
ATOM     55  N   UNL A   1      44.814  30.048  28.308  1.00  0.00    -0.354 N 
ATOM     56  N   UNL A   1      42.360  30.799  29.782  1.00  0.00    -0.248 NA
ATOM     57  C   UNL A   1      41.182  32.320  31.109  1.00  0.00     0.031 C 
ATOM     58  C   UNL A   1      46.493  31.498  28.265  1.00  0.00     0.029 A 
ATOM     59  C   UNL A   1      45.210  31.300  28.751  1.00  0.00     0.049 A 
ATOM     60  H   UNL A   1      43.949  29.625  28.509  1.00  0.00     0.167 HD
ATOM     61  C   UNL A   1      43.144  31.933  29.982  1.00  0.00     0.074 A 
ATOM     62  C   UNL A   1      42.349  32.849  30.774  1.00  0.00     0.031 C 
ATOM     63  C   UNL A   1      44.404  32.196  29.547  1.00  0.00     0.034 A 
BRANCH  50  64
ATOM     64  C   UNL A   1      46.976  27.625  26.229  1.00  0.00     0.023 A 
ATOM     65  C   UNL A   1      47.236  27.959  24.888  1.00  0.00     0.031 A 
ATOM     66  C   UNL A   1      47.862  26.743  26.870  1.00  0.00     0.131 A 
ATOM     67  C   UNL A   1      48.306  27.356  24.210  1.00  0.00     0.055 A 
ATOM     68  C   UNL A   1      48.980  26.221  26.218  1.00  0.00     0.041 A 
ATOM     69  F   UNL A   1      47.648  26.361  28.139  1.00  0.00    -0.206 F 
ATOM     70  C   UNL A   1      49.199  26.514  24.875  1.00  0.00     0.022 A 
BRANCH  67  71
ATOM     71  S   UNL A   1      48.415  27.558  22.411  1.00  0.00     0.124 S 
ATOM     72  O   UNL A   1      47.126  28.173  22.106  1.00  0.00    -0.237 OA
ATOM     73  O   UNL A   1      49.584  28.416  22.260  1.00  0.00    -0.237 OA
ATOM     74  O   UNL A   1      48.575  26.190  21.922  1.00  0.00    -0.744 OA
ENDBRANCH  67  71
ENDBRANCH  50  64
BRANCH  51  75
ATOM     75  C   UNL A   1      38.805  30.600  31.281  1.00  0.00     0.023 A 
ATOM     76  C   UNL A   1      37.704  31.205  30.654  1.00  0.00     0.031 A 
ATOM     77  C   UNL A   1      38.770  30.465  32.682  1.00  0.00     0.131 A 
ATOM     78  C   UNL A   1      36.644  31.703  31.428  1.00  0.00     0.055 A 
ATOM     79  C   UNL A   1      37.682  30.901  33.440  1.00  0.00     0.041 A 
ATOM     80  F   UNL A   1      39.796  29.897  33.334  1.00  0.00    -0.206 F 
ATOM     81  C   UNL A   1      36.617  31.538  32.814  1.00  0.00     0.022 A 
BRANCH  78  82
ATOM     82  S   UNL A   1      35.350  32.674  30.605  1.00  0.00     0.124 S 
ATOM     83  O   UNL A   1      35.997  33.973  30.472  1.00  0.00    -0.237 OA
ATOM     84  O   UNL A   1      35.151  31.924  29.369  1.00  0.00    -0.237 OA
ATOM     85  O   UNL A   1      34.236  32.623  31.550  1.00  0.00    -0.744 OA
ENDBRANCH  78  82
ENDBRANCH  51  75
BRANCH  63  86
ATOM     86  C   UNL A   1      44.977  33.553  29.876  1.00  0.00     0.023 A 
ATOM     87  C   UNL A   1      44.789  34.664  29.035  1.00  0.00     0.031 A 
ATOM     88  C   UNL A   1      45.728  33.734  31.052  1.00  0.00     0.131 A 
ATOM     89  C   UNL A   1      45.400  35.886  29.349  1.00  0.00     0.055 A 
ATOM     90  C   UNL A   1      46.264  34.975  31.399  1.00  0.00     0.041 A 
ATOM     91  F   UNL A   1      45.945  32.708  31.890  1.00  0.00    -0.206 F 
ATOM     92  C   UNL A   1      46.116  36.056  30.537  1.00  0.00     0.022 A 
BRANCH  89  93
ATOM     93  S   UNL A   1      45.350  37.220  28.121  1.00  0.00     0.124 S 
ATOM     94  O   UNL A   1      44.073  36.974  27.459  1.00  0.00    -0.237 OA
ATOM     95  O   UNL A   1      45.416  38.415  28.955  1.00  0.00    -0.237 OA
ATOM     96  O   UNL A   1      46.533  36.972  27.299  1.00  0.00    -0.744 OA
ENDBRANCH  89  93
ENDBRANCH  63  86
ENDBRANCH  37  38
ENDBRANCH  29  32
ENDBRANCH  27  28
ENDBRANCH  26  27
ENDBRANCH  25  26
ENDBRANCH   1  25
TORSDOF 20
ENDMDL
MODEL 3
REMARK VINA RESULT:     -11.2      2.393      2.712
REMARK SMILES C[NH2+][C@]1(C(=O)NCCCCNC(=O)c2ccc(-c3c4nc(c(-c5cc(S(=O)(=O)[O-])ccc5F)c5ccc([nH]5)c(-c5cc(S(=O)(=O)[O-])ccc5F)c5nc(c(-c6cc(S(=O)(=O)[O-])ccc6F)c6ccc3[nH]6)C=C5)C=C4)cc2)CC[C@@H](OCCCc2ccccc2)C1
REMARK SMILES IDX 7 1 6 2 4 3 5 4 3 6 77 7 90 8 78 9 79 10 2 11 1 12 80 15
REMARK SMILES IDX 81 16 82 17 83 18 84 19 85 20 89 21 86 22 88 23 87 24 8 25
REMARK SMILES IDX 9 26 10 27 11 28 12 29 13 31 14 32 15 33 76 34 16 35 75 36
REMARK SMILES IDX 17 37 18 38 19 39 69 40 20 41 74 42 68 43 70 44 21 45 73 46
REMARK SMILES IDX 67 47 66 48 22 50 54 51 34 52 53 53 35 54 38 55 52 56 71 57
REMARK SMILES IDX 36 58 37 59 51 61 72 62 39 63 23 64 24 65 32 66 25 67 31 68
REMARK SMILES IDX 33 69 30 70 26 71 27 72 28 73 29 74 55 75 56 76 64 77 57 78
REMARK SMILES IDX 63 79 65 80 62 81 58 82 59 83 60 84 61 85 40 86 41 87 49 88
REMARK SMILES IDX 42 89 48 90 50 91 47 92 43 93 44 94 45 95 46 96
REMARK H PARENT 6 5 2 13 2 14 11 30 70 49 38 60
REMARK Flexibility Score: inf
ROOT
ATOM      1  C   UNL A   1      34.504  22.955  27.110  1.00  0.00     0.116 C 
ENDROOT
BRANCH   1   2
ATOM      2  N   UNL A   1      32.931  23.339  26.816  1.00  0.00    -0.351 N 
ATOM      3  C   UNL A   1      31.706  23.852  25.375  1.00  0.00     0.281 C 
ATOM      4  O   UNL A   1      30.497  24.271  25.485  1.00  0.00    -0.268 OA
ATOM      5  H   UNL A   1      32.428  23.295  27.662  1.00  0.00     0.163 HD
BRANCH   3   6
ATOM      6  C   UNL A   1      31.988  23.958  23.520  1.00  0.00     0.177 C 
ATOM      7  C   UNL A   1      30.958  24.960  22.880  1.00  0.00     0.082 C 
ATOM      8  C   UNL A   1      33.290  24.198  22.645  1.00  0.00     0.111 C 
ATOM      9  C   UNL A   1      31.686  25.865  21.879  1.00  0.00     0.039 C 
ATOM     10  C   UNL A   1      33.170  25.575  21.977  1.00  0.00     0.125 C 
BRANCH   6  11
ATOM     11  N   UNL A   1      31.421  22.641  22.961  1.00  0.00    -0.336 N 
ATOM     12  C   UNL A   1      32.337  21.532  22.789  1.00  0.00     0.331 C 
ATOM     13  H   UNL A   1      30.685  22.333  23.596  1.00  0.00     0.346 HD
ATOM     14  H   UNL A   1      31.117  22.872  22.015  1.00  0.00     0.346 HD
ENDBRANCH   6  11
BRANCH  10  15
ATOM     15  O   UNL A   1      33.976  26.714  22.228  1.00  0.00    -0.378 OA
BRANCH  15  16
ATOM     16  C   UNL A   1      33.581  28.058  22.366  1.00  0.00     0.161 C 
BRANCH  16  17
ATOM     17  C   UNL A   1      33.287  28.603  23.755  1.00  0.00     0.033 C 
BRANCH  17  18
ATOM     18  C   UNL A   1      31.954  28.308  24.410  1.00  0.00     0.038 C 
BRANCH  18  19
ATOM     19  C   UNL A   1      30.699  28.987  23.929  1.00  0.00    -0.048 A 
ATOM     20  C   UNL A   1      29.247  28.179  23.096  1.00  0.00     0.004 A 
ATOM     21  C   UNL A   1      30.546  30.734  24.460  1.00  0.00     0.004 A 
ATOM     22  C   UNL A   1      27.727  29.139  22.777  1.00  0.00     0.000 A 
ATOM     23  C   UNL A   1      29.005  31.659  24.194  1.00  0.00     0.000 A 
ATOM     24  C   UNL A   1      27.613  30.859  23.323  1.00  0.00     0.000 A 
ENDBRANCH  18  19
ENDBRANCH  17  18
ENDBRANCH  16  17
ENDBRANCH  15  16
ENDBRANCH  10  15
ENDBRANCH   3   6
ENDBRANCH   1   2
BRANCH   1  25
ATOM     25  C   UNL A   1      35.398  23.388  25.952  1.00  0.00     0.023 C 
BRANCH  25  26
ATOM     26  C   UNL A   1      36.165  22.233  25.336  1.00  0.00     0.023 C 
BRANCH  26  27
ATOM     27  C   UNL A   1      37.663  22.491  25.247  1.00  0.00     0.116 C 
BRANCH  27  28
ATOM     28  N   UNL A   1      38.449  21.373  25.780  1.00  0.00    -0.352 N 
ATOM     29  C   UNL A   1      39.618  21.426  26.493  1.00  0.00     0.251 C 
ATOM     30  H   UNL A   1      38.092  20.474  25.602  1.00  0.00     0.163 HD
ATOM     31  O   UNL A   1      40.301  20.426  26.676  1.00  0.00    -0.269 OA
BRANCH  29  32
ATOM     32  C   UNL A   1      40.009  22.742  27.006  1.00  0.00     0.039 A 
ATOM     33  C   UNL A   1      40.987  22.829  27.993  1.00  0.00     0.014 A 
ATOM     34  C   UNL A   1      39.533  23.874  26.338  1.00  0.00     0.014 A 
ATOM     35  C   UNL A   1      41.539  24.074  28.271  1.00  0.00     0.010 A 
ATOM     36  C   UNL A   1      40.180  25.081  26.524  1.00  0.00     0.010 A 
ATOM     37  C   UNL A   1      41.172  25.197  27.508  1.00  0.00    -0.014 A 
BRANCH  37  38
ATOM     38  C   UNL A   1      41.785  26.522  27.752  1.00  0.00     0.031 A 
ATOM     39  C   UNL A   1      43.146  26.812  27.183  1.00  0.00     0.074 A 
ATOM     40  C   UNL A   1      41.140  27.432  28.509  1.00  0.00     0.049 A 
ATOM     41  N   UNL A   1      43.880  27.886  27.307  1.00  0.00    -0.248 NA
ATOM     42  C   UNL A   1      43.783  25.739  26.402  1.00  0.00     0.031 C 
ATOM     43  C   UNL A   1      39.836  27.231  29.147  1.00  0.00     0.029 A 
ATOM     44  N   UNL A   1      41.488  28.708  28.863  1.00  0.00    -0.354 N 
ATOM     45  C   UNL A   1      45.061  27.613  26.629  1.00  0.00     0.074 A 
ATOM     46  C   UNL A   1      44.984  26.244  26.175  1.00  0.00     0.031 C 
ATOM     47  C   UNL A   1      39.474  28.364  29.770  1.00  0.00     0.029 A 
ATOM     48  C   UNL A   1      40.541  29.348  29.630  1.00  0.00     0.049 A 
ATOM     49  H   UNL A   1      42.337  29.129  28.595  1.00  0.00     0.167 HD
ATOM     50  C   UNL A   1      46.099  28.443  26.375  1.00  0.00     0.034 A 
ATOM     51  C   UNL A   1      40.542  30.585  30.164  1.00  0.00     0.034 A 
ATOM     52  C   UNL A   1      46.148  29.807  26.831  1.00  0.00     0.049 A 
ATOM     53  C   UNL A   1      41.733  31.475  29.909  1.00  0.00     0.074 A 
ATOM     54  C   UNL A   1      47.126  30.755  26.599  1.00  0.00     0.029 A 
ATOM     55  N   UNL A   1      45.182  30.414  27.625  1.00  0.00    -0.354 N 
ATOM     56  N   UNL A   1      42.821  31.222  29.215  1.00  0.00    -0.248 NA
ATOM     57  C   UNL A   1      41.693  32.819  30.496  1.00  0.00     0.031 C 
ATOM     58  C   UNL A   1      46.801  31.902  27.327  1.00  0.00     0.029 A 
ATOM     59  C   UNL A   1      45.566  31.711  27.927  1.00  0.00     0.049 A 
ATOM     60  H   UNL A   1      44.350  29.986  27.928  1.00  0.00     0.167 HD
ATOM     61  C   UNL A   1      43.577  32.391  29.256  1.00  0.00     0.074 A 
ATOM     62  C   UNL A   1      42.812  33.350  30.026  1.00  0.00     0.031 C 
ATOM     63  C   UNL A   1      44.791  32.650  28.704  1.00  0.00     0.034 A 
BRANCH  50  64
ATOM     64  C   UNL A   1      47.266  27.881  25.599  1.00  0.00     0.023 A 
ATOM     65  C   UNL A   1      47.455  28.167  24.234  1.00  0.00     0.031 A 
ATOM     66  C   UNL A   1      48.185  27.020  26.222  1.00  0.00     0.131 A 
ATOM     67  C   UNL A   1      48.487  27.538  23.523  1.00  0.00     0.055 A 
ATOM     68  C   UNL A   1      49.266  26.473  25.531  1.00  0.00     0.041 A 
ATOM     69  F   UNL A   1      48.038  26.683  27.514  1.00  0.00    -0.206 F 
ATOM     70  C   UNL A   1      49.414  26.718  24.169  1.00  0.00     0.022 A 
BRANCH  67  71
ATOM     71  S   UNL A   1      48.501  27.677  21.715  1.00  0.00     0.124 S 
ATOM     72  O   UNL A   1      48.835  26.312  21.318  1.00  0.00    -0.237 OA
ATOM     73  O   UNL A   1      47.141  28.113  21.421  1.00  0.00    -0.237 OA
ATOM     74  O   UNL A   1      49.546  28.666  21.455  1.00  0.00    -0.744 OA
ENDBRANCH  67  71
ENDBRANCH  50  64
BRANCH  51  75
ATOM     75  C   UNL A   1      39.398  31.054  30.998  1.00  0.00     0.023 A 
ATOM     76  C   UNL A   1      39.505  31.142  32.396  1.00  0.00     0.031 A 
ATOM     77  C   UNL A   1      38.157  31.371  30.415  1.00  0.00     0.131 A 
ATOM     78  C   UNL A   1      38.381  31.481  33.165  1.00  0.00     0.055 A 
ATOM     79  C   UNL A   1      37.061  31.774  31.179  1.00  0.00     0.041 A 
ATOM     80  F   UNL A   1      37.996  31.301  29.084  1.00  0.00    -0.206 F 
ATOM     81  C   UNL A   1      37.165  31.815  32.565  1.00  0.00     0.022 A 
BRANCH  78  82
ATOM     82  S   UNL A   1      38.499  31.368  34.972  1.00  0.00     0.124 S 
ATOM     83  O   UNL A   1      37.254  32.002  35.389  1.00  0.00    -0.237 OA
ATOM     84  O   UNL A   1      38.588  29.926  35.179  1.00  0.00    -0.237 OA
ATOM     85  O   UNL A   1      39.716  32.117  35.279  1.00  0.00    -0.744 OA
ENDBRANCH  78  82
ENDBRANCH  51  75
BRANCH  63  86
ATOM     86  C   UNL A   1      45.339  34.047  28.870  1.00  0.00     0.023 A 
ATOM     87  C   UNL A   1      46.176  34.395  29.944  1.00  0.00     0.031 A 
ATOM     88  C   UNL A   1      45.012  35.047  27.936  1.00  0.00     0.131 A 
ATOM     89  C   UNL A   1      46.603  35.722  30.094  1.00  0.00     0.055 A 
ATOM     90  C   UNL A   1      45.507  36.347  28.046  1.00  0.00     0.041 A 
ATOM     91  F   UNL A   1      44.212  34.775  26.893  1.00  0.00    -0.206 F 
ATOM     92  C   UNL A   1      46.294  36.695  29.139  1.00  0.00     0.022 A 
BRANCH  89  93
ATOM     93  S   UNL A   1      47.465  36.189  31.619  1.00  0.00     0.124 S 
ATOM     94  O   UNL A   1      48.308  37.291  31.165  1.00  0.00    -0.237 OA
ATOM     95  O   UNL A   1      46.362  36.552  32.502  1.00  0.00    -0.237 OA
ATOM     96  O   UNL A   1      48.183  34.972  31.993  1.00  0.00    -0.744 OA
ENDBRANCH  89  93
ENDBRANCH  63  86
ENDBRANCH  37  38
ENDBRANCH  29  32
ENDBRANCH  27  28
ENDBRANCH  26  27
ENDBRANCH  25  26
ENDBRANCH   1  25
TORSDOF 20
ENDMDL
