MODEL 1
REMARK VINA RESULT:     -12.7      0.000      0.000
REMARK SMILES Cc1[nH]c2ccccc2c1/C=C1/SC(=S)N(c2cccc(C(=O)NCCCCNC(=O)c3ccc(-c4c5nc(c(-c6cc(S(=O)(=O)[O-])ccc6F)c6ccc([nH]6)c(-c6cc(S(=O)(=O)[O-])ccc6F)c6nc(c(-c7cc(S(=O)(=O)[O-])ccc7F)c7ccc4[nH]7)C=C6)C=C5)cc3)c2)C1=O
REMARK SMILES IDX 27 1 26 2 25 3 24 4 22 5 23 6 21 8 17 9 18 10 95 11 19 12
REMARK SMILES IDX 20 13 16 14 11 15 12 16 13 17 96 18 14 19 97 20 15 21 10 22
REMARK SMILES IDX 1 23 2 24 3 25 4 26 9 28 5 29 8 30 6 31 7 32 28 33 29 34
REMARK SMILES IDX 30 35 31 37 32 38 33 39 94 40 34 41 93 42 35 43 36 44 37 45
REMARK SMILES IDX 87 46 38 47 92 48 86 49 88 50 39 51 91 52 85 53 84 54 40 56
REMARK SMILES IDX 72 57 52 58 71 59 53 60 56 61 70 62 89 63 54 64 55 65 69 67
REMARK SMILES IDX 90 68 57 69 41 70 42 71 50 72 43 73 49 74 51 75 48 76 44 77
REMARK SMILES IDX 45 78 46 79 47 80 73 81 74 82 82 83 75 84 81 85 83 86 80 87
REMARK SMILES IDX 76 88 77 89 78 90 79 91 58 92 59 93 67 94 60 95 66 96 68 97
REMARK SMILES IDX 65 98 61 99 62 100 63 101 64 102
REMARK H PARENT 24 7 3 27 29 36 88 55 56 66
REMARK Flexibility Score: inf
ROOT
ATOM      1  C   UNL A   1      37.835  20.821  24.905  1.00  0.00     0.023 C 
ENDROOT
BRANCH   1   2
ATOM      2  C   UNL A   1      36.641  21.739  25.130  1.00  0.00     0.023 C 
BRANCH   2   3
ATOM      3  C   UNL A   1      35.419  21.122  25.799  1.00  0.00     0.116 C 
BRANCH   3   4
ATOM      4  N   UNL A   1      35.091  21.679  27.101  1.00  0.00    -0.352 N 
ATOM      5  C   UNL A   1      33.967  22.338  27.548  1.00  0.00     0.251 C 
ATOM      6  O   UNL A   1      33.932  22.733  28.712  1.00  0.00    -0.269 OA
ATOM      7  H   UNL A   1      35.793  21.566  27.781  1.00  0.00     0.163 HD
BRANCH   5   8
ATOM      8  C   UNL A   1      32.824  22.653  26.649  1.00  0.00     0.041 A 
ATOM      9  C   UNL A   1      31.894  23.773  24.703  1.00  0.00     0.051 A 
ATOM     10  C   UNL A   1      30.608  23.531  25.209  1.00  0.00     0.027 A 
ATOM     11  C   UNL A   1      32.992  23.240  25.390  1.00  0.00     0.040 A 
ATOM     12  C   UNL A   1      30.424  22.815  26.393  1.00  0.00     0.003 A 
ATOM     13  C   UNL A   1      31.533  22.400  27.126  1.00  0.00     0.014 A 
BRANCH   9  14
ATOM     14  N   UNL A   1      32.100  24.728  23.653  1.00  0.00    -0.261 N 
ATOM     15  C   UNL A   1      32.406  28.278  22.815  1.00  0.00     0.032 C 
ATOM     16  C   UNL A   1      32.364  26.937  22.831  1.00  0.00     0.081 C 
ATOM     17  S   UNL A   1      33.004  25.961  21.566  1.00  0.00    -0.054 SA
ATOM     18  C   UNL A   1      31.822  26.073  23.918  1.00  0.00     0.270 C 
ATOM     19  C   UNL A   1      32.681  24.455  22.424  1.00  0.00     0.152 C 
ATOM     20  O   UNL A   1      31.264  26.517  24.914  1.00  0.00    -0.268 OA
ATOM     21  S   UNL A   1      32.993  22.982  21.695  1.00  0.00    -0.051 S 
BRANCH  15  22
ATOM     22  C   UNL A   1      31.937  29.147  23.842  1.00  0.00     0.004 A 
ATOM     23  C   UNL A   1      29.641  29.921  22.828  1.00  0.00     0.065 C 
ATOM     24  C   UNL A   1      30.744  29.845  23.820  1.00  0.00     0.020 A 
ATOM     25  N   UNL A   1      30.709  30.608  24.965  1.00  0.00    -0.358 N 
ATOM     26  C   UNL A   1      31.832  30.393  25.732  1.00  0.00     0.046 A 
ATOM     27  H   UNL A   1      29.980  31.225  25.203  1.00  0.00     0.166 HD
ATOM     28  C   UNL A   1      32.617  29.459  25.056  1.00  0.00     0.007 A 
ATOM     29  C   UNL A   1      32.211  30.960  26.953  1.00  0.00     0.027 A 
ATOM     30  C   UNL A   1      33.840  29.061  25.636  1.00  0.00     0.011 A 
ATOM     31  C   UNL A   1      33.429  30.552  27.507  1.00  0.00     0.002 A 
ATOM     32  C   UNL A   1      34.232  29.613  26.862  1.00  0.00     0.001 A 
ENDBRANCH  15  22
ENDBRANCH   9  14
ENDBRANCH   5   8
ENDBRANCH   3   4
ENDBRANCH   2   3
ENDBRANCH   1   2
BRANCH   1  33
ATOM     33  C   UNL A   1      39.037  21.040  25.819  1.00  0.00     0.116 C 
BRANCH  33  34
ATOM     34  N   UNL A   1      39.935  19.899  25.894  1.00  0.00    -0.352 N 
ATOM     35  C   UNL A   1      41.290  19.855  26.146  1.00  0.00     0.251 C 
ATOM     36  H   UNL A   1      39.511  19.024  25.741  1.00  0.00     0.163 HD
ATOM     37  O   UNL A   1      41.879  18.785  26.081  1.00  0.00    -0.269 OA
BRANCH  35  38
ATOM     38  C   UNL A   1      42.030  21.104  26.442  1.00  0.00     0.039 A 
ATOM     39  C   UNL A   1      42.354  21.959  25.385  1.00  0.00     0.014 A 
ATOM     40  C   UNL A   1      42.376  21.450  27.750  1.00  0.00     0.014 A 
ATOM     41  C   UNL A   1      42.932  23.204  25.651  1.00  0.00     0.010 A 
ATOM     42  C   UNL A   1      42.878  22.721  28.020  1.00  0.00     0.010 A 
ATOM     43  C   UNL A   1      43.151  23.617  26.974  1.00  0.00    -0.014 A 
BRANCH  43  44
ATOM     44  C   UNL A   1      43.645  24.985  27.292  1.00  0.00     0.031 A 
ATOM     45  C   UNL A   1      42.698  26.021  27.835  1.00  0.00     0.074 A 
ATOM     46  C   UNL A   1      44.921  25.317  27.010  1.00  0.00     0.049 A 
ATOM     47  N   UNL A   1      42.908  27.290  28.076  1.00  0.00    -0.248 NA
ATOM     48  C   UNL A   1      41.324  25.577  28.111  1.00  0.00     0.031 C 
ATOM     49  C   UNL A   1      45.923  24.416  26.436  1.00  0.00     0.029 A 
ATOM     50  N   UNL A   1      45.593  26.505  27.154  1.00  0.00    -0.354 N 
ATOM     51  C   UNL A   1      41.688  27.802  28.507  1.00  0.00     0.074 A 
ATOM     52  C   UNL A   1      40.733  26.715  28.443  1.00  0.00     0.031 C 
ATOM     53  C   UNL A   1      47.085  25.077  26.298  1.00  0.00     0.029 A 
ATOM     54  C   UNL A   1      46.903  26.459  26.728  1.00  0.00     0.049 A 
ATOM     55  H   UNL A   1      45.178  27.317  27.527  1.00  0.00     0.167 HD
ATOM     56  C   UNL A   1      41.396  29.056  28.934  1.00  0.00     0.034 A 
ATOM     57  C   UNL A   1      47.843  27.423  26.676  1.00  0.00     0.034 A 
ATOM     58  C   UNL A   1      42.366  30.121  29.020  1.00  0.00     0.049 A 
ATOM     59  C   UNL A   1      47.493  28.810  27.154  1.00  0.00     0.074 A 
ATOM     60  C   UNL A   1      42.197  31.403  29.514  1.00  0.00     0.029 A 
ATOM     61  N   UNL A   1      43.686  30.031  28.596  1.00  0.00    -0.354 N 
ATOM     62  N   UNL A   1      46.350  29.260  27.620  1.00  0.00    -0.248 NA
ATOM     63  C   UNL A   1      48.562  29.817  27.109  1.00  0.00     0.031 C 
ATOM     64  C   UNL A   1      43.393  32.105  29.331  1.00  0.00     0.029 A 
ATOM     65  C   UNL A   1      44.331  31.243  28.788  1.00  0.00     0.049 A 
ATOM     66  H   UNL A   1      44.102  29.224  28.213  1.00  0.00     0.167 HD
ATOM     67  C   UNL A   1      46.577  30.591  27.955  1.00  0.00     0.074 A 
ATOM     68  C   UNL A   1      47.965  30.867  27.650  1.00  0.00     0.031 C 
ATOM     69  C   UNL A   1      45.716  31.504  28.474  1.00  0.00     0.034 A 
BRANCH  56  70
ATOM     70  C   UNL A   1      39.964  29.347  29.314  1.00  0.00     0.023 A 
ATOM     71  C   UNL A   1      39.556  29.424  30.657  1.00  0.00     0.031 A 
ATOM     72  C   UNL A   1      38.988  29.528  28.318  1.00  0.00     0.131 A 
ATOM     73  C   UNL A   1      38.199  29.598  30.968  1.00  0.00     0.055 A 
ATOM     74  C   UNL A   1      37.652  29.782  28.635  1.00  0.00     0.041 A 
ATOM     75  F   UNL A   1      39.314  29.448  27.019  1.00  0.00    -0.206 F 
ATOM     76  C   UNL A   1      37.248  29.804  29.967  1.00  0.00     0.022 A 
BRANCH  73  77
ATOM     77  S   UNL A   1      37.677  29.415  32.695  1.00  0.00     0.124 S 
ATOM     78  O   UNL A   1      36.388  30.103  32.687  1.00  0.00    -0.237 OA
ATOM     79  O   UNL A   1      37.627  27.967  32.857  1.00  0.00    -0.237 OA
ATOM     80  O   UNL A   1      38.732  30.092  33.446  1.00  0.00    -0.744 OA
ENDBRANCH  73  77
ENDBRANCH  56  70
BRANCH  57  81
ATOM     81  C   UNL A   1      49.207  27.129  26.149  1.00  0.00     0.023 A 
ATOM     82  C   UNL A   1      49.569  27.495  24.843  1.00  0.00     0.031 A 
ATOM     83  C   UNL A   1      50.150  26.428  26.921  1.00  0.00     0.131 A 
ATOM     84  C   UNL A   1      50.817  27.112  24.327  1.00  0.00     0.055 A 
ATOM     85  C   UNL A   1      51.410  26.095  26.423  1.00  0.00     0.041 A 
ATOM     86  F   UNL A   1      49.859  26.059  28.179  1.00  0.00    -0.206 F 
ATOM     87  C   UNL A   1      51.745  26.424  25.113  1.00  0.00     0.022 A 
BRANCH  84  88
ATOM     88  S   UNL A   1      51.173  27.443  22.580  1.00  0.00     0.124 S 
ATOM     89  O   UNL A   1      51.160  28.900  22.544  1.00  0.00    -0.237 OA
ATOM     90  O   UNL A   1      52.476  26.808  22.413  1.00  0.00    -0.237 OA
ATOM     91  O   UNL A   1      50.070  26.790  21.878  1.00  0.00    -0.744 OA
ENDBRANCH  84  88
ENDBRANCH  57  81
BRANCH  69  92
ATOM     92  C   UNL A   1      46.276  32.869  28.792  1.00  0.00     0.023 A 
ATOM     93  C   UNL A   1      46.227  33.924  27.864  1.00  0.00     0.031 A 
ATOM     94  C   UNL A   1      46.880  33.109  30.039  1.00  0.00     0.131 A 
ATOM     95  C   UNL A   1      46.821  35.155  28.177  1.00  0.00     0.055 A 
ATOM     96  C   UNL A   1      47.418  34.354  30.366  1.00  0.00     0.041 A 
ATOM     97  F   UNL A   1      46.954  32.136  30.961  1.00  0.00    -0.206 F 
ATOM     98  C   UNL A   1      47.402  35.383  29.428  1.00  0.00     0.022 A 
BRANCH  95  99
ATOM     99  S   UNL A   1      46.903  36.435  26.893  1.00  0.00     0.124 S 
ATOM    100  O   UNL A   1      45.614  37.102  27.047  1.00  0.00    -0.237 OA
ATOM    101  O   UNL A   1      48.073  37.208  27.297  1.00  0.00    -0.237 OA
ATOM    102  O   UNL A   1      47.062  35.671  25.657  1.00  0.00    -0.744 OA
ENDBRANCH  95  99
ENDBRANCH  69  92
ENDBRANCH  43  44
ENDBRANCH  35  38
ENDBRANCH  33  34
ENDBRANCH   1  33
TORSDOF 16
ENDMDL
MODEL 2
REMARK VINA RESULT:     -12.7      5.342     11.497
REMARK SMILES Cc1[nH]c2ccccc2c1/C=C1/SC(=S)N(c2cccc(C(=O)NCCCCNC(=O)c3ccc(-c4c5nc(c(-c6cc(S(=O)(=O)[O-])ccc6F)c6ccc([nH]6)c(-c6cc(S(=O)(=O)[O-])ccc6F)c6nc(c(-c7cc(S(=O)(=O)[O-])ccc7F)c7ccc4[nH]7)C=C6)C=C5)cc3)c2)C1=O
REMARK SMILES IDX 27 1 26 2 25 3 24 4 22 5 23 6 21 8 17 9 18 10 95 11 19 12
REMARK SMILES IDX 20 13 16 14 11 15 12 16 13 17 96 18 14 19 97 20 15 21 10 22
REMARK SMILES IDX 1 23 2 24 3 25 4 26 9 28 5 29 8 30 6 31 7 32 28 33 29 34
REMARK SMILES IDX 30 35 31 37 32 38 33 39 94 40 34 41 93 42 35 43 36 44 37 45
REMARK SMILES IDX 87 46 38 47 92 48 86 49 88 50 39 51 91 52 85 53 84 54 40 56
REMARK SMILES IDX 72 57 52 58 71 59 53 60 56 61 70 62 89 63 54 64 55 65 69 67
REMARK SMILES IDX 90 68 57 69 41 70 42 71 50 72 43 73 49 74 51 75 48 76 44 77
REMARK SMILES IDX 45 78 46 79 47 80 73 81 74 82 82 83 75 84 81 85 83 86 80 87
REMARK SMILES IDX 76 88 77 89 78 90 79 91 58 92 59 93 67 94 60 95 66 96 68 97
REMARK SMILES IDX 65 98 61 99 62 100 63 101 64 102
REMARK H PARENT 24 7 3 27 29 36 88 55 56 66
REMARK Flexibility Score: inf
ROOT
ATOM      1  C   UNL A   1      32.059  31.083  27.103  1.00  0.00     0.023 C 
ENDROOT
BRANCH   1   2
ATOM      2  C   UNL A   1      31.326  31.035  25.768  1.00  0.00     0.023 C 
BRANCH   2   3
ATOM      3  C   UNL A   1      31.444  29.744  24.968  1.00  0.00     0.116 C 
BRANCH   3   4
ATOM      4  N   UNL A   1      30.751  29.753  23.691  1.00  0.00    -0.352 N 
ATOM      5  C   UNL A   1      30.732  28.836  22.663  1.00  0.00     0.251 C 
ATOM      6  O   UNL A   1      30.066  29.082  21.658  1.00  0.00    -0.269 OA
ATOM      7  H   UNL A   1      30.199  30.553  23.532  1.00  0.00     0.163 HD
BRANCH   5   8
ATOM      8  C   UNL A   1      31.548  27.593  22.696  1.00  0.00     0.041 A 
ATOM      9  C   UNL A   1      32.033  25.390  23.600  1.00  0.00     0.051 A 
ATOM     10  C   UNL A   1      33.303  25.453  23.007  1.00  0.00     0.027 A 
ATOM     11  C   UNL A   1      31.129  26.431  23.352  1.00  0.00     0.040 A 
ATOM     12  C   UNL A   1      33.678  26.547  22.225  1.00  0.00     0.003 A 
ATOM     13  C   UNL A   1      32.810  27.628  22.093  1.00  0.00     0.014 A 
BRANCH   9  14
ATOM     14  N   UNL A   1      31.745  24.417  24.613  1.00  0.00    -0.261 N 
ATOM     15  C   UNL A   1      32.970  21.471  26.408  1.00  0.00     0.032 C 
ATOM     16  C   UNL A   1      32.290  22.532  25.945  1.00  0.00     0.081 C 
ATOM     17  S   UNL A   1      30.997  23.269  26.808  1.00  0.00    -0.054 SA
ATOM     18  C   UNL A   1      32.545  23.271  24.676  1.00  0.00     0.270 C 
ATOM     19  C   UNL A   1      30.815  24.569  25.630  1.00  0.00     0.152 C 
ATOM     20  O   UNL A   1      33.382  22.923  23.852  1.00  0.00    -0.268 OA
ATOM     21  S   UNL A   1      29.591  25.697  25.797  1.00  0.00    -0.051 S 
BRANCH  15  22
ATOM     22  C   UNL A   1      34.076  20.836  25.772  1.00  0.00     0.004 A 
ATOM     23  C   UNL A   1      32.956  18.616  24.926  1.00  0.00     0.065 C 
ATOM     24  C   UNL A   1      34.042  19.605  25.144  1.00  0.00     0.020 A 
ATOM     25  N   UNL A   1      35.325  19.338  24.725  1.00  0.00    -0.358 N 
ATOM     26  C   UNL A   1      36.170  20.379  25.039  1.00  0.00     0.046 A 
ATOM     27  H   UNL A   1      35.602  18.514  24.263  1.00  0.00     0.166 HD
ATOM     28  C   UNL A   1      35.403  21.349  25.684  1.00  0.00     0.007 A 
ATOM     29  C   UNL A   1      37.543  20.524  24.813  1.00  0.00     0.027 A 
ATOM     30  C   UNL A   1      36.038  22.532  26.116  1.00  0.00     0.011 A 
ATOM     31  C   UNL A   1      38.151  21.704  25.254  1.00  0.00     0.002 A 
ATOM     32  C   UNL A   1      37.410  22.697  25.893  1.00  0.00     0.001 A 
ENDBRANCH  15  22
ENDBRANCH   9  14
ENDBRANCH   5   8
ENDBRANCH   3   4
ENDBRANCH   2   3
ENDBRANCH   1   2
BRANCH   1  33
ATOM     33  C   UNL A   1      33.204  32.084  27.209  1.00  0.00     0.116 C 
BRANCH  33  34
ATOM     34  N   UNL A   1      32.776  33.433  27.549  1.00  0.00    -0.352 N 
ATOM     35  C   UNL A   1      33.259  34.297  28.509  1.00  0.00     0.251 C 
ATOM     36  H   UNL A   1      32.029  33.780  27.012  1.00  0.00     0.163 HD
ATOM     37  O   UNL A   1      32.696  35.369  28.689  1.00  0.00    -0.269 OA
BRANCH  35  38
ATOM     38  C   UNL A   1      34.416  33.906  29.346  1.00  0.00     0.039 A 
ATOM     39  C   UNL A   1      34.201  33.054  30.433  1.00  0.00     0.014 A 
ATOM     40  C   UNL A   1      35.708  34.345  29.048  1.00  0.00     0.014 A 
ATOM     41  C   UNL A   1      35.292  32.563  31.157  1.00  0.00     0.010 A 
ATOM     42  C   UNL A   1      36.798  33.793  29.719  1.00  0.00     0.010 A 
ATOM     43  C   UNL A   1      36.603  32.887  30.773  1.00  0.00    -0.014 A 
BRANCH  43  44
ATOM     44  C   UNL A   1      37.784  32.278  31.445  1.00  0.00     0.031 A 
ATOM     45  C   UNL A   1      38.531  31.152  30.781  1.00  0.00     0.074 A 
ATOM     46  C   UNL A   1      38.129  32.680  32.685  1.00  0.00     0.049 A 
ATOM     47  N   UNL A   1      39.514  30.425  31.244  1.00  0.00    -0.248 NA
ATOM     48  C   UNL A   1      38.088  30.775  29.431  1.00  0.00     0.031 C 
ATOM     49  C   UNL A   1      37.453  33.728  33.454  1.00  0.00     0.029 A 
ATOM     50  N   UNL A   1      39.124  32.247  33.526  1.00  0.00    -0.354 N 
ATOM     51  C   UNL A   1      39.792  29.487  30.254  1.00  0.00     0.074 A 
ATOM     52  C   UNL A   1      38.835  29.708  29.190  1.00  0.00     0.031 C 
ATOM     53  C   UNL A   1      38.066  33.870  34.640  1.00  0.00     0.029 A 
ATOM     54  C   UNL A   1      39.148  32.896  34.740  1.00  0.00     0.049 A 
ATOM     55  H   UNL A   1      39.762  31.537  33.283  1.00  0.00     0.167 HD
ATOM     56  C   UNL A   1      40.764  28.542  30.229  1.00  0.00     0.034 A 
ATOM     57  C   UNL A   1      39.940  32.717  35.816  1.00  0.00     0.034 A 
ATOM     58  C   UNL A   1      41.729  28.354  31.285  1.00  0.00     0.049 A 
ATOM     59  C   UNL A   1      41.013  31.659  35.763  1.00  0.00     0.074 A 
ATOM     60  C   UNL A   1      42.805  27.483  31.325  1.00  0.00     0.029 A 
ATOM     61  N   UNL A   1      41.732  29.041  32.492  1.00  0.00    -0.354 N 
ATOM     62  N   UNL A   1      41.303  30.823  34.791  1.00  0.00    -0.248 NA
ATOM     63  C   UNL A   1      41.872  31.525  36.947  1.00  0.00     0.031 C 
ATOM     64  C   UNL A   1      43.418  27.599  32.577  1.00  0.00     0.029 A 
ATOM     65  C   UNL A   1      42.770  28.592  33.293  1.00  0.00     0.049 A 
ATOM     66  H   UNL A   1      41.090  29.745  32.742  1.00  0.00     0.167 HD
ATOM     67  C   UNL A   1      42.400  30.091  35.237  1.00  0.00     0.074 A 
ATOM     68  C   UNL A   1      42.726  30.591  36.555  1.00  0.00     0.031 C 
ATOM     69  C   UNL A   1      43.081  29.098  34.610  1.00  0.00     0.034 A 
BRANCH  56  70
ATOM     70  C   UNL A   1      40.813  27.625  29.029  1.00  0.00     0.023 A 
ATOM     71  C   UNL A   1      41.753  27.804  27.999  1.00  0.00     0.031 A 
ATOM     72  C   UNL A   1      39.892  26.570  28.904  1.00  0.00     0.131 A 
ATOM     73  C   UNL A   1      41.702  26.992  26.857  1.00  0.00     0.055 A 
ATOM     74  C   UNL A   1      39.899  25.714  27.801  1.00  0.00     0.041 A 
ATOM     75  F   UNL A   1      38.960  26.361  29.847  1.00  0.00    -0.206 F 
ATOM     76  C   UNL A   1      40.799  25.932  26.761  1.00  0.00     0.022 A 
BRANCH  73  77
ATOM     77  S   UNL A   1      42.744  27.429  25.437  1.00  0.00     0.124 S 
ATOM     78  O   UNL A   1      42.696  26.201  24.648  1.00  0.00    -0.237 OA
ATOM     79  O   UNL A   1      42.044  28.578  24.875  1.00  0.00    -0.237 OA
ATOM     80  O   UNL A   1      44.042  27.723  26.042  1.00  0.00    -0.744 OA
ENDBRANCH  73  77
ENDBRANCH  56  70
BRANCH  57  81
ATOM     81  C   UNL A   1      39.758  33.546  37.043  1.00  0.00     0.023 A 
ATOM     82  C   UNL A   1      39.212  32.992  38.211  1.00  0.00     0.031 A 
ATOM     83  C   UNL A   1      40.074  34.916  37.048  1.00  0.00     0.131 A 
ATOM     84  C   UNL A   1      38.946  33.812  39.318  1.00  0.00     0.055 A 
ATOM     85  C   UNL A   1      39.857  35.718  38.170  1.00  0.00     0.041 A 
ATOM     86  F   UNL A   1      40.605  35.495  35.960  1.00  0.00    -0.206 F 
ATOM     87  C   UNL A   1      39.275  35.170  39.310  1.00  0.00     0.022 A 
BRANCH  84  88
ATOM     88  S   UNL A   1      38.073  33.098  40.738  1.00  0.00     0.124 S 
ATOM     89  O   UNL A   1      36.683  33.391  40.411  1.00  0.00    -0.237 OA
ATOM     90  O   UNL A   1      38.469  31.695  40.661  1.00  0.00    -0.237 OA
ATOM     91  O   UNL A   1      38.616  33.834  41.877  1.00  0.00    -0.744 OA
ENDBRANCH  84  88
ENDBRANCH  57  81
BRANCH  69  92
ATOM     92  C   UNL A   1      44.279  28.530  35.330  1.00  0.00     0.023 A 
ATOM     93  C   UNL A   1      44.153  27.506  36.284  1.00  0.00     0.031 A 
ATOM     94  C   UNL A   1      45.564  29.035  35.064  1.00  0.00     0.131 A 
ATOM     95  C   UNL A   1      45.285  27.056  36.978  1.00  0.00     0.055 A 
ATOM     96  C   UNL A   1      46.695  28.543  35.716  1.00  0.00     0.041 A 
ATOM     97  F   UNL A   1      45.741  30.014  34.163  1.00  0.00    -0.206 F 
ATOM     98  C   UNL A   1      46.558  27.556  36.689  1.00  0.00     0.022 A 
BRANCH  95  99
ATOM     99  S   UNL A   1      45.064  25.865  38.329  1.00  0.00     0.124 S 
ATOM    100  O   UNL A   1      43.971  26.465  39.087  1.00  0.00    -0.237 OA
ATOM    101  O   UNL A   1      44.743  24.635  37.612  1.00  0.00    -0.237 OA
ATOM    102  O   UNL A   1      46.360  25.868  39.004  1.00  0.00    -0.744 OA
ENDBRANCH  95  99
ENDBRANCH  69  92
ENDBRANCH  43  44
ENDBRANCH  35  38
ENDBRANCH  33  34
ENDBRANCH   1  33
TORSDOF 16
ENDMDL
MODEL 3
REMARK VINA RESULT:     -12.3      1.731      2.032
REMARK SMILES Cc1[nH]c2ccccc2c1/C=C1/SC(=S)N(c2cccc(C(=O)NCCCCNC(=O)c3ccc(-c4c5nc(c(-c6cc(S(=O)(=O)[O-])ccc6F)c6ccc([nH]6)c(-c6cc(S(=O)(=O)[O-])ccc6F)c6nc(c(-c7cc(S(=O)(=O)[O-])ccc7F)c7ccc4[nH]7)C=C6)C=C5)cc3)c2)C1=O
REMARK SMILES IDX 27 1 26 2 25 3 24 4 22 5 23 6 21 8 17 9 18 10 95 11 19 12
REMARK SMILES IDX 20 13 16 14 11 15 12 16 13 17 96 18 14 19 97 20 15 21 10 22
REMARK SMILES IDX 1 23 2 24 3 25 4 26 9 28 5 29 8 30 6 31 7 32 28 33 29 34
REMARK SMILES IDX 30 35 31 37 32 38 33 39 94 40 34 41 93 42 35 43 36 44 37 45
REMARK SMILES IDX 87 46 38 47 92 48 86 49 88 50 39 51 91 52 85 53 84 54 40 56
REMARK SMILES IDX 72 57 52 58 71 59 53 60 56 61 70 62 89 63 54 64 55 65 69 67
REMARK SMILES IDX 90 68 57 69 41 70 42 71 50 72 43 73 49 74 51 75 48 76 44 77
REMARK SMILES IDX 45 78 46 79 47 80 73 81 74 82 82 83 75 84 81 85 83 86 80 87
REMARK SMILES IDX 76 88 77 89 78 90 79 91 58 92 59 93 67 94 60 95 66 96 68 97
REMARK SMILES IDX 65 98 61 99 62 100 63 101 64 102
REMARK H PARENT 24 7 3 27 29 36 88 55 56 66
REMARK Flexibility Score: inf
ROOT
ATOM      1  C   UNL A   1      38.068  20.857  24.863  1.00  0.00     0.023 C 
ENDROOT
BRANCH   1   2
ATOM      2  C   UNL A   1      36.746  20.112  25.001  1.00  0.00     0.023 C 
BRANCH   2   3
ATOM      3  C   UNL A   1      35.501  20.962  25.221  1.00  0.00     0.116 C 
BRANCH   3   4
ATOM      4  N   UNL A   1      35.334  21.461  26.575  1.00  0.00    -0.352 N 
ATOM      5  C   UNL A   1      34.287  22.125  27.175  1.00  0.00     0.251 C 
ATOM      6  O   UNL A   1      34.392  22.463  28.353  1.00  0.00    -0.269 OA
ATOM      7  H   UNL A   1      36.104  21.298  27.167  1.00  0.00     0.163 HD
BRANCH   5   8
ATOM      8  C   UNL A   1      33.062  22.512  26.425  1.00  0.00     0.041 A 
ATOM      9  C   UNL A   1      31.964  23.717  24.623  1.00  0.00     0.051 A 
ATOM     10  C   UNL A   1      30.737  23.525  25.275  1.00  0.00     0.027 A 
ATOM     11  C   UNL A   1      33.108  23.118  25.164  1.00  0.00     0.040 A 
ATOM     12  C   UNL A   1      30.660  22.793  26.461  1.00  0.00     0.003 A 
ATOM     13  C   UNL A   1      31.826  22.311  27.049  1.00  0.00     0.014 A 
BRANCH   9  14
ATOM     14  N   UNL A   1      32.091  24.684  23.571  1.00  0.00    -0.261 N 
ATOM     15  C   UNL A   1      32.277  28.246  22.747  1.00  0.00     0.032 C 
ATOM     16  C   UNL A   1      32.262  26.903  22.754  1.00  0.00     0.081 C 
ATOM     17  S   UNL A   1      32.848  25.951  21.446  1.00  0.00    -0.054 SA
ATOM     18  C   UNL A   1      31.801  26.021  23.863  1.00  0.00     0.270 C 
ATOM     19  C   UNL A   1      32.605  24.431  22.308  1.00  0.00     0.152 C 
ATOM     20  O   UNL A   1      31.292  26.446  24.893  1.00  0.00    -0.268 OA
ATOM     21  S   UNL A   1      32.904  22.971  21.550  1.00  0.00    -0.051 S 
BRANCH  15  22
ATOM     22  C   UNL A   1      31.850  29.097  23.807  1.00  0.00     0.004 A 
ATOM     23  C   UNL A   1      29.530  29.914  22.884  1.00  0.00     0.065 C 
ATOM     24  C   UNL A   1      30.663  29.807  23.838  1.00  0.00     0.020 A 
ATOM     25  N   UNL A   1      30.673  30.546  24.998  1.00  0.00    -0.358 N 
ATOM     26  C   UNL A   1      31.818  30.303  25.724  1.00  0.00     0.046 A 
ATOM     27  H   UNL A   1      29.959  31.164  25.273  1.00  0.00     0.166 HD
ATOM     28  C   UNL A   1      32.571  29.377  25.004  1.00  0.00     0.007 A 
ATOM     29  C   UNL A   1      32.242  30.841  26.944  1.00  0.00     0.027 A 
ATOM     30  C   UNL A   1      33.808  28.955  25.536  1.00  0.00     0.011 A 
ATOM     31  C   UNL A   1      33.473  30.411  27.449  1.00  0.00     0.002 A 
ATOM     32  C   UNL A   1      34.245  29.478  26.759  1.00  0.00     0.001 A 
ENDBRANCH  15  22
ENDBRANCH   9  14
ENDBRANCH   5   8
ENDBRANCH   3   4
ENDBRANCH   2   3
ENDBRANCH   1   2
BRANCH   1  33
ATOM     33  C   UNL A   1      39.006  20.796  26.063  1.00  0.00     0.116 C 
BRANCH  33  34
ATOM     34  N   UNL A   1      39.929  19.671  26.031  1.00  0.00    -0.352 N 
ATOM     35  C   UNL A   1      41.300  19.649  26.175  1.00  0.00     0.251 C 
ATOM     36  H   UNL A   1      39.510  18.793  25.884  1.00  0.00     0.163 HD
ATOM     37  O   UNL A   1      41.903  18.594  26.030  1.00  0.00    -0.269 OA
BRANCH  35  38
ATOM     38  C   UNL A   1      42.038  20.904  26.452  1.00  0.00     0.039 A 
ATOM     39  C   UNL A   1      42.426  21.706  25.374  1.00  0.00     0.014 A 
ATOM     40  C   UNL A   1      42.319  21.307  27.759  1.00  0.00     0.014 A 
ATOM     41  C   UNL A   1      43.003  22.956  25.613  1.00  0.00     0.010 A 
ATOM     42  C   UNL A   1      42.821  22.585  27.995  1.00  0.00     0.010 A 
ATOM     43  C   UNL A   1      43.158  23.429  26.926  1.00  0.00    -0.014 A 
BRANCH  43  44
ATOM     44  C   UNL A   1      43.650  24.806  27.205  1.00  0.00     0.031 A 
ATOM     45  C   UNL A   1      42.702  25.854  27.725  1.00  0.00     0.074 A 
ATOM     46  C   UNL A   1      44.924  25.134  26.910  1.00  0.00     0.049 A 
ATOM     47  N   UNL A   1      42.911  27.129  27.932  1.00  0.00    -0.248 NA
ATOM     48  C   UNL A   1      41.331  25.414  28.018  1.00  0.00     0.031 C 
ATOM     49  C   UNL A   1      45.926  24.219  26.355  1.00  0.00     0.029 A 
ATOM     50  N   UNL A   1      45.594  26.326  27.020  1.00  0.00    -0.354 N 
ATOM     51  C   UNL A   1      41.691  27.649  28.354  1.00  0.00     0.074 A 
ATOM     52  C   UNL A   1      40.739  26.559  28.322  1.00  0.00     0.031 C 
ATOM     53  C   UNL A   1      47.085  24.879  26.195  1.00  0.00     0.029 A 
ATOM     54  C   UNL A   1      46.902  26.272  26.590  1.00  0.00     0.049 A 
ATOM     55  H   UNL A   1      45.179  27.147  27.373  1.00  0.00     0.167 HD
ATOM     56  C   UNL A   1      41.398  28.914  28.749  1.00  0.00     0.034 A 
ATOM     57  C   UNL A   1      47.840  27.236  26.509  1.00  0.00     0.034 A 
ATOM     58  C   UNL A   1      42.366  29.982  28.804  1.00  0.00     0.049 A 
ATOM     59  C   UNL A   1      47.489  28.634  26.952  1.00  0.00     0.074 A 
ATOM     60  C   UNL A   1      42.196  31.276  29.265  1.00  0.00     0.029 A 
ATOM     61  N   UNL A   1      43.684  29.884  28.377  1.00  0.00    -0.354 N 
ATOM     62  N   UNL A   1      46.347  29.094  27.411  1.00  0.00    -0.248 NA
ATOM     63  C   UNL A   1      48.555  29.642  26.877  1.00  0.00     0.031 C 
ATOM     64  C   UNL A   1      43.390  31.977  29.059  1.00  0.00     0.029 A 
ATOM     65  C   UNL A   1      44.328  31.102  28.534  1.00  0.00     0.049 A 
ATOM     66  H   UNL A   1      44.101  29.069  28.014  1.00  0.00     0.167 HD
ATOM     67  C   UNL A   1      46.572  30.434  27.710  1.00  0.00     0.074 A 
ATOM     68  C   UNL A   1      47.958  30.705  27.392  1.00  0.00     0.031 C 
ATOM     69  C   UNL A   1      45.711  31.359  28.208  1.00  0.00     0.034 A 
BRANCH  56  70
ATOM     70  C   UNL A   1      39.967  29.211  29.127  1.00  0.00     0.023 A 
ATOM     71  C   UNL A   1      39.556  29.283  30.470  1.00  0.00     0.031 A 
ATOM     72  C   UNL A   1      38.994  29.404  28.130  1.00  0.00     0.131 A 
ATOM     73  C   UNL A   1      38.199  29.464  30.778  1.00  0.00     0.055 A 
ATOM     74  C   UNL A   1      37.660  29.665  28.445  1.00  0.00     0.041 A 
ATOM     75  F   UNL A   1      39.324  29.329  26.831  1.00  0.00    -0.206 F 
ATOM     76  C   UNL A   1      37.252  29.681  29.776  1.00  0.00     0.022 A 
BRANCH  73  77
ATOM     77  S   UNL A   1      37.671  29.274  32.503  1.00  0.00     0.124 S 
ATOM     78  O   UNL A   1      37.780  27.829  32.686  1.00  0.00    -0.237 OA
ATOM     79  O   UNL A   1      38.647  30.085  33.222  1.00  0.00    -0.237 OA
ATOM     80  O   UNL A   1      36.306  29.794  32.502  1.00  0.00    -0.744 OA
ENDBRANCH  73  77
ENDBRANCH  56  70
BRANCH  57  81
ATOM     81  C   UNL A   1      49.203  26.931  25.984  1.00  0.00     0.023 A 
ATOM     82  C   UNL A   1      50.274  26.690  26.859  1.00  0.00     0.031 A 
ATOM     83  C   UNL A   1      49.467  26.931  24.604  1.00  0.00     0.131 A 
ATOM     84  C   UNL A   1      51.570  26.515  26.349  1.00  0.00     0.055 A 
ATOM     85  C   UNL A   1      50.748  26.703  24.098  1.00  0.00     0.041 A 
ATOM     86  F   UNL A   1      48.478  27.149  23.722  1.00  0.00    -0.206 F 
ATOM     87  C   UNL A   1      51.812  26.507  24.973  1.00  0.00     0.022 A 
BRANCH  84  88
ATOM     88  S   UNL A   1      52.953  26.390  27.516  1.00  0.00     0.124 S 
ATOM     89  O   UNL A   1      53.799  25.396  26.869  1.00  0.00    -0.237 OA
ATOM     90  O   UNL A   1      53.461  27.759  27.527  1.00  0.00    -0.237 OA
ATOM     91  O   UNL A   1      52.313  25.956  28.756  1.00  0.00    -0.744 OA
ENDBRANCH  84  88
ENDBRANCH  57  81
BRANCH  69  92
ATOM     92  C   UNL A   1      46.269  32.732  28.488  1.00  0.00     0.023 A 
ATOM     93  C   UNL A   1      46.856  33.057  29.723  1.00  0.00     0.031 A 
ATOM     94  C   UNL A   1      46.198  33.734  27.503  1.00  0.00     0.131 A 
ATOM     95  C   UNL A   1      47.300  34.365  29.962  1.00  0.00     0.055 A 
ATOM     96  C   UNL A   1      46.694  35.019  27.727  1.00  0.00     0.041 A 
ATOM     97  F   UNL A   1      45.646  33.479  26.306  1.00  0.00    -0.206 F 
ATOM     98  C   UNL A   1      47.238  35.344  28.967  1.00  0.00     0.022 A 
BRANCH  95  99
ATOM     99  S   UNL A   1      47.884  34.798  31.624  1.00  0.00     0.124 S 
ATOM    100  O   UNL A   1      46.656  34.717  32.408  1.00  0.00    -0.237 OA
ATOM    101  O   UNL A   1      48.877  33.761  31.886  1.00  0.00    -0.237 OA
ATOM    102  O   UNL A   1      48.425  36.146  31.458  1.00  0.00    -0.744 OA
ENDBRANCH  95  99
ENDBRANCH  69  92
ENDBRANCH  43  44
ENDBRANCH  35  38
ENDBRANCH  33  34
ENDBRANCH   1  33
TORSDOF 16
ENDMDL
