MODEL 1
REMARK VINA RESULT:     -10.3      0.000      0.000
REMARK SMILES C[NH2+]CCCC(=O)N[C@H]1C=C[C@@H](C(=O)NCCCCNC(=O)c2ccc(-c3c4nc(c(-c5cc(S(=O)(=O)[O-])ccc5F)c5ccc([nH]5)c(-c5cc(S(=O)(=O)[O-])ccc5F)c5nc(c(-c6cc(S(=O)(=O)[O-])ccc6F)c6ccc3[nH]6)C=C5)C=C4)cc2)C1
REMARK SMILES IDX 16 1 15 2 13 3 14 4 12 6 9 7 10 8 86 9 11 10 8 11 6 12 7 13
REMARK SMILES IDX 5 15 4 16 3 17 2 18 1 19 17 22 18 23 19 24 20 25 21 26 22 28
REMARK SMILES IDX 23 29 24 30 85 31 25 32 84 33 26 34 27 35 28 36 78 37 29 38
REMARK SMILES IDX 83 39 77 40 79 41 30 42 82 43 76 44 75 45 31 47 63 48 43 49
REMARK SMILES IDX 62 50 44 51 47 52 61 53 80 54 45 55 46 56 60 58 81 59 48 60
REMARK SMILES IDX 32 61 33 62 41 63 34 64 40 65 42 66 39 67 35 68 36 69 37 70
REMARK SMILES IDX 38 71 64 72 65 73 73 74 66 75 72 76 74 77 71 78 67 79 68 80
REMARK SMILES IDX 69 81 70 82 49 83 50 84 58 85 51 86 57 87 59 88 56 89 52 90
REMARK SMILES IDX 53 91 54 92 55 93
REMARK H PARENT 15 5 8 14 2 20 2 21 20 27 79 46 47 57
REMARK Flexibility Score: inf
ROOT
ATOM      1  C   UNL A   1      32.226  29.631  27.213  1.00  0.00     0.116 C 
ENDROOT
BRANCH   1   2
ATOM      2  N   UNL A   1      31.567  28.347  27.253  1.00  0.00    -0.356 N 
ATOM      3  C   UNL A   1      31.692  27.245  26.472  1.00  0.00     0.227 C 
ATOM      4  O   UNL A   1      31.099  26.232  26.864  1.00  0.00    -0.274 OA
ATOM      5  H   UNL A   1      30.906  28.254  27.978  1.00  0.00     0.163 HD
BRANCH   3   6
ATOM      6  C   UNL A   1      32.553  27.155  25.202  1.00  0.00     0.103 C 
ATOM      7  C   UNL A   1      33.461  25.205  23.947  1.00  0.00     0.106 C 
ATOM      8  C   UNL A   1      32.278  25.819  23.296  1.00  0.00    -0.006 C 
ATOM      9  C   UNL A   1      33.737  26.184  25.118  1.00  0.00     0.047 C 
ATOM     10  C   UNL A   1      31.767  26.851  23.974  1.00  0.00    -0.016 C 
BRANCH   7  11
ATOM     11  N   UNL A   1      33.257  23.859  24.464  1.00  0.00    -0.350 N 
ATOM     12  C   UNL A   1      34.023  22.778  24.735  1.00  0.00     0.220 C 
ATOM     13  O   UNL A   1      33.462  21.840  25.312  1.00  0.00    -0.275 OA
ATOM     14  H   UNL A   1      32.310  23.691  24.671  1.00  0.00     0.164 HD
BRANCH  12  15
ATOM     15  C   UNL A   1      35.468  22.643  24.322  1.00  0.00     0.106 C 
BRANCH  15  16
ATOM     16  C   UNL A   1      36.177  21.489  25.045  1.00  0.00     0.071 C 
BRANCH  16  17
ATOM     17  C   UNL A   1      37.709  21.514  25.044  1.00  0.00     0.260 C 
BRANCH  17  18
ATOM     18  N   UNL A   1      38.245  22.181  26.232  1.00  0.00    -0.349 N 
ATOM     19  C   UNL A   1      39.677  21.954  26.374  1.00  0.00     0.330 C 
ATOM     20  H   UNL A   1      38.074  23.184  26.154  1.00  0.00     0.346 HD
ATOM     21  H   UNL A   1      37.776  21.795  27.052  1.00  0.00     0.346 HD
ENDBRANCH  17  18
ENDBRANCH  16  17
ENDBRANCH  15  16
ENDBRANCH  12  15
ENDBRANCH   7  11
ENDBRANCH   3   6
ENDBRANCH   1   2
BRANCH   1  22
ATOM     22  C   UNL A   1      31.581  30.598  26.222  1.00  0.00     0.023 C 
BRANCH  22  23
ATOM     23  C   UNL A   1      31.428  32.030  26.735  1.00  0.00     0.023 C 
BRANCH  23  24
ATOM     24  C   UNL A   1      32.734  32.784  26.957  1.00  0.00     0.116 C 
BRANCH  24  25
ATOM     25  N   UNL A   1      32.549  34.056  27.640  1.00  0.00    -0.352 N 
ATOM     26  C   UNL A   1      33.204  34.559  28.739  1.00  0.00     0.251 C 
ATOM     27  H   UNL A   1      31.853  34.640  27.260  1.00  0.00     0.163 HD
ATOM     28  O   UNL A   1      32.812  35.602  29.256  1.00  0.00    -0.269 OA
BRANCH  26  29
ATOM     29  C   UNL A   1      34.352  33.828  29.319  1.00  0.00     0.039 A 
ATOM     30  C   UNL A   1      35.647  34.256  29.013  1.00  0.00     0.014 A 
ATOM     31  C   UNL A   1      34.160  32.736  30.171  1.00  0.00     0.014 A 
ATOM     32  C   UNL A   1      36.743  33.639  29.620  1.00  0.00     0.010 A 
ATOM     33  C   UNL A   1      35.248  32.177  30.837  1.00  0.00     0.010 A 
ATOM     34  C   UNL A   1      36.551  32.623  30.572  1.00  0.00    -0.014 A 
BRANCH  34  35
ATOM     35  C   UNL A   1      37.705  32.021  31.295  1.00  0.00     0.031 A 
ATOM     36  C   UNL A   1      38.500  30.911  30.662  1.00  0.00     0.074 A 
ATOM     37  C   UNL A   1      38.001  32.438  32.542  1.00  0.00     0.049 A 
ATOM     38  N   UNL A   1      39.491  30.216  31.158  1.00  0.00    -0.248 NA
ATOM     39  C   UNL A   1      38.107  30.511  29.302  1.00  0.00     0.031 C 
ATOM     40  C   UNL A   1      37.275  33.475  33.281  1.00  0.00     0.029 A 
ATOM     41  N   UNL A   1      38.984  32.040  33.415  1.00  0.00    -0.354 N 
ATOM     42  C   UNL A   1      39.840  29.297  30.174  1.00  0.00     0.074 A 
ATOM     43  C   UNL A   1      38.902  29.476  29.085  1.00  0.00     0.031 C 
ATOM     44  C   UNL A   1      37.851  33.644  34.482  1.00  0.00     0.029 A 
ATOM     45  C   UNL A   1      38.954  32.701  34.622  1.00  0.00     0.049 A 
ATOM     46  H   UNL A   1      39.647  31.347  33.197  1.00  0.00     0.167 HD
ATOM     47  C   UNL A   1      40.864  28.407  30.166  1.00  0.00     0.034 A 
ATOM     48  C   UNL A   1      39.719  32.554  35.722  1.00  0.00     0.034 A 
ATOM     49  C   UNL A   1      41.791  28.241  31.260  1.00  0.00     0.049 A 
ATOM     50  C   UNL A   1      40.834  31.538  35.702  1.00  0.00     0.074 A 
ATOM     51  C   UNL A   1      42.883  27.393  31.344  1.00  0.00     0.029 A 
ATOM     52  N   UNL A   1      41.735  28.933  32.464  1.00  0.00    -0.354 N 
ATOM     53  N   UNL A   1      41.178  30.707  34.745  1.00  0.00    -0.248 NA
ATOM     54  C   UNL A   1      41.674  31.451  36.903  1.00  0.00     0.031 C 
ATOM     55  C   UNL A   1      43.444  27.524  32.619  1.00  0.00     0.029 A 
ATOM     56  C   UNL A   1      42.755  28.512  33.304  1.00  0.00     0.049 A 
ATOM     57  H   UNL A   1      41.068  29.621  32.687  1.00  0.00     0.167 HD
ATOM     58  C   UNL A   1      42.292  30.020  35.220  1.00  0.00     0.074 A 
ATOM     59  C   UNL A   1      42.573  30.551  36.538  1.00  0.00     0.031 C 
ATOM     60  C   UNL A   1      43.017  29.040  34.623  1.00  0.00     0.034 A 
BRANCH  47  61
ATOM     61  C   UNL A   1      41.017  27.538  28.939  1.00  0.00     0.023 A 
ATOM     62  C   UNL A   1      42.024  27.781  27.987  1.00  0.00     0.031 A 
ATOM     63  C   UNL A   1      40.134  26.469  28.702  1.00  0.00     0.131 A 
ATOM     64  C   UNL A   1      42.075  27.021  26.809  1.00  0.00     0.055 A 
ATOM     65  C   UNL A   1      40.244  25.661  27.568  1.00  0.00     0.041 A 
ATOM     66  F   UNL A   1      39.140  26.200  29.562  1.00  0.00    -0.206 F 
ATOM     67  C   UNL A   1      41.209  25.945  26.606  1.00  0.00     0.022 A 
BRANCH  64  68
ATOM     68  S   UNL A   1      43.192  27.553  25.484  1.00  0.00     0.124 S 
ATOM     69  O   UNL A   1      44.145  28.383  26.218  1.00  0.00    -0.237 OA
ATOM     70  O   UNL A   1      43.707  26.285  24.977  1.00  0.00    -0.237 OA
ATOM     71  O   UNL A   1      42.317  28.282  24.569  1.00  0.00    -0.744 OA
ENDBRANCH  64  68
ENDBRANCH  47  61
BRANCH  48  72
ATOM     72  C   UNL A   1      39.453  33.368  36.944  1.00  0.00     0.023 A 
ATOM     73  C   UNL A   1      40.130  34.576  37.177  1.00  0.00     0.031 A 
ATOM     74  C   UNL A   1      38.546  32.924  37.924  1.00  0.00     0.131 A 
ATOM     75  C   UNL A   1      39.933  35.268  38.382  1.00  0.00     0.055 A 
ATOM     76  C   UNL A   1      38.310  33.647  39.094  1.00  0.00     0.041 A 
ATOM     77  F   UNL A   1      37.868  31.779  37.751  1.00  0.00    -0.206 F 
ATOM     78  C   UNL A   1      39.017  34.819  39.336  1.00  0.00     0.022 A 
BRANCH  75  79
ATOM     79  S   UNL A   1      40.968  36.718  38.730  1.00  0.00     0.124 S 
ATOM     80  O   UNL A   1      41.708  36.278  39.907  1.00  0.00    -0.237 OA
ATOM     81  O   UNL A   1      41.737  36.844  37.498  1.00  0.00    -0.237 OA
ATOM     82  O   UNL A   1      39.993  37.782  38.966  1.00  0.00    -0.744 OA
ENDBRANCH  75  79
ENDBRANCH  48  72
BRANCH  60  83
ATOM     83  C   UNL A   1      44.213  28.515  35.380  1.00  0.00     0.023 A 
ATOM     84  C   UNL A   1      44.092  27.500  36.346  1.00  0.00     0.031 A 
ATOM     85  C   UNL A   1      45.492  29.052  35.145  1.00  0.00     0.131 A 
ATOM     86  C   UNL A   1      45.215  27.098  37.083  1.00  0.00     0.055 A 
ATOM     87  C   UNL A   1      46.617  28.602  35.835  1.00  0.00     0.041 A 
ATOM     88  F   UNL A   1      45.667  30.026  34.236  1.00  0.00    -0.206 F 
ATOM     89  C   UNL A   1      46.481  27.629  36.822  1.00  0.00     0.022 A 
BRANCH  86  90
ATOM     90  S   UNL A   1      44.985  25.943  38.462  1.00  0.00     0.124 S 
ATOM     91  O   UNL A   1      46.252  26.069  39.178  1.00  0.00    -0.237 OA
ATOM     92  O   UNL A   1      43.814  26.494  39.139  1.00  0.00    -0.237 OA
ATOM     93  O   UNL A   1      44.771  24.656  37.802  1.00  0.00    -0.744 OA
ENDBRANCH  86  90
ENDBRANCH  60  83
ENDBRANCH  34  35
ENDBRANCH  26  29
ENDBRANCH  24  25
ENDBRANCH  23  24
ENDBRANCH  22  23
ENDBRANCH   1  22
TORSDOF 19
ENDMDL
MODEL 2
REMARK VINA RESULT:     -10.3      3.692      8.944
REMARK SMILES C[NH2+]CCCC(=O)N[C@H]1C=C[C@@H](C(=O)NCCCCNC(=O)c2ccc(-c3c4nc(c(-c5cc(S(=O)(=O)[O-])ccc5F)c5ccc([nH]5)c(-c5cc(S(=O)(=O)[O-])ccc5F)c5nc(c(-c6cc(S(=O)(=O)[O-])ccc6F)c6ccc3[nH]6)C=C5)C=C4)cc2)C1
REMARK SMILES IDX 16 1 15 2 13 3 14 4 12 6 9 7 10 8 86 9 11 10 8 11 6 12 7 13
REMARK SMILES IDX 5 15 4 16 3 17 2 18 1 19 17 22 18 23 19 24 20 25 21 26 22 28
REMARK SMILES IDX 23 29 24 30 85 31 25 32 84 33 26 34 27 35 28 36 78 37 29 38
REMARK SMILES IDX 83 39 77 40 79 41 30 42 82 43 76 44 75 45 31 47 63 48 43 49
REMARK SMILES IDX 62 50 44 51 47 52 61 53 80 54 45 55 46 56 60 58 81 59 48 60
REMARK SMILES IDX 32 61 33 62 41 63 34 64 40 65 42 66 39 67 35 68 36 69 37 70
REMARK SMILES IDX 38 71 64 72 65 73 73 74 66 75 72 76 74 77 71 78 67 79 68 80
REMARK SMILES IDX 69 81 70 82 49 83 50 84 58 85 51 86 57 87 59 88 56 89 52 90
REMARK SMILES IDX 53 91 54 92 55 93
REMARK H PARENT 15 5 8 14 2 20 2 21 20 27 79 46 47 57
REMARK Flexibility Score: inf
ROOT
ATOM      1  C   UNL A   1      30.945  28.079  24.317  1.00  0.00     0.116 C 
ENDROOT
BRANCH   1   2
ATOM      2  N   UNL A   1      31.975  27.566  23.445  1.00  0.00    -0.356 N 
ATOM      3  C   UNL A   1      32.930  26.621  23.637  1.00  0.00     0.227 C 
ATOM      4  O   UNL A   1      33.570  26.284  22.632  1.00  0.00    -0.274 OA
ATOM      5  H   UNL A   1      31.987  27.976  22.549  1.00  0.00     0.163 HD
BRANCH   3   6
ATOM      6  C   UNL A   1      33.217  25.913  24.970  1.00  0.00     0.103 C 
ATOM      7  C   UNL A   1      33.206  23.505  25.607  1.00  0.00     0.106 C 
ATOM      8  C   UNL A   1      34.571  24.052  25.418  1.00  0.00    -0.006 C 
ATOM      9  C   UNL A   1      32.320  24.772  25.467  1.00  0.00     0.047 C 
ATOM     10  C   UNL A   1      34.589  25.338  25.051  1.00  0.00    -0.016 C 
BRANCH   7  11
ATOM     11  N   UNL A   1      32.796  22.505  24.630  1.00  0.00    -0.350 N 
ATOM     12  C   UNL A   1      33.014  21.188  24.414  1.00  0.00     0.220 C 
ATOM     13  O   UNL A   1      32.347  20.664  23.515  1.00  0.00    -0.275 OA
ATOM     14  H   UNL A   1      32.203  22.889  23.946  1.00  0.00     0.164 HD
BRANCH  12  15
ATOM     15  C   UNL A   1      34.046  20.372  25.152  1.00  0.00     0.106 C 
BRANCH  15  16
ATOM     16  C   UNL A   1      34.085  18.912  24.675  1.00  0.00     0.071 C 
BRANCH  16  17
ATOM     17  C   UNL A   1      32.942  18.005  25.145  1.00  0.00     0.260 C 
BRANCH  17  18
ATOM     18  N   UNL A   1      32.181  17.459  24.020  1.00  0.00    -0.349 N 
ATOM     19  C   UNL A   1      32.988  17.392  22.810  1.00  0.00     0.330 C 
ATOM     20  H   UNL A   1      31.864  16.520  24.260  1.00  0.00     0.346 HD
ATOM     21  H   UNL A   1      31.388  18.076  23.842  1.00  0.00     0.346 HD
ENDBRANCH  17  18
ENDBRANCH  16  17
ENDBRANCH  15  16
ENDBRANCH  12  15
ENDBRANCH   7  11
ENDBRANCH   3   6
ENDBRANCH   1   2
BRANCH   1  22
ATOM     22  C   UNL A   1      31.402  29.290  25.127  1.00  0.00     0.023 C 
BRANCH  22  23
ATOM     23  C   UNL A   1      31.964  28.958  26.510  1.00  0.00     0.023 C 
BRANCH  23  24
ATOM     24  C   UNL A   1      33.382  29.454  26.772  1.00  0.00     0.116 C 
BRANCH  24  25
ATOM     25  N   UNL A   1      33.426  30.834  27.231  1.00  0.00    -0.352 N 
ATOM     26  C   UNL A   1      34.362  31.461  28.020  1.00  0.00     0.251 C 
ATOM     27  H   UNL A   1      32.677  31.401  26.935  1.00  0.00     0.163 HD
ATOM     28  O   UNL A   1      34.155  32.605  28.416  1.00  0.00    -0.269 OA
BRANCH  26  29
ATOM     29  C   UNL A   1      35.593  30.746  28.422  1.00  0.00     0.039 A 
ATOM     30  C   UNL A   1      36.773  30.989  27.714  1.00  0.00     0.014 A 
ATOM     31  C   UNL A   1      35.596  29.854  29.498  1.00  0.00     0.014 A 
ATOM     32  C   UNL A   1      37.967  30.396  28.130  1.00  0.00     0.010 A 
ATOM     33  C   UNL A   1      36.800  29.330  29.961  1.00  0.00     0.010 A 
ATOM     34  C   UNL A   1      38.000  29.595  29.285  1.00  0.00    -0.014 A 
BRANCH  34  35
ATOM     35  C   UNL A   1      39.280  29.034  29.794  1.00  0.00     0.031 A 
ATOM     36  C   UNL A   1      39.985  29.686  30.954  1.00  0.00     0.074 A 
ATOM     37  C   UNL A   1      39.836  27.972  29.178  1.00  0.00     0.049 A 
ATOM     38  N   UNL A   1      41.138  29.389  31.496  1.00  0.00    -0.248 NA
ATOM     39  C   UNL A   1      39.315  30.844  31.566  1.00  0.00     0.031 C 
ATOM     40  C   UNL A   1      39.273  27.282  28.014  1.00  0.00     0.029 A 
ATOM     41  N   UNL A   1      40.999  27.289  29.434  1.00  0.00    -0.354 N 
ATOM     42  C   UNL A   1      41.333  30.321  32.510  1.00  0.00     0.074 A 
ATOM     43  C   UNL A   1      40.214  31.237  32.454  1.00  0.00     0.031 C 
ATOM     44  C   UNL A   1      40.079  26.263  27.674  1.00  0.00     0.029 A 
ATOM     45  C   UNL A   1      41.238  26.253  28.560  1.00  0.00     0.049 A 
ATOM     46  H   UNL A   1      41.605  27.519  30.174  1.00  0.00     0.167 HD
ATOM     47  C   UNL A   1      42.337  30.389  33.421  1.00  0.00     0.034 A 
ATOM     48  C   UNL A   1      42.278  25.400  28.472  1.00  0.00     0.034 A 
ATOM     49  C   UNL A   1      43.446  29.467  33.463  1.00  0.00     0.049 A 
ATOM     50  C   UNL A   1      43.397  25.512  29.477  1.00  0.00     0.074 A 
ATOM     51  C   UNL A   1      44.498  29.425  34.361  1.00  0.00     0.029 A 
ATOM     52  N   UNL A   1      43.650  28.425  32.566  1.00  0.00    -0.354 N 
ATOM     53  N   UNL A   1      43.544  26.374  30.458  1.00  0.00    -0.248 NA
ATOM     54  C   UNL A   1      44.482  24.529  29.374  1.00  0.00     0.031 C 
ATOM     55  C   UNL A   1      45.371  28.403  33.969  1.00  0.00     0.029 A 
ATOM     56  C   UNL A   1      44.824  27.753  32.874  1.00  0.00     0.049 A 
ATOM     57  H   UNL A   1      43.050  28.198  31.820  1.00  0.00     0.167 HD
ATOM     58  C   UNL A   1      44.724  26.016  31.104  1.00  0.00     0.074 A 
ATOM     59  C   UNL A   1      45.234  24.848  30.416  1.00  0.00     0.031 C 
ATOM     60  C   UNL A   1      45.330  26.597  32.171  1.00  0.00     0.034 A 
BRANCH  47  61
ATOM     61  C   UNL A   1      42.279  31.512  34.431  1.00  0.00     0.023 A 
ATOM     62  C   UNL A   1      41.362  31.496  35.496  1.00  0.00     0.031 A 
ATOM     63  C   UNL A   1      43.133  32.623  34.317  1.00  0.00     0.131 A 
ATOM     64  C   UNL A   1      41.264  32.599  36.356  1.00  0.00     0.055 A 
ATOM     65  C   UNL A   1      43.090  33.681  35.229  1.00  0.00     0.041 A 
ATOM     66  F   UNL A   1      44.016  32.708  33.310  1.00  0.00    -0.206 F 
ATOM     67  C   UNL A   1      42.140  33.681  36.246  1.00  0.00     0.022 A 
BRANCH  64  68
ATOM     68  S   UNL A   1      39.879  32.666  37.525  1.00  0.00     0.124 S 
ATOM     69  O   UNL A   1      40.556  32.424  38.797  1.00  0.00    -0.237 OA
ATOM     70  O   UNL A   1      39.360  34.014  37.324  1.00  0.00    -0.237 OA
ATOM     71  O   UNL A   1      39.001  31.586  37.080  1.00  0.00    -0.744 OA
ENDBRANCH  64  68
ENDBRANCH  47  61
BRANCH  48  72
ATOM     72  C   UNL A   1      42.330  24.378  27.386  1.00  0.00     0.023 A 
ATOM     73  C   UNL A   1      41.541  23.218  27.439  1.00  0.00     0.031 A 
ATOM     74  C   UNL A   1      43.209  24.526  26.297  1.00  0.00     0.131 A 
ATOM     75  C   UNL A   1      41.685  22.227  26.455  1.00  0.00     0.055 A 
ATOM     76  C   UNL A   1      43.305  23.565  25.289  1.00  0.00     0.041 A 
ATOM     77  F   UNL A   1      43.982  25.618  26.193  1.00  0.00    -0.206 F 
ATOM     78  C   UNL A   1      42.551  22.399  25.373  1.00  0.00     0.022 A 
BRANCH  75  79
ATOM     79  S   UNL A   1      40.793  20.660  26.662  1.00  0.00     0.124 S 
ATOM     80  O   UNL A   1      41.617  19.745  25.881  1.00  0.00    -0.237 OA
ATOM     81  O   UNL A   1      40.829  20.480  28.109  1.00  0.00    -0.237 OA
ATOM     82  O   UNL A   1      39.473  20.945  26.103  1.00  0.00    -0.744 OA
ENDBRANCH  75  79
ENDBRANCH  48  72
BRANCH  60  83
ATOM     83  C   UNL A   1      46.593  25.945  32.680  1.00  0.00     0.023 A 
ATOM     84  C   UNL A   1      47.836  26.144  32.053  1.00  0.00     0.031 A 
ATOM     85  C   UNL A   1      46.548  25.095  33.801  1.00  0.00     0.131 A 
ATOM     86  C   UNL A   1      48.969  25.456  32.511  1.00  0.00     0.055 A 
ATOM     87  C   UNL A   1      47.690  24.464  34.292  1.00  0.00     0.041 A 
ATOM     88  F   UNL A   1      45.387  24.865  34.438  1.00  0.00    -0.206 F 
ATOM     89  C   UNL A   1      48.908  24.630  33.637  1.00  0.00     0.022 A 
BRANCH  86  90
ATOM     90  S   UNL A   1      50.504  25.570  31.553  1.00  0.00     0.124 S 
ATOM     91  O   UNL A   1      50.076  26.334  30.385  1.00  0.00    -0.237 OA
ATOM     92  O   UNL A   1      51.397  26.264  32.476  1.00  0.00    -0.237 OA
ATOM     93  O   UNL A   1      50.850  24.174  31.289  1.00  0.00    -0.744 OA
ENDBRANCH  86  90
ENDBRANCH  60  83
ENDBRANCH  34  35
ENDBRANCH  26  29
ENDBRANCH  24  25
ENDBRANCH  23  24
ENDBRANCH  22  23
ENDBRANCH   1  22
TORSDOF 19
ENDMDL
MODEL 3
REMARK VINA RESULT:     -10.2      2.519      8.255
REMARK SMILES C[NH2+]CCCC(=O)N[C@H]1C=C[C@@H](C(=O)NCCCCNC(=O)c2ccc(-c3c4nc(c(-c5cc(S(=O)(=O)[O-])ccc5F)c5ccc([nH]5)c(-c5cc(S(=O)(=O)[O-])ccc5F)c5nc(c(-c6cc(S(=O)(=O)[O-])ccc6F)c6ccc3[nH]6)C=C5)C=C4)cc2)C1
REMARK SMILES IDX 16 1 15 2 13 3 14 4 12 6 9 7 10 8 86 9 11 10 8 11 6 12 7 13
REMARK SMILES IDX 5 15 4 16 3 17 2 18 1 19 17 22 18 23 19 24 20 25 21 26 22 28
REMARK SMILES IDX 23 29 24 30 85 31 25 32 84 33 26 34 27 35 28 36 78 37 29 38
REMARK SMILES IDX 83 39 77 40 79 41 30 42 82 43 76 44 75 45 31 47 63 48 43 49
REMARK SMILES IDX 62 50 44 51 47 52 61 53 80 54 45 55 46 56 60 58 81 59 48 60
REMARK SMILES IDX 32 61 33 62 41 63 34 64 40 65 42 66 39 67 35 68 36 69 37 70
REMARK SMILES IDX 38 71 64 72 65 73 73 74 66 75 72 76 74 77 71 78 67 79 68 80
REMARK SMILES IDX 69 81 70 82 49 83 50 84 58 85 51 86 57 87 59 88 56 89 52 90
REMARK SMILES IDX 53 91 54 92 55 93
REMARK H PARENT 15 5 8 14 2 20 2 21 20 27 79 46 47 57
REMARK Flexibility Score: inf
ROOT
ATOM      1  C   UNL A   1      33.649  27.161  25.713  1.00  0.00     0.116 C 
ENDROOT
BRANCH   1   2
ATOM      2  N   UNL A   1      32.691  26.099  25.912  1.00  0.00    -0.356 N 
ATOM      3  C   UNL A   1      32.852  24.769  26.129  1.00  0.00     0.227 C 
ATOM      4  O   UNL A   1      31.828  24.140  26.425  1.00  0.00    -0.274 OA
ATOM      5  H   UNL A   1      31.751  26.392  25.885  1.00  0.00     0.163 HD
BRANCH   3   6
ATOM      6  C   UNL A   1      34.197  24.025  26.096  1.00  0.00     0.103 C 
ATOM      7  C   UNL A   1      34.750  21.607  25.871  1.00  0.00     0.106 C 
ATOM      8  C   UNL A   1      34.959  22.373  24.618  1.00  0.00    -0.006 C 
ATOM      9  C   UNL A   1      34.399  22.726  26.886  1.00  0.00     0.047 C 
ATOM     10  C   UNL A   1      34.641  23.667  24.720  1.00  0.00    -0.016 C 
BRANCH   7  11
ATOM     11  N   UNL A   1      33.675  20.624  25.827  1.00  0.00    -0.350 N 
ATOM     12  C   UNL A   1      33.516  19.354  25.392  1.00  0.00     0.220 C 
ATOM     13  O   UNL A   1      32.442  18.811  25.673  1.00  0.00    -0.275 OA
ATOM     14  H   UNL A   1      32.845  20.979  26.217  1.00  0.00     0.164 HD
BRANCH  12  15
ATOM     15  C   UNL A   1      34.529  18.616  24.552  1.00  0.00     0.106 C 
BRANCH  15  16
ATOM     16  C   UNL A   1      33.868  17.677  23.532  1.00  0.00     0.071 C 
BRANCH  16  17
ATOM     17  C   UNL A   1      33.767  16.198  23.924  1.00  0.00     0.260 C 
BRANCH  17  18
ATOM     18  N   UNL A   1      32.500  15.896  24.591  1.00  0.00    -0.349 N 
ATOM     19  C   UNL A   1      32.698  15.044  25.756  1.00  0.00     0.330 C 
ATOM     20  H   UNL A   1      32.067  16.770  24.890  1.00  0.00     0.346 HD
ATOM     21  H   UNL A   1      31.902  15.401  23.930  1.00  0.00     0.346 HD
ENDBRANCH  17  18
ENDBRANCH  16  17
ENDBRANCH  15  16
ENDBRANCH  12  15
ENDBRANCH   7  11
ENDBRANCH   3   6
ENDBRANCH   1   2
BRANCH   1  22
ATOM     22  C   UNL A   1      33.248  28.120  24.594  1.00  0.00     0.023 C 
BRANCH  22  23
ATOM     23  C   UNL A   1      33.188  29.592  25.005  1.00  0.00     0.023 C 
BRANCH  23  24
ATOM     24  C   UNL A   1      32.389  29.880  26.271  1.00  0.00     0.116 C 
BRANCH  24  25
ATOM     25  N   UNL A   1      32.273  31.302  26.559  1.00  0.00    -0.352 N 
ATOM     26  C   UNL A   1      33.081  32.104  27.330  1.00  0.00     0.251 C 
ATOM     27  H   UNL A   1      31.504  31.754  26.143  1.00  0.00     0.163 HD
ATOM     28  O   UNL A   1      32.742  33.261  27.566  1.00  0.00    -0.269 OA
BRANCH  26  29
ATOM     29  C   UNL A   1      34.333  31.565  27.904  1.00  0.00     0.039 A 
ATOM     30  C   UNL A   1      35.440  32.411  28.017  1.00  0.00     0.014 A 
ATOM     31  C   UNL A   1      34.419  30.241  28.343  1.00  0.00     0.014 A 
ATOM     32  C   UNL A   1      36.604  31.952  28.637  1.00  0.00     0.010 A 
ATOM     33  C   UNL A   1      35.549  29.811  29.034  1.00  0.00     0.010 A 
ATOM     34  C   UNL A   1      36.654  30.661  29.191  1.00  0.00    -0.014 A 
BRANCH  34  35
ATOM     35  C   UNL A   1      37.853  30.192  29.937  1.00  0.00     0.031 A 
ATOM     36  C   UNL A   1      38.134  30.710  31.323  1.00  0.00     0.074 A 
ATOM     37  C   UNL A   1      38.717  29.343  29.346  1.00  0.00     0.049 A 
ATOM     38  N   UNL A   1      39.157  30.475  32.103  1.00  0.00    -0.248 NA
ATOM     39  C   UNL A   1      37.145  31.638  31.892  1.00  0.00     0.031 C 
ATOM     40  C   UNL A   1      38.579  28.807  27.990  1.00  0.00     0.029 A 
ATOM     41  N   UNL A   1      39.886  28.785  29.803  1.00  0.00    -0.354 N 
ATOM     42  C   UNL A   1      38.937  31.226  33.253  1.00  0.00     0.074 A 
ATOM     43  C   UNL A   1      37.722  31.980  33.033  1.00  0.00     0.031 C 
ATOM     44  C   UNL A   1      39.609  27.983  27.735  1.00  0.00     0.029 A 
ATOM     45  C   UNL A   1      40.505  27.966  28.886  1.00  0.00     0.049 A 
ATOM     46  H   UNL A   1      40.248  28.956  30.702  1.00  0.00     0.167 HD
ATOM     47  C   UNL A   1      39.666  31.260  34.398  1.00  0.00     0.034 A 
ATOM     48  C   UNL A   1      41.668  27.290  28.957  1.00  0.00     0.034 A 
ATOM     49  C   UNL A   1      40.876  30.502  34.602  1.00  0.00     0.049 A 
ATOM     50  C   UNL A   1      42.477  27.366  30.228  1.00  0.00     0.074 A 
ATOM     51  C   UNL A   1      41.673  30.437  35.732  1.00  0.00     0.029 A 
ATOM     52  N   UNL A   1      41.468  29.676  33.654  1.00  0.00    -0.354 N 
ATOM     53  N   UNL A   1      42.231  28.047  31.325  1.00  0.00    -0.248 NA
ATOM     54  C   UNL A   1      43.709  26.571  30.279  1.00  0.00     0.031 C 
ATOM     55  C   UNL A   1      42.779  29.629  35.445  1.00  0.00     0.029 A 
ATOM     56  C   UNL A   1      42.633  29.122  34.164  1.00  0.00     0.049 A 
ATOM     57  H   UNL A   1      41.113  29.511  32.751  1.00  0.00     0.167 HD
ATOM     58  C   UNL A   1      43.265  27.737  32.204  1.00  0.00     0.074 A 
ATOM     59  C   UNL A   1      44.122  26.792  31.518  1.00  0.00     0.031 C 
ATOM     60  C   UNL A   1      43.487  28.190  33.464  1.00  0.00     0.034 A 
BRANCH  47  61
ATOM     61  C   UNL A   1      39.172  32.163  35.505  1.00  0.00     0.023 A 
ATOM     62  C   UNL A   1      39.611  33.494  35.619  1.00  0.00     0.031 A 
ATOM     63  C   UNL A   1      38.269  31.685  36.471  1.00  0.00     0.131 A 
ATOM     64  C   UNL A   1      39.214  34.274  36.715  1.00  0.00     0.055 A 
ATOM     65  C   UNL A   1      37.808  32.495  37.513  1.00  0.00     0.041 A 
ATOM     66  F   UNL A   1      37.828  30.419  36.428  1.00  0.00    -0.206 F 
ATOM     67  C   UNL A   1      38.293  33.792  37.648  1.00  0.00     0.022 A 
BRANCH  64  68
ATOM     68  S   UNL A   1      40.029  35.871  36.983  1.00  0.00     0.124 S 
ATOM     69  O   UNL A   1      39.848  36.516  35.684  1.00  0.00    -0.237 OA
ATOM     70  O   UNL A   1      39.264  36.435  38.089  1.00  0.00    -0.237 OA
ATOM     71  O   UNL A   1      41.407  35.504  37.301  1.00  0.00    -0.744 OA
ENDBRANCH  64  68
ENDBRANCH  47  61
BRANCH  48  72
ATOM     72  C   UNL A   1      42.157  26.498  27.791  1.00  0.00     0.023 A 
ATOM     73  C   UNL A   1      42.041  25.099  27.759  1.00  0.00     0.031 A 
ATOM     74  C   UNL A   1      42.793  27.129  26.705  1.00  0.00     0.131 A 
ATOM     75  C   UNL A   1      42.600  24.373  26.696  1.00  0.00     0.055 A 
ATOM     76  C   UNL A   1      43.294  26.407  25.621  1.00  0.00     0.041 A 
ATOM     77  F   UNL A   1      42.927  28.464  26.681  1.00  0.00    -0.206 F 
ATOM     78  C   UNL A   1      43.213  25.019  25.620  1.00  0.00     0.022 A 
BRANCH  75  79
ATOM     79  S   UNL A   1      42.600  22.561  26.786  1.00  0.00     0.124 S 
ATOM     80  O   UNL A   1      43.997  22.250  26.503  1.00  0.00    -0.237 OA
ATOM     81  O   UNL A   1      42.155  22.326  28.155  1.00  0.00    -0.237 OA
ATOM     82  O   UNL A   1      41.650  22.169  25.747  1.00  0.00    -0.744 OA
ENDBRANCH  75  79
ENDBRANCH  48  72
BRANCH  60  83
ATOM     83  C   UNL A   1      44.685  27.630  34.193  1.00  0.00     0.023 A 
ATOM     84  C   UNL A   1      44.656  26.366  34.806  1.00  0.00     0.031 A 
ATOM     85  C   UNL A   1      45.869  28.384  34.291  1.00  0.00     0.131 A 
ATOM     86  C   UNL A   1      45.764  25.918  35.540  1.00  0.00     0.055 A 
ATOM     87  C   UNL A   1      46.991  27.906  34.967  1.00  0.00     0.041 A 
ATOM     88  F   UNL A   1      45.954  29.601  33.727  1.00  0.00    -0.206 F 
ATOM     89  C   UNL A   1      46.938  26.672  35.610  1.00  0.00     0.022 A 
BRANCH  86  90
ATOM     90  S   UNL A   1      45.616  24.382  36.492  1.00  0.00     0.124 S 
ATOM     91  O   UNL A   1      46.842  23.679  36.125  1.00  0.00    -0.237 OA
ATOM     92  O   UNL A   1      45.549  24.871  37.866  1.00  0.00    -0.237 OA
ATOM     93  O   UNL A   1      44.382  23.782  35.988  1.00  0.00    -0.744 OA
ENDBRANCH  86  90
ENDBRANCH  60  83
ENDBRANCH  34  35
ENDBRANCH  26  29
ENDBRANCH  24  25
ENDBRANCH  23  24
ENDBRANCH  22  23
ENDBRANCH   1  22
TORSDOF 19
ENDMDL
