MODEL 1
REMARK VINA RESULT:     -11.2      0.000      0.000
REMARK SMILES CC(C)OCCS(=O)(=O)Nc1ccc(O)c(C(=O)NCCCCNC(=O)c2ccc(-c3c4nc(c(-c5cc(S(=O)(=O)[O-])ccc5F)c5ccc([nH]5)c(-c5cc(S(=O)(=O)[O-])ccc5F)c5nc(c(-c6cc(S(=O)(=O)[O-])ccc6F)c6ccc3[nH]6)C=C5)C=C4)cc2)c1
REMARK SMILES IDX 20 1 19 2 17 3 18 4 16 6 11 7 12 8 90 9 13 10 14 11 10 12
REMARK SMILES IDX 7 14 8 15 9 16 6 17 5 18 4 19 2 20 1 21 3 22 15 23 21 25
REMARK SMILES IDX 22 26 23 27 24 28 25 29 26 31 27 32 28 33 89 34 29 35 88 36
REMARK SMILES IDX 30 37 31 38 32 39 82 40 33 41 87 42 81 43 83 44 34 45 86 46
REMARK SMILES IDX 80 47 79 48 35 50 67 51 47 52 66 53 48 54 51 55 65 56 84 57
REMARK SMILES IDX 49 58 50 59 64 61 85 62 52 63 36 64 37 65 45 66 38 67 44 68
REMARK SMILES IDX 46 69 43 70 39 71 40 72 41 73 42 74 68 75 69 76 77 77 70 78
REMARK SMILES IDX 76 79 78 80 75 81 71 82 72 83 73 84 74 85 53 86 54 87 62 88
REMARK SMILES IDX 55 89 61 90 63 91 60 92 56 93 57 94 58 95 59 96
REMARK H PARENT 19 5 10 13 15 24 24 30 83 49 51 60
REMARK Flexibility Score: inf
ROOT
ATOM      1  C   UNL A   1      32.738  29.940  25.957  1.00  0.00     0.116 C 
ENDROOT
BRANCH   1   2
ATOM      2  N   UNL A   1      33.319  29.645  24.670  1.00  0.00    -0.352 N 
ATOM      3  C   UNL A   1      33.055  28.647  23.772  1.00  0.00     0.255 C 
ATOM      4  O   UNL A   1      33.747  28.615  22.751  1.00  0.00    -0.269 OA
ATOM      5  H   UNL A   1      34.026  30.269  24.388  1.00  0.00     0.163 HD
BRANCH   3   6
ATOM      6  C   UNL A   1      31.983  27.617  23.916  1.00  0.00     0.083 A 
ATOM      7  C   UNL A   1      31.136  25.880  25.396  1.00  0.00     0.050 A 
ATOM      8  C   UNL A   1      29.934  25.959  24.728  1.00  0.00     0.030 A 
ATOM      9  C   UNL A   1      32.144  26.758  25.034  1.00  0.00     0.044 A 
ATOM     10  C   UNL A   1      29.769  26.692  23.579  1.00  0.00     0.049 A 
ATOM     11  C   UNL A   1      30.799  27.515  23.165  1.00  0.00     0.128 A 
BRANCH   7  12
ATOM     12  N   UNL A   1      31.192  25.094  26.576  1.00  0.00    -0.283 N 
ATOM     13  H   UNL A   1      31.085  25.541  27.447  1.00  0.00     0.180 HD
BRANCH  12  14
ATOM     14  S   UNL A   1      31.434  23.436  26.544  1.00  0.00     0.235 S 
ATOM     15  O   UNL A   1      30.108  22.864  26.416  1.00  0.00    -0.207 OA
ATOM     16  O   UNL A   1      32.232  23.122  27.712  1.00  0.00    -0.207 OA
BRANCH  14  17
ATOM     17  C   UNL A   1      32.410  22.944  25.104  1.00  0.00     0.188 C 
BRANCH  17  18
ATOM     18  C   UNL A   1      31.956  21.675  24.377  1.00  0.00     0.178 C 
BRANCH  18  19
ATOM     19  O   UNL A   1      32.081  20.516  25.200  1.00  0.00    -0.378 OA
BRANCH  19  20
ATOM     20  C   UNL A   1      32.753  19.355  24.692  1.00  0.00     0.112 C 
ATOM     21  C   UNL A   1      32.664  18.204  25.676  1.00  0.00     0.038 C 
ATOM     22  C   UNL A   1      32.376  18.936  23.272  1.00  0.00     0.038 C 
ENDBRANCH  19  20
ENDBRANCH  18  19
ENDBRANCH  17  18
ENDBRANCH  14  17
ENDBRANCH  12  14
ENDBRANCH   7  12
BRANCH  11  23
ATOM     23  O   UNL A   1      30.510  28.232  22.054  1.00  0.00    -0.507 OA
ATOM     24  H   UNL A   1      30.399  27.797  21.231  1.00  0.00     0.293 HD
ENDBRANCH  11  23
ENDBRANCH   3   6
ENDBRANCH   1   2
BRANCH   1  25
ATOM     25  C   UNL A   1      31.432  30.728  25.786  1.00  0.00     0.023 C 
BRANCH  25  26
ATOM     26  C   UNL A   1      31.288  31.973  26.645  1.00  0.00     0.023 C 
BRANCH  26  27
ATOM     27  C   UNL A   1      32.604  32.515  27.158  1.00  0.00     0.116 C 
BRANCH  27  28
ATOM     28  N   UNL A   1      32.540  33.909  27.575  1.00  0.00    -0.352 N 
ATOM     29  C   UNL A   1      33.375  34.542  28.470  1.00  0.00     0.251 C 
ATOM     30  H   UNL A   1      31.826  34.456  27.176  1.00  0.00     0.163 HD
ATOM     31  O   UNL A   1      33.169  35.687  28.824  1.00  0.00    -0.269 OA
BRANCH  29  32
ATOM     32  C   UNL A   1      34.488  33.744  29.021  1.00  0.00     0.039 A 
ATOM     33  C   UNL A   1      35.796  34.159  28.775  1.00  0.00     0.014 A 
ATOM     34  C   UNL A   1      34.217  32.693  29.902  1.00  0.00     0.014 A 
ATOM     35  C   UNL A   1      36.839  33.547  29.466  1.00  0.00     0.010 A 
ATOM     36  C   UNL A   1      35.247  32.158  30.660  1.00  0.00     0.010 A 
ATOM     37  C   UNL A   1      36.570  32.570  30.439  1.00  0.00    -0.014 A 
BRANCH  37  38
ATOM     38  C   UNL A   1      37.668  31.938  31.210  1.00  0.00     0.031 A 
ATOM     39  C   UNL A   1      38.461  30.824  30.585  1.00  0.00     0.074 A 
ATOM     40  C   UNL A   1      37.918  32.339  32.472  1.00  0.00     0.049 A 
ATOM     41  N   UNL A   1      39.439  30.121  31.092  1.00  0.00    -0.248 NA
ATOM     42  C   UNL A   1      38.081  30.426  29.219  1.00  0.00     0.031 C 
ATOM     43  C   UNL A   1      37.175  33.374  33.196  1.00  0.00     0.029 A 
ATOM     44  N   UNL A   1      38.868  31.927  33.370  1.00  0.00    -0.354 N 
ATOM     45  C   UNL A   1      39.784  29.196  30.112  1.00  0.00     0.074 A 
ATOM     46  C   UNL A   1      38.858  29.374  29.017  1.00  0.00     0.031 C 
ATOM     47  C   UNL A   1      37.723  33.542  34.410  1.00  0.00     0.029 A 
ATOM     48  C   UNL A   1      38.826  32.601  34.570  1.00  0.00     0.049 A 
ATOM     49  H   UNL A   1      39.521  31.215  33.176  1.00  0.00     0.167 HD
ATOM     50  C   UNL A   1      40.804  28.304  30.112  1.00  0.00     0.034 A 
ATOM     51  C   UNL A   1      39.592  32.469  35.672  1.00  0.00     0.034 A 
ATOM     52  C   UNL A   1      41.727  28.153  31.208  1.00  0.00     0.049 A 
ATOM     53  C   UNL A   1      40.710  31.455  35.655  1.00  0.00     0.074 A 
ATOM     54  C   UNL A   1      42.826  27.319  31.301  1.00  0.00     0.029 A 
ATOM     55  N   UNL A   1      41.653  28.851  32.408  1.00  0.00    -0.354 N 
ATOM     56  N   UNL A   1      41.063  30.630  34.695  1.00  0.00    -0.248 NA
ATOM     57  C   UNL A   1      41.538  31.364  36.863  1.00  0.00     0.031 C 
ATOM     58  C   UNL A   1      43.377  27.463  32.579  1.00  0.00     0.029 A 
ATOM     59  C   UNL A   1      42.671  28.444  33.257  1.00  0.00     0.049 A 
ATOM     60  H   UNL A   1      40.978  29.534  32.623  1.00  0.00     0.167 HD
ATOM     61  C   UNL A   1      42.178  29.947  35.175  1.00  0.00     0.074 A 
ATOM     62  C   UNL A   1      42.446  30.470  36.499  1.00  0.00     0.031 C 
ATOM     63  C   UNL A   1      42.916  28.976  34.577  1.00  0.00     0.034 A 
BRANCH  50  64
ATOM     64  C   UNL A   1      40.953  27.422  28.896  1.00  0.00     0.023 A 
ATOM     65  C   UNL A   1      41.964  27.645  27.943  1.00  0.00     0.031 A 
ATOM     66  C   UNL A   1      40.057  26.364  28.667  1.00  0.00     0.131 A 
ATOM     67  C   UNL A   1      42.005  26.876  26.771  1.00  0.00     0.055 A 
ATOM     68  C   UNL A   1      40.156  25.547  27.539  1.00  0.00     0.041 A 
ATOM     69  F   UNL A   1      39.057  26.116  29.528  1.00  0.00    -0.206 F 
ATOM     70  C   UNL A   1      41.125  25.809  26.575  1.00  0.00     0.022 A 
BRANCH  67  71
ATOM     71  S   UNL A   1      43.132  27.382  25.443  1.00  0.00     0.124 S 
ATOM     72  O   UNL A   1      42.291  28.298  24.676  1.00  0.00    -0.237 OA
ATOM     73  O   UNL A   1      44.234  27.991  26.178  1.00  0.00    -0.237 OA
ATOM     74  O   UNL A   1      43.451  26.126  24.767  1.00  0.00    -0.744 OA
ENDBRANCH  67  71
ENDBRANCH  50  64
BRANCH  51  75
ATOM     75  C   UNL A   1      39.342  33.309  36.879  1.00  0.00     0.023 A 
ATOM     76  C   UNL A   1      40.023  34.523  37.071  1.00  0.00     0.031 A 
ATOM     77  C   UNL A   1      38.461  32.885  37.888  1.00  0.00     0.131 A 
ATOM     78  C   UNL A   1      39.856  35.239  38.266  1.00  0.00     0.055 A 
ATOM     79  C   UNL A   1      38.253  33.631  39.051  1.00  0.00     0.041 A 
ATOM     80  F   UNL A   1      37.779  31.736  37.756  1.00  0.00    -0.206 F 
ATOM     81  C   UNL A   1      38.966  34.809  39.252  1.00  0.00     0.022 A 
BRANCH  78  82
ATOM     82  S   UNL A   1      40.898  36.695  38.558  1.00  0.00     0.124 S 
ATOM     83  O   UNL A   1      39.904  37.712  38.883  1.00  0.00    -0.237 OA
ATOM     84  O   UNL A   1      41.742  36.246  39.659  1.00  0.00    -0.237 OA
ATOM     85  O   UNL A   1      41.587  36.881  37.282  1.00  0.00    -0.744 OA
ENDBRANCH  78  82
ENDBRANCH  51  75
BRANCH  63  86
ATOM     86  C   UNL A   1      44.110  28.458  35.339  1.00  0.00     0.023 A 
ATOM     87  C   UNL A   1      44.041  27.290  36.119  1.00  0.00     0.031 A 
ATOM     88  C   UNL A   1      45.334  29.148  35.287  1.00  0.00     0.131 A 
ATOM     89  C   UNL A   1      45.157  26.882  36.863  1.00  0.00     0.055 A 
ATOM     90  C   UNL A   1      46.461  28.701  35.978  1.00  0.00     0.041 A 
ATOM     91  F   UNL A   1      45.456  30.270  34.559  1.00  0.00    -0.206 F 
ATOM     92  C   UNL A   1      46.371  27.569  36.783  1.00  0.00     0.022 A 
BRANCH  89  93
ATOM     93  S   UNL A   1      44.974  25.493  38.015  1.00  0.00     0.124 S 
ATOM     94  O   UNL A   1      43.711  24.905  37.581  1.00  0.00    -0.237 OA
ATOM     95  O   UNL A   1      46.170  24.703  37.744  1.00  0.00    -0.237 OA
ATOM     96  O   UNL A   1      44.941  26.137  39.326  1.00  0.00    -0.744 OA
ENDBRANCH  89  93
ENDBRANCH  63  86
ENDBRANCH  37  38
ENDBRANCH  29  32
ENDBRANCH  27  28
ENDBRANCH  26  27
ENDBRANCH  25  26
ENDBRANCH   1  25
TORSDOF 21
ENDMDL
MODEL 2
REMARK VINA RESULT:     -10.9      4.770      8.340
REMARK SMILES CC(C)OCCS(=O)(=O)Nc1ccc(O)c(C(=O)NCCCCNC(=O)c2ccc(-c3c4nc(c(-c5cc(S(=O)(=O)[O-])ccc5F)c5ccc([nH]5)c(-c5cc(S(=O)(=O)[O-])ccc5F)c5nc(c(-c6cc(S(=O)(=O)[O-])ccc6F)c6ccc3[nH]6)C=C5)C=C4)cc2)c1
REMARK SMILES IDX 20 1 19 2 17 3 18 4 16 6 11 7 12 8 90 9 13 10 14 11 10 12
REMARK SMILES IDX 7 14 8 15 9 16 6 17 5 18 4 19 2 20 1 21 3 22 15 23 21 25
REMARK SMILES IDX 22 26 23 27 24 28 25 29 26 31 27 32 28 33 89 34 29 35 88 36
REMARK SMILES IDX 30 37 31 38 32 39 82 40 33 41 87 42 81 43 83 44 34 45 86 46
REMARK SMILES IDX 80 47 79 48 35 50 67 51 47 52 66 53 48 54 51 55 65 56 84 57
REMARK SMILES IDX 49 58 50 59 64 61 85 62 52 63 36 64 37 65 45 66 38 67 44 68
REMARK SMILES IDX 46 69 43 70 39 71 40 72 41 73 42 74 68 75 69 76 77 77 70 78
REMARK SMILES IDX 76 79 78 80 75 81 71 82 72 83 73 84 74 85 53 86 54 87 62 88
REMARK SMILES IDX 55 89 61 90 63 91 60 92 56 93 57 94 58 95 59 96
REMARK H PARENT 19 5 10 13 15 24 24 30 83 49 51 60
REMARK Flexibility Score: inf
ROOT
ATOM      1  C   UNL A   1      34.946  20.472  25.365  1.00  0.00     0.116 C 
ENDROOT
BRANCH   1   2
ATOM      2  N   UNL A   1      33.996  19.872  24.458  1.00  0.00    -0.352 N 
ATOM      3  C   UNL A   1      32.822  20.347  23.943  1.00  0.00     0.255 C 
ATOM      4  O   UNL A   1      32.185  19.587  23.208  1.00  0.00    -0.269 OA
ATOM      5  H   UNL A   1      34.236  18.965  24.158  1.00  0.00     0.163 HD
BRANCH   3   6
ATOM      6  C   UNL A   1      32.269  21.715  24.173  1.00  0.00     0.083 A 
ATOM      7  C   UNL A   1      31.795  23.836  23.075  1.00  0.00     0.050 A 
ATOM      8  C   UNL A   1      30.928  24.124  24.106  1.00  0.00     0.030 A 
ATOM      9  C   UNL A   1      32.419  22.599  23.073  1.00  0.00     0.044 A 
ATOM     10  C   UNL A   1      30.836  23.353  25.238  1.00  0.00     0.049 A 
ATOM     11  C   UNL A   1      31.516  22.151  25.278  1.00  0.00     0.128 A 
BRANCH   7  12
ATOM     12  N   UNL A   1      31.806  24.701  21.951  1.00  0.00    -0.283 N 
ATOM     13  H   UNL A   1      31.046  24.673  21.326  1.00  0.00     0.180 HD
BRANCH  12  14
ATOM     14  S   UNL A   1      33.061  25.768  21.647  1.00  0.00     0.235 S 
ATOM     15  O   UNL A   1      33.089  25.919  20.205  1.00  0.00    -0.207 OA
ATOM     16  O   UNL A   1      34.223  25.228  22.325  1.00  0.00    -0.207 OA
BRANCH  14  17
ATOM     17  C   UNL A   1      32.738  27.387  22.385  1.00  0.00     0.188 C 
BRANCH  17  18
ATOM     18  C   UNL A   1      33.798  27.914  23.356  1.00  0.00     0.178 C 
BRANCH  18  19
ATOM     19  O   UNL A   1      33.216  28.409  24.562  1.00  0.00    -0.378 OA
BRANCH  19  20
ATOM     20  C   UNL A   1      33.023  27.523  25.672  1.00  0.00     0.112 C 
ATOM     21  C   UNL A   1      31.546  27.286  25.925  1.00  0.00     0.038 C 
ATOM     22  C   UNL A   1      33.821  26.221  25.631  1.00  0.00     0.038 C 
ENDBRANCH  19  20
ENDBRANCH  18  19
ENDBRANCH  17  18
ENDBRANCH  14  17
ENDBRANCH  12  14
ENDBRANCH   7  12
BRANCH  11  23
ATOM     23  O   UNL A   1      31.312  21.447  26.415  1.00  0.00    -0.507 OA
ATOM     24  H   UNL A   1      31.824  21.630  27.179  1.00  0.00     0.293 HD
ENDBRANCH  11  23
ENDBRANCH   3   6
ENDBRANCH   1   2
BRANCH   1  25
ATOM     25  C   UNL A   1      35.936  21.355  24.595  1.00  0.00     0.023 C 
BRANCH  25  26
ATOM     26  C   UNL A   1      35.824  22.850  24.839  1.00  0.00     0.023 C 
BRANCH  26  27
ATOM     27  C   UNL A   1      36.877  23.395  25.779  1.00  0.00     0.116 C 
BRANCH  27  28
ATOM     28  N   UNL A   1      37.995  22.488  25.994  1.00  0.00    -0.352 N 
ATOM     29  C   UNL A   1      39.226  22.807  26.527  1.00  0.00     0.251 C 
ATOM     30  H   UNL A   1      37.859  21.550  25.731  1.00  0.00     0.163 HD
ATOM     31  O   UNL A   1      40.126  21.991  26.569  1.00  0.00    -0.269 OA
BRANCH  29  32
ATOM     32  C   UNL A   1      39.413  24.199  26.983  1.00  0.00     0.039 A 
ATOM     33  C   UNL A   1      39.170  24.503  28.322  1.00  0.00     0.014 A 
ATOM     34  C   UNL A   1      39.977  25.140  26.119  1.00  0.00     0.014 A 
ATOM     35  C   UNL A   1      39.551  25.751  28.810  1.00  0.00     0.010 A 
ATOM     36  C   UNL A   1      40.445  26.340  26.632  1.00  0.00     0.010 A 
ATOM     37  C   UNL A   1      40.224  26.662  27.979  1.00  0.00    -0.014 A 
BRANCH  37  38
ATOM     38  C   UNL A   1      40.671  27.979  28.496  1.00  0.00     0.031 A 
ATOM     39  C   UNL A   1      42.142  28.266  28.608  1.00  0.00     0.074 A 
ATOM     40  C   UNL A   1      39.759  28.888  28.894  1.00  0.00     0.049 A 
ATOM     41  N   UNL A   1      42.744  29.336  29.057  1.00  0.00    -0.248 NA
ATOM     42  C   UNL A   1      43.060  27.192  28.191  1.00  0.00     0.031 C 
ATOM     43  C   UNL A   1      38.307  28.694  28.880  1.00  0.00     0.029 A 
ATOM     44  N   UNL A   1      39.917  30.157  29.388  1.00  0.00    -0.354 N 
ATOM     45  C   UNL A   1      44.106  29.061  28.982  1.00  0.00     0.074 A 
ATOM     46  C   UNL A   1      44.237  27.696  28.524  1.00  0.00     0.031 C 
ATOM     47  C   UNL A   1      37.708  29.818  29.305  1.00  0.00     0.029 A 
ATOM     48  C   UNL A   1      38.729  30.797  29.662  1.00  0.00     0.049 A 
ATOM     49  H   UNL A   1      40.797  30.574  29.532  1.00  0.00     0.167 HD
ATOM     50  C   UNL A   1      45.150  29.884  29.237  1.00  0.00     0.034 A 
ATOM     51  C   UNL A   1      38.496  32.032  30.150  1.00  0.00     0.034 A 
ATOM     52  C   UNL A   1      44.998  31.247  29.678  1.00  0.00     0.049 A 
ATOM     53  C   UNL A   1      39.677  32.924  30.446  1.00  0.00     0.074 A 
ATOM     54  C   UNL A   1      45.980  32.190  29.921  1.00  0.00     0.029 A 
ATOM     55  N   UNL A   1      43.780  31.862  29.948  1.00  0.00    -0.354 N 
ATOM     56  N   UNL A   1      40.959  32.670  30.310  1.00  0.00    -0.248 NA
ATOM     57  C   UNL A   1      39.379  34.271  30.947  1.00  0.00     0.031 C 
ATOM     58  C   UNL A   1      45.363  33.350  30.401  1.00  0.00     0.029 A 
ATOM     59  C   UNL A   1      43.990  33.161  30.382  1.00  0.00     0.049 A 
ATOM     60  H   UNL A   1      42.898  31.436  29.845  1.00  0.00     0.167 HD
ATOM     61  C   UNL A   1      41.617  33.841  30.678  1.00  0.00     0.074 A 
ATOM     62  C   UNL A   1      40.590  34.803  31.023  1.00  0.00     0.031 C 
ATOM     63  C   UNL A   1      42.950  34.101  30.726  1.00  0.00     0.034 A 
BRANCH  50  64
ATOM     64  C   UNL A   1      46.539  29.318  29.060  1.00  0.00     0.023 A 
ATOM     65  C   UNL A   1      47.129  29.198  27.789  1.00  0.00     0.031 A 
ATOM     66  C   UNL A   1      47.272  28.863  30.169  1.00  0.00     0.131 A 
ATOM     67  C   UNL A   1      48.373  28.567  27.649  1.00  0.00     0.055 A 
ATOM     68  C   UNL A   1      48.548  28.313  30.033  1.00  0.00     0.041 A 
ATOM     69  F   UNL A   1      46.753  28.929  31.406  1.00  0.00    -0.206 F 
ATOM     70  C   UNL A   1      49.100  28.148  28.765  1.00  0.00     0.022 A 
BRANCH  67  71
ATOM     71  S   UNL A   1      48.961  28.170  25.980  1.00  0.00     0.124 S 
ATOM     72  O   UNL A   1      49.317  26.760  26.119  1.00  0.00    -0.237 OA
ATOM     73  O   UNL A   1      47.791  28.455  25.157  1.00  0.00    -0.237 OA
ATOM     74  O   UNL A   1      50.093  29.076  25.791  1.00  0.00    -0.744 OA
ENDBRANCH  67  71
ENDBRANCH  50  64
BRANCH  51  75
ATOM     75  C   UNL A   1      37.102  32.507  30.388  1.00  0.00     0.023 A 
ATOM     76  C   UNL A   1      36.311  32.991  29.333  1.00  0.00     0.031 A 
ATOM     77  C   UNL A   1      36.558  32.539  31.684  1.00  0.00     0.131 A 
ATOM     78  C   UNL A   1      35.046  33.537  29.598  1.00  0.00     0.055 A 
ATOM     79  C   UNL A   1      35.275  33.030  31.936  1.00  0.00     0.041 A 
ATOM     80  F   UNL A   1      37.267  32.085  32.730  1.00  0.00    -0.206 F 
ATOM     81  C   UNL A   1      34.516  33.548  30.891  1.00  0.00     0.022 A 
BRANCH  78  82
ATOM     82  S   UNL A   1      34.140  34.327  28.240  1.00  0.00     0.124 S 
ATOM     83  O   UNL A   1      35.203  34.561  27.270  1.00  0.00    -0.237 OA
ATOM     84  O   UNL A   1      33.165  33.300  27.890  1.00  0.00    -0.237 OA
ATOM     85  O   UNL A   1      33.582  35.529  28.858  1.00  0.00    -0.744 OA
ENDBRANCH  78  82
ENDBRANCH  51  75
BRANCH  63  86
ATOM     86  C   UNL A   1      43.360  35.498  31.122  1.00  0.00     0.023 A 
ATOM     87  C   UNL A   1      43.506  35.873  32.469  1.00  0.00     0.031 A 
ATOM     88  C   UNL A   1      43.601  36.469  30.134  1.00  0.00     0.131 A 
ATOM     89  C   UNL A   1      43.825  37.200  32.792  1.00  0.00     0.055 A 
ATOM     90  C   UNL A   1      43.982  37.771  30.460  1.00  0.00     0.041 A 
ATOM     91  F   UNL A   1      43.475  36.166  28.832  1.00  0.00    -0.206 F 
ATOM     92  C   UNL A   1      44.082  38.146  31.797  1.00  0.00     0.022 A 
BRANCH  89  93
ATOM     93  S   UNL A   1      43.806  37.698  34.536  1.00  0.00     0.124 S 
ATOM     94  O   UNL A   1      42.404  37.505  34.891  1.00  0.00    -0.237 OA
ATOM     95  O   UNL A   1      44.750  36.763  35.138  1.00  0.00    -0.237 OA
ATOM     96  O   UNL A   1      44.250  39.090  34.500  1.00  0.00    -0.744 OA
ENDBRANCH  89  93
ENDBRANCH  63  86
ENDBRANCH  37  38
ENDBRANCH  29  32
ENDBRANCH  27  28
ENDBRANCH  26  27
ENDBRANCH  25  26
ENDBRANCH   1  25
TORSDOF 21
ENDMDL
MODEL 3
REMARK VINA RESULT:     -10.9      2.364      7.941
REMARK SMILES CC(C)OCCS(=O)(=O)Nc1ccc(O)c(C(=O)NCCCCNC(=O)c2ccc(-c3c4nc(c(-c5cc(S(=O)(=O)[O-])ccc5F)c5ccc([nH]5)c(-c5cc(S(=O)(=O)[O-])ccc5F)c5nc(c(-c6cc(S(=O)(=O)[O-])ccc6F)c6ccc3[nH]6)C=C5)C=C4)cc2)c1
REMARK SMILES IDX 20 1 19 2 17 3 18 4 16 6 11 7 12 8 90 9 13 10 14 11 10 12
REMARK SMILES IDX 7 14 8 15 9 16 6 17 5 18 4 19 2 20 1 21 3 22 15 23 21 25
REMARK SMILES IDX 22 26 23 27 24 28 25 29 26 31 27 32 28 33 89 34 29 35 88 36
REMARK SMILES IDX 30 37 31 38 32 39 82 40 33 41 87 42 81 43 83 44 34 45 86 46
REMARK SMILES IDX 80 47 79 48 35 50 67 51 47 52 66 53 48 54 51 55 65 56 84 57
REMARK SMILES IDX 49 58 50 59 64 61 85 62 52 63 36 64 37 65 45 66 38 67 44 68
REMARK SMILES IDX 46 69 43 70 39 71 40 72 41 73 42 74 68 75 69 76 77 77 70 78
REMARK SMILES IDX 76 79 78 80 75 81 71 82 72 83 73 84 74 85 53 86 54 87 62 88
REMARK SMILES IDX 55 89 61 90 63 91 60 92 56 93 57 94 58 95 59 96
REMARK H PARENT 19 5 10 13 15 24 24 30 83 49 51 60
REMARK Flexibility Score: inf
ROOT
ATOM      1  C   UNL A   1      31.361  29.530  24.560  1.00  0.00     0.116 C 
ENDROOT
BRANCH   1   2
ATOM      2  N   UNL A   1      32.639  29.538  23.888  1.00  0.00    -0.352 N 
ATOM      3  C   UNL A   1      33.333  28.537  23.266  1.00  0.00     0.255 C 
ATOM      4  O   UNL A   1      34.440  28.827  22.804  1.00  0.00    -0.269 OA
ATOM      5  H   UNL A   1      33.087  30.414  23.875  1.00  0.00     0.163 HD
BRANCH   3   6
ATOM      6  C   UNL A   1      32.847  27.138  23.076  1.00  0.00     0.083 A 
ATOM      7  C   UNL A   1      33.143  24.849  23.853  1.00  0.00     0.050 A 
ATOM      8  C   UNL A   1      31.905  24.558  23.324  1.00  0.00     0.030 A 
ATOM      9  C   UNL A   1      33.588  26.160  23.788  1.00  0.00     0.044 A 
ATOM     10  C   UNL A   1      31.206  25.438  22.537  1.00  0.00     0.049 A 
ATOM     11  C   UNL A   1      31.683  26.728  22.402  1.00  0.00     0.128 A 
BRANCH   7  12
ATOM     12  N   UNL A   1      33.775  23.865  24.655  1.00  0.00    -0.283 N 
ATOM     13  H   UNL A   1      33.325  23.565  25.478  1.00  0.00     0.180 HD
BRANCH  12  14
ATOM     14  S   UNL A   1      35.257  23.193  24.255  1.00  0.00     0.235 S 
ATOM     15  O   UNL A   1      36.242  24.031  24.911  1.00  0.00    -0.207 OA
ATOM     16  O   UNL A   1      35.272  23.079  22.811  1.00  0.00    -0.207 OA
BRANCH  14  17
ATOM     17  C   UNL A   1      35.412  21.513  24.906  1.00  0.00     0.188 C 
BRANCH  17  18
ATOM     18  C   UNL A   1      34.172  20.623  24.791  1.00  0.00     0.178 C 
BRANCH  18  19
ATOM     19  O   UNL A   1      34.517  19.253  24.581  1.00  0.00    -0.378 OA
BRANCH  19  20
ATOM     20  C   UNL A   1      33.479  18.278  24.413  1.00  0.00     0.112 C 
ATOM     21  C   UNL A   1      32.723  18.063  25.710  1.00  0.00     0.038 C 
ATOM     22  C   UNL A   1      32.544  18.499  23.226  1.00  0.00     0.038 C 
ENDBRANCH  19  20
ENDBRANCH  18  19
ENDBRANCH  17  18
ENDBRANCH  14  17
ENDBRANCH  12  14
ENDBRANCH   7  12
BRANCH  11  23
ATOM     23  O   UNL A   1      30.889  27.526  21.652  1.00  0.00    -0.507 OA
ATOM     24  H   UNL A   1      30.628  27.254  20.793  1.00  0.00     0.293 HD
ENDBRANCH  11  23
ENDBRANCH   3   6
ENDBRANCH   1   2
BRANCH   1  25
ATOM     25  C   UNL A   1      31.346  30.563  25.694  1.00  0.00     0.023 C 
BRANCH  25  26
ATOM     26  C   UNL A   1      32.147  30.202  26.933  1.00  0.00     0.023 C 
BRANCH  26  27
ATOM     27  C   UNL A   1      33.309  31.132  27.200  1.00  0.00     0.116 C 
BRANCH  27  28
ATOM     28  N   UNL A   1      32.920  32.527  27.353  1.00  0.00    -0.352 N 
ATOM     29  C   UNL A   1      33.528  33.471  28.153  1.00  0.00     0.251 C 
ATOM     30  H   UNL A   1      32.142  32.827  26.830  1.00  0.00     0.163 HD
ATOM     31  O   UNL A   1      33.058  34.585  28.282  1.00  0.00    -0.269 OA
BRANCH  29  32
ATOM     32  C   UNL A   1      34.735  33.044  28.887  1.00  0.00     0.039 A 
ATOM     33  C   UNL A   1      34.579  32.307  30.061  1.00  0.00     0.014 A 
ATOM     34  C   UNL A   1      35.996  33.242  28.320  1.00  0.00     0.014 A 
ATOM     35  C   UNL A   1      35.699  31.716  30.639  1.00  0.00     0.010 A 
ATOM     36  C   UNL A   1      37.089  32.568  28.843  1.00  0.00     0.010 A 
ATOM     37  C   UNL A   1      36.954  31.810  30.015  1.00  0.00    -0.014 A 
BRANCH  37  38
ATOM     38  C   UNL A   1      38.148  31.152  30.599  1.00  0.00     0.031 A 
ATOM     39  C   UNL A   1      38.603  31.540  31.979  1.00  0.00     0.074 A 
ATOM     40  C   UNL A   1      38.834  30.245  29.877  1.00  0.00     0.049 A 
ATOM     41  N   UNL A   1      39.632  31.111  32.661  1.00  0.00    -0.248 NA
ATOM     42  C   UNL A   1      37.814  32.575  32.669  1.00  0.00     0.031 C 
ATOM     43  C   UNL A   1      38.513  29.833  28.508  1.00  0.00     0.029 A 
ATOM     44  N   UNL A   1      39.943  29.503  30.192  1.00  0.00    -0.354 N 
ATOM     45  C   UNL A   1      39.616  31.826  33.854  1.00  0.00     0.074 A 
ATOM     46  C   UNL A   1      38.528  32.773  33.766  1.00  0.00     0.031 C 
ATOM     47  C   UNL A   1      39.380  28.884  28.118  1.00  0.00     0.029 A 
ATOM     48  C   UNL A   1      40.343  28.650  29.188  1.00  0.00     0.049 A 
ATOM     49  H   UNL A   1      40.410  29.572  31.057  1.00  0.00     0.167 HD
ATOM     50  C   UNL A   1      40.415  31.680  34.938  1.00  0.00     0.034 A 
ATOM     51  C   UNL A   1      41.374  27.782  29.141  1.00  0.00     0.034 A 
ATOM     52  C   UNL A   1      41.486  30.718  35.012  1.00  0.00     0.049 A 
ATOM     53  C   UNL A   1      42.263  27.651  30.354  1.00  0.00     0.074 A 
ATOM     54  C   UNL A   1      42.329  30.447  36.074  1.00  0.00     0.029 A 
ATOM     55  N   UNL A   1      41.865  29.873  33.975  1.00  0.00    -0.354 N 
ATOM     56  N   UNL A   1      42.197  28.291  31.499  1.00  0.00    -0.248 NA
ATOM     57  C   UNL A   1      43.354  26.674  30.271  1.00  0.00     0.031 C 
ATOM     58  C   UNL A   1      43.259  29.487  35.659  1.00  0.00     0.029 A 
ATOM     59  C   UNL A   1      42.948  29.100  34.365  1.00  0.00     0.049 A 
ATOM     60  H   UNL A   1      41.428  29.829  33.095  1.00  0.00     0.167 HD
ATOM     61  C   UNL A   1      43.219  27.766  32.285  1.00  0.00     0.074 A 
ATOM     62  C   UNL A   1      43.872  26.747  31.489  1.00  0.00     0.031 C 
ATOM     63  C   UNL A   1      43.587  28.093  33.551  1.00  0.00     0.034 A 
BRANCH  50  64
ATOM     64  C   UNL A   1      40.163  32.595  36.113  1.00  0.00     0.023 A 
ATOM     65  C   UNL A   1      39.277  32.240  37.146  1.00  0.00     0.031 A 
ATOM     66  C   UNL A   1      40.791  33.850  36.189  1.00  0.00     0.131 A 
ATOM     67  C   UNL A   1      38.982  33.158  38.164  1.00  0.00     0.055 A 
ATOM     68  C   UNL A   1      40.559  34.725  37.251  1.00  0.00     0.041 A 
ATOM     69  F   UNL A   1      41.630  34.254  35.222  1.00  0.00    -0.206 F 
ATOM     70  C   UNL A   1      39.639  34.388  38.240  1.00  0.00     0.022 A 
BRANCH  67  71
ATOM     71  S   UNL A   1      37.624  32.780  39.305  1.00  0.00     0.124 S 
ATOM     72  O   UNL A   1      36.465  32.860  38.419  1.00  0.00    -0.237 OA
ATOM     73  O   UNL A   1      37.974  31.447  39.781  1.00  0.00    -0.237 OA
ATOM     74  O   UNL A   1      37.710  33.843  40.304  1.00  0.00    -0.744 OA
ENDBRANCH  67  71
ENDBRANCH  50  64
BRANCH  51  75
ATOM     75  C   UNL A   1      41.627  26.966  27.918  1.00  0.00     0.023 A 
ATOM     76  C   UNL A   1      41.234  25.619  27.851  1.00  0.00     0.031 A 
ATOM     77  C   UNL A   1      42.319  27.503  26.818  1.00  0.00     0.131 A 
ATOM     78  C   UNL A   1      41.583  24.841  26.736  1.00  0.00     0.055 A 
ATOM     79  C   UNL A   1      42.613  26.741  25.685  1.00  0.00     0.041 A 
ATOM     80  F   UNL A   1      42.715  28.786  26.825  1.00  0.00    -0.206 F 
ATOM     81  C   UNL A   1      42.258  25.396  25.647  1.00  0.00     0.022 A 
BRANCH  78  82
ATOM     82  S   UNL A   1      41.229  23.063  26.774  1.00  0.00     0.124 S 
ATOM     83  O   UNL A   1      39.771  23.049  26.710  1.00  0.00    -0.237 OA
ATOM     84  O   UNL A   1      41.928  22.590  25.585  1.00  0.00    -0.237 OA
ATOM     85  O   UNL A   1      41.802  22.629  28.046  1.00  0.00    -0.744 OA
ENDBRANCH  78  82
ENDBRANCH  51  75
BRANCH  63  86
ATOM     86  C   UNL A   1      44.718  27.303  34.161  1.00  0.00     0.023 A 
ATOM     87  C   UNL A   1      44.489  26.115  34.877  1.00  0.00     0.031 A 
ATOM     88  C   UNL A   1      46.044  27.750  34.027  1.00  0.00     0.131 A 
ATOM     89  C   UNL A   1      45.565  25.448  35.482  1.00  0.00     0.055 A 
ATOM     90  C   UNL A   1      47.117  27.048  34.576  1.00  0.00     0.041 A 
ATOM     91  F   UNL A   1      46.320  28.880  33.354  1.00  0.00    -0.206 F 
ATOM     92  C   UNL A   1      46.878  25.897  35.321  1.00  0.00     0.022 A 
BRANCH  89  93
ATOM     93  S   UNL A   1      45.213  24.037  36.567  1.00  0.00     0.124 S 
ATOM     94  O   UNL A   1      44.659  24.693  37.747  1.00  0.00    -0.237 OA
ATOM     95  O   UNL A   1      44.272  23.259  35.770  1.00  0.00    -0.237 OA
ATOM     96  O   UNL A   1      46.523  23.418  36.758  1.00  0.00    -0.744 OA
ENDBRANCH  89  93
ENDBRANCH  63  86
ENDBRANCH  37  38
ENDBRANCH  29  32
ENDBRANCH  27  28
ENDBRANCH  26  27
ENDBRANCH  25  26
ENDBRANCH   1  25
TORSDOF 21
ENDMDL
