MODEL 1
REMARK VINA RESULT:     -10.2      0.000      0.000
REMARK SMILES CC[C@H](C)CN(CC)C(=O)Nc1ccc(C(=O)NCCCCNC(=O)c2ccc(-c3c4nc(c(-c5cc(S(=O)(=O)[O-])ccc5F)c5ccc([nH]5)c(-c5cc(S(=O)(=O)[O-])ccc5F)c5nc(c(-c6cc(S(=O)(=O)[O-])ccc6F)c6ccc3[nH]6)C=C5)C=C4)cc2)cc1Cl
REMARK SMILES IDX 19 1 18 2 16 3 17 4 15 6 12 7 13 8 90 9 14 10 89 11 91 12
REMARK SMILES IDX 11 13 9 14 10 15 6 17 5 18 3 19 4 20 2 21 1 22 7 23 8 24
REMARK SMILES IDX 20 25 21 26 22 27 23 28 24 29 25 31 26 32 27 33 88 34 28 35
REMARK SMILES IDX 87 36 29 37 30 38 31 39 81 40 32 41 86 42 80 43 82 44 33 45
REMARK SMILES IDX 85 46 79 47 78 48 34 50 66 51 46 52 65 53 47 54 50 55 64 56
REMARK SMILES IDX 83 57 48 58 49 59 63 61 84 62 51 63 35 64 36 65 44 66 37 67
REMARK SMILES IDX 43 68 45 69 42 70 38 71 39 72 40 73 41 74 67 75 68 76 76 77
REMARK SMILES IDX 69 78 75 79 77 80 74 81 70 82 71 83 72 84 73 85 52 86 53 87
REMARK SMILES IDX 61 88 54 89 60 90 62 91 59 92 55 93 56 94 57 95 58 96
REMARK H PARENT 18 5 11 16 23 30 82 49 50 60
REMARK Flexibility Score: inf
ROOT
ATOM      1  C   UNL A   1      34.300  29.529  27.160  1.00  0.00     0.116 C 
ENDROOT
BRANCH   1   2
ATOM      2  N   UNL A   1      34.136  29.497  25.713  1.00  0.00    -0.352 N 
ATOM      3  C   UNL A   1      33.608  28.534  24.891  1.00  0.00     0.251 C 
ATOM      4  O   UNL A   1      33.465  28.760  23.693  1.00  0.00    -0.269 OA
ATOM      5  H   UNL A   1      34.458  30.303  25.246  1.00  0.00     0.163 HD
BRANCH   3   6
ATOM      6  C   UNL A   1      33.120  27.251  25.444  1.00  0.00     0.041 A 
ATOM      7  C   UNL A   1      32.286  24.679  26.099  1.00  0.00     0.061 A 
ATOM      8  C   UNL A   1      33.652  24.983  26.095  1.00  0.00     0.028 A 
ATOM      9  C   UNL A   1      31.344  25.707  25.971  1.00  0.00     0.065 A 
ATOM     10  C   UNL A   1      34.069  26.263  25.734  1.00  0.00     0.016 A 
ATOM     11  C   UNL A   1      31.766  26.999  25.668  1.00  0.00     0.036 A 
ATOM     12  Cl  UNL A   1      29.657  25.455  26.252  1.00  0.00    -0.082 Cl
BRANCH   7  13
ATOM     13  N   UNL A   1      31.949  23.326  26.202  1.00  0.00    -0.306 N 
ATOM     14  C   UNL A   1      31.427  22.480  25.271  1.00  0.00     0.321 C 
ATOM     15  O   UNL A   1      30.619  21.641  25.679  1.00  0.00    -0.248 OA
ATOM     16  H   UNL A   1      32.113  22.922  27.085  1.00  0.00     0.171 HD
BRANCH  14  17
ATOM     17  N   UNL A   1      31.969  22.424  23.993  1.00  0.00    -0.325 N 
BRANCH  17  18
ATOM     18  C   UNL A   1      32.892  21.314  23.713  1.00  0.00     0.124 C 
BRANCH  18  19
ATOM     19  C   UNL A   1      33.519  20.681  24.991  1.00  0.00     0.005 C 
ATOM     20  C   UNL A   1      33.059  19.235  25.200  1.00  0.00     0.009 C 
BRANCH  19  21
ATOM     21  C   UNL A   1      35.058  20.810  24.906  1.00  0.00     0.002 C 
ATOM     22  C   UNL A   1      35.590  22.210  24.627  1.00  0.00     0.004 C 
ENDBRANCH  19  21
ENDBRANCH  18  19
ENDBRANCH  17  18
BRANCH  17  23
ATOM     23  C   UNL A   1      31.847  23.407  22.905  1.00  0.00     0.118 C 
ATOM     24  C   UNL A   1      33.192  24.021  22.525  1.00  0.00     0.027 C 
ENDBRANCH  17  23
ENDBRANCH  14  17
ENDBRANCH   7  13
ENDBRANCH   3   6
ENDBRANCH   1   2
BRANCH   1  25
ATOM     25  C   UNL A   1      34.684  30.927  27.646  1.00  0.00     0.023 C 
BRANCH  25  26
ATOM     26  C   UNL A   1      33.502  31.889  27.789  1.00  0.00     0.023 C 
BRANCH  26  27
ATOM     27  C   UNL A   1      33.809  33.346  27.456  1.00  0.00     0.116 C 
BRANCH  27  28
ATOM     28  N   UNL A   1      33.098  34.282  28.310  1.00  0.00    -0.352 N 
ATOM     29  C   UNL A   1      33.345  34.624  29.620  1.00  0.00     0.251 C 
ATOM     30  H   UNL A   1      32.330  34.736  27.891  1.00  0.00     0.163 HD
ATOM     31  O   UNL A   1      32.551  35.335  30.221  1.00  0.00    -0.269 OA
BRANCH  29  32
ATOM     32  C   UNL A   1      34.549  34.097  30.304  1.00  0.00     0.039 A 
ATOM     33  C   UNL A   1      34.388  33.120  31.290  1.00  0.00     0.014 A 
ATOM     34  C   UNL A   1      35.828  34.550  29.968  1.00  0.00     0.014 A 
ATOM     35  C   UNL A   1      35.513  32.545  31.885  1.00  0.00     0.010 A 
ATOM     36  C   UNL A   1      36.949  33.927  30.513  1.00  0.00     0.010 A 
ATOM     37  C   UNL A   1      36.805  32.914  31.473  1.00  0.00    -0.014 A 
BRANCH  37  38
ATOM     38  C   UNL A   1      38.014  32.249  32.029  1.00  0.00     0.031 A 
ATOM     39  C   UNL A   1      38.677  31.132  31.269  1.00  0.00     0.074 A 
ATOM     40  C   UNL A   1      38.476  32.608  33.243  1.00  0.00     0.049 A 
ATOM     41  N   UNL A   1      39.677  30.367  31.625  1.00  0.00    -0.248 NA
ATOM     42  C   UNL A   1      38.122  30.816  29.944  1.00  0.00     0.031 C 
ATOM     43  C   UNL A   1      37.901  33.655  34.093  1.00  0.00     0.029 A 
ATOM     44  N   UNL A   1      39.529  32.127  33.983  1.00  0.00    -0.354 N 
ATOM     45  C   UNL A   1      39.868  29.477  30.574  1.00  0.00     0.074 A 
ATOM     46  C   UNL A   1      38.839  29.759  29.595  1.00  0.00     0.031 C 
ATOM     47  C   UNL A   1      38.618  33.749  35.222  1.00  0.00     0.029 A 
ATOM     48  C   UNL A   1      39.674  32.742  35.207  1.00  0.00     0.049 A 
ATOM     49  H   UNL A   1      40.124  31.409  33.668  1.00  0.00     0.167 HD
ATOM     50  C   UNL A   1      40.827  28.528  30.429  1.00  0.00     0.034 A 
ATOM     51  C   UNL A   1      40.548  32.511  36.206  1.00  0.00     0.034 A 
ATOM     52  C   UNL A   1      41.854  28.265  31.407  1.00  0.00     0.049 A 
ATOM     53  C   UNL A   1      41.583  31.425  36.034  1.00  0.00     0.074 A 
ATOM     54  C   UNL A   1      42.895  27.354  31.341  1.00  0.00     0.029 A 
ATOM     55  N   UNL A   1      41.971  28.910  32.632  1.00  0.00    -0.354 N 
ATOM     56  N   UNL A   1      41.772  30.618  35.014  1.00  0.00    -0.248 NA
ATOM     57  C   UNL A   1      42.527  31.226  37.140  1.00  0.00     0.031 C 
ATOM     58  C   UNL A   1      43.602  27.405  32.547  1.00  0.00     0.029 A 
ATOM     59  C   UNL A   1      43.050  28.399  33.337  1.00  0.00     0.049 A 
ATOM     60  H   UNL A   1      41.376  29.625  32.952  1.00  0.00     0.167 HD
ATOM     61  C   UNL A   1      42.881  29.844  35.347  1.00  0.00     0.074 A 
ATOM     62  C   UNL A   1      43.326  30.291  36.650  1.00  0.00     0.031 C 
ATOM     63  C   UNL A   1      43.481  28.854  34.638  1.00  0.00     0.034 A 
BRANCH  50  64
ATOM     64  C   UNL A   1      40.795  27.694  29.171  1.00  0.00     0.023 A 
ATOM     65  C   UNL A   1      41.721  27.893  28.132  1.00  0.00     0.031 A 
ATOM     66  C   UNL A   1      39.824  26.691  29.003  1.00  0.00     0.131 A 
ATOM     67  C   UNL A   1      41.616  27.150  26.947  1.00  0.00     0.055 A 
ATOM     68  C   UNL A   1      39.773  25.901  27.853  1.00  0.00     0.041 A 
ATOM     69  F   UNL A   1      38.900  26.468  29.952  1.00  0.00    -0.206 F 
ATOM     70  C   UNL A   1      40.665  26.137  26.811  1.00  0.00     0.022 A 
BRANCH  67  71
ATOM     71  S   UNL A   1      42.660  27.613  25.539  1.00  0.00     0.124 S 
ATOM     72  O   UNL A   1      43.941  27.868  26.193  1.00  0.00    -0.237 OA
ATOM     73  O   UNL A   1      42.598  26.427  24.694  1.00  0.00    -0.237 OA
ATOM     74  O   UNL A   1      41.999  28.800  24.998  1.00  0.00    -0.744 OA
ENDBRANCH  67  71
ENDBRANCH  50  64
BRANCH  51  75
ATOM     75  C   UNL A   1      40.488  33.299  37.472  1.00  0.00     0.023 A 
ATOM     76  C   UNL A   1      39.659  32.898  38.532  1.00  0.00     0.031 A 
ATOM     77  C   UNL A   1      41.202  34.502  37.614  1.00  0.00     0.131 A 
ATOM     78  C   UNL A   1      39.514  33.723  39.659  1.00  0.00     0.055 A 
ATOM     79  C   UNL A   1      41.102  35.289  38.763  1.00  0.00     0.041 A 
ATOM     80  F   UNL A   1      42.012  34.932  36.633  1.00  0.00    -0.206 F 
ATOM     81  C   UNL A   1      40.240  34.909  39.787  1.00  0.00     0.022 A 
BRANCH  78  82
ATOM     82  S   UNL A   1      38.273  33.278  40.905  1.00  0.00     0.124 S 
ATOM     83  O   UNL A   1      38.805  32.021  41.418  1.00  0.00    -0.237 OA
ATOM     84  O   UNL A   1      38.334  34.420  41.811  1.00  0.00    -0.237 OA
ATOM     85  O   UNL A   1      37.039  33.165  40.129  1.00  0.00    -0.744 OA
ENDBRANCH  78  82
ENDBRANCH  51  75
BRANCH  63  86
ATOM     86  C   UNL A   1      44.716  28.231  35.240  1.00  0.00     0.023 A 
ATOM     87  C   UNL A   1      44.646  27.098  36.070  1.00  0.00     0.031 A 
ATOM     88  C   UNL A   1      45.982  28.791  34.989  1.00  0.00     0.131 A 
ATOM     89  C   UNL A   1      45.814  26.596  36.666  1.00  0.00     0.055 A 
ATOM     90  C   UNL A   1      47.146  28.250  35.536  1.00  0.00     0.041 A 
ATOM     91  F   UNL A   1      46.107  29.873  34.205  1.00  0.00    -0.206 F 
ATOM     92  C   UNL A   1      47.064  27.154  36.390  1.00  0.00     0.022 A 
BRANCH  89  93
ATOM     93  S   UNL A   1      45.665  25.254  37.877  1.00  0.00     0.124 S 
ATOM     94  O   UNL A   1      44.727  25.819  38.842  1.00  0.00    -0.237 OA
ATOM     95  O   UNL A   1      45.158  24.154  37.064  1.00  0.00    -0.237 OA
ATOM     96  O   UNL A   1      47.031  25.082  38.368  1.00  0.00    -0.744 OA
ENDBRANCH  89  93
ENDBRANCH  63  86
ENDBRANCH  37  38
ENDBRANCH  29  32
ENDBRANCH  27  28
ENDBRANCH  26  27
ENDBRANCH  25  26
ENDBRANCH   1  25
TORSDOF 20
ENDMDL
MODEL 2
REMARK VINA RESULT:     -10.0      5.919     11.640
REMARK SMILES CC[C@H](C)CN(CC)C(=O)Nc1ccc(C(=O)NCCCCNC(=O)c2ccc(-c3c4nc(c(-c5cc(S(=O)(=O)[O-])ccc5F)c5ccc([nH]5)c(-c5cc(S(=O)(=O)[O-])ccc5F)c5nc(c(-c6cc(S(=O)(=O)[O-])ccc6F)c6ccc3[nH]6)C=C5)C=C4)cc2)cc1Cl
REMARK SMILES IDX 19 1 18 2 16 3 17 4 15 6 12 7 13 8 90 9 14 10 89 11 91 12
REMARK SMILES IDX 11 13 9 14 10 15 6 17 5 18 3 19 4 20 2 21 1 22 7 23 8 24
REMARK SMILES IDX 20 25 21 26 22 27 23 28 24 29 25 31 26 32 27 33 88 34 28 35
REMARK SMILES IDX 87 36 29 37 30 38 31 39 81 40 32 41 86 42 80 43 82 44 33 45
REMARK SMILES IDX 85 46 79 47 78 48 34 50 66 51 46 52 65 53 47 54 50 55 64 56
REMARK SMILES IDX 83 57 48 58 49 59 63 61 84 62 51 63 35 64 36 65 44 66 37 67
REMARK SMILES IDX 43 68 45 69 42 70 38 71 39 72 40 73 41 74 67 75 68 76 76 77
REMARK SMILES IDX 69 78 75 79 77 80 74 81 70 82 71 83 72 84 73 85 52 86 53 87
REMARK SMILES IDX 61 88 54 89 60 90 62 91 59 92 55 93 56 94 57 95 58 96
REMARK H PARENT 18 5 11 16 23 30 82 49 50 60
REMARK Flexibility Score: inf
ROOT
ATOM      1  C   UNL A   1      36.797  20.738  24.561  1.00  0.00     0.116 C 
ENDROOT
BRANCH   1   2
ATOM      2  N   UNL A   1      35.686  20.621  25.496  1.00  0.00    -0.352 N 
ATOM      3  C   UNL A   1      34.650  21.477  25.770  1.00  0.00     0.251 C 
ATOM      4  O   UNL A   1      33.750  21.129  26.528  1.00  0.00    -0.269 OA
ATOM      5  H   UNL A   1      35.678  19.786  26.019  1.00  0.00     0.163 HD
BRANCH   3   6
ATOM      6  C   UNL A   1      34.552  22.789  25.092  1.00  0.00     0.041 A 
ATOM      7  C   UNL A   1      34.059  25.339  24.096  1.00  0.00     0.061 A 
ATOM      8  C   UNL A   1      34.841  25.185  25.246  1.00  0.00     0.028 A 
ATOM      9  C   UNL A   1      33.697  24.214  23.345  1.00  0.00     0.065 A 
ATOM     10  C   UNL A   1      35.059  23.909  25.762  1.00  0.00     0.016 A 
ATOM     11  C   UNL A   1      33.967  22.938  23.834  1.00  0.00     0.036 A 
ATOM     12  Cl  UNL A   1      32.984  24.341  21.775  1.00  0.00    -0.082 Cl
BRANCH   7  13
ATOM     13  N   UNL A   1      33.654  26.641  23.787  1.00  0.00    -0.306 N 
ATOM     14  C   UNL A   1      32.491  27.288  24.073  1.00  0.00     0.321 C 
ATOM     15  O   UNL A   1      32.065  28.066  23.213  1.00  0.00    -0.248 OA
ATOM     16  H   UNL A   1      34.313  27.173  23.284  1.00  0.00     0.171 HD
BRANCH  14  17
ATOM     17  N   UNL A   1      31.961  27.245  25.357  1.00  0.00    -0.325 N 
BRANCH  17  18
ATOM     18  C   UNL A   1      30.522  26.966  25.470  1.00  0.00     0.124 C 
BRANCH  18  19
ATOM     19  C   UNL A   1      30.152  25.470  25.243  1.00  0.00     0.005 C 
ATOM     20  C   UNL A   1      30.163  25.096  23.757  1.00  0.00     0.009 C 
BRANCH  19  21
ATOM     21  C   UNL A   1      31.104  24.589  26.086  1.00  0.00     0.002 C 
ATOM     22  C   UNL A   1      30.981  23.086  25.869  1.00  0.00     0.004 C 
ENDBRANCH  19  21
ENDBRANCH  18  19
ENDBRANCH  17  18
BRANCH  17  23
ATOM     23  C   UNL A   1      32.623  27.571  26.630  1.00  0.00     0.118 C 
ATOM     24  C   UNL A   1      31.657  28.169  27.649  1.00  0.00     0.027 C 
ENDBRANCH  17  23
ENDBRANCH  14  17
ENDBRANCH   7  13
ENDBRANCH   3   6
ENDBRANCH   1   2
BRANCH   1  25
ATOM     25  C   UNL A   1      38.039  20.011  25.077  1.00  0.00     0.023 C 
BRANCH  25  26
ATOM     26  C   UNL A   1      39.096  20.932  25.691  1.00  0.00     0.023 C 
BRANCH  26  27
ATOM     27  C   UNL A   1      40.000  20.277  26.729  1.00  0.00     0.116 C 
BRANCH  27  28
ATOM     28  N   UNL A   1      40.980  19.381  26.140  1.00  0.00    -0.352 N 
ATOM     29  C   UNL A   1      42.288  19.632  25.790  1.00  0.00     0.251 C 
ATOM     30  H   UNL A   1      40.665  18.464  25.966  1.00  0.00     0.163 HD
ATOM     31  O   UNL A   1      42.924  18.786  25.176  1.00  0.00    -0.269 OA
BRANCH  29  32
ATOM     32  C   UNL A   1      42.902  20.938  26.124  1.00  0.00     0.039 A 
ATOM     33  C   UNL A   1      43.218  21.818  25.086  1.00  0.00     0.014 A 
ATOM     34  C   UNL A   1      43.151  21.302  27.451  1.00  0.00     0.014 A 
ATOM     35  C   UNL A   1      43.715  23.089  25.382  1.00  0.00     0.010 A 
ATOM     36  C   UNL A   1      43.582  22.593  27.746  1.00  0.00     0.010 A 
ATOM     37  C   UNL A   1      43.863  23.504  26.717  1.00  0.00    -0.014 A 
BRANCH  37  38
ATOM     38  C   UNL A   1      44.302  24.884  27.053  1.00  0.00     0.031 A 
ATOM     39  C   UNL A   1      43.308  25.888  27.572  1.00  0.00     0.074 A 
ATOM     40  C   UNL A   1      45.581  25.251  26.833  1.00  0.00     0.049 A 
ATOM     41  N   UNL A   1      43.474  27.159  27.832  1.00  0.00    -0.248 NA
ATOM     42  C   UNL A   1      41.940  25.401  27.802  1.00  0.00     0.031 C 
ATOM     43  C   UNL A   1      46.633  24.379  26.303  1.00  0.00     0.029 A 
ATOM     44  N   UNL A   1      46.215  26.456  27.016  1.00  0.00    -0.354 N 
ATOM     45  C   UNL A   1      42.233  27.627  28.250  1.00  0.00     0.074 A 
ATOM     46  C   UNL A   1      41.311  26.514  28.149  1.00  0.00     0.031 C 
ATOM     47  C   UNL A   1      47.780  25.070  26.224  1.00  0.00     0.029 A 
ATOM     48  C   UNL A   1      47.544  26.445  26.650  1.00  0.00     0.049 A 
ATOM     49  H   UNL A   1      45.763  27.252  27.376  1.00  0.00     0.167 HD
ATOM     50  C   UNL A   1      41.897  28.862  28.698  1.00  0.00     0.034 A 
ATOM     51  C   UNL A   1      48.459  27.434  26.643  1.00  0.00     0.034 A 
ATOM     52  C   UNL A   1      42.828  29.960  28.807  1.00  0.00     0.049 A 
ATOM     53  C   UNL A   1      48.051  28.809  27.114  1.00  0.00     0.074 A 
ATOM     54  C   UNL A   1      42.601  31.239  29.284  1.00  0.00     0.029 A 
ATOM     55  N   UNL A   1      44.164  29.910  28.428  1.00  0.00    -0.354 N 
ATOM     56  N   UNL A   1      46.880  29.222  27.543  1.00  0.00    -0.248 NA
ATOM     57  C   UNL A   1      49.090  29.847  27.111  1.00  0.00     0.031 C 
ATOM     58  C   UNL A   1      43.779  31.979  29.138  1.00  0.00     0.029 A 
ATOM     59  C   UNL A   1      44.764  31.143  28.639  1.00  0.00     0.049 A 
ATOM     60  H   UNL A   1      44.618  29.117  28.064  1.00  0.00     0.167 HD
ATOM     61  C   UNL A   1      47.057  30.559  27.893  1.00  0.00     0.074 A 
ATOM     62  C   UNL A   1      48.446  30.875  27.642  1.00  0.00     0.031 C 
ATOM     63  C   UNL A   1      46.152  31.444  28.383  1.00  0.00     0.034 A 
BRANCH  50  64
ATOM     64  C   UNL A   1      40.458  29.094  29.089  1.00  0.00     0.023 A 
ATOM     65  C   UNL A   1      40.054  29.107  30.436  1.00  0.00     0.031 A 
ATOM     66  C   UNL A   1      39.474  29.298  28.106  1.00  0.00     0.131 A 
ATOM     67  C   UNL A   1      38.697  29.251  30.760  1.00  0.00     0.055 A 
ATOM     68  C   UNL A   1      38.136  29.518  28.438  1.00  0.00     0.041 A 
ATOM     69  F   UNL A   1      39.796  29.275  26.803  1.00  0.00    -0.206 F 
ATOM     70  C   UNL A   1      37.738  29.484  29.771  1.00  0.00     0.022 A 
BRANCH  67  71
ATOM     71  S   UNL A   1      38.186  29.004  32.482  1.00  0.00     0.124 S 
ATOM     72  O   UNL A   1      38.906  30.080  33.159  1.00  0.00    -0.237 OA
ATOM     73  O   UNL A   1      36.738  29.153  32.408  1.00  0.00    -0.237 OA
ATOM     74  O   UNL A   1      38.661  27.656  32.791  1.00  0.00    -0.744 OA
ENDBRANCH  67  71
ENDBRANCH  50  64
BRANCH  51  75
ATOM     75  C   UNL A   1      49.850  27.184  26.163  1.00  0.00     0.023 A 
ATOM     76  C   UNL A   1      50.214  27.458  24.835  1.00  0.00     0.031 A 
ATOM     77  C   UNL A   1      50.815  26.602  27.004  1.00  0.00     0.131 A 
ATOM     78  C   UNL A   1      51.486  27.092  24.368  1.00  0.00     0.055 A 
ATOM     79  C   UNL A   1      52.100  26.296  26.550  1.00  0.00     0.041 A 
ATOM     80  F   UNL A   1      50.523  26.322  28.284  1.00  0.00    -0.206 F 
ATOM     81  C   UNL A   1      52.436  26.525  25.220  1.00  0.00     0.022 A 
BRANCH  78  82
ATOM     82  S   UNL A   1      51.841  27.263  22.596  1.00  0.00     0.124 S 
ATOM     83  O   UNL A   1      50.514  27.107  22.012  1.00  0.00    -0.237 OA
ATOM     84  O   UNL A   1      52.417  28.602  22.534  1.00  0.00    -0.237 OA
ATOM     85  O   UNL A   1      52.774  26.170  22.330  1.00  0.00    -0.744 OA
ENDBRANCH  78  82
ENDBRANCH  51  75
BRANCH  63  86
ATOM     86  C   UNL A   1      46.660  32.823  28.727  1.00  0.00     0.023 A 
ATOM     87  C   UNL A   1      46.657  33.870  27.790  1.00  0.00     0.031 A 
ATOM     88  C   UNL A   1      47.168  33.085  30.013  1.00  0.00     0.131 A 
ATOM     89  C   UNL A   1      47.205  35.116  28.133  1.00  0.00     0.055 A 
ATOM     90  C   UNL A   1      47.656  34.344  30.367  1.00  0.00     0.041 A 
ATOM     91  F   UNL A   1      47.195  32.121  30.946  1.00  0.00    -0.206 F 
ATOM     92  C   UNL A   1      47.689  35.364  29.421  1.00  0.00     0.022 A 
BRANCH  89  93
ATOM     93  S   UNL A   1      47.358  36.385  26.846  1.00  0.00     0.124 S 
ATOM     94  O   UNL A   1      48.728  36.850  27.039  1.00  0.00    -0.237 OA
ATOM     95  O   UNL A   1      47.110  35.624  25.626  1.00  0.00    -0.237 OA
ATOM     96  O   UNL A   1      46.319  37.353  27.193  1.00  0.00    -0.744 OA
ENDBRANCH  89  93
ENDBRANCH  63  86
ENDBRANCH  37  38
ENDBRANCH  29  32
ENDBRANCH  27  28
ENDBRANCH  26  27
ENDBRANCH  25  26
ENDBRANCH   1  25
TORSDOF 20
ENDMDL
MODEL 3
REMARK VINA RESULT:      -9.6      5.828     10.944
REMARK SMILES CC[C@H](C)CN(CC)C(=O)Nc1ccc(C(=O)NCCCCNC(=O)c2ccc(-c3c4nc(c(-c5cc(S(=O)(=O)[O-])ccc5F)c5ccc([nH]5)c(-c5cc(S(=O)(=O)[O-])ccc5F)c5nc(c(-c6cc(S(=O)(=O)[O-])ccc6F)c6ccc3[nH]6)C=C5)C=C4)cc2)cc1Cl
REMARK SMILES IDX 19 1 18 2 16 3 17 4 15 6 12 7 13 8 90 9 14 10 89 11 91 12
REMARK SMILES IDX 11 13 9 14 10 15 6 17 5 18 3 19 4 20 2 21 1 22 7 23 8 24
REMARK SMILES IDX 20 25 21 26 22 27 23 28 24 29 25 31 26 32 27 33 88 34 28 35
REMARK SMILES IDX 87 36 29 37 30 38 31 39 81 40 32 41 86 42 80 43 82 44 33 45
REMARK SMILES IDX 85 46 79 47 78 48 34 50 66 51 46 52 65 53 47 54 50 55 64 56
REMARK SMILES IDX 83 57 48 58 49 59 63 61 84 62 51 63 35 64 36 65 44 66 37 67
REMARK SMILES IDX 43 68 45 69 42 70 38 71 39 72 40 73 41 74 67 75 68 76 76 77
REMARK SMILES IDX 69 78 75 79 77 80 74 81 70 82 71 83 72 84 73 85 52 86 53 87
REMARK SMILES IDX 61 88 54 89 60 90 62 91 59 92 55 93 56 94 57 95 58 96
REMARK H PARENT 18 5 11 16 23 30 82 49 50 60
REMARK Flexibility Score: inf
ROOT
ATOM      1  C   UNL A   1      35.489  20.061  24.975  1.00  0.00     0.116 C 
ENDROOT
BRANCH   1   2
ATOM      2  N   UNL A   1      35.148  20.806  26.179  1.00  0.00    -0.352 N 
ATOM      3  C   UNL A   1      34.660  22.079  26.338  1.00  0.00     0.251 C 
ATOM      4  O   UNL A   1      34.336  22.476  27.453  1.00  0.00    -0.269 OA
ATOM      5  H   UNL A   1      35.291  20.314  27.019  1.00  0.00     0.163 HD
BRANCH   3   6
ATOM      6  C   UNL A   1      34.433  22.954  25.167  1.00  0.00     0.041 A 
ATOM      7  C   UNL A   1      33.682  24.763  23.191  1.00  0.00     0.061 A 
ATOM      8  C   UNL A   1      34.453  25.202  24.274  1.00  0.00     0.028 A 
ATOM      9  C   UNL A   1      33.462  23.393  23.004  1.00  0.00     0.065 A 
ATOM     10  C   UNL A   1      34.800  24.301  25.279  1.00  0.00     0.016 A 
ATOM     11  C   UNL A   1      33.861  22.487  23.984  1.00  0.00     0.036 A 
ATOM     12  Cl  UNL A   1      32.772  22.758  21.552  1.00  0.00    -0.082 Cl
BRANCH   7  13
ATOM     13  N   UNL A   1      33.143  25.756  22.367  1.00  0.00    -0.306 N 
ATOM     14  C   UNL A   1      31.956  26.417  22.454  1.00  0.00     0.321 C 
ATOM     15  O   UNL A   1      31.396  26.688  21.387  1.00  0.00    -0.248 OA
ATOM     16  H   UNL A   1      33.710  26.016  21.605  1.00  0.00     0.171 HD
BRANCH  14  17
ATOM     17  N   UNL A   1      31.541  26.957  23.665  1.00  0.00    -0.325 N 
BRANCH  17  18
ATOM     18  C   UNL A   1      32.341  28.068  24.203  1.00  0.00     0.124 C 
BRANCH  18  19
ATOM     19  C   UNL A   1      32.196  28.259  25.742  1.00  0.00     0.005 C 
ATOM     20  C   UNL A   1      33.467  27.848  26.493  1.00  0.00     0.009 C 
BRANCH  19  21
ATOM     21  C   UNL A   1      31.783  29.722  26.025  1.00  0.00     0.002 C 
ATOM     22  C   UNL A   1      32.696  30.497  26.966  1.00  0.00     0.004 C 
ENDBRANCH  19  21
ENDBRANCH  18  19
ENDBRANCH  17  18
BRANCH  17  23
ATOM     23  C   UNL A   1      30.474  26.482  24.559  1.00  0.00     0.118 C 
ATOM     24  C   UNL A   1      30.649  25.014  24.942  1.00  0.00     0.027 C 
ENDBRANCH  17  23
ENDBRANCH  14  17
ENDBRANCH   7  13
ENDBRANCH   3   6
ENDBRANCH   1   2
BRANCH   1  25
ATOM     25  C   UNL A   1      36.990  19.778  24.901  1.00  0.00     0.023 C 
BRANCH  25  26
ATOM     26  C   UNL A   1      37.869  21.027  24.978  1.00  0.00     0.023 C 
BRANCH  26  27
ATOM     27  C   UNL A   1      38.877  21.041  26.123  1.00  0.00     0.116 C 
BRANCH  27  28
ATOM     28  N   UNL A   1      39.831  19.947  26.049  1.00  0.00    -0.352 N 
ATOM     29  C   UNL A   1      41.205  19.985  26.128  1.00  0.00     0.251 C 
ATOM     30  H   UNL A   1      39.439  19.052  25.924  1.00  0.00     0.163 HD
ATOM     31  O   UNL A   1      41.853  18.971  25.906  1.00  0.00    -0.269 OA
BRANCH  29  32
ATOM     32  C   UNL A   1      41.889  21.261  26.441  1.00  0.00     0.039 A 
ATOM     33  C   UNL A   1      42.144  22.160  25.403  1.00  0.00     0.014 A 
ATOM     34  C   UNL A   1      42.264  21.579  27.750  1.00  0.00     0.014 A 
ATOM     35  C   UNL A   1      42.708  23.406  25.687  1.00  0.00     0.010 A 
ATOM     36  C   UNL A   1      42.762  22.847  28.040  1.00  0.00     0.010 A 
ATOM     37  C   UNL A   1      42.984  23.778  27.014  1.00  0.00    -0.014 A 
BRANCH  37  38
ATOM     38  C   UNL A   1      43.497  25.133  27.347  1.00  0.00     0.031 A 
ATOM     39  C   UNL A   1      42.594  26.142  28.003  1.00  0.00     0.074 A 
ATOM     40  C   UNL A   1      44.756  25.474  27.003  1.00  0.00     0.049 A 
ATOM     41  N   UNL A   1      42.824  27.399  28.285  1.00  0.00    -0.248 NA
ATOM     42  C   UNL A   1      41.244  25.683  28.363  1.00  0.00     0.031 C 
ATOM     43  C   UNL A   1      45.719  24.595  26.335  1.00  0.00     0.029 A 
ATOM     44  N   UNL A   1      45.441  26.655  27.157  1.00  0.00    -0.354 N 
ATOM     45  C   UNL A   1      41.649  27.883  28.850  1.00  0.00     0.074 A 
ATOM     46  C   UNL A   1      40.689  26.799  28.812  1.00  0.00     0.031 C 
ATOM     47  C   UNL A   1      46.871  25.258  26.156  1.00  0.00     0.029 A 
ATOM     48  C   UNL A   1      46.722  26.623  26.650  1.00  0.00     0.049 A 
ATOM     49  H   UNL A   1      45.054  27.449  27.589  1.00  0.00     0.167 HD
ATOM     50  C   UNL A   1      41.400  29.110  29.372  1.00  0.00     0.034 A 
ATOM     51  C   UNL A   1      47.660  27.587  26.577  1.00  0.00     0.034 A 
ATOM     52  C   UNL A   1      42.369  30.178  29.415  1.00  0.00     0.049 A 
ATOM     53  C   UNL A   1      47.346  28.955  27.134  1.00  0.00     0.074 A 
ATOM     54  C   UNL A   1      42.232  31.445  29.957  1.00  0.00     0.029 A 
ATOM     55  N   UNL A   1      43.655  30.108  28.894  1.00  0.00    -0.354 N 
ATOM     56  N   UNL A   1      46.240  29.382  27.700  1.00  0.00    -0.248 NA
ATOM     57  C   UNL A   1      48.408  29.965  27.054  1.00  0.00     0.031 C 
ATOM     58  C   UNL A   1      43.409  32.159  29.710  1.00  0.00     0.029 A 
ATOM     59  C   UNL A   1      44.310  31.316  29.081  1.00  0.00     0.049 A 
ATOM     60  H   UNL A   1      44.044  29.317  28.458  1.00  0.00     0.167 HD
ATOM     61  C   UNL A   1      46.492  30.700  28.074  1.00  0.00     0.074 A 
ATOM     62  C   UNL A   1      47.856  30.989  27.685  1.00  0.00     0.031 C 
ATOM     63  C   UNL A   1      45.671  31.591  28.686  1.00  0.00     0.034 A 
BRANCH  50  64
ATOM     64  C   UNL A   1      40.018  29.365  29.923  1.00  0.00     0.023 A 
ATOM     65  C   UNL A   1      39.033  30.023  29.164  1.00  0.00     0.031 A 
ATOM     66  C   UNL A   1      39.679  28.953  31.224  1.00  0.00     0.131 A 
ATOM     67  C   UNL A   1      37.783  30.308  29.734  1.00  0.00     0.055 A 
ATOM     68  C   UNL A   1      38.408  29.171  31.758  1.00  0.00     0.041 A 
ATOM     69  F   UNL A   1      40.584  28.338  32.003  1.00  0.00    -0.206 F 
ATOM     70  C   UNL A   1      37.455  29.863  31.017  1.00  0.00     0.022 A 
BRANCH  67  71
ATOM     71  S   UNL A   1      36.640  31.379  28.822  1.00  0.00     0.124 S 
ATOM     72  O   UNL A   1      37.447  32.583  28.640  1.00  0.00    -0.237 OA
ATOM     73  O   UNL A   1      36.370  30.603  27.618  1.00  0.00    -0.237 OA
ATOM     74  O   UNL A   1      35.508  31.529  29.736  1.00  0.00    -0.744 OA
ENDBRANCH  67  71
ENDBRANCH  50  64
BRANCH  51  75
ATOM     75  C   UNL A   1      48.984  27.319  25.942  1.00  0.00     0.023 A 
ATOM     76  C   UNL A   1      50.106  26.998  26.722  1.00  0.00     0.031 A 
ATOM     77  C   UNL A   1      49.163  27.450  24.554  1.00  0.00     0.131 A 
ATOM     78  C   UNL A   1      51.368  26.881  26.120  1.00  0.00     0.055 A 
ATOM     79  C   UNL A   1      50.411  27.273  23.950  1.00  0.00     0.041 A 
ATOM     80  F   UNL A   1      48.124  27.753  23.759  1.00  0.00    -0.206 F 
ATOM     81  C   UNL A   1      51.526  27.003  24.737  1.00  0.00     0.022 A 
BRANCH  78  82
ATOM     82  S   UNL A   1      52.822  26.682  27.186  1.00  0.00     0.124 S 
ATOM     83  O   UNL A   1      53.297  25.359  26.796  1.00  0.00    -0.237 OA
ATOM     84  O   UNL A   1      53.653  27.810  26.775  1.00  0.00    -0.237 OA
ATOM     85  O   UNL A   1      52.269  26.775  28.535  1.00  0.00    -0.744 OA
ENDBRANCH  78  82
ENDBRANCH  51  75
BRANCH  63  86
ATOM     86  C   UNL A   1      46.253  32.942  29.020  1.00  0.00     0.023 A 
ATOM     87  C   UNL A   1      46.892  33.193  30.246  1.00  0.00     0.031 A 
ATOM     88  C   UNL A   1      46.153  33.999  28.097  1.00  0.00     0.131 A 
ATOM     89  C   UNL A   1      47.355  34.485  30.541  1.00  0.00     0.055 A 
ATOM     90  C   UNL A   1      46.670  35.267  28.372  1.00  0.00     0.041 A 
ATOM     91  F   UNL A   1      45.552  33.816  26.910  1.00  0.00    -0.206 F 
ATOM     92  C   UNL A   1      47.263  35.518  29.605  1.00  0.00     0.022 A 
BRANCH  89  93
ATOM     93  S   UNL A   1      48.003  34.819  32.203  1.00  0.00     0.124 S 
ATOM     94  O   UNL A   1      47.219  33.902  33.024  1.00  0.00    -0.237 OA
ATOM     95  O   UNL A   1      49.418  34.494  32.058  1.00  0.00    -0.237 OA
ATOM     96  O   UNL A   1      47.711  36.237  32.405  1.00  0.00    -0.744 OA
ENDBRANCH  89  93
ENDBRANCH  63  86
ENDBRANCH  37  38
ENDBRANCH  29  32
ENDBRANCH  27  28
ENDBRANCH  26  27
ENDBRANCH  25  26
ENDBRANCH   1  25
TORSDOF 20
ENDMDL
