MODEL 1
REMARK VINA RESULT:     -12.4      0.000      0.000
REMARK SMILES O=C(Cn1cc(/C=C2\SC(=S)N(C[C@H]3CCCO3)C2=O)c2ccccc21)NCCCCNC(=O)c1ccc(-c2c3nc(c(-c4cc(S(=O)(=O)[O-])ccc4F)c4ccc([nH]4)c(-c4cc(S(=O)(=O)[O-])ccc4F)c4nc(c(-c5cc(S(=O)(=O)[O-])ccc5F)c5ccc2[nH]5)C=C4)C=C3)cc1
REMARK SMILES IDX 29 1 28 2 27 3 1 4 2 5 3 7 4 8 5 9 26 10 6 11 21 12 25 13
REMARK SMILES IDX 22 14 24 15 23 16 7 17 8 18 9 19 19 20 10 21 12 22 20 23
REMARK SMILES IDX 11 24 13 25 14 26 15 27 18 28 16 29 17 30 30 31 31 32 32 33
REMARK SMILES IDX 33 34 34 36 35 37 36 38 97 39 37 40 96 41 38 42 39 43 40 44
REMARK SMILES IDX 90 45 41 46 95 47 89 48 91 49 42 50 94 51 88 52 87 53 43 55
REMARK SMILES IDX 75 56 55 57 74 58 56 59 59 60 73 61 92 62 57 63 58 64 72 66
REMARK SMILES IDX 93 67 60 68 44 69 45 70 53 71 46 72 52 73 54 74 51 75 47 76
REMARK SMILES IDX 48 77 49 78 50 79 76 80 77 81 85 82 78 83 84 84 86 85 83 86
REMARK SMILES IDX 79 87 80 88 81 89 82 90 61 91 62 92 70 93 63 94 69 95 71 96
REMARK SMILES IDX 68 97 64 98 65 99 66 100 67 101
REMARK H PARENT 27 6 32 35 91 54 59 65
REMARK Flexibility Score: inf
ROOT
ATOM      1  C   UNL A   1      40.535  21.287  27.234  1.00  0.00     0.023 C 
ENDROOT
BRANCH   1   2
ATOM      2  C   UNL A   1      39.533  22.368  26.828  1.00  0.00     0.116 C 
BRANCH   2   3
ATOM      3  N   UNL A   1      38.812  22.043  25.612  1.00  0.00    -0.355 N 
ATOM      4  O   UNL A   1      37.005  23.401  26.038  1.00  0.00    -0.273 OA
ATOM      5  C   UNL A   1      37.600  22.626  25.292  1.00  0.00     0.239 C 
ATOM      6  H   UNL A   1      39.200  21.384  24.991  1.00  0.00     0.163 HD
BRANCH   5   7
ATOM      7  C   UNL A   1      37.000  22.203  23.968  1.00  0.00     0.222 C 
BRANCH   7   8
ATOM      8  N   UNL A   1      35.595  22.560  23.829  1.00  0.00    -0.337 N 
ATOM      9  C   UNL A   1      35.158  23.650  23.125  1.00  0.00     0.095 A 
ATOM     10  C   UNL A   1      34.520  21.865  24.351  1.00  0.00     0.049 A 
ATOM     11  C   UNL A   1      33.785  23.678  23.202  1.00  0.00     0.001 A 
ATOM     12  C   UNL A   1      33.363  22.570  23.991  1.00  0.00     0.007 A 
ATOM     13  C   UNL A   1      34.465  20.688  25.115  1.00  0.00     0.027 A 
ATOM     14  C   UNL A   1      32.111  22.082  24.425  1.00  0.00     0.011 A 
ATOM     15  C   UNL A   1      33.214  20.229  25.532  1.00  0.00     0.002 A 
ATOM     16  C   UNL A   1      32.052  20.915  25.195  1.00  0.00     0.001 A 
BRANCH  11  17
ATOM     17  C   UNL A   1      32.995  24.696  22.602  1.00  0.00     0.031 C 
ATOM     18  C   UNL A   1      32.660  25.869  23.158  1.00  0.00     0.081 C 
ATOM     19  S   UNL A   1      33.189  26.536  24.648  1.00  0.00    -0.054 SA
ATOM     20  C   UNL A   1      31.771  26.827  22.467  1.00  0.00     0.266 C 
ATOM     21  C   UNL A   1      32.478  28.108  24.297  1.00  0.00     0.148 C 
ATOM     22  N   UNL A   1      31.792  28.052  23.101  1.00  0.00    -0.290 N 
ATOM     23  O   UNL A   1      31.114  26.539  21.467  1.00  0.00    -0.268 OA
ATOM     24  S   UNL A   1      32.675  29.413  25.318  1.00  0.00    -0.052 S 
BRANCH  22  25
ATOM     25  C   UNL A   1      31.069  29.171  22.491  1.00  0.00     0.159 C 
BRANCH  25  26
ATOM     26  C   UNL A   1      29.623  29.332  23.016  1.00  0.00     0.138 C 
ATOM     27  C   UNL A   1      29.266  30.702  23.577  1.00  0.00     0.036 C 
ATOM     28  O   UNL A   1      28.725  29.152  21.895  1.00  0.00    -0.376 OA
ATOM     29  C   UNL A   1      28.926  31.478  22.330  1.00  0.00     0.031 C 
ATOM     30  C   UNL A   1      28.176  30.433  21.535  1.00  0.00     0.160 C 
ENDBRANCH  25  26
ENDBRANCH  22  25
ENDBRANCH  11  17
ENDBRANCH   7   8
ENDBRANCH   5   7
ENDBRANCH   2   3
ENDBRANCH   1   2
BRANCH   1  31
ATOM     31  C   UNL A   1      40.805  20.190  26.191  1.00  0.00     0.023 C 
BRANCH  31  32
ATOM     32  C   UNL A   1      42.106  19.403  26.372  1.00  0.00     0.116 C 
BRANCH  32  33
ATOM     33  N   UNL A   1      43.168  19.815  25.477  1.00  0.00    -0.352 N 
ATOM     34  C   UNL A   1      43.886  20.961  25.266  1.00  0.00     0.251 C 
ATOM     35  H   UNL A   1      43.442  19.090  24.870  1.00  0.00     0.163 HD
ATOM     36  O   UNL A   1      44.862  20.830  24.520  1.00  0.00    -0.269 OA
BRANCH  34  37
ATOM     37  C   UNL A   1      43.577  22.318  25.807  1.00  0.00     0.039 A 
ATOM     38  C   UNL A   1      42.922  23.343  25.129  1.00  0.00     0.014 A 
ATOM     39  C   UNL A   1      44.067  22.590  27.103  1.00  0.00     0.014 A 
ATOM     40  C   UNL A   1      42.813  24.613  25.708  1.00  0.00     0.010 A 
ATOM     41  C   UNL A   1      43.960  23.857  27.684  1.00  0.00     0.010 A 
ATOM     42  C   UNL A   1      43.364  24.888  26.971  1.00  0.00    -0.014 A 
BRANCH  42  43
ATOM     43  C   UNL A   1      43.224  26.249  27.508  1.00  0.00     0.031 A 
ATOM     44  C   UNL A   1      44.361  27.170  27.226  1.00  0.00     0.074 A 
ATOM     45  C   UNL A   1      42.151  26.743  28.164  1.00  0.00     0.049 A 
ATOM     46  N   UNL A   1      45.246  27.616  28.056  1.00  0.00    -0.248 NA
ATOM     47  C   UNL A   1      44.593  27.561  25.831  1.00  0.00     0.031 C 
ATOM     48  C   UNL A   1      40.813  26.164  28.300  1.00  0.00     0.029 A 
ATOM     49  N   UNL A   1      42.032  27.944  28.810  1.00  0.00    -0.354 N 
ATOM     50  C   UNL A   1      46.057  28.489  27.330  1.00  0.00     0.074 A 
ATOM     51  C   UNL A   1      45.690  28.312  25.946  1.00  0.00     0.031 C 
ATOM     52  C   UNL A   1      39.968  27.095  28.805  1.00  0.00     0.029 A 
ATOM     53  C   UNL A   1      40.736  28.269  29.185  1.00  0.00     0.049 A 
ATOM     54  H   UNL A   1      42.803  28.529  28.995  1.00  0.00     0.167 HD
ATOM     55  C   UNL A   1      46.853  29.415  27.939  1.00  0.00     0.034 A 
ATOM     56  C   UNL A   1      40.312  29.427  29.747  1.00  0.00     0.034 A 
ATOM     57  C   UNL A   1      46.978  29.157  29.349  1.00  0.00     0.049 A 
ATOM     58  C   UNL A   1      41.469  30.096  30.380  1.00  0.00     0.074 A 
ATOM     59  C   UNL A   1      47.525  28.157  30.126  1.00  0.00     0.029 A 
ATOM     60  N   UNL A   1      46.183  29.895  30.188  1.00  0.00    -0.354 N 
ATOM     61  N   UNL A   1      42.064  29.676  31.458  1.00  0.00    -0.248 NA
ATOM     62  C   UNL A   1      42.199  31.091  29.612  1.00  0.00     0.031 C 
ATOM     63  C   UNL A   1      46.697  28.085  31.284  1.00  0.00     0.029 A 
ATOM     64  C   UNL A   1      45.708  29.066  31.169  1.00  0.00     0.049 A 
ATOM     65  H   UNL A   1      45.987  30.856  30.100  1.00  0.00     0.167 HD
ATOM     66  C   UNL A   1      43.398  29.980  31.253  1.00  0.00     0.074 A 
ATOM     67  C   UNL A   1      43.394  30.984  30.195  1.00  0.00     0.031 C 
ATOM     68  C   UNL A   1      44.387  29.183  31.758  1.00  0.00     0.034 A 
BRANCH  55  69
ATOM     69  C   UNL A   1      47.264  30.741  27.333  1.00  0.00     0.023 A 
ATOM     70  C   UNL A   1      46.340  31.745  26.991  1.00  0.00     0.031 A 
ATOM     71  C   UNL A   1      48.623  31.124  27.296  1.00  0.00     0.131 A 
ATOM     72  C   UNL A   1      46.754  33.035  26.629  1.00  0.00     0.055 A 
ATOM     73  C   UNL A   1      49.034  32.431  27.001  1.00  0.00     0.041 A 
ATOM     74  F   UNL A   1      49.597  30.253  27.605  1.00  0.00    -0.206 F 
ATOM     75  C   UNL A   1      48.097  33.397  26.665  1.00  0.00     0.022 A 
BRANCH  72  76
ATOM     76  S   UNL A   1      45.538  34.277  26.112  1.00  0.00     0.124 S 
ATOM     77  O   UNL A   1      45.085  33.740  24.834  1.00  0.00    -0.237 OA
ATOM     78  O   UNL A   1      44.569  34.214  27.204  1.00  0.00    -0.237 OA
ATOM     79  O   UNL A   1      46.317  35.509  26.050  1.00  0.00    -0.744 OA
ENDBRANCH  72  76
ENDBRANCH  55  69
BRANCH  56  80
ATOM     80  C   UNL A   1      39.095  30.196  29.401  1.00  0.00     0.023 A 
ATOM     81  C   UNL A   1      38.373  30.834  30.425  1.00  0.00     0.031 A 
ATOM     82  C   UNL A   1      38.445  30.007  28.167  1.00  0.00     0.131 A 
ATOM     83  C   UNL A   1      37.031  31.186  30.229  1.00  0.00     0.055 A 
ATOM     84  C   UNL A   1      37.111  30.379  27.967  1.00  0.00     0.041 A 
ATOM     85  F   UNL A   1      39.069  29.379  27.157  1.00  0.00    -0.206 F 
ATOM     86  C   UNL A   1      36.391  30.954  29.010  1.00  0.00     0.022 A 
BRANCH  83  87
ATOM     87  S   UNL A   1      36.060  31.864  31.602  1.00  0.00     0.124 S 
ATOM     88  O   UNL A   1      36.856  33.023  32.002  1.00  0.00    -0.237 OA
ATOM     89  O   UNL A   1      34.793  32.167  30.946  1.00  0.00    -0.237 OA
ATOM     90  O   UNL A   1      36.033  30.772  32.571  1.00  0.00    -0.744 OA
ENDBRANCH  83  87
ENDBRANCH  56  80
BRANCH  68  91
ATOM     91  C   UNL A   1      44.026  28.171  32.827  1.00  0.00     0.023 A 
ATOM     92  C   UNL A   1      44.088  28.595  34.166  1.00  0.00     0.031 A 
ATOM     93  C   UNL A   1      43.797  26.800  32.594  1.00  0.00     0.131 A 
ATOM     94  C   UNL A   1      43.948  27.674  35.212  1.00  0.00     0.055 A 
ATOM     95  C   UNL A   1      43.581  25.897  33.641  1.00  0.00     0.041 A 
ATOM     96  F   UNL A   1      43.848  26.277  31.362  1.00  0.00    -0.206 F 
ATOM     97  C   UNL A   1      43.671  26.330  34.958  1.00  0.00     0.022 A 
BRANCH  94  98
ATOM     98  S   UNL A   1      44.272  28.172  36.923  1.00  0.00     0.124 S 
ATOM     99  O   UNL A   1      43.640  29.487  36.988  1.00  0.00    -0.237 OA
ATOM    100  O   UNL A   1      43.605  27.118  37.686  1.00  0.00    -0.237 OA
ATOM    101  O   UNL A   1      45.728  28.172  37.023  1.00  0.00    -0.744 OA
ENDBRANCH  94  98
ENDBRANCH  68  91
ENDBRANCH  42  43
ENDBRANCH  34  37
ENDBRANCH  32  33
ENDBRANCH  31  32
ENDBRANCH   1  31
TORSDOF 18
ENDMDL
MODEL 2
REMARK VINA RESULT:     -12.4      2.820      9.397
REMARK SMILES O=C(Cn1cc(/C=C2\SC(=S)N(C[C@H]3CCCO3)C2=O)c2ccccc21)NCCCCNC(=O)c1ccc(-c2c3nc(c(-c4cc(S(=O)(=O)[O-])ccc4F)c4ccc([nH]4)c(-c4cc(S(=O)(=O)[O-])ccc4F)c4nc(c(-c5cc(S(=O)(=O)[O-])ccc5F)c5ccc2[nH]5)C=C4)C=C3)cc1
REMARK SMILES IDX 29 1 28 2 27 3 1 4 2 5 3 7 4 8 5 9 26 10 6 11 21 12 25 13
REMARK SMILES IDX 22 14 24 15 23 16 7 17 8 18 9 19 19 20 10 21 12 22 20 23
REMARK SMILES IDX 11 24 13 25 14 26 15 27 18 28 16 29 17 30 30 31 31 32 32 33
REMARK SMILES IDX 33 34 34 36 35 37 36 38 97 39 37 40 96 41 38 42 39 43 40 44
REMARK SMILES IDX 90 45 41 46 95 47 89 48 91 49 42 50 94 51 88 52 87 53 43 55
REMARK SMILES IDX 75 56 55 57 74 58 56 59 59 60 73 61 92 62 57 63 58 64 72 66
REMARK SMILES IDX 93 67 60 68 44 69 45 70 53 71 46 72 52 73 54 74 51 75 47 76
REMARK SMILES IDX 48 77 49 78 50 79 76 80 77 81 85 82 78 83 84 84 86 85 83 86
REMARK SMILES IDX 79 87 80 88 81 89 82 90 61 91 62 92 70 93 63 94 69 95 71 96
REMARK SMILES IDX 68 97 64 98 65 99 66 100 67 101
REMARK H PARENT 27 6 32 35 91 54 59 65
REMARK Flexibility Score: inf
ROOT
ATOM      1  C   UNL A   1      35.650  32.269  28.109  1.00  0.00     0.023 C 
ENDROOT
BRANCH   1   2
ATOM      2  C   UNL A   1      35.422  30.759  28.039  1.00  0.00     0.116 C 
BRANCH   2   3
ATOM      3  N   UNL A   1      34.023  30.403  27.889  1.00  0.00    -0.355 N 
ATOM      4  O   UNL A   1      34.377  28.660  26.431  1.00  0.00    -0.273 OA
ATOM      5  C   UNL A   1      33.610  29.339  27.111  1.00  0.00     0.239 C 
ATOM      6  H   UNL A   1      33.344  30.940  28.359  1.00  0.00     0.163 HD
BRANCH   5   7
ATOM      7  C   UNL A   1      32.117  29.082  27.093  1.00  0.00     0.222 C 
BRANCH   7   8
ATOM      8  N   UNL A   1      31.738  27.938  26.277  1.00  0.00    -0.337 N 
ATOM      9  C   UNL A   1      31.736  26.648  26.737  1.00  0.00     0.095 A 
ATOM     10  C   UNL A   1      31.312  27.977  24.962  1.00  0.00     0.049 A 
ATOM     11  C   UNL A   1      31.323  25.835  25.708  1.00  0.00     0.001 A 
ATOM     12  C   UNL A   1      31.071  26.653  24.570  1.00  0.00     0.007 A 
ATOM     13  C   UNL A   1      31.131  29.058  24.083  1.00  0.00     0.027 A 
ATOM     14  C   UNL A   1      30.645  26.407  23.246  1.00  0.00     0.011 A 
ATOM     15  C   UNL A   1      30.711  28.785  22.779  1.00  0.00     0.002 A 
ATOM     16  C   UNL A   1      30.472  27.480  22.363  1.00  0.00     0.001 A 
BRANCH  11  17
ATOM     17  C   UNL A   1      31.227  24.421  25.826  1.00  0.00     0.031 C 
ATOM     18  C   UNL A   1      32.210  23.539  25.595  1.00  0.00     0.081 C 
ATOM     19  S   UNL A   1      33.862  23.848  25.245  1.00  0.00    -0.054 SA
ATOM     20  C   UNL A   1      31.978  22.083  25.681  1.00  0.00     0.266 C 
ATOM     21  C   UNL A   1      34.307  22.154  25.434  1.00  0.00     0.148 C 
ATOM     22  N   UNL A   1      33.177  21.399  25.673  1.00  0.00    -0.290 N 
ATOM     23  O   UNL A   1      30.857  21.580  25.748  1.00  0.00    -0.268 OA
ATOM     24  S   UNL A   1      35.892  21.642  25.334  1.00  0.00    -0.052 S 
BRANCH  22  25
ATOM     25  C   UNL A   1      33.160  19.949  25.876  1.00  0.00     0.159 C 
BRANCH  25  26
ATOM     26  C   UNL A   1      33.150  19.140  24.558  1.00  0.00     0.138 C 
ATOM     27  C   UNL A   1      34.337  18.212  24.336  1.00  0.00     0.036 C 
ATOM     28  O   UNL A   1      32.002  18.260  24.589  1.00  0.00    -0.376 OA
ATOM     29  C   UNL A   1      33.935  16.988  25.120  1.00  0.00     0.031 C 
ATOM     30  C   UNL A   1      32.459  16.911  24.798  1.00  0.00     0.160 C 
ENDBRANCH  25  26
ENDBRANCH  22  25
ENDBRANCH  11  17
ENDBRANCH   7   8
ENDBRANCH   5   7
ENDBRANCH   2   3
ENDBRANCH   1   2
BRANCH   1  31
ATOM     31  C   UNL A   1      34.741  33.045  29.076  1.00  0.00     0.023 C 
BRANCH  31  32
ATOM     32  C   UNL A   1      35.023  32.842  30.567  1.00  0.00     0.116 C 
BRANCH  32  33
ATOM     33  N   UNL A   1      36.048  33.720  31.094  1.00  0.00    -0.352 N 
ATOM     34  C   UNL A   1      37.416  33.721  31.131  1.00  0.00     0.251 C 
ATOM     35  H   UNL A   1      35.666  34.512  31.535  1.00  0.00     0.163 HD
ATOM     36  O   UNL A   1      37.922  34.781  31.513  1.00  0.00    -0.269 OA
BRANCH  34  37
ATOM     37  C   UNL A   1      38.318  32.577  30.803  1.00  0.00     0.039 A 
ATOM     38  C   UNL A   1      37.949  31.235  30.731  1.00  0.00     0.014 A 
ATOM     39  C   UNL A   1      39.681  32.899  30.621  1.00  0.00     0.014 A 
ATOM     40  C   UNL A   1      38.924  30.248  30.542  1.00  0.00     0.010 A 
ATOM     41  C   UNL A   1      40.655  31.915  30.432  1.00  0.00     0.010 A 
ATOM     42  C   UNL A   1      40.285  30.577  30.429  1.00  0.00    -0.014 A 
BRANCH  42  43
ATOM     43  C   UNL A   1      41.251  29.485  30.247  1.00  0.00     0.031 A 
ATOM     44  C   UNL A   1      41.820  28.917  31.502  1.00  0.00     0.074 A 
ATOM     45  C   UNL A   1      41.610  28.923  29.073  1.00  0.00     0.049 A 
ATOM     46  N   UNL A   1      43.021  29.053  31.962  1.00  0.00    -0.248 NA
ATOM     47  C   UNL A   1      40.911  28.193  32.398  1.00  0.00     0.031 C 
ATOM     48  C   UNL A   1      40.990  29.076  27.756  1.00  0.00     0.029 A 
ATOM     49  N   UNL A   1      42.607  28.015  28.838  1.00  0.00    -0.354 N 
ATOM     50  C   UNL A   1      43.082  28.286  33.126  1.00  0.00     0.074 A 
ATOM     51  C   UNL A   1      41.724  27.892  33.412  1.00  0.00     0.031 C 
ATOM     52  C   UNL A   1      41.491  28.142  26.910  1.00  0.00     0.029 A 
ATOM     53  C   UNL A   1      42.581  27.446  27.573  1.00  0.00     0.049 A 
ATOM     54  H   UNL A   1      43.289  27.785  29.511  1.00  0.00     0.167 HD
ATOM     55  C   UNL A   1      44.269  27.894  33.675  1.00  0.00     0.034 A 
ATOM     56  C   UNL A   1      43.378  26.456  27.103  1.00  0.00     0.034 A 
ATOM     57  C   UNL A   1      45.377  28.614  33.104  1.00  0.00     0.049 A 
ATOM     58  C   UNL A   1      44.608  26.413  27.921  1.00  0.00     0.074 A 
ATOM     59  C   UNL A   1      45.801  29.925  33.092  1.00  0.00     0.029 A 
ATOM     60  N   UNL A   1      46.092  27.975  32.123  1.00  0.00    -0.354 N 
ATOM     61  N   UNL A   1      45.546  27.316  27.893  1.00  0.00    -0.248 NA
ATOM     62  C   UNL A   1      44.657  25.499  29.050  1.00  0.00     0.031 C 
ATOM     63  C   UNL A   1      46.430  30.106  31.825  1.00  0.00     0.029 A 
ATOM     64  C   UNL A   1      46.384  28.887  31.144  1.00  0.00     0.049 A 
ATOM     65  H   UNL A   1      46.351  27.025  32.124  1.00  0.00     0.167 HD
ATOM     66  C   UNL A   1      45.992  27.386  29.201  1.00  0.00     0.074 A 
ATOM     67  C   UNL A   1      45.533  26.146  29.819  1.00  0.00     0.031 C 
ATOM     68  C   UNL A   1      46.438  28.565  29.730  1.00  0.00     0.034 A 
BRANCH  55  69
ATOM     69  C   UNL A   1      44.474  26.638  34.495  1.00  0.00     0.023 A 
ATOM     70  C   UNL A   1      44.666  26.656  35.888  1.00  0.00     0.031 A 
ATOM     71  C   UNL A   1      44.250  25.364  33.926  1.00  0.00     0.131 A 
ATOM     72  C   UNL A   1      44.644  25.479  36.650  1.00  0.00     0.055 A 
ATOM     73  C   UNL A   1      44.161  24.196  34.695  1.00  0.00     0.041 A 
ATOM     74  F   UNL A   1      44.051  25.220  32.606  1.00  0.00    -0.206 F 
ATOM     75  C   UNL A   1      44.357  24.248  36.068  1.00  0.00     0.022 A 
BRANCH  72  76
ATOM     76  S   UNL A   1      44.980  25.534  38.432  1.00  0.00     0.124 S 
ATOM     77  O   UNL A   1      46.304  26.146  38.469  1.00  0.00    -0.237 OA
ATOM     78  O   UNL A   1      43.883  26.370  38.914  1.00  0.00    -0.237 OA
ATOM     79  O   UNL A   1      44.910  24.133  38.834  1.00  0.00    -0.744 OA
ENDBRANCH  72  76
ENDBRANCH  55  69
BRANCH  56  80
ATOM     80  C   UNL A   1      42.968  25.283  26.297  1.00  0.00     0.023 A 
ATOM     81  C   UNL A   1      41.929  24.460  26.765  1.00  0.00     0.031 A 
ATOM     82  C   UNL A   1      43.807  24.766  25.292  1.00  0.00     0.131 A 
ATOM     83  C   UNL A   1      41.802  23.147  26.294  1.00  0.00     0.055 A 
ATOM     84  C   UNL A   1      43.664  23.460  24.809  1.00  0.00     0.041 A 
ATOM     85  F   UNL A   1      44.835  25.490  24.823  1.00  0.00    -0.206 F 
ATOM     86  C   UNL A   1      42.669  22.637  25.326  1.00  0.00     0.022 A 
BRANCH  83  87
ATOM     87  S   UNL A   1      40.561  22.039  27.015  1.00  0.00     0.124 S 
ATOM     88  O   UNL A   1      39.336  22.828  26.895  1.00  0.00    -0.237 OA
ATOM     89  O   UNL A   1      40.652  20.881  26.133  1.00  0.00    -0.237 OA
ATOM     90  O   UNL A   1      41.034  21.841  28.382  1.00  0.00    -0.744 OA
ENDBRANCH  83  87
ENDBRANCH  56  80
BRANCH  68  91
ATOM     91  C   UNL A   1      46.768  29.703  28.784  1.00  0.00     0.023 A 
ATOM     92  C   UNL A   1      45.692  30.439  28.258  1.00  0.00     0.031 A 
ATOM     93  C   UNL A   1      48.050  29.972  28.265  1.00  0.00     0.131 A 
ATOM     94  C   UNL A   1      45.903  31.380  27.242  1.00  0.00     0.055 A 
ATOM     95  C   UNL A   1      48.266  30.967  27.306  1.00  0.00     0.041 A 
ATOM     96  F   UNL A   1      49.117  29.238  28.607  1.00  0.00    -0.206 F 
ATOM     97  C   UNL A   1      47.187  31.667  26.779  1.00  0.00     0.022 A 
BRANCH  94  98
ATOM     98  S   UNL A   1      44.497  32.147  26.395  1.00  0.00     0.124 S 
ATOM     99  O   UNL A   1      45.111  32.655  25.173  1.00  0.00    -0.237 OA
ATOM    100  O   UNL A   1      43.587  31.017  26.217  1.00  0.00    -0.237 OA
ATOM    101  O   UNL A   1      44.032  33.166  27.332  1.00  0.00    -0.744 OA
ENDBRANCH  94  98
ENDBRANCH  68  91
ENDBRANCH  42  43
ENDBRANCH  34  37
ENDBRANCH  32  33
ENDBRANCH  31  32
ENDBRANCH   1  31
TORSDOF 18
ENDMDL
MODEL 3
REMARK VINA RESULT:     -12.3      2.218      2.796
REMARK SMILES O=C(Cn1cc(/C=C2\SC(=S)N(C[C@H]3CCCO3)C2=O)c2ccccc21)NCCCCNC(=O)c1ccc(-c2c3nc(c(-c4cc(S(=O)(=O)[O-])ccc4F)c4ccc([nH]4)c(-c4cc(S(=O)(=O)[O-])ccc4F)c4nc(c(-c5cc(S(=O)(=O)[O-])ccc5F)c5ccc2[nH]5)C=C4)C=C3)cc1
REMARK SMILES IDX 29 1 28 2 27 3 1 4 2 5 3 7 4 8 5 9 26 10 6 11 21 12 25 13
REMARK SMILES IDX 22 14 24 15 23 16 7 17 8 18 9 19 19 20 10 21 12 22 20 23
REMARK SMILES IDX 11 24 13 25 14 26 15 27 18 28 16 29 17 30 30 31 31 32 32 33
REMARK SMILES IDX 33 34 34 36 35 37 36 38 97 39 37 40 96 41 38 42 39 43 40 44
REMARK SMILES IDX 90 45 41 46 95 47 89 48 91 49 42 50 94 51 88 52 87 53 43 55
REMARK SMILES IDX 75 56 55 57 74 58 56 59 59 60 73 61 92 62 57 63 58 64 72 66
REMARK SMILES IDX 93 67 60 68 44 69 45 70 53 71 46 72 52 73 54 74 51 75 47 76
REMARK SMILES IDX 48 77 49 78 50 79 76 80 77 81 85 82 78 83 84 84 86 85 83 86
REMARK SMILES IDX 79 87 80 88 81 89 82 90 61 91 62 92 70 93 63 94 69 95 71 96
REMARK SMILES IDX 68 97 64 98 65 99 66 100 67 101
REMARK H PARENT 27 6 32 35 91 54 59 65
REMARK Flexibility Score: inf
ROOT
ATOM      1  C   UNL A   1      39.299  23.632  27.323  1.00  0.00     0.023 C 
ENDROOT
BRANCH   1   2
ATOM      2  C   UNL A   1      38.455  23.714  26.051  1.00  0.00     0.116 C 
BRANCH   2   3
ATOM      3  N   UNL A   1      37.030  23.617  26.310  1.00  0.00    -0.355 N 
ATOM      4  O   UNL A   1      36.834  21.400  25.728  1.00  0.00    -0.273 OA
ATOM      5  C   UNL A   1      36.330  22.435  26.160  1.00  0.00     0.239 C 
ATOM      6  H   UNL A   1      36.545  24.423  26.603  1.00  0.00     0.163 HD
BRANCH   5   7
ATOM      7  C   UNL A   1      34.857  22.499  26.507  1.00  0.00     0.222 C 
BRANCH   7   8
ATOM      8  N   UNL A   1      33.998  22.689  25.347  1.00  0.00    -0.337 N 
ATOM      9  C   UNL A   1      33.617  23.920  24.882  1.00  0.00     0.095 A 
ATOM     10  C   UNL A   1      33.469  21.692  24.550  1.00  0.00     0.049 A 
ATOM     11  C   UNL A   1      32.818  23.724  23.781  1.00  0.00     0.001 A 
ATOM     12  C   UNL A   1      32.693  22.322  23.566  1.00  0.00     0.007 A 
ATOM     13  C   UNL A   1      33.595  20.294  24.615  1.00  0.00     0.027 A 
ATOM     14  C   UNL A   1      32.013  21.519  22.625  1.00  0.00     0.011 A 
ATOM     15  C   UNL A   1      32.909  19.525  23.672  1.00  0.00     0.002 A 
ATOM     16  C   UNL A   1      32.127  20.125  22.691  1.00  0.00     0.001 A 
BRANCH  11  17
ATOM     17  C   UNL A   1      32.221  24.792  23.055  1.00  0.00     0.031 C 
ATOM     18  C   UNL A   1      31.881  25.991  23.548  1.00  0.00     0.081 C 
ATOM     19  S   UNL A   1      32.191  26.631  25.111  1.00  0.00    -0.054 SA
ATOM     20  C   UNL A   1      31.200  27.004  22.716  1.00  0.00     0.266 C 
ATOM     21  C   UNL A   1      31.669  28.248  24.646  1.00  0.00     0.148 C 
ATOM     22  N   UNL A   1      31.200  28.231  23.348  1.00  0.00    -0.290 N 
ATOM     23  O   UNL A   1      30.708  26.756  21.616  1.00  0.00    -0.268 OA
ATOM     24  S   UNL A   1      31.781  29.544  25.690  1.00  0.00    -0.052 S 
BRANCH  22  25
ATOM     25  C   UNL A   1      30.679  29.394  22.626  1.00  0.00     0.159 C 
BRANCH  25  26
ATOM     26  C   UNL A   1      29.162  29.619  22.829  1.00  0.00     0.138 C 
ATOM     27  C   UNL A   1      28.766  30.927  23.501  1.00  0.00     0.036 C 
ATOM     28  O   UNL A   1      28.547  29.681  21.521  1.00  0.00    -0.376 OA
ATOM     29  C   UNL A   1      28.781  31.895  22.346  1.00  0.00     0.031 C 
ATOM     30  C   UNL A   1      28.178  31.046  21.249  1.00  0.00     0.160 C 
ENDBRANCH  25  26
ENDBRANCH  22  25
ENDBRANCH  11  17
ENDBRANCH   7   8
ENDBRANCH   5   7
ENDBRANCH   2   3
ENDBRANCH   1   2
BRANCH   1  31
ATOM     31  C   UNL A   1      40.300  22.468  27.395  1.00  0.00     0.023 C 
BRANCH  31  32
ATOM     32  C   UNL A   1      40.527  21.700  26.091  1.00  0.00     0.116 C 
BRANCH  32  33
ATOM     33  N   UNL A   1      41.785  22.009  25.441  1.00  0.00    -0.352 N 
ATOM     34  C   UNL A   1      42.728  22.996  25.544  1.00  0.00     0.251 C 
ATOM     35  H   UNL A   1      42.020  21.344  24.754  1.00  0.00     0.163 HD
ATOM     36  O   UNL A   1      43.775  22.777  24.927  1.00  0.00    -0.269 OA
BRANCH  34  37
ATOM     37  C   UNL A   1      42.588  24.289  26.278  1.00  0.00     0.039 A 
ATOM     38  C   UNL A   1      43.082  24.568  27.551  1.00  0.00     0.014 A 
ATOM     39  C   UNL A   1      41.819  25.283  25.634  1.00  0.00     0.014 A 
ATOM     40  C   UNL A   1      42.766  25.780  28.177  1.00  0.00     0.010 A 
ATOM     41  C   UNL A   1      41.502  26.493  26.257  1.00  0.00     0.010 A 
ATOM     42  C   UNL A   1      41.945  26.733  27.551  1.00  0.00    -0.014 A 
BRANCH  42  43
ATOM     43  C   UNL A   1      41.645  27.975  28.276  1.00  0.00     0.031 A 
ATOM     44  C   UNL A   1      42.525  29.134  27.956  1.00  0.00     0.074 A 
ATOM     45  C   UNL A   1      40.625  28.170  29.140  1.00  0.00     0.049 A 
ATOM     46  N   UNL A   1      43.438  29.668  28.699  1.00  0.00    -0.248 NA
ATOM     47  C   UNL A   1      42.442  29.701  26.605  1.00  0.00     0.031 C 
ATOM     48  C   UNL A   1      39.461  27.317  29.392  1.00  0.00     0.029 A 
ATOM     49  N   UNL A   1      40.393  29.250  29.948  1.00  0.00    -0.354 N 
ATOM     50  C   UNL A   1      43.937  30.757  27.984  1.00  0.00     0.074 A 
ATOM     51  C   UNL A   1      43.382  30.646  26.657  1.00  0.00     0.031 C 
ATOM     52  C   UNL A   1      38.553  28.000  30.132  1.00  0.00     0.029 A 
ATOM     53  C   UNL A   1      39.141  29.263  30.547  1.00  0.00     0.049 A 
ATOM     54  H   UNL A   1      41.060  29.960  30.094  1.00  0.00     0.167 HD
ATOM     55  C   UNL A   1      44.637  31.761  28.588  1.00  0.00     0.034 A 
ATOM     56  C   UNL A   1      38.608  30.247  31.311  1.00  0.00     0.034 A 
ATOM     57  C   UNL A   1      45.043  31.394  29.918  1.00  0.00     0.049 A 
ATOM     58  C   UNL A   1      39.709  31.073  31.851  1.00  0.00     0.074 A 
ATOM     59  C   UNL A   1      45.890  30.457  30.469  1.00  0.00     0.029 A 
ATOM     60  N   UNL A   1      44.277  31.866  30.953  1.00  0.00    -0.354 N 
ATOM     61  N   UNL A   1      40.545  30.678  32.768  1.00  0.00    -0.248 NA
ATOM     62  C   UNL A   1      40.100  32.268  31.123  1.00  0.00     0.031 C 
ATOM     63  C   UNL A   1      45.298  30.101  31.716  1.00  0.00     0.029 A 
ATOM     64  C   UNL A   1      44.138  30.863  31.875  1.00  0.00     0.049 A 
ATOM     65  H   UNL A   1      43.892  32.771  31.021  1.00  0.00     0.167 HD
ATOM     66  C   UNL A   1      41.745  31.269  32.413  1.00  0.00     0.074 A 
ATOM     67  C   UNL A   1      41.375  32.352  31.507  1.00  0.00     0.031 C 
ATOM     68  C   UNL A   1      42.936  30.647  32.660  1.00  0.00     0.034 A 
BRANCH  55  69
ATOM     69  C   UNL A   1      44.684  33.197  28.108  1.00  0.00     0.023 A 
ATOM     70  C   UNL A   1      43.593  34.077  28.218  1.00  0.00     0.031 A 
ATOM     71  C   UNL A   1      45.911  33.789  27.732  1.00  0.00     0.131 A 
ATOM     72  C   UNL A   1      43.724  35.449  27.961  1.00  0.00     0.055 A 
ATOM     73  C   UNL A   1      46.058  35.170  27.542  1.00  0.00     0.041 A 
ATOM     74  F   UNL A   1      47.024  33.051  27.597  1.00  0.00    -0.206 F 
ATOM     75  C   UNL A   1      44.960  36.011  27.657  1.00  0.00     0.022 A 
BRANCH  72  76
ATOM     76  S   UNL A   1      42.275  36.538  28.033  1.00  0.00     0.124 S 
ATOM     77  O   UNL A   1      42.674  37.502  29.053  1.00  0.00    -0.237 OA
ATOM     78  O   UNL A   1      42.221  37.049  26.665  1.00  0.00    -0.237 OA
ATOM     79  O   UNL A   1      41.188  35.634  28.396  1.00  0.00    -0.744 OA
ENDBRANCH  72  76
ENDBRANCH  55  69
BRANCH  56  80
ATOM     80  C   UNL A   1      37.228  30.780  31.249  1.00  0.00     0.023 A 
ATOM     81  C   UNL A   1      36.676  31.110  29.999  1.00  0.00     0.031 A 
ATOM     82  C   UNL A   1      36.601  31.302  32.396  1.00  0.00     0.131 A 
ATOM     83  C   UNL A   1      35.593  31.993  29.916  1.00  0.00     0.055 A 
ATOM     84  C   UNL A   1      35.506  32.169  32.311  1.00  0.00     0.041 A 
ATOM     85  F   UNL A   1      37.096  31.049  33.618  1.00  0.00    -0.206 F 
ATOM     86  C   UNL A   1      35.009  32.534  31.063  1.00  0.00     0.022 A 
BRANCH  83  87
ATOM     87  S   UNL A   1      34.986  32.538  28.297  1.00  0.00     0.124 S 
ATOM     88  O   UNL A   1      33.840  31.656  28.083  1.00  0.00    -0.237 OA
ATOM     89  O   UNL A   1      34.663  33.937  28.558  1.00  0.00    -0.237 OA
ATOM     90  O   UNL A   1      36.121  32.299  27.410  1.00  0.00    -0.744 OA
ENDBRANCH  83  87
ENDBRANCH  56  80
BRANCH  68  91
ATOM     91  C   UNL A   1      42.956  29.481  33.628  1.00  0.00     0.023 A 
ATOM     92  C   UNL A   1      43.447  29.724  34.923  1.00  0.00     0.031 A 
ATOM     93  C   UNL A   1      42.680  28.143  33.283  1.00  0.00     0.131 A 
ATOM     94  C   UNL A   1      43.668  28.664  35.811  1.00  0.00     0.055 A 
ATOM     95  C   UNL A   1      42.829  27.096  34.199  1.00  0.00     0.041 A 
ATOM     96  F   UNL A   1      42.333  27.794  32.037  1.00  0.00    -0.206 F 
ATOM     97  C   UNL A   1      43.339  27.352  35.467  1.00  0.00     0.022 A 
BRANCH  94  98
ATOM     98  S   UNL A   1      44.526  28.945  37.382  1.00  0.00     0.124 S 
ATOM     99  O   UNL A   1      43.794  30.080  37.936  1.00  0.00    -0.237 OA
ATOM    100  O   UNL A   1      44.331  27.673  38.075  1.00  0.00    -0.237 OA
ATOM    101  O   UNL A   1      45.904  29.223  36.987  1.00  0.00    -0.744 OA
ENDBRANCH  94  98
ENDBRANCH  68  91
ENDBRANCH  42  43
ENDBRANCH  34  37
ENDBRANCH  32  33
ENDBRANCH  31  32
ENDBRANCH   1  31
TORSDOF 18
ENDMDL
