MODEL 1
REMARK VINA RESULT:     -13.3      0.000      0.000
REMARK SMILES Cc1ccc(C(=O)NCCCCNC(=O)c2ccc(-c3c4nc(c(-c5cc(S(=O)(=O)[O-])ccc5F)c5ccc([nH]5)c(-c5cc(S(=O)(=O)[O-])ccc5F)c5nc(c(-c6cc(S(=O)(=O)[O-])ccc6F)c6ccc3[nH]6)C=C5)C=C4)cc2)c2c1N[C@H](c1ccccc1F)[C@H]1CC=C[C@@H]21
REMARK SMILES IDX 11 1 10 2 9 3 8 4 6 5 7 6 5 8 1 9 2 10 3 11 80 12 4 13 79 14
REMARK SMILES IDX 81 15 94 16 82 17 90 19 93 20 91 21 92 22 83 23 84 24 88 25
REMARK SMILES IDX 85 26 87 27 89 28 86 29 12 30 13 31 14 32 15 34 16 35 17 36
REMARK SMILES IDX 78 37 18 38 77 39 19 40 20 41 21 42 71 43 22 44 76 45 70 46
REMARK SMILES IDX 72 47 23 48 75 49 69 50 68 51 24 53 56 54 36 55 55 56 37 57
REMARK SMILES IDX 40 58 54 59 73 60 38 61 39 62 53 64 74 65 41 66 25 67 26 68
REMARK SMILES IDX 34 69 27 70 33 71 35 72 32 73 28 74 29 75 30 76 31 77 57 78
REMARK SMILES IDX 58 79 66 80 59 81 65 82 67 83 64 84 60 85 61 86 62 87 63 88
REMARK SMILES IDX 42 89 43 90 51 91 44 92 50 93 52 94 49 95 45 96 46 97 47 98
REMARK SMILES IDX 48 99
REMARK H PARENT 8 7 81 18 13 33 72 52 40 63
REMARK Flexibility Score: inf
ROOT
ATOM      1  C   UNL A   1      35.971  21.573  25.453  1.00  0.00     0.023 C 
ENDROOT
BRANCH   1   2
ATOM      2  C   UNL A   1      35.506  22.866  26.132  1.00  0.00     0.023 C 
BRANCH   2   3
ATOM      3  C   UNL A   1      35.742  24.133  25.302  1.00  0.00     0.116 C 
BRANCH   3   4
ATOM      4  N   UNL A   1      35.241  23.944  23.959  1.00  0.00    -0.352 N 
ATOM      5  C   UNL A   1      33.988  23.863  23.407  1.00  0.00     0.251 C 
ATOM      6  O   UNL A   1      33.980  23.484  22.236  1.00  0.00    -0.269 OA
ATOM      7  H   UNL A   1      35.959  23.852  23.293  1.00  0.00     0.163 HD
BRANCH   5   8
ATOM      8  C   UNL A   1      32.703  24.218  24.120  1.00  0.00     0.045 A 
ATOM      9  C   UNL A   1      29.094  25.140  26.347  1.00  0.00     0.046 C 
ATOM     10  C   UNL A   1      30.299  24.842  25.497  1.00  0.00    -0.028 A 
ATOM     11  C   UNL A   1      30.877  23.577  25.601  1.00  0.00     0.006 A 
ATOM     12  C   UNL A   1      30.882  25.803  24.642  1.00  0.00     0.042 A 
ATOM     13  C   UNL A   1      32.033  23.265  24.894  1.00  0.00     0.014 A 
ATOM     14  C   UNL A   1      32.100  25.505  23.973  1.00  0.00    -0.005 A 
ATOM     15  N   UNL A   1      30.249  27.024  24.468  1.00  0.00    -0.377 N 
ATOM     16  C   UNL A   1      32.690  26.554  23.051  1.00  0.00     0.050 C 
ATOM     17  C   UNL A   1      30.922  28.177  23.894  1.00  0.00     0.117 C 
ATOM     18  H   UNL A   1      29.309  27.114  24.743  1.00  0.00     0.161 HD
ATOM     19  C   UNL A   1      31.777  27.743  22.696  1.00  0.00     0.031 C 
ATOM     20  C   UNL A   1      33.921  27.260  23.559  1.00  0.00    -0.023 C 
ATOM     21  C   UNL A   1      32.771  28.848  22.287  1.00  0.00     0.034 C 
ATOM     22  C   UNL A   1      33.974  28.522  23.115  1.00  0.00    -0.030 C 
BRANCH  17  23
ATOM     23  C   UNL A   1      29.872  29.257  23.637  1.00  0.00     0.010 A 
ATOM     24  C   UNL A   1      28.801  28.953  22.770  1.00  0.00     0.009 A 
ATOM     25  C   UNL A   1      29.899  30.542  24.192  1.00  0.00     0.128 A 
ATOM     26  C   UNL A   1      27.808  29.894  22.485  1.00  0.00     0.001 A 
ATOM     27  C   UNL A   1      28.907  31.483  23.914  1.00  0.00     0.039 A 
ATOM     28  F   UNL A   1      30.871  30.924  25.030  1.00  0.00    -0.207 F 
ATOM     29  C   UNL A   1      27.859  31.161  23.059  1.00  0.00     0.003 A 
ENDBRANCH  17  23
ENDBRANCH   5   8
ENDBRANCH   3   4
ENDBRANCH   2   3
ENDBRANCH   1   2
BRANCH   1  30
ATOM     30  C   UNL A   1      37.384  21.618  24.887  1.00  0.00     0.116 C 
BRANCH  30  31
ATOM     31  N   UNL A   1      38.217  20.531  25.381  1.00  0.00    -0.352 N 
ATOM     32  C   UNL A   1      39.405  20.622  26.062  1.00  0.00     0.251 C 
ATOM     33  H   UNL A   1      37.889  19.621  25.205  1.00  0.00     0.163 HD
ATOM     34  O   UNL A   1      40.058  19.621  26.321  1.00  0.00    -0.269 OA
BRANCH  32  35
ATOM     35  C   UNL A   1      39.889  21.959  26.450  1.00  0.00     0.039 A 
ATOM     36  C   UNL A   1      41.000  22.056  27.292  1.00  0.00     0.014 A 
ATOM     37  C   UNL A   1      39.265  23.103  25.944  1.00  0.00     0.014 A 
ATOM     38  C   UNL A   1      41.515  23.314  27.599  1.00  0.00     0.010 A 
ATOM     39  C   UNL A   1      39.804  24.354  26.220  1.00  0.00     0.010 A 
ATOM     40  C   UNL A   1      40.927  24.467  27.055  1.00  0.00    -0.014 A 
BRANCH  40  41
ATOM     41  C   UNL A   1      41.450  25.814  27.375  1.00  0.00     0.031 A 
ATOM     42  C   UNL A   1      42.826  26.195  26.915  1.00  0.00     0.074 A 
ATOM     43  C   UNL A   1      40.716  26.656  28.124  1.00  0.00     0.049 A 
ATOM     44  N   UNL A   1      43.492  27.295  27.138  1.00  0.00    -0.248 NA
ATOM     45  C   UNL A   1      43.557  25.199  26.113  1.00  0.00     0.031 C 
ATOM     46  C   UNL A   1      39.381  26.369  28.648  1.00  0.00     0.029 A 
ATOM     47  N   UNL A   1      40.995  27.917  28.589  1.00  0.00    -0.354 N 
ATOM     48  C   UNL A   1      44.720  27.124  26.513  1.00  0.00     0.074 A 
ATOM     49  C   UNL A   1      44.726  25.797  25.939  1.00  0.00     0.031 C 
ATOM     50  C   UNL A   1      38.954  27.426  29.360  1.00  0.00     0.029 A 
ATOM     51  C   UNL A   1      39.996  28.451  29.366  1.00  0.00     0.049 A 
ATOM     52  H   UNL A   1      41.833  28.392  28.385  1.00  0.00     0.167 HD
ATOM     53  C   UNL A   1      45.739  28.007  26.407  1.00  0.00     0.034 A 
ATOM     54  C   UNL A   1      39.930  29.633  30.012  1.00  0.00     0.034 A 
ATOM     55  C   UNL A   1      45.711  29.330  26.968  1.00  0.00     0.049 A 
ATOM     56  C   UNL A   1      41.081  30.598  29.886  1.00  0.00     0.074 A 
ATOM     57  C   UNL A   1      46.672  30.319  26.871  1.00  0.00     0.029 A 
ATOM     58  N   UNL A   1      44.671  29.850  27.723  1.00  0.00    -0.354 N 
ATOM     59  N   UNL A   1      42.201  30.457  29.218  1.00  0.00    -0.248 NA
ATOM     60  C   UNL A   1      40.962  31.883  30.590  1.00  0.00     0.031 C 
ATOM     61  C   UNL A   1      46.230  31.426  27.599  1.00  0.00     0.029 A 
ATOM     62  C   UNL A   1      44.974  31.143  28.113  1.00  0.00     0.049 A 
ATOM     63  H   UNL A   1      43.841  29.371  27.948  1.00  0.00     0.167 HD
ATOM     64  C   UNL A   1      42.908  31.643  29.397  1.00  0.00     0.074 A 
ATOM     65  C   UNL A   1      42.084  32.496  30.228  1.00  0.00     0.031 C 
ATOM     66  C   UNL A   1      44.128  31.991  28.918  1.00  0.00     0.034 A 
BRANCH  53  67
ATOM     67  C   UNL A   1      46.961  27.592  25.635  1.00  0.00     0.023 A 
ATOM     68  C   UNL A   1      47.074  27.896  24.268  1.00  0.00     0.031 A 
ATOM     69  C   UNL A   1      47.968  26.816  26.236  1.00  0.00     0.131 A 
ATOM     70  C   UNL A   1      48.164  27.407  23.538  1.00  0.00     0.055 A 
ATOM     71  C   UNL A   1      49.068  26.357  25.510  1.00  0.00     0.041 A 
ATOM     72  F   UNL A   1      47.905  26.508  27.541  1.00  0.00    -0.206 F 
ATOM     73  C   UNL A   1      49.165  26.646  24.153  1.00  0.00     0.022 A 
BRANCH  70  74
ATOM     74  S   UNL A   1      48.317  27.722  21.759  1.00  0.00     0.124 S 
ATOM     75  O   UNL A   1      48.631  26.391  21.242  1.00  0.00    -0.237 OA
ATOM     76  O   UNL A   1      46.987  28.224  21.423  1.00  0.00    -0.237 OA
ATOM     77  O   UNL A   1      49.403  28.692  21.666  1.00  0.00    -0.744 OA
ENDBRANCH  70  74
ENDBRANCH  53  67
BRANCH  54  78
ATOM     78  C   UNL A   1      38.697  29.979  30.773  1.00  0.00     0.023 A 
ATOM     79  C   UNL A   1      37.686  30.771  30.202  1.00  0.00     0.031 A 
ATOM     80  C   UNL A   1      38.562  29.599  32.119  1.00  0.00     0.131 A 
ATOM     81  C   UNL A   1      36.606  31.196  30.990  1.00  0.00     0.055 A 
ATOM     82  C   UNL A   1      37.458  29.980  32.885  1.00  0.00     0.041 A 
ATOM     83  F   UNL A   1      39.510  28.855  32.709  1.00  0.00    -0.206 F 
ATOM     84  C   UNL A   1      36.478  30.792  32.323  1.00  0.00     0.022 A 
BRANCH  81  85
ATOM     85  S   UNL A   1      35.376  32.357  30.336  1.00  0.00     0.124 S 
ATOM     86  O   UNL A   1      34.460  32.502  31.466  1.00  0.00    -0.237 OA
ATOM     87  O   UNL A   1      36.202  33.525  30.041  1.00  0.00    -0.237 OA
ATOM     88  O   UNL A   1      34.833  31.665  29.173  1.00  0.00    -0.744 OA
ENDBRANCH  81  85
ENDBRANCH  54  78
BRANCH  66  89
ATOM     89  C   UNL A   1      44.672  33.356  29.249  1.00  0.00     0.023 A 
ATOM     90  C   UNL A   1      44.361  34.452  28.422  1.00  0.00     0.031 A 
ATOM     91  C   UNL A   1      45.630  33.530  30.261  1.00  0.00     0.131 A 
ATOM     92  C   UNL A   1      45.041  35.663  28.591  1.00  0.00     0.055 A 
ATOM     93  C   UNL A   1      46.275  34.752  30.451  1.00  0.00     0.041 A 
ATOM     94  F   UNL A   1      45.963  32.508  31.065  1.00  0.00    -0.206 F 
ATOM     95  C   UNL A   1      45.991  35.821  29.604  1.00  0.00     0.022 A 
BRANCH  92  96
ATOM     96  S   UNL A   1      44.767  37.053  27.458  1.00  0.00     0.124 S 
ATOM     97  O   UNL A   1      44.628  38.177  28.380  1.00  0.00    -0.237 OA
ATOM     98  O   UNL A   1      45.993  37.045  26.665  1.00  0.00    -0.237 OA
ATOM     99  O   UNL A   1      43.551  36.688  26.739  1.00  0.00    -0.744 OA
ENDBRANCH  92  96
ENDBRANCH  66  89
ENDBRANCH  40  41
ENDBRANCH  32  35
ENDBRANCH  30  31
ENDBRANCH   1  30
TORSDOF 15
ENDMDL
MODEL 2
REMARK VINA RESULT:     -13.1      5.124     10.530
REMARK SMILES Cc1ccc(C(=O)NCCCCNC(=O)c2ccc(-c3c4nc(c(-c5cc(S(=O)(=O)[O-])ccc5F)c5ccc([nH]5)c(-c5cc(S(=O)(=O)[O-])ccc5F)c5nc(c(-c6cc(S(=O)(=O)[O-])ccc6F)c6ccc3[nH]6)C=C5)C=C4)cc2)c2c1N[C@H](c1ccccc1F)[C@H]1CC=C[C@@H]21
REMARK SMILES IDX 11 1 10 2 9 3 8 4 6 5 7 6 5 8 1 9 2 10 3 11 80 12 4 13 79 14
REMARK SMILES IDX 81 15 94 16 82 17 90 19 93 20 91 21 92 22 83 23 84 24 88 25
REMARK SMILES IDX 85 26 87 27 89 28 86 29 12 30 13 31 14 32 15 34 16 35 17 36
REMARK SMILES IDX 78 37 18 38 77 39 19 40 20 41 21 42 71 43 22 44 76 45 70 46
REMARK SMILES IDX 72 47 23 48 75 49 69 50 68 51 24 53 56 54 36 55 55 56 37 57
REMARK SMILES IDX 40 58 54 59 73 60 38 61 39 62 53 64 74 65 41 66 25 67 26 68
REMARK SMILES IDX 34 69 27 70 33 71 35 72 32 73 28 74 29 75 30 76 31 77 57 78
REMARK SMILES IDX 58 79 66 80 59 81 65 82 67 83 64 84 60 85 61 86 62 87 63 88
REMARK SMILES IDX 42 89 43 90 51 91 44 92 50 93 52 94 49 95 45 96 46 97 47 98
REMARK SMILES IDX 48 99
REMARK H PARENT 8 7 81 18 13 33 72 52 40 63
REMARK Flexibility Score: inf
ROOT
ATOM      1  C   UNL A   1      32.019  30.007  25.506  1.00  0.00     0.023 C 
ENDROOT
BRANCH   1   2
ATOM      2  C   UNL A   1      33.174  29.127  25.016  1.00  0.00     0.023 C 
BRANCH   2   3
ATOM      3  C   UNL A   1      33.638  28.075  26.030  1.00  0.00     0.116 C 
BRANCH   3   4
ATOM      4  N   UNL A   1      32.513  27.282  26.469  1.00  0.00    -0.352 N 
ATOM      5  C   UNL A   1      31.763  26.284  25.901  1.00  0.00     0.251 C 
ATOM      6  O   UNL A   1      30.743  26.003  26.529  1.00  0.00    -0.269 OA
ATOM      7  H   UNL A   1      32.217  27.510  27.380  1.00  0.00     0.163 HD
BRANCH   5   8
ATOM      8  C   UNL A   1      32.125  25.547  24.631  1.00  0.00     0.045 A 
ATOM      9  C   UNL A   1      33.274  23.609  20.922  1.00  0.00     0.046 C 
ATOM     10  C   UNL A   1      32.813  24.213  22.221  1.00  0.00    -0.028 A 
ATOM     11  C   UNL A   1      32.377  25.538  22.207  1.00  0.00     0.006 A 
ATOM     12  C   UNL A   1      32.849  23.507  23.442  1.00  0.00     0.042 A 
ATOM     13  C   UNL A   1      32.004  26.174  23.387  1.00  0.00     0.014 A 
ATOM     14  C   UNL A   1      32.533  24.178  24.655  1.00  0.00    -0.005 A 
ATOM     15  N   UNL A   1      33.190  22.163  23.435  1.00  0.00    -0.377 N 
ATOM     16  C   UNL A   1      32.566  23.385  25.946  1.00  0.00     0.050 C 
ATOM     17  C   UNL A   1      33.577  21.450  24.641  1.00  0.00     0.117 C 
ATOM     18  H   UNL A   1      33.169  21.673  22.582  1.00  0.00     0.161 HD
ATOM     19  C   UNL A   1      32.663  21.854  25.806  1.00  0.00     0.031 C 
ATOM     20  C   UNL A   1      33.721  23.678  26.869  1.00  0.00    -0.023 C 
ATOM     21  C   UNL A   1      33.251  21.407  27.159  1.00  0.00     0.034 C 
ATOM     22  C   UNL A   1      34.082  22.586  27.555  1.00  0.00    -0.030 C 
BRANCH  17  23
ATOM     23  C   UNL A   1      33.650  19.961  24.306  1.00  0.00     0.010 A 
ATOM     24  C   UNL A   1      32.534  19.362  23.682  1.00  0.00     0.009 A 
ATOM     25  C   UNL A   1      34.746  19.134  24.585  1.00  0.00     0.128 A 
ATOM     26  C   UNL A   1      32.529  18.004  23.353  1.00  0.00     0.001 A 
ATOM     27  C   UNL A   1      34.745  17.779  24.252  1.00  0.00     0.039 A 
ATOM     28  F   UNL A   1      35.852  19.610  25.169  1.00  0.00    -0.207 F 
ATOM     29  C   UNL A   1      33.637  17.211  23.636  1.00  0.00     0.003 A 
ENDBRANCH  17  23
ENDBRANCH   5   8
ENDBRANCH   3   4
ENDBRANCH   2   3
ENDBRANCH   1   2
BRANCH   1  30
ATOM     30  C   UNL A   1      32.218  30.614  26.889  1.00  0.00     0.116 C 
BRANCH  30  31
ATOM     31  N   UNL A   1      32.256  32.068  26.860  1.00  0.00    -0.352 N 
ATOM     32  C   UNL A   1      33.203  32.897  27.407  1.00  0.00     0.251 C 
ATOM     33  H   UNL A   1      31.513  32.511  26.391  1.00  0.00     0.163 HD
ATOM     34  O   UNL A   1      33.052  34.111  27.403  1.00  0.00    -0.269 OA
BRANCH  32  35
ATOM     35  C   UNL A   1      34.394  32.288  28.024  1.00  0.00     0.039 A 
ATOM     36  C   UNL A   1      35.575  33.032  28.089  1.00  0.00     0.014 A 
ATOM     37  C   UNL A   1      34.320  31.003  28.569  1.00  0.00     0.014 A 
ATOM     38  C   UNL A   1      36.683  32.496  28.744  1.00  0.00     0.010 A 
ATOM     39  C   UNL A   1      35.414  30.487  29.255  1.00  0.00     0.010 A 
ATOM     40  C   UNL A   1      36.604  31.227  29.339  1.00  0.00    -0.014 A 
BRANCH  40  41
ATOM     41  C   UNL A   1      37.770  30.634  30.029  1.00  0.00     0.031 A 
ATOM     42  C   UNL A   1      38.080  31.051  31.437  1.00  0.00     0.074 A 
ATOM     43  C   UNL A   1      38.574  29.779  29.372  1.00  0.00     0.049 A 
ATOM     44  N   UNL A   1      39.081  30.700  32.197  1.00  0.00    -0.248 NA
ATOM     45  C   UNL A   1      37.149  32.003  32.066  1.00  0.00     0.031 C 
ATOM     46  C   UNL A   1      38.379  29.335  27.992  1.00  0.00     0.029 A 
ATOM     47  N   UNL A   1      39.723  29.143  29.770  1.00  0.00    -0.354 N 
ATOM     48  C   UNL A   1      38.908  31.390  33.389  1.00  0.00     0.074 A 
ATOM     49  C   UNL A   1      37.731  32.215  33.237  1.00  0.00     0.031 C 
ATOM     50  C   UNL A   1      39.373  28.495  27.658  1.00  0.00     0.029 A 
ATOM     51  C   UNL A   1      40.289  28.364  28.789  1.00  0.00     0.049 A 
ATOM     52  H   UNL A   1      40.106  29.238  30.672  1.00  0.00     0.167 HD
ATOM     53  C   UNL A   1      39.651  31.320  34.517  1.00  0.00     0.034 A 
ATOM     54  C   UNL A   1      41.420  27.631  28.802  1.00  0.00     0.034 A 
ATOM     55  C   UNL A   1      40.809  30.479  34.658  1.00  0.00     0.049 A 
ATOM     56  C   UNL A   1      42.237  27.573  30.068  1.00  0.00     0.074 A 
ATOM     57  C   UNL A   1      41.600  30.297  35.777  1.00  0.00     0.029 A 
ATOM     58  N   UNL A   1      41.337  29.680  33.656  1.00  0.00    -0.354 N 
ATOM     59  N   UNL A   1      42.014  28.164  31.218  1.00  0.00    -0.248 NA
ATOM     60  C   UNL A   1      43.454  26.748  30.046  1.00  0.00     0.031 C 
ATOM     61  C   UNL A   1      42.630  29.416  35.442  1.00  0.00     0.029 A 
ATOM     62  C   UNL A   1      42.456  29.014  34.126  1.00  0.00     0.049 A 
ATOM     63  H   UNL A   1      40.972  29.599  32.746  1.00  0.00     0.167 HD
ATOM     64  C   UNL A   1      43.043  27.761  32.064  1.00  0.00     0.074 A 
ATOM     65  C   UNL A   1      43.885  26.866  31.297  1.00  0.00     0.031 C 
ATOM     66  C   UNL A   1      43.269  28.103  33.357  1.00  0.00     0.034 A 
BRANCH  53  67
ATOM     67  C   UNL A   1      39.229  32.145  35.700  1.00  0.00     0.023 A 
ATOM     68  C   UNL A   1      39.693  33.464  35.847  1.00  0.00     0.031 A 
ATOM     69  C   UNL A   1      38.442  31.592  36.726  1.00  0.00     0.131 A 
ATOM     70  C   UNL A   1      39.382  34.181  37.008  1.00  0.00     0.055 A 
ATOM     71  C   UNL A   1      38.110  32.323  37.867  1.00  0.00     0.041 A 
ATOM     72  F   UNL A   1      37.971  30.339  36.623  1.00  0.00    -0.206 F 
ATOM     73  C   UNL A   1      38.587  33.621  38.015  1.00  0.00     0.022 A 
BRANCH  70  74
ATOM     74  S   UNL A   1      40.013  35.861  37.268  1.00  0.00     0.124 S 
ATOM     75  O   UNL A   1      39.276  36.279  38.459  1.00  0.00    -0.237 OA
ATOM     76  O   UNL A   1      41.439  35.623  37.470  1.00  0.00    -0.237 OA
ATOM     77  O   UNL A   1      39.654  36.564  36.042  1.00  0.00    -0.744 OA
ENDBRANCH  70  74
ENDBRANCH  53  67
BRANCH  54  78
ATOM     78  C   UNL A   1      41.794  26.846  27.592  1.00  0.00     0.023 A 
ATOM     79  C   UNL A   1      41.579  25.458  27.529  1.00  0.00     0.031 A 
ATOM     80  C   UNL A   1      42.459  27.465  26.521  1.00  0.00     0.131 A 
ATOM     81  C   UNL A   1      42.069  24.728  26.436  1.00  0.00     0.055 A 
ATOM     82  C   UNL A   1      42.898  26.742  25.409  1.00  0.00     0.041 A 
ATOM     83  F   UNL A   1      42.696  28.785  26.545  1.00  0.00    -0.206 F 
ATOM     84  C   UNL A   1      42.713  25.363  25.369  1.00  0.00     0.022 A 
BRANCH  81  85
ATOM     85  S   UNL A   1      41.964  22.917  26.403  1.00  0.00     0.124 S 
ATOM     86  O   UNL A   1      42.736  22.543  27.585  1.00  0.00    -0.237 OA
ATOM     87  O   UNL A   1      40.522  22.705  26.499  1.00  0.00    -0.237 OA
ATOM     88  O   UNL A   1      42.563  22.561  25.122  1.00  0.00    -0.744 OA
ENDBRANCH  81  85
ENDBRANCH  54  78
BRANCH  66  89
ATOM     89  C   UNL A   1      44.460  27.512  34.063  1.00  0.00     0.023 A 
ATOM     90  C   UNL A   1      44.316  26.321  34.800  1.00  0.00     0.031 A 
ATOM     91  C   UNL A   1      45.672  28.215  34.155  1.00  0.00     0.131 A 
ATOM     92  C   UNL A   1      45.353  25.894  35.637  1.00  0.00     0.055 A 
ATOM     93  C   UNL A   1      46.718  27.762  34.961  1.00  0.00     0.041 A 
ATOM     94  F   UNL A   1      45.847  29.361  33.477  1.00  0.00    -0.206 F 
ATOM     95  C   UNL A   1      46.555  26.604  35.717  1.00  0.00     0.022 A 
BRANCH  92  96
ATOM     96  S   UNL A   1      45.152  24.441  36.706  1.00  0.00     0.124 S 
ATOM     97  O   UNL A   1      46.531  24.148  37.086  1.00  0.00    -0.237 OA
ATOM     98  O   UNL A   1      44.307  24.965  37.775  1.00  0.00    -0.237 OA
ATOM     99  O   UNL A   1      44.525  23.450  35.838  1.00  0.00    -0.744 OA
ENDBRANCH  92  96
ENDBRANCH  66  89
ENDBRANCH  40  41
ENDBRANCH  32  35
ENDBRANCH  30  31
ENDBRANCH   1  30
TORSDOF 15
ENDMDL
MODEL 3
REMARK VINA RESULT:     -13.0      4.981     10.320
REMARK SMILES Cc1ccc(C(=O)NCCCCNC(=O)c2ccc(-c3c4nc(c(-c5cc(S(=O)(=O)[O-])ccc5F)c5ccc([nH]5)c(-c5cc(S(=O)(=O)[O-])ccc5F)c5nc(c(-c6cc(S(=O)(=O)[O-])ccc6F)c6ccc3[nH]6)C=C5)C=C4)cc2)c2c1N[C@H](c1ccccc1F)[C@H]1CC=C[C@@H]21
REMARK SMILES IDX 11 1 10 2 9 3 8 4 6 5 7 6 5 8 1 9 2 10 3 11 80 12 4 13 79 14
REMARK SMILES IDX 81 15 94 16 82 17 90 19 93 20 91 21 92 22 83 23 84 24 88 25
REMARK SMILES IDX 85 26 87 27 89 28 86 29 12 30 13 31 14 32 15 34 16 35 17 36
REMARK SMILES IDX 78 37 18 38 77 39 19 40 20 41 21 42 71 43 22 44 76 45 70 46
REMARK SMILES IDX 72 47 23 48 75 49 69 50 68 51 24 53 56 54 36 55 55 56 37 57
REMARK SMILES IDX 40 58 54 59 73 60 38 61 39 62 53 64 74 65 41 66 25 67 26 68
REMARK SMILES IDX 34 69 27 70 33 71 35 72 32 73 28 74 29 75 30 76 31 77 57 78
REMARK SMILES IDX 58 79 66 80 59 81 65 82 67 83 64 84 60 85 61 86 62 87 63 88
REMARK SMILES IDX 42 89 43 90 51 91 44 92 50 93 52 94 49 95 45 96 46 97 47 98
REMARK SMILES IDX 48 99
REMARK H PARENT 8 7 81 18 13 33 72 52 40 63
REMARK Flexibility Score: inf
ROOT
ATOM      1  C   UNL A   1      32.251  30.016  25.761  1.00  0.00     0.023 C 
ENDROOT
BRANCH   1   2
ATOM      2  C   UNL A   1      33.283  29.051  25.167  1.00  0.00     0.023 C 
BRANCH   2   3
ATOM      3  C   UNL A   1      33.716  27.928  26.117  1.00  0.00     0.116 C 
BRANCH   3   4
ATOM      4  N   UNL A   1      32.559  27.184  26.561  1.00  0.00    -0.352 N 
ATOM      5  C   UNL A   1      31.758  26.227  25.991  1.00  0.00     0.251 C 
ATOM      6  O   UNL A   1      30.733  25.987  26.627  1.00  0.00    -0.269 OA
ATOM      7  H   UNL A   1      32.284  27.415  27.477  1.00  0.00     0.163 HD
BRANCH   5   8
ATOM      8  C   UNL A   1      32.071  25.489  24.710  1.00  0.00     0.045 A 
ATOM      9  C   UNL A   1      33.074  23.545  20.961  1.00  0.00     0.046 C 
ATOM     10  C   UNL A   1      32.666  24.150  22.277  1.00  0.00    -0.028 A 
ATOM     11  C   UNL A   1      32.203  25.465  22.276  1.00  0.00     0.006 A 
ATOM     12  C   UNL A   1      32.777  23.454  23.500  1.00  0.00     0.042 A 
ATOM     13  C   UNL A   1      31.876  26.102  23.469  1.00  0.00     0.014 A 
ATOM     14  C   UNL A   1      32.508  24.127  24.722  1.00  0.00    -0.005 A 
ATOM     15  N   UNL A   1      33.144  22.117  23.485  1.00  0.00    -0.377 N 
ATOM     16  C   UNL A   1      32.621  23.345  26.016  1.00  0.00     0.050 C 
ATOM     17  C   UNL A   1      33.606  21.421  24.675  1.00  0.00     0.117 C 
ATOM     18  H   UNL A   1      33.092  21.620  22.637  1.00  0.00     0.161 HD
ATOM     19  C   UNL A   1      32.743  21.816  25.880  1.00  0.00     0.031 C 
ATOM     20  C   UNL A   1      33.815  23.669  26.878  1.00  0.00    -0.023 C 
ATOM     21  C   UNL A   1      33.406  21.391  27.206  1.00  0.00     0.034 C 
ATOM     22  C   UNL A   1      34.231  22.590  27.552  1.00  0.00    -0.030 C 
BRANCH  17  23
ATOM     23  C   UNL A   1      33.692  19.931  24.346  1.00  0.00     0.010 A 
ATOM     24  C   UNL A   1      32.566  19.310  23.765  1.00  0.00     0.009 A 
ATOM     25  C   UNL A   1      34.811  19.126  24.591  1.00  0.00     0.128 A 
ATOM     26  C   UNL A   1      32.573  17.949  23.445  1.00  0.00     0.001 A 
ATOM     27  C   UNL A   1      34.823  17.769  24.268  1.00  0.00     0.039 A 
ATOM     28  F   UNL A   1      35.929  19.624  25.134  1.00  0.00    -0.207 F 
ATOM     29  C   UNL A   1      33.703  17.177  23.694  1.00  0.00     0.003 A 
ENDBRANCH  17  23
ENDBRANCH   5   8
ENDBRANCH   3   4
ENDBRANCH   2   3
ENDBRANCH   1   2
BRANCH   1  30
ATOM     30  C   UNL A   1      32.617  30.585  27.126  1.00  0.00     0.116 C 
BRANCH  30  31
ATOM     31  N   UNL A   1      32.667  32.040  27.128  1.00  0.00    -0.352 N 
ATOM     32  C   UNL A   1      33.644  32.849  27.653  1.00  0.00     0.251 C 
ATOM     33  H   UNL A   1      31.910  32.499  26.700  1.00  0.00     0.163 HD
ATOM     34  O   UNL A   1      33.503  34.063  27.682  1.00  0.00    -0.269 OA
BRANCH  32  35
ATOM     35  C   UNL A   1      34.854  32.216  28.206  1.00  0.00     0.039 A 
ATOM     36  C   UNL A   1      36.054  32.932  28.194  1.00  0.00     0.014 A 
ATOM     37  C   UNL A   1      34.781  30.939  28.769  1.00  0.00     0.014 A 
ATOM     38  C   UNL A   1      37.186  32.375  28.789  1.00  0.00     0.010 A 
ATOM     39  C   UNL A   1      35.901  30.403  29.395  1.00  0.00     0.010 A 
ATOM     40  C   UNL A   1      37.111  31.115  29.401  1.00  0.00    -0.014 A 
BRANCH  40  41
ATOM     41  C   UNL A   1      38.301  30.499  30.029  1.00  0.00     0.031 A 
ATOM     42  C   UNL A   1      38.692  30.909  31.418  1.00  0.00     0.074 A 
ATOM     43  C   UNL A   1      39.053  29.630  29.330  1.00  0.00     0.049 A 
ATOM     44  N   UNL A   1      39.726  30.539  32.124  1.00  0.00    -0.248 NA
ATOM     45  C   UNL A   1      37.813  31.877  32.096  1.00  0.00     0.031 C 
ATOM     46  C   UNL A   1      38.777  29.192  27.962  1.00  0.00     0.029 A 
ATOM     47  N   UNL A   1      40.210  28.974  29.666  1.00  0.00    -0.354 N 
ATOM     48  C   UNL A   1      39.628  31.231  33.324  1.00  0.00     0.074 A 
ATOM     49  C   UNL A   1      38.460  32.077  33.235  1.00  0.00     0.031 C 
ATOM     50  C   UNL A   1      39.737  28.335  27.576  1.00  0.00     0.029 A 
ATOM     51  C   UNL A   1      40.709  28.186  28.657  1.00  0.00     0.049 A 
ATOM     52  H   UNL A   1      40.641  29.060  30.547  1.00  0.00     0.167 HD
ATOM     53  C   UNL A   1      40.429  31.145  34.411  1.00  0.00     0.034 A 
ATOM     54  C   UNL A   1      41.826  27.432  28.610  1.00  0.00     0.034 A 
ATOM     55  C   UNL A   1      41.577  30.284  34.490  1.00  0.00     0.049 A 
ATOM     56  C   UNL A   1      42.708  27.358  29.831  1.00  0.00     0.074 A 
ATOM     57  C   UNL A   1      42.423  30.087  35.566  1.00  0.00     0.029 A 
ATOM     58  N   UNL A   1      42.037  29.477  33.462  1.00  0.00    -0.354 N 
ATOM     59  N   UNL A   1      42.556  27.951  30.991  1.00  0.00    -0.248 NA
ATOM     60  C   UNL A   1      43.906  26.511  29.744  1.00  0.00     0.031 C 
ATOM     61  C   UNL A   1      43.417  29.187  35.176  1.00  0.00     0.029 A 
ATOM     62  C   UNL A   1      43.166  28.790  33.871  1.00  0.00     0.049 A 
ATOM     63  H   UNL A   1      41.623  29.403  32.572  1.00  0.00     0.167 HD
ATOM     64  C   UNL A   1      43.621  27.529  31.781  1.00  0.00     0.074 A 
ATOM     65  C   UNL A   1      44.405  26.620  30.971  1.00  0.00     0.031 C 
ATOM     66  C   UNL A   1      43.921  27.865  33.061  1.00  0.00     0.034 A 
BRANCH  53  67
ATOM     67  C   UNL A   1      40.085  31.977  35.614  1.00  0.00     0.023 A 
ATOM     68  C   UNL A   1      39.094  31.548  36.514  1.00  0.00     0.031 A 
ATOM     69  C   UNL A   1      40.673  33.239  35.816  1.00  0.00     0.131 A 
ATOM     70  C   UNL A   1      38.706  32.385  37.567  1.00  0.00     0.055 A 
ATOM     71  C   UNL A   1      40.304  34.055  36.885  1.00  0.00     0.041 A 
ATOM     72  F   UNL A   1      41.629  33.686  34.985  1.00  0.00    -0.206 F 
ATOM     73  C   UNL A   1      39.310  33.632  37.762  1.00  0.00     0.022 A 
BRANCH  70  74
ATOM     74  S   UNL A   1      37.388  31.898  38.713  1.00  0.00     0.124 S 
ATOM     75  O   UNL A   1      36.358  32.896  38.431  1.00  0.00    -0.237 OA
ATOM     76  O   UNL A   1      37.082  30.542  38.267  1.00  0.00    -0.237 OA
ATOM     77  O   UNL A   1      38.010  32.008  40.029  1.00  0.00    -0.744 OA
ENDBRANCH  70  74
ENDBRANCH  53  67
BRANCH  54  78
ATOM     78  C   UNL A   1      42.121  26.642  27.382  1.00  0.00     0.023 A 
ATOM     79  C   UNL A   1      41.872  25.259  27.328  1.00  0.00     0.031 A 
ATOM     80  C   UNL A   1      42.745  27.248  26.279  1.00  0.00     0.131 A 
ATOM     81  C   UNL A   1      42.290  24.521  26.211  1.00  0.00     0.055 A 
ATOM     82  C   UNL A   1      43.111  26.519  25.146  1.00  0.00     0.041 A 
ATOM     83  F   UNL A   1      43.013  28.563  26.293  1.00  0.00    -0.206 F 
ATOM     84  C   UNL A   1      42.894  25.145  25.114  1.00  0.00     0.022 A 
BRANCH  81  85
ATOM     85  S   UNL A   1      42.144  22.713  26.181  1.00  0.00     0.124 S 
ATOM     86  O   UNL A   1      42.911  22.323  27.361  1.00  0.00    -0.237 OA
ATOM     87  O   UNL A   1      40.697  22.534  26.282  1.00  0.00    -0.237 OA
ATOM     88  O   UNL A   1      42.731  22.342  24.898  1.00  0.00    -0.744 OA
ENDBRANCH  81  85
ENDBRANCH  54  78
BRANCH  66  89
ATOM     89  C   UNL A   1      45.137  27.252  33.703  1.00  0.00     0.023 A 
ATOM     90  C   UNL A   1      46.398  27.856  33.532  1.00  0.00     0.031 A 
ATOM     91  C   UNL A   1      45.076  25.991  34.318  1.00  0.00     0.131 A 
ATOM     92  C   UNL A   1      47.553  27.174  33.930  1.00  0.00     0.055 A 
ATOM     93  C   UNL A   1      46.228  25.334  34.749  1.00  0.00     0.041 A 
ATOM     94  F   UNL A   1      43.895  25.375  34.490  1.00  0.00    -0.206 F 
ATOM     95  C   UNL A   1      47.475  25.920  34.543  1.00  0.00     0.022 A 
BRANCH  92  96
ATOM     96  S   UNL A   1      49.201  27.858  33.602  1.00  0.00     0.124 S 
ATOM     97  O   UNL A   1      48.986  29.287  33.815  1.00  0.00    -0.237 OA
ATOM     98  O   UNL A   1      50.014  27.191  34.614  1.00  0.00    -0.237 OA
ATOM     99  O   UNL A   1      49.474  27.473  32.221  1.00  0.00    -0.744 OA
ENDBRANCH  92  96
ENDBRANCH  66  89
ENDBRANCH  40  41
ENDBRANCH  32  35
ENDBRANCH  30  31
ENDBRANCH   1  30
TORSDOF 15
ENDMDL
