MODEL 1
REMARK VINA RESULT:     -10.1      0.000      0.000
REMARK SMILES CC(C)(C[NH2+]C[C@](C)(O)CO)C(=O)NCCCCNC(=O)c1ccc(-c2c3nc(c(-c4cc(S(=O)(=O)[O-])ccc4F)c4ccc([nH]4)c(-c4cc(S(=O)(=O)[O-])ccc4F)c4nc(c(-c5cc(S(=O)(=O)[O-])ccc5F)c5ccc2[nH]5)C=C4)C=C3)cc1
REMARK SMILES IDX 15 1 14 2 12 3 13 4 2 6 1 7 3 8 4 9 5 10 6 13 7 14 8 15 9 16
REMARK SMILES IDX 10 18 11 19 16 21 17 22 18 23 19 24 20 25 21 27 22 28 23 29
REMARK SMILES IDX 84 30 24 31 83 32 25 33 26 34 27 35 77 36 28 37 82 38 76 39
REMARK SMILES IDX 78 40 29 41 81 42 75 43 74 44 30 46 62 47 42 48 61 49 43 50
REMARK SMILES IDX 46 51 60 52 79 53 44 54 45 55 59 57 80 58 47 59 31 60 32 61
REMARK SMILES IDX 40 62 33 63 39 64 41 65 38 66 34 67 35 68 36 69 37 70 63 71
REMARK SMILES IDX 64 72 72 73 65 74 71 75 73 76 70 77 66 78 67 79 68 80 69 81
REMARK SMILES IDX 48 82 49 83 57 84 50 85 56 86 58 87 55 88 51 89 52 90 53 91
REMARK SMILES IDX 54 92
REMARK H PARENT 14 5 5 11 5 12 9 17 11 20 19 26 78 45 46 56
REMARK Flexibility Score: inf
ROOT
ATOM      1  C   UNL A   1      31.941  29.114  25.698  1.00  0.00     0.116 C 
ENDROOT
BRANCH   1   2
ATOM      2  N   UNL A   1      31.398  27.777  25.825  1.00  0.00    -0.355 N 
ATOM      3  C   UNL A   1      31.230  26.763  24.935  1.00  0.00     0.231 C 
ATOM      4  O   UNL A   1      30.701  25.739  25.382  1.00  0.00    -0.274 OA
ATOM      5  H   UNL A   1      31.091  27.559  26.736  1.00  0.00     0.163 HD
BRANCH   3   6
ATOM      6  C   UNL A   1      31.723  26.829  23.476  1.00  0.00     0.092 C 
ATOM      7  C   UNL A   1      31.307  25.519  22.757  1.00  0.00     0.027 C 
ATOM      8  C   UNL A   1      33.265  26.858  23.453  1.00  0.00     0.027 C 
BRANCH   6   9
ATOM      9  C   UNL A   1      31.157  28.033  22.683  1.00  0.00     0.277 C 
BRANCH   9  10
ATOM     10  N   UNL A   1      29.705  28.197  22.768  1.00  0.00    -0.343 N 
ATOM     11  H   UNL A   1      29.334  27.449  23.354  1.00  0.00     0.346 HD
ATOM     12  H   UNL A   1      29.357  28.169  21.809  1.00  0.00     0.346 HD
BRANCH  10  13
ATOM     13  C   UNL A   1      29.257  29.483  23.332  1.00  0.00     0.298 C 
BRANCH  13  14
ATOM     14  C   UNL A   1      27.954  30.114  22.755  1.00  0.00     0.133 C 
ATOM     15  C   UNL A   1      27.541  31.356  23.560  1.00  0.00     0.051 C 
BRANCH  14  16
ATOM     16  O   UNL A   1      26.865  29.170  22.855  1.00  0.00    -0.382 OA
ATOM     17  H   UNL A   1      26.038  29.601  22.588  1.00  0.00     0.211 HD
ENDBRANCH  14  16
BRANCH  14  18
ATOM     18  C   UNL A   1      28.108  30.510  21.269  1.00  0.00     0.196 C 
BRANCH  18  19
ATOM     19  O   UNL A   1      29.492  30.558  20.917  1.00  0.00    -0.393 OA
ATOM     20  H   UNL A   1      29.926  29.737  21.195  1.00  0.00     0.210 HD
ENDBRANCH  18  19
ENDBRANCH  14  18
ENDBRANCH  13  14
ENDBRANCH  10  13
ENDBRANCH   9  10
ENDBRANCH   6   9
ENDBRANCH   3   6
ENDBRANCH   1   2
BRANCH   1  21
ATOM     21  C   UNL A   1      31.859  29.892  27.009  1.00  0.00     0.023 C 
BRANCH  21  22
ATOM     22  C   UNL A   1      31.673  31.403  26.847  1.00  0.00     0.023 C 
BRANCH  22  23
ATOM     23  C   UNL A   1      32.952  32.228  26.926  1.00  0.00     0.116 C 
BRANCH  23  24
ATOM     24  N   UNL A   1      32.733  33.576  27.429  1.00  0.00    -0.352 N 
ATOM     25  C   UNL A   1      33.378  34.224  28.455  1.00  0.00     0.251 C 
ATOM     26  H   UNL A   1      32.029  34.091  26.973  1.00  0.00     0.163 HD
ATOM     27  O   UNL A   1      32.975  35.323  28.829  1.00  0.00    -0.269 OA
BRANCH  25  28
ATOM     28  C   UNL A   1      34.526  33.576  29.125  1.00  0.00     0.039 A 
ATOM     29  C   UNL A   1      34.290  32.487  29.967  1.00  0.00     0.014 A 
ATOM     30  C   UNL A   1      35.831  34.027  28.908  1.00  0.00     0.014 A 
ATOM     31  C   UNL A   1      35.369  31.815  30.548  1.00  0.00     0.010 A 
ATOM     32  C   UNL A   1      36.906  33.312  29.426  1.00  0.00     0.010 A 
ATOM     33  C   UNL A   1      36.686  32.203  30.258  1.00  0.00    -0.014 A 
BRANCH  33  34
ATOM     34  C   UNL A   1      37.850  31.488  30.847  1.00  0.00     0.031 A 
ATOM     35  C   UNL A   1      38.283  31.800  32.254  1.00  0.00     0.074 A 
ATOM     36  C   UNL A   1      38.548  30.608  30.100  1.00  0.00     0.049 A 
ATOM     37  N   UNL A   1      39.318  31.357  32.921  1.00  0.00    -0.248 NA
ATOM     38  C   UNL A   1      37.459  32.767  32.995  1.00  0.00     0.031 C 
ATOM     39  C   UNL A   1      38.250  30.253  28.712  1.00  0.00     0.029 A 
ATOM     40  N   UNL A   1      39.659  29.861  30.401  1.00  0.00    -0.354 N 
ATOM     41  C   UNL A   1      39.279  32.004  34.152  1.00  0.00     0.074 A 
ATOM     42  C   UNL A   1      38.157  32.918  34.110  1.00  0.00     0.031 C 
ATOM     43  C   UNL A   1      39.139  29.339  28.291  1.00  0.00     0.029 A 
ATOM     44  C   UNL A   1      40.098  29.077  29.360  1.00  0.00     0.049 A 
ATOM     45  H   UNL A   1      40.101  29.884  31.280  1.00  0.00     0.167 HD
ATOM     46  C   UNL A   1      40.087  31.834  35.228  1.00  0.00     0.034 A 
ATOM     47  C   UNL A   1      41.159  28.248  29.274  1.00  0.00     0.034 A 
ATOM     48  C   UNL A   1      41.190  30.905  35.259  1.00  0.00     0.049 A 
ATOM     49  C   UNL A   1      42.052  28.083  30.479  1.00  0.00     0.074 A 
ATOM     50  C   UNL A   1      42.043  30.614  36.310  1.00  0.00     0.029 A 
ATOM     51  N   UNL A   1      41.595  30.115  34.191  1.00  0.00    -0.354 N 
ATOM     52  N   UNL A   1      41.975  28.668  31.651  1.00  0.00    -0.248 NA
ATOM     53  C   UNL A   1      43.165  27.134  30.352  1.00  0.00     0.031 C 
ATOM     54  C   UNL A   1      43.001  29.699  35.857  1.00  0.00     0.029 A 
ATOM     55  C   UNL A   1      42.699  29.358  34.549  1.00  0.00     0.049 A 
ATOM     56  H   UNL A   1      41.161  30.097  33.306  1.00  0.00     0.167 HD
ATOM     57  C   UNL A   1      43.009  28.128  32.413  1.00  0.00     0.074 A 
ATOM     58  C   UNL A   1      43.685  27.164  31.570  1.00  0.00     0.031 C 
ATOM     59  C   UNL A   1      43.364  28.401  33.696  1.00  0.00     0.034 A 
BRANCH  46  60
ATOM     60  C   UNL A   1      39.814  32.690  36.443  1.00  0.00     0.023 A 
ATOM     61  C   UNL A   1      38.947  32.267  37.465  1.00  0.00     0.031 A 
ATOM     62  C   UNL A   1      40.401  33.963  36.566  1.00  0.00     0.131 A 
ATOM     63  C   UNL A   1      38.623  33.137  38.517  1.00  0.00     0.055 A 
ATOM     64  C   UNL A   1      40.143  34.790  37.661  1.00  0.00     0.041 A 
ATOM     65  F   UNL A   1      41.222  34.432  35.613  1.00  0.00    -0.206 F 
ATOM     66  C   UNL A   1      39.236  34.386  38.636  1.00  0.00     0.022 A 
BRANCH  63  67
ATOM     67  S   UNL A   1      37.274  32.675  39.638  1.00  0.00     0.124 S 
ATOM     68  O   UNL A   1      36.127  32.679  38.735  1.00  0.00    -0.237 OA
ATOM     69  O   UNL A   1      37.702  31.368  40.123  1.00  0.00    -0.237 OA
ATOM     70  O   UNL A   1      37.277  33.742  40.636  1.00  0.00    -0.744 OA
ENDBRANCH  63  67
ENDBRANCH  46  60
BRANCH  47  71
ATOM     71  C   UNL A   1      41.444  27.511  28.009  1.00  0.00     0.023 A 
ATOM     72  C   UNL A   1      41.215  26.129  27.909  1.00  0.00     0.031 A 
ATOM     73  C   UNL A   1      41.997  28.169  26.896  1.00  0.00     0.131 A 
ATOM     74  C   UNL A   1      41.584  25.440  26.743  1.00  0.00     0.055 A 
ATOM     75  C   UNL A   1      42.313  27.488  25.719  1.00  0.00     0.041 A 
ATOM     76  F   UNL A   1      42.232  29.490  26.934  1.00  0.00    -0.206 F 
ATOM     77  C   UNL A   1      42.120  26.112  25.643  1.00  0.00     0.022 A 
BRANCH  74  78
ATOM     78  S   UNL A   1      41.437  23.632  26.721  1.00  0.00     0.124 S 
ATOM     79  O   UNL A   1      39.992  23.453  26.633  1.00  0.00    -0.237 OA
ATOM     80  O   UNL A   1      42.201  23.282  25.528  1.00  0.00    -0.237 OA
ATOM     81  O   UNL A   1      42.041  23.226  27.988  1.00  0.00    -0.744 OA
ENDBRANCH  74  78
ENDBRANCH  47  71
BRANCH  59  82
ATOM     82  C   UNL A   1      44.501  27.598  34.277  1.00  0.00     0.023 A 
ATOM     83  C   UNL A   1      44.297  26.338  34.868  1.00  0.00     0.031 A 
ATOM     84  C   UNL A   1      45.811  28.109  34.246  1.00  0.00     0.131 A 
ATOM     85  C   UNL A   1      45.376  25.659  35.454  1.00  0.00     0.055 A 
ATOM     86  C   UNL A   1      46.890  27.400  34.774  1.00  0.00     0.041 A 
ATOM     87  F   UNL A   1      46.065  29.307  33.695  1.00  0.00    -0.206 F 
ATOM     88  C   UNL A   1      46.673  26.173  35.395  1.00  0.00     0.022 A 
BRANCH  85  89
ATOM     89  S   UNL A   1      45.047  24.132  36.376  1.00  0.00     0.124 S 
ATOM     90  O   UNL A   1      44.036  23.487  35.543  1.00  0.00    -0.237 OA
ATOM     91  O   UNL A   1      46.357  23.491  36.399  1.00  0.00    -0.237 OA
ATOM     92  O   UNL A   1      44.568  24.610  37.672  1.00  0.00    -0.744 OA
ENDBRANCH  85  89
ENDBRANCH  59  82
ENDBRANCH  33  34
ENDBRANCH  25  28
ENDBRANCH  23  24
ENDBRANCH  22  23
ENDBRANCH  21  22
ENDBRANCH   1  21
TORSDOF 21
ENDMDL
MODEL 2
REMARK VINA RESULT:      -9.9      6.678     10.216
REMARK SMILES CC(C)(C[NH2+]C[C@](C)(O)CO)C(=O)NCCCCNC(=O)c1ccc(-c2c3nc(c(-c4cc(S(=O)(=O)[O-])ccc4F)c4ccc([nH]4)c(-c4cc(S(=O)(=O)[O-])ccc4F)c4nc(c(-c5cc(S(=O)(=O)[O-])ccc5F)c5ccc2[nH]5)C=C4)C=C3)cc1
REMARK SMILES IDX 15 1 14 2 12 3 13 4 2 6 1 7 3 8 4 9 5 10 6 13 7 14 8 15 9 16
REMARK SMILES IDX 10 18 11 19 16 21 17 22 18 23 19 24 20 25 21 27 22 28 23 29
REMARK SMILES IDX 84 30 24 31 83 32 25 33 26 34 27 35 77 36 28 37 82 38 76 39
REMARK SMILES IDX 78 40 29 41 81 42 75 43 74 44 30 46 62 47 42 48 61 49 43 50
REMARK SMILES IDX 46 51 60 52 79 53 44 54 45 55 59 57 80 58 47 59 31 60 32 61
REMARK SMILES IDX 40 62 33 63 39 64 41 65 38 66 34 67 35 68 36 69 37 70 63 71
REMARK SMILES IDX 64 72 72 73 65 74 71 75 73 76 70 77 66 78 67 79 68 80 69 81
REMARK SMILES IDX 48 82 49 83 57 84 50 85 56 86 58 87 55 88 51 89 52 90 53 91
REMARK SMILES IDX 54 92
REMARK H PARENT 14 5 5 11 5 12 9 17 11 20 19 26 78 45 46 56
REMARK Flexibility Score: inf
ROOT
ATOM      1  C   UNL A   1      37.988  23.565  26.076  1.00  0.00     0.116 C 
ENDROOT
BRANCH   1   2
ATOM      2  N   UNL A   1      37.665  23.457  24.668  1.00  0.00    -0.355 N 
ATOM      3  C   UNL A   1      36.570  22.994  24.008  1.00  0.00     0.231 C 
ATOM      4  O   UNL A   1      36.634  23.025  22.774  1.00  0.00    -0.274 OA
ATOM      5  H   UNL A   1      38.378  23.783  24.072  1.00  0.00     0.163 HD
BRANCH   3   6
ATOM      6  C   UNL A   1      35.287  22.525  24.723  1.00  0.00     0.092 C 
ATOM      7  C   UNL A   1      34.158  22.387  23.669  1.00  0.00     0.027 C 
ATOM      8  C   UNL A   1      34.819  23.613  25.711  1.00  0.00     0.027 C 
BRANCH   6   9
ATOM      9  C   UNL A   1      35.447  21.172  25.460  1.00  0.00     0.277 C 
BRANCH   9  10
ATOM     10  N   UNL A   1      34.331  20.241  25.286  1.00  0.00    -0.343 N 
ATOM     11  H   UNL A   1      33.627  20.695  24.703  1.00  0.00     0.346 HD
ATOM     12  H   UNL A   1      33.996  20.016  26.222  1.00  0.00     0.346 HD
BRANCH  10  13
ATOM     13  C   UNL A   1      34.686  18.957  24.655  1.00  0.00     0.298 C 
BRANCH  13  14
ATOM     14  C   UNL A   1      33.530  17.965  24.328  1.00  0.00     0.133 C 
ATOM     15  C   UNL A   1      33.967  16.941  23.269  1.00  0.00     0.051 C 
BRANCH  14  16
ATOM     16  O   UNL A   1      32.407  18.684  23.775  1.00  0.00    -0.382 OA
ATOM     17  H   UNL A   1      31.670  18.070  23.628  1.00  0.00     0.211 HD
ENDBRANCH  14  16
BRANCH  14  18
ATOM     18  C   UNL A   1      33.041  17.208  25.584  1.00  0.00     0.196 C 
BRANCH  18  19
ATOM     19  O   UNL A   1      32.521  18.134  26.541  1.00  0.00    -0.393 OA
ATOM     20  H   UNL A   1      32.204  17.652  27.319  1.00  0.00     0.210 HD
ENDBRANCH  18  19
ENDBRANCH  14  18
ENDBRANCH  13  14
ENDBRANCH  10  13
ENDBRANCH   9  10
ENDBRANCH   6   9
ENDBRANCH   3   6
ENDBRANCH   1   2
BRANCH   1  21
ATOM     21  C   UNL A   1      39.264  22.805  26.430  1.00  0.00     0.023 C 
BRANCH  21  22
ATOM     22  C   UNL A   1      39.307  21.359  25.933  1.00  0.00     0.023 C 
BRANCH  22  23
ATOM     23  C   UNL A   1      39.992  20.369  26.869  1.00  0.00     0.116 C 
BRANCH  23  24
ATOM     24  N   UNL A   1      40.968  19.527  26.195  1.00  0.00    -0.352 N 
ATOM     25  C   UNL A   1      42.233  19.853  25.769  1.00  0.00     0.251 C 
ATOM     26  H   UNL A   1      40.684  18.601  26.021  1.00  0.00     0.163 HD
ATOM     27  O   UNL A   1      42.876  19.048  25.100  1.00  0.00    -0.269 OA
BRANCH  25  28
ATOM     28  C   UNL A   1      42.793  21.185  26.085  1.00  0.00     0.039 A 
ATOM     29  C   UNL A   1      42.766  22.180  25.104  1.00  0.00     0.014 A 
ATOM     30  C   UNL A   1      43.324  21.458  27.348  1.00  0.00     0.014 A 
ATOM     31  C   UNL A   1      43.221  23.465  25.409  1.00  0.00     0.010 A 
ATOM     32  C   UNL A   1      43.705  22.756  27.674  1.00  0.00     0.010 A 
ATOM     33  C   UNL A   1      43.666  23.772  26.705  1.00  0.00    -0.014 A 
BRANCH  33  34
ATOM     34  C   UNL A   1      44.132  25.139  27.059  1.00  0.00     0.031 A 
ATOM     35  C   UNL A   1      43.164  26.126  27.655  1.00  0.00     0.074 A 
ATOM     36  C   UNL A   1      45.401  25.508  26.793  1.00  0.00     0.049 A 
ATOM     37  N   UNL A   1      43.343  27.387  27.952  1.00  0.00    -0.248 NA
ATOM     38  C   UNL A   1      41.804  25.633  27.917  1.00  0.00     0.031 C 
ATOM     39  C   UNL A   1      46.421  24.653  26.181  1.00  0.00     0.029 A 
ATOM     40  N   UNL A   1      46.048  26.702  26.992  1.00  0.00    -0.354 N 
ATOM     41  C   UNL A   1      42.115  27.843  28.419  1.00  0.00     0.074 A 
ATOM     42  C   UNL A   1      41.186  26.739  28.301  1.00  0.00     0.031 C 
ATOM     43  C   UNL A   1      47.568  25.342  26.078  1.00  0.00     0.029 A 
ATOM     44  C   UNL A   1      47.358  26.699  26.573  1.00  0.00     0.049 A 
ATOM     45  H   UNL A   1      45.614  27.487  27.397  1.00  0.00     0.167 HD
ATOM     46  C   UNL A   1      41.797  29.061  28.925  1.00  0.00     0.034 A 
ATOM     47  C   UNL A   1      48.281  27.683  26.578  1.00  0.00     0.034 A 
ATOM     48  C   UNL A   1      42.740  30.144  29.053  1.00  0.00     0.049 A 
ATOM     49  C   UNL A   1      47.902  29.033  27.133  1.00  0.00     0.074 A 
ATOM     50  C   UNL A   1      42.542  31.402  29.595  1.00  0.00     0.029 A 
ATOM     51  N   UNL A   1      44.064  30.100  28.632  1.00  0.00    -0.354 N 
ATOM     52  N   UNL A   1      46.748  29.435  27.614  1.00  0.00    -0.248 NA
ATOM     53  C   UNL A   1      48.955  30.056  27.161  1.00  0.00     0.031 C 
ATOM     54  C   UNL A   1      43.723  32.137  29.444  1.00  0.00     0.029 A 
ATOM     55  C   UNL A   1      44.684  31.314  28.880  1.00  0.00     0.049 A 
ATOM     56  H   UNL A   1      44.498  29.318  28.218  1.00  0.00     0.167 HD
ATOM     57  C   UNL A   1      46.949  30.748  28.034  1.00  0.00     0.074 A 
ATOM     58  C   UNL A   1      48.336  31.062  27.761  1.00  0.00     0.031 C 
ATOM     59  C   UNL A   1      46.069  31.613  28.600  1.00  0.00     0.034 A 
BRANCH  46  60
ATOM     60  C   UNL A   1      40.364  29.282  29.351  1.00  0.00     0.023 A 
ATOM     61  C   UNL A   1      39.996  29.333  30.707  1.00  0.00     0.031 A 
ATOM     62  C   UNL A   1      39.344  29.409  28.390  1.00  0.00     0.131 A 
ATOM     63  C   UNL A   1      38.642  29.418  31.065  1.00  0.00     0.055 A 
ATOM     64  C   UNL A   1      38.007  29.582  28.753  1.00  0.00     0.041 A 
ATOM     65  F   UNL A   1      39.629  29.348  27.079  1.00  0.00    -0.206 F 
ATOM     66  C   UNL A   1      37.647  29.569  30.097  1.00  0.00     0.022 A 
BRANCH  63  67
ATOM     67  S   UNL A   1      38.190  29.170  32.804  1.00  0.00     0.124 S 
ATOM     68  O   UNL A   1      37.648  27.814  32.776  1.00  0.00    -0.237 OA
ATOM     69  O   UNL A   1      39.467  29.335  33.488  1.00  0.00    -0.237 OA
ATOM     70  O   UNL A   1      37.207  30.222  33.056  1.00  0.00    -0.744 OA
ENDBRANCH  63  67
ENDBRANCH  46  60
BRANCH  47  71
ATOM     71  C   UNL A   1      49.651  27.439  26.040  1.00  0.00     0.023 A 
ATOM     72  C   UNL A   1      50.011  27.874  24.754  1.00  0.00     0.031 A 
ATOM     73  C   UNL A   1      50.606  26.724  26.784  1.00  0.00     0.131 A 
ATOM     74  C   UNL A   1      51.271  27.546  24.230  1.00  0.00     0.055 A 
ATOM     75  C   UNL A   1      51.878  26.447  26.281  1.00  0.00     0.041 A 
ATOM     76  F   UNL A   1      50.317  26.290  28.021  1.00  0.00    -0.206 F 
ATOM     77  C   UNL A   1      52.212  26.847  24.990  1.00  0.00     0.022 A 
BRANCH  74  78
ATOM     78  S   UNL A   1      51.631  27.970  22.504  1.00  0.00     0.124 S 
ATOM     79  O   UNL A   1      50.891  26.940  21.784  1.00  0.00    -0.237 OA
ATOM     80  O   UNL A   1      51.101  29.327  22.410  1.00  0.00    -0.237 OA
ATOM     81  O   UNL A   1      53.087  27.865  22.425  1.00  0.00    -0.744 OA
ENDBRANCH  74  78
ENDBRANCH  47  71
BRANCH  59  82
ATOM     82  C   UNL A   1      46.603  32.962  29.014  1.00  0.00     0.023 A 
ATOM     83  C   UNL A   1      47.139  33.190  30.294  1.00  0.00     0.031 A 
ATOM     84  C   UNL A   1      46.566  34.041  28.112  1.00  0.00     0.131 A 
ATOM     85  C   UNL A   1      47.564  34.478  30.654  1.00  0.00     0.055 A 
ATOM     86  C   UNL A   1      47.047  35.304  28.455  1.00  0.00     0.041 A 
ATOM     87  F   UNL A   1      46.064  33.881  26.876  1.00  0.00    -0.206 F 
ATOM     88  C   UNL A   1      47.538  35.532  29.738  1.00  0.00     0.022 A 
BRANCH  85  89
ATOM     89  S   UNL A   1      48.068  34.780  32.371  1.00  0.00     0.124 S 
ATOM     90  O   UNL A   1      48.194  33.423  32.893  1.00  0.00    -0.237 OA
ATOM     91  O   UNL A   1      49.316  35.518  32.205  1.00  0.00    -0.237 OA
ATOM     92  O   UNL A   1      46.958  35.556  32.923  1.00  0.00    -0.744 OA
ENDBRANCH  85  89
ENDBRANCH  59  82
ENDBRANCH  33  34
ENDBRANCH  25  28
ENDBRANCH  23  24
ENDBRANCH  22  23
ENDBRANCH  21  22
ENDBRANCH   1  21
TORSDOF 21
ENDMDL
MODEL 3
REMARK VINA RESULT:      -9.7      6.698     11.784
REMARK SMILES CC(C)(C[NH2+]C[C@](C)(O)CO)C(=O)NCCCCNC(=O)c1ccc(-c2c3nc(c(-c4cc(S(=O)(=O)[O-])ccc4F)c4ccc([nH]4)c(-c4cc(S(=O)(=O)[O-])ccc4F)c4nc(c(-c5cc(S(=O)(=O)[O-])ccc5F)c5ccc2[nH]5)C=C4)C=C3)cc1
REMARK SMILES IDX 15 1 14 2 12 3 13 4 2 6 1 7 3 8 4 9 5 10 6 13 7 14 8 15 9 16
REMARK SMILES IDX 10 18 11 19 16 21 17 22 18 23 19 24 20 25 21 27 22 28 23 29
REMARK SMILES IDX 84 30 24 31 83 32 25 33 26 34 27 35 77 36 28 37 82 38 76 39
REMARK SMILES IDX 78 40 29 41 81 42 75 43 74 44 30 46 62 47 42 48 61 49 43 50
REMARK SMILES IDX 46 51 60 52 79 53 44 54 45 55 59 57 80 58 47 59 31 60 32 61
REMARK SMILES IDX 40 62 33 63 39 64 41 65 38 66 34 67 35 68 36 69 37 70 63 71
REMARK SMILES IDX 64 72 72 73 65 74 71 75 73 76 70 77 66 78 67 79 68 80 69 81
REMARK SMILES IDX 48 82 49 83 57 84 50 85 56 86 58 87 55 88 51 89 52 90 53 91
REMARK SMILES IDX 54 92
REMARK H PARENT 14 5 5 11 5 12 9 17 11 20 19 26 78 45 46 56
REMARK Flexibility Score: inf
ROOT
ATOM      1  C   UNL A   1      38.125  23.375  26.169  1.00  0.00     0.116 C 
ENDROOT
BRANCH   1   2
ATOM      2  N   UNL A   1      37.745  23.478  24.774  1.00  0.00    -0.355 N 
ATOM      3  C   UNL A   1      36.645  23.068  24.087  1.00  0.00     0.231 C 
ATOM      4  O   UNL A   1      36.654  23.301  22.873  1.00  0.00    -0.274 OA
ATOM      5  H   UNL A   1      38.414  23.935  24.215  1.00  0.00     0.163 HD
BRANCH   3   6
ATOM      6  C   UNL A   1      35.420  22.419  24.762  1.00  0.00     0.092 C 
ATOM      7  C   UNL A   1      34.244  22.420  23.751  1.00  0.00     0.027 C 
ATOM      8  C   UNL A   1      34.963  23.289  25.950  1.00  0.00     0.027 C 
BRANCH   6   9
ATOM      9  C   UNL A   1      35.670  20.964  25.233  1.00  0.00     0.277 C 
BRANCH   9  10
ATOM     10  N   UNL A   1      34.462  20.149  25.376  1.00  0.00    -0.343 N 
ATOM     11  H   UNL A   1      33.667  20.701  25.054  1.00  0.00     0.346 HD
ATOM     12  H   UNL A   1      34.404  19.893  26.361  1.00  0.00     0.346 HD
BRANCH  10  13
ATOM     13  C   UNL A   1      34.476  18.883  24.621  1.00  0.00     0.298 C 
BRANCH  13  14
ATOM     14  C   UNL A   1      33.194  17.999  24.665  1.00  0.00     0.133 C 
ATOM     15  C   UNL A   1      32.650  17.745  23.251  1.00  0.00     0.051 C 
BRANCH  14  16
ATOM     16  O   UNL A   1      32.152  18.680  25.397  1.00  0.00    -0.382 OA
ATOM     17  H   UNL A   1      32.550  19.248  26.075  1.00  0.00     0.211 HD
ENDBRANCH  14  16
BRANCH  14  18
ATOM     18  C   UNL A   1      33.450  16.638  25.353  1.00  0.00     0.196 C 
BRANCH  18  19
ATOM     19  O   UNL A   1      34.853  16.439  25.534  1.00  0.00    -0.393 OA
ATOM     20  H   UNL A   1      35.087  15.534  25.277  1.00  0.00     0.210 HD
ENDBRANCH  18  19
ENDBRANCH  14  18
ENDBRANCH  13  14
ENDBRANCH  10  13
ENDBRANCH   9  10
ENDBRANCH   6   9
ENDBRANCH   3   6
ENDBRANCH   1   2
BRANCH   1  21
ATOM     21  C   UNL A   1      39.438  22.618  26.350  1.00  0.00     0.023 C 
BRANCH  21  22
ATOM     22  C   UNL A   1      39.402  21.156  25.897  1.00  0.00     0.023 C 
BRANCH  22  23
ATOM     23  C   UNL A   1      40.079  20.166  26.837  1.00  0.00     0.116 C 
BRANCH  23  24
ATOM     24  N   UNL A   1      41.131  19.394  26.194  1.00  0.00    -0.352 N 
ATOM     25  C   UNL A   1      42.366  19.818  25.765  1.00  0.00     0.251 C 
ATOM     26  H   UNL A   1      40.931  18.442  26.047  1.00  0.00     0.163 HD
ATOM     27  O   UNL A   1      43.083  19.053  25.124  1.00  0.00    -0.269 OA
BRANCH  25  28
ATOM     28  C   UNL A   1      42.803  21.203  26.045  1.00  0.00     0.039 A 
ATOM     29  C   UNL A   1      42.881  22.114  24.988  1.00  0.00     0.014 A 
ATOM     30  C   UNL A   1      43.118  21.608  27.345  1.00  0.00     0.014 A 
ATOM     31  C   UNL A   1      43.219  23.445  25.244  1.00  0.00     0.010 A 
ATOM     32  C   UNL A   1      43.380  22.948  27.609  1.00  0.00     0.010 A 
ATOM     33  C   UNL A   1      43.441  23.880  26.560  1.00  0.00    -0.014 A 
BRANCH  33  34
ATOM     34  C   UNL A   1      43.779  25.297  26.860  1.00  0.00     0.031 A 
ATOM     35  C   UNL A   1      45.175  25.801  26.604  1.00  0.00     0.074 A 
ATOM     36  C   UNL A   1      42.855  26.107  27.413  1.00  0.00     0.049 A 
ATOM     37  N   UNL A   1      45.697  26.969  26.875  1.00  0.00    -0.248 NA
ATOM     38  C   UNL A   1      46.113  24.849  25.992  1.00  0.00     0.031 C 
ATOM     39  C   UNL A   1      41.482  25.723  27.745  1.00  0.00     0.029 A 
ATOM     40  N   UNL A   1      42.934  27.420  27.805  1.00  0.00    -0.354 N 
ATOM     41  C   UNL A   1      47.030  26.886  26.484  1.00  0.00     0.074 A 
ATOM     42  C   UNL A   1      47.247  25.532  26.021  1.00  0.00     0.031 C 
ATOM     43  C   UNL A   1      40.842  26.782  28.266  1.00  0.00     0.029 A 
ATOM     44  C   UNL A   1      41.768  27.908  28.349  1.00  0.00     0.049 A 
ATOM     45  H   UNL A   1      43.749  27.963  27.706  1.00  0.00     0.167 HD
ATOM     46  C   UNL A   1      47.978  27.856  26.486  1.00  0.00     0.034 A 
ATOM     47  C   UNL A   1      41.482  29.120  28.865  1.00  0.00     0.034 A 
ATOM     48  C   UNL A   1      47.739  29.206  26.934  1.00  0.00     0.049 A 
ATOM     49  C   UNL A   1      42.555  30.181  28.869  1.00  0.00     0.074 A 
ATOM     50  C   UNL A   1      48.609  30.282  26.935  1.00  0.00     0.029 A 
ATOM     51  N   UNL A   1      46.540  29.667  27.464  1.00  0.00    -0.354 N 
ATOM     52  N   UNL A   1      43.798  30.100  28.453  1.00  0.00    -0.248 NA
ATOM     53  C   UNL A   1      42.181  31.499  29.397  1.00  0.00     0.031 C 
ATOM     54  C   UNL A   1      47.959  31.373  27.523  1.00  0.00     0.029 A 
ATOM     55  C   UNL A   1      46.657  31.002  27.818  1.00  0.00     0.049 A 
ATOM     56  H   UNL A   1      45.726  29.124  27.574  1.00  0.00     0.167 HD
ATOM     57  C   UNL A   1      44.342  31.369  28.637  1.00  0.00     0.074 A 
ATOM     58  C   UNL A   1      43.288  32.196  29.188  1.00  0.00     0.031 C 
ATOM     59  C   UNL A   1      45.597  31.813  28.368  1.00  0.00     0.034 A 
BRANCH  46  60
ATOM     60  C   UNL A   1      49.361  27.475  26.010  1.00  0.00     0.023 A 
ATOM     61  C   UNL A   1      50.393  27.162  26.912  1.00  0.00     0.031 A 
ATOM     62  C   UNL A   1      49.663  27.457  24.637  1.00  0.00     0.131 A 
ATOM     63  C   UNL A   1      51.693  26.931  26.440  1.00  0.00     0.055 A 
ATOM     64  C   UNL A   1      50.939  27.140  24.167  1.00  0.00     0.041 A 
ATOM     65  F   UNL A   1      48.726  27.767  23.726  1.00  0.00    -0.206 F 
ATOM     66  C   UNL A   1      51.968  26.892  25.071  1.00  0.00     0.022 A 
BRANCH  63  67
ATOM     67  S   UNL A   1      53.047  26.839  27.643  1.00  0.00     0.124 S 
ATOM     68  O   UNL A   1      53.808  28.043  27.322  1.00  0.00    -0.237 OA
ATOM     69  O   UNL A   1      52.338  26.851  28.917  1.00  0.00    -0.237 OA
ATOM     70  O   UNL A   1      53.714  25.581  27.313  1.00  0.00    -0.744 OA
ENDBRANCH  63  67
ENDBRANCH  46  60
BRANCH  47  71
ATOM     71  C   UNL A   1      40.129  29.406  29.425  1.00  0.00     0.023 A 
ATOM     72  C   UNL A   1      39.900  29.381  30.810  1.00  0.00     0.031 A 
ATOM     73  C   UNL A   1      39.033  29.659  28.580  1.00  0.00     0.131 A 
ATOM     74  C   UNL A   1      38.599  29.554  31.308  1.00  0.00     0.055 A 
ATOM     75  C   UNL A   1      37.751  29.884  29.083  1.00  0.00     0.041 A 
ATOM     76  F   UNL A   1      39.197  29.700  27.249  1.00  0.00    -0.206 F 
ATOM     77  C   UNL A   1      37.525  29.818  30.455  1.00  0.00     0.022 A 
BRANCH  74  78
ATOM     78  S   UNL A   1      38.315  29.338  33.086  1.00  0.00     0.124 S 
ATOM     79  O   UNL A   1      37.402  28.201  33.106  1.00  0.00    -0.237 OA
ATOM     80  O   UNL A   1      39.665  29.087  33.580  1.00  0.00    -0.237 OA
ATOM     81  O   UNL A   1      37.732  30.615  33.494  1.00  0.00    -0.744 OA
ENDBRANCH  74  78
ENDBRANCH  47  71
BRANCH  59  82
ATOM     82  C   UNL A   1      45.874  33.276  28.615  1.00  0.00     0.023 A 
ATOM     83  C   UNL A   1      46.361  33.743  29.849  1.00  0.00     0.031 A 
ATOM     84  C   UNL A   1      45.638  34.218  27.598  1.00  0.00     0.131 A 
ATOM     85  C   UNL A   1      46.542  35.120  30.052  1.00  0.00     0.055 A 
ATOM     86  C   UNL A   1      45.878  35.579  27.786  1.00  0.00     0.041 A 
ATOM     87  F   UNL A   1      45.172  33.828  26.400  1.00  0.00    -0.206 F 
ATOM     88  C   UNL A   1      46.320  36.039  29.023  1.00  0.00     0.022 A 
BRANCH  85  89
ATOM     89  S   UNL A   1      46.983  35.705  31.711  1.00  0.00     0.124 S 
ATOM     90  O   UNL A   1      46.454  34.641  32.559  1.00  0.00    -0.237 OA
ATOM     91  O   UNL A   1      48.437  35.795  31.634  1.00  0.00    -0.237 OA
ATOM     92  O   UNL A   1      46.288  36.987  31.819  1.00  0.00    -0.744 OA
ENDBRANCH  85  89
ENDBRANCH  59  82
ENDBRANCH  33  34
ENDBRANCH  25  28
ENDBRANCH  23  24
ENDBRANCH  22  23
ENDBRANCH  21  22
ENDBRANCH   1  21
TORSDOF 21
ENDMDL
