MODEL 1
REMARK VINA RESULT:     -11.2      0.000      0.000
REMARK SMILES C[C@H](O)C[C@@H](Cc1cccc(Br)c1)C(=O)NCCCCNC(=O)c1ccc(-c2c3nc(c(-c4cc(S(=O)(=O)[O-])ccc4F)c4ccc([nH]4)c(-c4cc(S(=O)(=O)[O-])ccc4F)c4nc(c(-c5cc(S(=O)(=O)[O-])ccc5F)c5ccc2[nH]5)C=C4)C=C3)cc1
REMARK SMILES IDX 18 1 17 2 16 3 14 4 15 5 5 7 4 8 2 9 1 10 3 11 6 13 7 14
REMARK SMILES IDX 8 15 13 16 9 17 11 18 10 19 12 20 19 21 20 22 21 23 22 24
REMARK SMILES IDX 23 26 24 27 25 28 86 29 26 30 85 31 27 32 28 33 29 34 79 35
REMARK SMILES IDX 30 36 84 37 78 38 80 39 31 40 83 41 77 42 76 43 32 45 64 46
REMARK SMILES IDX 44 47 63 48 45 49 48 50 62 51 81 52 46 53 47 54 61 56 82 57
REMARK SMILES IDX 49 58 33 59 34 60 42 61 35 62 41 63 43 64 40 65 36 66 37 67
REMARK SMILES IDX 38 68 39 69 65 70 66 71 74 72 67 73 73 74 75 75 72 76 68 77
REMARK SMILES IDX 69 78 70 79 71 80 50 81 51 82 59 83 52 84 58 85 60 86 57 87
REMARK SMILES IDX 53 88 54 89 55 90 56 91
REMARK H PARENT 16 6 3 12 21 25 80 44 48 55
REMARK Flexibility Score: inf
ROOT
ATOM      1  C   UNL A   1      30.940  29.916  24.229  1.00  0.00     0.023 C 
ENDROOT
BRANCH   1   2
ATOM      2  C   UNL A   1      31.181  28.976  23.057  1.00  0.00     0.116 C 
BRANCH   2   3
ATOM      3  N   UNL A   1      32.525  28.999  22.533  1.00  0.00    -0.356 N 
ATOM      4  C   UNL A   1      33.416  27.978  22.396  1.00  0.00     0.223 C 
ATOM      5  O   UNL A   1      34.438  28.206  21.741  1.00  0.00    -0.275 OA
ATOM      6  H   UNL A   1      32.844  29.880  22.231  1.00  0.00     0.163 HD
BRANCH   4   7
ATOM      7  C   UNL A   1      33.220  26.599  23.044  1.00  0.00     0.085 C 
BRANCH   7   8
ATOM      8  C   UNL A   1      33.853  25.468  22.209  1.00  0.00     0.045 C 
BRANCH   8   9
ATOM      9  C   UNL A   1      32.858  24.397  21.746  1.00  0.00     0.112 C 
ATOM     10  C   UNL A   1      33.165  23.051  22.389  1.00  0.00     0.038 C 
BRANCH   9  11
ATOM     11  O   UNL A   1      32.904  24.263  20.331  1.00  0.00    -0.393 OA
ATOM     12  H   UNL A   1      32.002  24.202  19.982  1.00  0.00     0.210 HD
ENDBRANCH   9  11
ENDBRANCH   8   9
ENDBRANCH   7   8
BRANCH   7  13
ATOM     13  C   UNL A   1      33.385  26.575  24.584  1.00  0.00     0.049 C 
BRANCH  13  14
ATOM     14  C   UNL A   1      33.273  25.284  25.369  1.00  0.00    -0.046 A 
ATOM     15  C   UNL A   1      34.397  24.541  25.761  1.00  0.00     0.004 A 
ATOM     16  C   UNL A   1      32.002  24.781  25.698  1.00  0.00     0.019 A 
ATOM     17  C   UNL A   1      34.264  23.399  26.558  1.00  0.00     0.001 A 
ATOM     18  C   UNL A   1      31.873  23.616  26.459  1.00  0.00     0.018 A 
ATOM     19  C   UNL A   1      33.000  22.938  26.914  1.00  0.00     0.016 A 
ATOM     20  Br  UNL A   1      30.153  22.956  26.877  1.00  0.00    -0.051 Br
ENDBRANCH  13  14
ENDBRANCH   7  13
ENDBRANCH   4   7
ENDBRANCH   2   3
ENDBRANCH   1   2
BRANCH   1  21
ATOM     21  C   UNL A   1      31.395  29.394  25.585  1.00  0.00     0.023 C 
BRANCH  21  22
ATOM     22  C   UNL A   1      32.588  30.108  26.214  1.00  0.00     0.116 C 
BRANCH  22  23
ATOM     23  N   UNL A   1      32.318  31.473  26.651  1.00  0.00    -0.352 N 
ATOM     24  C   UNL A   1      33.141  32.325  27.356  1.00  0.00     0.251 C 
ATOM     25  H   UNL A   1      31.434  31.833  26.410  1.00  0.00     0.163 HD
ATOM     26  O   UNL A   1      32.742  33.439  27.686  1.00  0.00    -0.269 OA
BRANCH  24  27
ATOM     27  C   UNL A   1      34.485  31.853  27.758  1.00  0.00     0.039 A 
ATOM     28  C   UNL A   1      35.494  32.790  27.988  1.00  0.00     0.014 A 
ATOM     29  C   UNL A   1      34.708  30.498  28.012  1.00  0.00     0.014 A 
ATOM     30  C   UNL A   1      36.691  32.381  28.582  1.00  0.00     0.010 A 
ATOM     31  C   UNL A   1      35.866  30.108  28.678  1.00  0.00     0.010 A 
ATOM     32  C   UNL A   1      36.862  31.048  28.990  1.00  0.00    -0.014 A 
BRANCH  32  33
ATOM     33  C   UNL A   1      38.053  30.618  29.771  1.00  0.00     0.031 A 
ATOM     34  C   UNL A   1      39.019  29.624  29.187  1.00  0.00     0.074 A 
ATOM     35  C   UNL A   1      38.211  31.045  31.042  1.00  0.00     0.049 A 
ATOM     36  N   UNL A   1      40.043  29.035  29.748  1.00  0.00    -0.248 NA
ATOM     37  C   UNL A   1      38.772  29.209  27.798  1.00  0.00     0.031 C 
ATOM     38  C   UNL A   1      37.312  31.962  31.746  1.00  0.00     0.029 A 
ATOM     39  N   UNL A   1      39.175  30.751  31.974  1.00  0.00    -0.354 N 
ATOM     40  C   UNL A   1      40.550  28.163  28.791  1.00  0.00     0.074 A 
ATOM     41  C   UNL A   1      39.681  28.260  27.637  1.00  0.00     0.031 C 
ATOM     42  C   UNL A   1      37.780  32.174  32.987  1.00  0.00     0.029 A 
ATOM     43  C   UNL A   1      38.985  31.375  33.185  1.00  0.00     0.049 A 
ATOM     44  H   UNL A   1      39.932  30.149  31.793  1.00  0.00     0.167 HD
ATOM     45  C   UNL A   1      41.651  27.372  28.857  1.00  0.00     0.034 A 
ATOM     46  C   UNL A   1      39.692  31.304  34.331  1.00  0.00     0.034 A 
ATOM     47  C   UNL A   1      42.522  27.303  30.005  1.00  0.00     0.049 A 
ATOM     48  C   UNL A   1      40.915  30.426  34.381  1.00  0.00     0.074 A 
ATOM     49  C   UNL A   1      43.698  26.587  30.155  1.00  0.00     0.029 A 
ATOM     50  N   UNL A   1      42.313  27.973  31.204  1.00  0.00    -0.354 N 
ATOM     51  N   UNL A   1      41.411  29.646  33.447  1.00  0.00    -0.248 NA
ATOM     52  C   UNL A   1      41.681  30.426  35.634  1.00  0.00     0.031 C 
ATOM     53  C   UNL A   1      44.169  26.782  31.458  1.00  0.00     0.029 A 
ATOM     54  C   UNL A   1      43.324  27.670  32.104  1.00  0.00     0.049 A 
ATOM     55  H   UNL A   1      41.556  28.577  31.388  1.00  0.00     0.167 HD
ATOM     56  C   UNL A   1      42.562  29.087  33.993  1.00  0.00     0.074 A 
ATOM     57  C   UNL A   1      42.692  29.626  35.332  1.00  0.00     0.031 C 
ATOM     58  C   UNL A   1      43.435  28.208  33.438  1.00  0.00     0.034 A 
BRANCH  45  59
ATOM     59  C   UNL A   1      41.952  26.508  27.657  1.00  0.00     0.023 A 
ATOM     60  C   UNL A   1      41.526  25.170  27.588  1.00  0.00     0.031 A 
ATOM     61  C   UNL A   1      42.709  27.013  26.585  1.00  0.00     0.131 A 
ATOM     62  C   UNL A   1      41.933  24.358  26.519  1.00  0.00     0.055 A 
ATOM     63  C   UNL A   1      43.040  26.224  25.481  1.00  0.00     0.041 A 
ATOM     64  F   UNL A   1      43.160  28.278  26.602  1.00  0.00    -0.206 F 
ATOM     65  C   UNL A   1      42.667  24.883  25.452  1.00  0.00     0.022 A 
BRANCH  62  66
ATOM     66  S   UNL A   1      41.619  22.576  26.619  1.00  0.00     0.124 S 
ATOM     67  O   UNL A   1      40.158  22.534  26.611  1.00  0.00    -0.237 OA
ATOM     68  O   UNL A   1      42.278  22.071  25.421  1.00  0.00    -0.237 OA
ATOM     69  O   UNL A   1      42.239  22.189  27.884  1.00  0.00    -0.744 OA
ENDBRANCH  62  66
ENDBRANCH  45  59
BRANCH  46  70
ATOM     70  C   UNL A   1      39.268  32.079  35.531  1.00  0.00     0.023 A 
ATOM     71  C   UNL A   1      38.548  31.465  36.569  1.00  0.00     0.031 A 
ATOM     72  C   UNL A   1      39.540  33.453  35.639  1.00  0.00     0.131 A 
ATOM     73  C   UNL A   1      38.086  32.233  37.649  1.00  0.00     0.055 A 
ATOM     74  C   UNL A   1      39.117  34.205  36.738  1.00  0.00     0.041 A 
ATOM     75  F   UNL A   1      40.233  34.086  34.679  1.00  0.00    -0.206 F 
ATOM     76  C   UNL A   1      38.374  33.596  37.745  1.00  0.00     0.022 A 
BRANCH  73  77
ATOM     77  S   UNL A   1      37.034  31.435  38.894  1.00  0.00     0.124 S 
ATOM     78  O   UNL A   1      36.907  30.086  38.355  1.00  0.00    -0.237 OA
ATOM     79  O   UNL A   1      37.841  31.570  40.102  1.00  0.00    -0.237 OA
ATOM     80  O   UNL A   1      35.813  32.237  38.870  1.00  0.00    -0.744 OA
ENDBRANCH  73  77
ENDBRANCH  46  70
BRANCH  58  81
ATOM     81  C   UNL A   1      44.634  27.820  34.267  1.00  0.00     0.023 A 
ATOM     82  C   UNL A   1      44.598  26.730  35.152  1.00  0.00     0.031 A 
ATOM     83  C   UNL A   1      45.823  28.565  34.176  1.00  0.00     0.131 A 
ATOM     84  C   UNL A   1      45.716  26.443  35.950  1.00  0.00     0.055 A 
ATOM     85  C   UNL A   1      46.950  28.242  34.934  1.00  0.00     0.041 A 
ATOM     86  F   UNL A   1      45.909  29.616  33.347  1.00  0.00    -0.206 F 
ATOM     87  C   UNL A   1      46.895  27.184  35.837  1.00  0.00     0.022 A 
BRANCH  84  88
ATOM     88  S   UNL A   1      45.582  25.136  37.202  1.00  0.00     0.124 S 
ATOM     89  O   UNL A   1      44.137  25.042  37.389  1.00  0.00    -0.237 OA
ATOM     90  O   UNL A   1      46.214  24.002  36.537  1.00  0.00    -0.237 OA
ATOM     91  O   UNL A   1      46.321  25.676  38.342  1.00  0.00    -0.744 OA
ENDBRANCH  84  88
ENDBRANCH  58  81
ENDBRANCH  32  33
ENDBRANCH  24  27
ENDBRANCH  22  23
ENDBRANCH  21  22
ENDBRANCH   1  21
TORSDOF 19
ENDMDL
MODEL 2
REMARK VINA RESULT:     -11.0      2.240      2.891
REMARK SMILES C[C@H](O)C[C@@H](Cc1cccc(Br)c1)C(=O)NCCCCNC(=O)c1ccc(-c2c3nc(c(-c4cc(S(=O)(=O)[O-])ccc4F)c4ccc([nH]4)c(-c4cc(S(=O)(=O)[O-])ccc4F)c4nc(c(-c5cc(S(=O)(=O)[O-])ccc5F)c5ccc2[nH]5)C=C4)C=C3)cc1
REMARK SMILES IDX 18 1 17 2 16 3 14 4 15 5 5 7 4 8 2 9 1 10 3 11 6 13 7 14
REMARK SMILES IDX 8 15 13 16 9 17 11 18 10 19 12 20 19 21 20 22 21 23 22 24
REMARK SMILES IDX 23 26 24 27 25 28 86 29 26 30 85 31 27 32 28 33 29 34 79 35
REMARK SMILES IDX 30 36 84 37 78 38 80 39 31 40 83 41 77 42 76 43 32 45 64 46
REMARK SMILES IDX 44 47 63 48 45 49 48 50 62 51 81 52 46 53 47 54 61 56 82 57
REMARK SMILES IDX 49 58 33 59 34 60 42 61 35 62 41 63 43 64 40 65 36 66 37 67
REMARK SMILES IDX 38 68 39 69 65 70 66 71 74 72 67 73 73 74 75 75 72 76 68 77
REMARK SMILES IDX 69 78 70 79 71 80 50 81 51 82 59 83 52 84 58 85 60 86 57 87
REMARK SMILES IDX 53 88 54 89 55 90 56 91
REMARK H PARENT 16 6 3 12 21 25 80 44 48 55
REMARK Flexibility Score: inf
ROOT
ATOM      1  C   UNL A   1      32.848  29.765  26.739  1.00  0.00     0.023 C 
ENDROOT
BRANCH   1   2
ATOM      2  C   UNL A   1      32.343  29.073  25.482  1.00  0.00     0.116 C 
BRANCH   2   3
ATOM      3  N   UNL A   1      33.213  29.193  24.337  1.00  0.00    -0.356 N 
ATOM      4  C   UNL A   1      33.693  28.221  23.513  1.00  0.00     0.223 C 
ATOM      5  O   UNL A   1      34.267  28.589  22.482  1.00  0.00    -0.275 OA
ATOM      6  H   UNL A   1      33.501  30.109  24.122  1.00  0.00     0.163 HD
BRANCH   4   7
ATOM      7  C   UNL A   1      33.586  26.721  23.828  1.00  0.00     0.085 C 
BRANCH   7   8
ATOM      8  C   UNL A   1      33.899  25.843  22.601  1.00  0.00     0.045 C 
BRANCH   8   9
ATOM      9  C   UNL A   1      32.657  25.299  21.885  1.00  0.00     0.112 C 
ATOM     10  C   UNL A   1      31.574  24.915  22.886  1.00  0.00     0.038 C 
BRANCH   9  11
ATOM     11  O   UNL A   1      32.999  24.161  21.104  1.00  0.00    -0.393 OA
ATOM     12  H   UNL A   1      32.246  23.913  20.546  1.00  0.00     0.210 HD
ENDBRANCH   9  11
ENDBRANCH   8   9
ENDBRANCH   7   8
BRANCH   7  13
ATOM     13  C   UNL A   1      34.150  26.306  25.209  1.00  0.00     0.049 C 
BRANCH  13  14
ATOM     14  C   UNL A   1      34.308  24.848  25.591  1.00  0.00    -0.046 A 
ATOM     15  C   UNL A   1      33.274  24.110  26.186  1.00  0.00     0.004 A 
ATOM     16  C   UNL A   1      35.538  24.204  25.375  1.00  0.00     0.019 A 
ATOM     17  C   UNL A   1      33.422  22.743  26.449  1.00  0.00     0.001 A 
ATOM     18  C   UNL A   1      35.695  22.849  25.677  1.00  0.00     0.018 A 
ATOM     19  C   UNL A   1      34.633  22.109  26.189  1.00  0.00     0.016 A 
ATOM     20  Br  UNL A   1      37.365  22.012  25.389  1.00  0.00    -0.051 Br
ENDBRANCH  13  14
ENDBRANCH   7  13
ENDBRANCH   4   7
ENDBRANCH   2   3
ENDBRANCH   1   2
BRANCH   1  21
ATOM     21  C   UNL A   1      32.320  31.177  26.959  1.00  0.00     0.023 C 
BRANCH  21  22
ATOM     22  C   UNL A   1      33.316  32.185  27.528  1.00  0.00     0.116 C 
BRANCH  22  23
ATOM     23  N   UNL A   1      32.787  33.532  27.699  1.00  0.00    -0.352 N 
ATOM     24  C   UNL A   1      33.217  34.519  28.561  1.00  0.00     0.251 C 
ATOM     25  H   UNL A   1      32.023  33.769  27.124  1.00  0.00     0.163 HD
ATOM     26  O   UNL A   1      32.629  35.596  28.613  1.00  0.00    -0.269 OA
BRANCH  24  27
ATOM     27  C   UNL A   1      34.358  34.236  29.459  1.00  0.00     0.039 A 
ATOM     28  C   UNL A   1      34.133  33.534  30.645  1.00  0.00     0.014 A 
ATOM     29  C   UNL A   1      35.658  34.568  29.072  1.00  0.00     0.014 A 
ATOM     30  C   UNL A   1      35.222  33.065  31.385  1.00  0.00     0.010 A 
ATOM     31  C   UNL A   1      36.739  34.030  29.764  1.00  0.00     0.010 A 
ATOM     32  C   UNL A   1      36.533  33.254  30.917  1.00  0.00    -0.014 A 
BRANCH  32  33
ATOM     33  C   UNL A   1      37.701  32.626  31.593  1.00  0.00     0.031 A 
ATOM     34  C   UNL A   1      38.419  31.476  30.942  1.00  0.00     0.074 A 
ATOM     35  C   UNL A   1      38.051  33.025  32.833  1.00  0.00     0.049 A 
ATOM     36  N   UNL A   1      39.375  30.720  31.417  1.00  0.00    -0.248 NA
ATOM     37  C   UNL A   1      37.972  31.105  29.591  1.00  0.00     0.031 C 
ATOM     38  C   UNL A   1      37.397  34.089  33.599  1.00  0.00     0.029 A 
ATOM     39  N   UNL A   1      39.036  32.572  33.677  1.00  0.00    -0.354 N 
ATOM     40  C   UNL A   1      39.629  29.769  30.435  1.00  0.00     0.074 A 
ATOM     41  C   UNL A   1      38.683  30.011  29.365  1.00  0.00     0.031 C 
ATOM     42  C   UNL A   1      38.012  34.221  34.786  1.00  0.00     0.029 A 
ATOM     43  C   UNL A   1      39.073  33.225  34.887  1.00  0.00     0.049 A 
ATOM     44  H   UNL A   1      39.656  31.846  33.438  1.00  0.00     0.167 HD
ATOM     45  C   UNL A   1      40.577  28.799  30.414  1.00  0.00     0.034 A 
ATOM     46  C   UNL A   1      39.865  33.037  35.962  1.00  0.00     0.034 A 
ATOM     47  C   UNL A   1      41.529  28.584  31.476  1.00  0.00     0.049 A 
ATOM     48  C   UNL A   1      40.916  31.959  35.916  1.00  0.00     0.074 A 
ATOM     49  C   UNL A   1      42.572  27.675  31.530  1.00  0.00     0.029 A 
ATOM     50  N   UNL A   1      41.555  29.286  32.674  1.00  0.00    -0.354 N 
ATOM     51  N   UNL A   1      41.177  31.101  34.957  1.00  0.00    -0.248 NA
ATOM     52  C   UNL A   1      41.787  31.831  37.092  1.00  0.00     0.031 C 
ATOM     53  C   UNL A   1      43.193  27.790  32.779  1.00  0.00     0.029 A 
ATOM     54  C   UNL A   1      42.580  28.815  33.482  1.00  0.00     0.049 A 
ATOM     55  H   UNL A   1      40.936  30.013  32.916  1.00  0.00     0.167 HD
ATOM     56  C   UNL A   1      42.261  30.352  35.404  1.00  0.00     0.074 A 
ATOM     57  C   UNL A   1      42.611  30.866  36.713  1.00  0.00     0.031 C 
ATOM     58  C   UNL A   1      42.912  29.332  34.788  1.00  0.00     0.034 A 
BRANCH  45  59
ATOM     59  C   UNL A   1      40.607  27.890  29.209  1.00  0.00     0.023 A 
ATOM     60  C   UNL A   1      41.550  28.063  28.181  1.00  0.00     0.031 A 
ATOM     61  C   UNL A   1      39.658  26.863  29.065  1.00  0.00     0.131 A 
ATOM     62  C   UNL A   1      41.470  27.285  27.017  1.00  0.00     0.055 A 
ATOM     63  C   UNL A   1      39.636  26.034  27.941  1.00  0.00     0.041 A 
ATOM     64  F   UNL A   1      38.722  26.661  30.005  1.00  0.00    -0.206 F 
ATOM     65  C   UNL A   1      40.534  26.254  26.900  1.00  0.00     0.022 A 
BRANCH  62  66
ATOM     66  S   UNL A   1      42.506  27.740  25.600  1.00  0.00     0.124 S 
ATOM     67  O   UNL A   1      42.371  26.561  24.747  1.00  0.00    -0.237 OA
ATOM     68  O   UNL A   1      41.861  28.955  25.115  1.00  0.00    -0.237 OA
ATOM     69  O   UNL A   1      43.830  27.926  26.189  1.00  0.00    -0.744 OA
ENDBRANCH  62  66
ENDBRANCH  45  59
BRANCH  46  70
ATOM     70  C   UNL A   1      39.699  33.880  37.180  1.00  0.00     0.023 A 
ATOM     71  C   UNL A   1      38.996  33.402  38.298  1.00  0.00     0.031 A 
ATOM     72  C   UNL A   1      40.205  35.190  37.229  1.00  0.00     0.131 A 
ATOM     73  C   UNL A   1      38.779  34.243  39.400  1.00  0.00     0.055 A 
ATOM     74  C   UNL A   1      40.025  36.008  38.347  1.00  0.00     0.041 A 
ATOM     75  F   UNL A   1      40.893  35.692  36.191  1.00  0.00    -0.206 F 
ATOM     76  C   UNL A   1      39.297  35.540  39.437  1.00  0.00     0.022 A 
BRANCH  73  77
ATOM     77  S   UNL A   1      37.740  33.641  40.761  1.00  0.00     0.124 S 
ATOM     78  O   UNL A   1      38.674  32.792  41.494  1.00  0.00    -0.237 OA
ATOM     79  O   UNL A   1      37.352  34.884  41.418  1.00  0.00    -0.237 OA
ATOM     80  O   UNL A   1      36.659  32.936  40.076  1.00  0.00    -0.744 OA
ENDBRANCH  73  77
ENDBRANCH  46  70
BRANCH  58  81
ATOM     81  C   UNL A   1      44.099  28.745  35.509  1.00  0.00     0.023 A 
ATOM     82  C   UNL A   1      43.959  27.687  36.423  1.00  0.00     0.031 A 
ATOM     83  C   UNL A   1      45.386  29.264  35.284  1.00  0.00     0.131 A 
ATOM     84  C   UNL A   1      45.082  27.214  37.118  1.00  0.00     0.055 A 
ATOM     85  C   UNL A   1      46.507  28.753  35.940  1.00  0.00     0.041 A 
ATOM     86  F   UNL A   1      45.574  30.275  34.422  1.00  0.00    -0.206 F 
ATOM     87  C   UNL A   1      46.357  27.730  36.871  1.00  0.00     0.022 A 
BRANCH  84  88
ATOM     88  S   UNL A   1      44.844  25.964  38.412  1.00  0.00     0.124 S 
ATOM     89  O   UNL A   1      43.833  26.592  39.258  1.00  0.00    -0.237 OA
ATOM     90  O   UNL A   1      44.404  24.803  37.647  1.00  0.00    -0.237 OA
ATOM     91  O   UNL A   1      46.169  25.841  39.017  1.00  0.00    -0.744 OA
ENDBRANCH  84  88
ENDBRANCH  58  81
ENDBRANCH  32  33
ENDBRANCH  24  27
ENDBRANCH  22  23
ENDBRANCH  21  22
ENDBRANCH   1  21
TORSDOF 19
ENDMDL
MODEL 3
REMARK VINA RESULT:     -10.9      1.700      2.044
REMARK SMILES C[C@H](O)C[C@@H](Cc1cccc(Br)c1)C(=O)NCCCCNC(=O)c1ccc(-c2c3nc(c(-c4cc(S(=O)(=O)[O-])ccc4F)c4ccc([nH]4)c(-c4cc(S(=O)(=O)[O-])ccc4F)c4nc(c(-c5cc(S(=O)(=O)[O-])ccc5F)c5ccc2[nH]5)C=C4)C=C3)cc1
REMARK SMILES IDX 18 1 17 2 16 3 14 4 15 5 5 7 4 8 2 9 1 10 3 11 6 13 7 14
REMARK SMILES IDX 8 15 13 16 9 17 11 18 10 19 12 20 19 21 20 22 21 23 22 24
REMARK SMILES IDX 23 26 24 27 25 28 86 29 26 30 85 31 27 32 28 33 29 34 79 35
REMARK SMILES IDX 30 36 84 37 78 38 80 39 31 40 83 41 77 42 76 43 32 45 64 46
REMARK SMILES IDX 44 47 63 48 45 49 48 50 62 51 81 52 46 53 47 54 61 56 82 57
REMARK SMILES IDX 49 58 33 59 34 60 42 61 35 62 41 63 43 64 40 65 36 66 37 67
REMARK SMILES IDX 38 68 39 69 65 70 66 71 74 72 67 73 73 74 75 75 72 76 68 77
REMARK SMILES IDX 69 78 70 79 71 80 50 81 51 82 59 83 52 84 58 85 60 86 57 87
REMARK SMILES IDX 53 88 54 89 55 90 56 91
REMARK H PARENT 16 6 3 12 21 25 80 44 48 55
REMARK Flexibility Score: inf
ROOT
ATOM      1  C   UNL A   1      31.222  29.767  24.502  1.00  0.00     0.023 C 
ENDROOT
BRANCH   1   2
ATOM      2  C   UNL A   1      31.091  29.030  23.177  1.00  0.00     0.116 C 
BRANCH   2   3
ATOM      3  N   UNL A   1      32.341  28.792  22.496  1.00  0.00    -0.356 N 
ATOM      4  C   UNL A   1      33.085  27.653  22.431  1.00  0.00     0.223 C 
ATOM      5  O   UNL A   1      34.021  27.637  21.625  1.00  0.00    -0.275 OA
ATOM      6  H   UNL A   1      32.707  29.563  22.006  1.00  0.00     0.163 HD
BRANCH   4   7
ATOM      7  C   UNL A   1      32.835  26.433  23.330  1.00  0.00     0.085 C 
BRANCH   7   8
ATOM      8  C   UNL A   1      32.053  25.322  22.602  1.00  0.00     0.045 C 
BRANCH   8   9
ATOM      9  C   UNL A   1      30.638  25.091  23.146  1.00  0.00     0.112 C 
ATOM     10  C   UNL A   1      30.510  25.611  24.573  1.00  0.00     0.038 C 
BRANCH   9  11
ATOM     11  O   UNL A   1      30.322  23.704  23.122  1.00  0.00    -0.393 OA
ATOM     12  H   UNL A   1      30.169  23.392  24.027  1.00  0.00     0.210 HD
ENDBRANCH   9  11
ENDBRANCH   8   9
ENDBRANCH   7   8
BRANCH   7  13
ATOM     13  C   UNL A   1      34.028  26.037  24.236  1.00  0.00     0.049 C 
BRANCH  13  14
ATOM     14  C   UNL A   1      34.367  24.585  24.504  1.00  0.00    -0.046 A 
ATOM     15  C   UNL A   1      35.058  23.790  23.577  1.00  0.00     0.004 A 
ATOM     16  C   UNL A   1      33.956  23.989  25.708  1.00  0.00     0.019 A 
ATOM     17  C   UNL A   1      35.430  22.478  23.889  1.00  0.00     0.001 A 
ATOM     18  C   UNL A   1      34.294  22.664  25.998  1.00  0.00     0.018 A 
ATOM     19  C   UNL A   1      35.053  21.914  25.104  1.00  0.00     0.016 A 
ATOM     20  Br  UNL A   1      33.716  21.883  27.619  1.00  0.00    -0.051 Br
ENDBRANCH  13  14
ENDBRANCH   7  13
ENDBRANCH   4   7
ENDBRANCH   2   3
ENDBRANCH   1   2
BRANCH   1  21
ATOM     21  C   UNL A   1      31.645  28.906  25.685  1.00  0.00     0.023 C 
BRANCH  21  22
ATOM     22  C   UNL A   1      32.621  29.549  26.668  1.00  0.00     0.116 C 
BRANCH  22  23
ATOM     23  N   UNL A   1      32.387  30.966  26.918  1.00  0.00    -0.352 N 
ATOM     24  C   UNL A   1      33.261  31.901  27.429  1.00  0.00     0.251 C 
ATOM     25  H   UNL A   1      31.487  31.298  26.693  1.00  0.00     0.163 HD
ATOM     26  O   UNL A   1      32.890  33.057  27.620  1.00  0.00    -0.269 OA
BRANCH  24  27
ATOM     27  C   UNL A   1      34.630  31.477  27.795  1.00  0.00     0.039 A 
ATOM     28  C   UNL A   1      35.613  32.449  27.994  1.00  0.00     0.014 A 
ATOM     29  C   UNL A   1      34.906  30.131  28.048  1.00  0.00     0.014 A 
ATOM     30  C   UNL A   1      36.839  32.082  28.557  1.00  0.00     0.010 A 
ATOM     31  C   UNL A   1      36.094  29.783  28.684  1.00  0.00     0.010 A 
ATOM     32  C   UNL A   1      37.066  30.758  28.964  1.00  0.00    -0.014 A 
BRANCH  32  33
ATOM     33  C   UNL A   1      38.292  30.371  29.715  1.00  0.00     0.031 A 
ATOM     34  C   UNL A   1      39.248  29.368  29.130  1.00  0.00     0.074 A 
ATOM     35  C   UNL A   1      38.492  30.846  30.961  1.00  0.00     0.049 A 
ATOM     36  N   UNL A   1      40.301  28.812  29.673  1.00  0.00    -0.248 NA
ATOM     37  C   UNL A   1      38.954  28.900  27.768  1.00  0.00     0.031 C 
ATOM     38  C   UNL A   1      37.609  31.778  31.666  1.00  0.00     0.029 A 
ATOM     39  N   UNL A   1      39.495  30.599  31.866  1.00  0.00    -0.354 N 
ATOM     40  C   UNL A   1      40.783  27.912  28.729  1.00  0.00     0.074 A 
ATOM     41  C   UNL A   1      39.869  27.956  27.606  1.00  0.00     0.031 C 
ATOM     42  C   UNL A   1      38.121  32.041  32.879  1.00  0.00     0.029 A 
ATOM     43  C   UNL A   1      39.342  31.265  33.060  1.00  0.00     0.049 A 
ATOM     44  H   UNL A   1      40.253  30.000  31.678  1.00  0.00     0.167 HD
ATOM     45  C   UNL A   1      41.896  27.138  28.781  1.00  0.00     0.034 A 
ATOM     46  C   UNL A   1      40.094  31.244  34.180  1.00  0.00     0.034 A 
ATOM     47  C   UNL A   1      42.811  27.122  29.896  1.00  0.00     0.049 A 
ATOM     48  C   UNL A   1      41.330  30.384  34.214  1.00  0.00     0.074 A 
ATOM     49  C   UNL A   1      44.001  26.426  30.026  1.00  0.00     0.029 A 
ATOM     50  N   UNL A   1      42.638  27.833  31.077  1.00  0.00    -0.354 N 
ATOM     51  N   UNL A   1      41.800  29.577  33.291  1.00  0.00    -0.248 NA
ATOM     52  C   UNL A   1      42.143  30.439  35.437  1.00  0.00     0.031 C 
ATOM     53  C   UNL A   1      44.519  26.674  31.303  1.00  0.00     0.029 A 
ATOM     54  C   UNL A   1      43.687  27.575  31.948  1.00  0.00     0.049 A 
ATOM     55  H   UNL A   1      41.881  28.434  31.268  1.00  0.00     0.167 HD
ATOM     56  C   UNL A   1      42.978  29.052  33.813  1.00  0.00     0.074 A 
ATOM     57  C   UNL A   1      43.153  29.641  35.124  1.00  0.00     0.031 C 
ATOM     58  C   UNL A   1      43.842  28.164  33.256  1.00  0.00     0.034 A 
BRANCH  45  59
ATOM     59  C   UNL A   1      42.163  26.234  27.602  1.00  0.00     0.023 A 
ATOM     60  C   UNL A   1      41.682  24.913  27.564  1.00  0.00     0.031 A 
ATOM     61  C   UNL A   1      42.941  26.681  26.521  1.00  0.00     0.131 A 
ATOM     62  C   UNL A   1      42.057  24.060  26.515  1.00  0.00     0.055 A 
ATOM     63  C   UNL A   1      43.241  25.854  25.437  1.00  0.00     0.041 A 
ATOM     64  F   UNL A   1      43.444  27.926  26.509  1.00  0.00    -0.206 F 
ATOM     65  C   UNL A   1      42.812  24.529  25.438  1.00  0.00     0.022 A 
BRANCH  62  66
ATOM     66  S   UNL A   1      41.669  22.295  26.657  1.00  0.00     0.124 S 
ATOM     67  O   UNL A   1      42.333  21.949  27.912  1.00  0.00    -0.237 OA
ATOM     68  O   UNL A   1      40.211  22.293  26.685  1.00  0.00    -0.237 OA
ATOM     69  O   UNL A   1      42.272  21.714  25.460  1.00  0.00    -0.744 OA
ENDBRANCH  62  66
ENDBRANCH  45  59
BRANCH  46  70
ATOM     70  C   UNL A   1      39.705  32.058  35.366  1.00  0.00     0.023 A 
ATOM     71  C   UNL A   1      38.887  31.521  36.373  1.00  0.00     0.031 A 
ATOM     72  C   UNL A   1      40.113  33.397  35.491  1.00  0.00     0.131 A 
ATOM     73  C   UNL A   1      38.464  32.332  37.437  1.00  0.00     0.055 A 
ATOM     74  C   UNL A   1      39.726  34.187  36.576  1.00  0.00     0.041 A 
ATOM     75  F   UNL A   1      40.904  33.957  34.561  1.00  0.00    -0.206 F 
ATOM     76  C   UNL A   1      38.886  33.658  37.552  1.00  0.00     0.022 A 
BRANCH  73  77
ATOM     77  S   UNL A   1      37.288  31.645  38.637  1.00  0.00     0.124 S 
ATOM     78  O   UNL A   1      38.058  31.703  39.875  1.00  0.00    -0.237 OA
ATOM     79  O   UNL A   1      36.171  32.577  38.532  1.00  0.00    -0.237 OA
ATOM     80  O   UNL A   1      37.027  30.302  38.125  1.00  0.00    -0.744 OA
ENDBRANCH  73  77
ENDBRANCH  46  70
BRANCH  58  81
ATOM     81  C   UNL A   1      45.076  27.822  34.052  1.00  0.00     0.023 A 
ATOM     82  C   UNL A   1      46.259  28.572  33.940  1.00  0.00     0.031 A 
ATOM     83  C   UNL A   1      45.069  26.718  34.922  1.00  0.00     0.131 A 
ATOM     84  C   UNL A   1      47.403  28.180  34.651  1.00  0.00     0.055 A 
ATOM     85  C   UNL A   1      46.195  26.364  35.667  1.00  0.00     0.041 A 
ATOM     86  F   UNL A   1      43.966  25.967  35.064  1.00  0.00    -0.206 F 
ATOM     87  C   UNL A   1      47.374  27.089  35.524  1.00  0.00     0.022 A 
BRANCH  84  88
ATOM     88  S   UNL A   1      48.958  29.067  34.358  1.00  0.00     0.124 S 
ATOM     89  O   UNL A   1      49.729  28.732  35.552  1.00  0.00    -0.237 OA
ATOM     90  O   UNL A   1      49.426  28.474  33.110  1.00  0.00    -0.237 OA
ATOM     91  O   UNL A   1      48.542  30.465  34.261  1.00  0.00    -0.744 OA
ENDBRANCH  84  88
ENDBRANCH  58  81
ENDBRANCH  32  33
ENDBRANCH  24  27
ENDBRANCH  22  23
ENDBRANCH  21  22
ENDBRANCH   1  21
TORSDOF 19
ENDMDL
