MODEL 1
REMARK VINA RESULT:     -12.1      0.000      0.000
REMARK SMILES N#C/C(=C\c1ccc(-c2cc(C(=O)NCCCCNC(=O)c3ccc(-c4c5nc(c(-c6cc(S(=O)(=O)[O-])ccc6F)c6ccc([nH]6)c(-c6cc(S(=O)(=O)[O-])ccc6F)c6nc(c(-c7cc(S(=O)(=O)[O-])ccc7F)c7ccc4[nH]7)C=C6)C=C5)cc3)ccc2Cl)o1)C(=O)N1CCOCC1
REMARK SMILES IDX 16 1 15 2 14 3 12 4 13 5 11 7 9 8 10 9 87 10 86 11 88 12
REMARK SMILES IDX 85 13 8 14 5 15 6 16 89 17 7 18 4 19 3 20 2 21 1 22 90 23
REMARK SMILES IDX 91 24 92 25 93 26 97 27 94 28 96 29 95 30 17 31 18 32 19 33
REMARK SMILES IDX 20 34 21 36 22 37 23 38 84 39 24 40 83 41 25 42 26 43 27 44
REMARK SMILES IDX 77 45 28 46 82 47 76 48 78 49 29 50 81 51 75 52 74 53 30 55
REMARK SMILES IDX 62 56 42 57 61 58 43 59 46 60 60 61 79 62 44 63 45 64 59 66
REMARK SMILES IDX 80 67 47 68 31 69 32 70 40 71 33 72 39 73 41 74 38 75 34 76
REMARK SMILES IDX 35 77 36 78 37 79 63 80 64 81 72 82 65 83 71 84 73 85 70 86
REMARK SMILES IDX 66 87 67 88 68 89 69 90 48 91 49 92 57 93 50 94 56 95 58 96
REMARK SMILES IDX 55 97 51 98 52 99 53 100 54 101
REMARK H PARENT 14 6 19 35 78 54 46 65
REMARK Flexibility Score: inf
ROOT
ATOM      1  C   UNL A   1      31.631  29.379  25.578  1.00  0.00     0.023 C 
ENDROOT
BRANCH   1   2
ATOM      2  C   UNL A   1      30.805  30.337  24.715  1.00  0.00     0.116 C 
BRANCH   2   3
ATOM      3  N   UNL A   1      30.590  29.789  23.389  1.00  0.00    -0.352 N 
ATOM      4  C   UNL A   1      30.433  28.509  22.920  1.00  0.00     0.251 C 
ATOM      5  O   UNL A   1      30.219  28.374  21.714  1.00  0.00    -0.269 OA
ATOM      6  H   UNL A   1      30.550  30.474  22.683  1.00  0.00     0.163 HD
BRANCH   4   7
ATOM      7  C   UNL A   1      30.472  27.284  23.776  1.00  0.00     0.040 A 
ATOM      8  C   UNL A   1      31.883  25.525  24.764  1.00  0.00     0.037 A 
ATOM      9  C   UNL A   1      31.732  26.683  23.979  1.00  0.00     0.027 A 
ATOM     10  C   UNL A   1      30.741  24.957  25.347  1.00  0.00     0.052 A 
ATOM     11  C   UNL A   1      29.494  25.561  25.181  1.00  0.00     0.022 A 
ATOM     12  Cl  UNL A   1      30.798  23.527  26.321  1.00  0.00    -0.084 Cl
ATOM     13  C   UNL A   1      29.367  26.727  24.422  1.00  0.00     0.015 A 
BRANCH   8  14
ATOM     14  C   UNL A   1      33.203  24.935  24.931  1.00  0.00     0.136 A 
ATOM     15  C   UNL A   1      34.674  23.275  24.704  1.00  0.00     0.129 A 
ATOM     16  C   UNL A   1      35.337  24.386  25.223  1.00  0.00     0.051 A 
ATOM     17  O   UNL A   1      33.359  23.649  24.503  1.00  0.00    -0.457 OA
ATOM     18  C   UNL A   1      34.395  25.420  25.408  1.00  0.00     0.051 A 
BRANCH  15  19
ATOM     19  C   UNL A   1      35.161  21.964  24.382  1.00  0.00     0.072 C 
ATOM     20  C   UNL A   1      35.225  20.943  25.273  1.00  0.00     0.121 C 
BRANCH  20  21
ATOM     21  C   UNL A   1      34.402  21.164  26.532  1.00  0.00     0.105 C 
ATOM     22  N   UNL A   1      33.720  21.347  27.576  1.00  0.00    -0.192 NA
ENDBRANCH  20  21
BRANCH  20  23
ATOM     23  C   UNL A   1      35.601  19.567  24.855  1.00  0.00     0.264 C 
ATOM     24  O   UNL A   1      36.790  19.250  24.876  1.00  0.00    -0.268 OA
ATOM     25  N   UNL A   1      34.614  18.655  24.509  1.00  0.00    -0.333 N 
ATOM     26  C   UNL A   1      33.221  18.912  24.105  1.00  0.00     0.148 C 
ATOM     27  C   UNL A   1      34.934  17.224  24.535  1.00  0.00     0.148 C 
ATOM     28  C   UNL A   1      32.256  18.118  24.999  1.00  0.00     0.181 C 
ATOM     29  C   UNL A   1      33.929  16.495  25.437  1.00  0.00     0.181 C 
ATOM     30  O   UNL A   1      32.580  16.718  24.986  1.00  0.00    -0.378 OA
ENDBRANCH  20  23
ENDBRANCH  15  19
ENDBRANCH   8  14
ENDBRANCH   4   7
ENDBRANCH   2   3
ENDBRANCH   1   2
BRANCH   1  31
ATOM     31  C   UNL A   1      33.106  29.767  25.727  1.00  0.00     0.023 C 
BRANCH  31  32
ATOM     32  C   UNL A   1      33.640  29.759  27.156  1.00  0.00     0.116 C 
BRANCH  32  33
ATOM     33  N   UNL A   1      33.600  31.066  27.794  1.00  0.00    -0.352 N 
ATOM     34  C   UNL A   1      34.535  31.647  28.622  1.00  0.00     0.251 C 
ATOM     35  H   UNL A   1      32.798  31.606  27.611  1.00  0.00     0.163 HD
ATOM     36  O   UNL A   1      34.296  32.717  29.157  1.00  0.00    -0.269 OA
BRANCH  34  37
ATOM     37  C   UNL A   1      35.804  30.932  28.888  1.00  0.00     0.039 A 
ATOM     38  C   UNL A   1      36.984  31.434  28.334  1.00  0.00     0.014 A 
ATOM     39  C   UNL A   1      35.831  29.802  29.709  1.00  0.00     0.014 A 
ATOM     40  C   UNL A   1      38.205  30.844  28.665  1.00  0.00     0.010 A 
ATOM     41  C   UNL A   1      37.054  29.256  30.087  1.00  0.00     0.010 A 
ATOM     42  C   UNL A   1      38.254  29.776  29.576  1.00  0.00    -0.014 A 
BRANCH  42  43
ATOM     43  C   UNL A   1      39.548  29.193  30.014  1.00  0.00     0.031 A 
ATOM     44  C   UNL A   1      40.316  29.829  31.138  1.00  0.00     0.074 A 
ATOM     45  C   UNL A   1      40.061  28.139  29.350  1.00  0.00     0.049 A 
ATOM     46  N   UNL A   1      41.501  29.530  31.603  1.00  0.00    -0.248 NA
ATOM     47  C   UNL A   1      39.677  30.974  31.803  1.00  0.00     0.031 C 
ATOM     48  C   UNL A   1      39.426  27.464  28.215  1.00  0.00     0.029 A 
ATOM     49  N   UNL A   1      41.239  27.457  29.522  1.00  0.00    -0.354 N 
ATOM     50  C   UNL A   1      41.759  30.459  32.607  1.00  0.00     0.074 A 
ATOM     51  C   UNL A   1      40.629  31.365  32.637  1.00  0.00     0.031 C 
ATOM     52  C   UNL A   1      40.213  26.455  27.806  1.00  0.00     0.029 A 
ATOM     53  C   UNL A   1      41.425  26.436  28.619  1.00  0.00     0.049 A 
ATOM     54  H   UNL A   1      41.890  27.679  30.226  1.00  0.00     0.167 HD
ATOM     55  C   UNL A   1      42.826  30.533  33.440  1.00  0.00     0.034 A 
ATOM     56  C   UNL A   1      42.460  25.589  28.456  1.00  0.00     0.034 A 
ATOM     57  C   UNL A   1      43.937  29.613  33.404  1.00  0.00     0.049 A 
ATOM     58  C   UNL A   1      43.644  25.700  29.383  1.00  0.00     0.074 A 
ATOM     59  C   UNL A   1      45.044  29.563  34.233  1.00  0.00     0.029 A 
ATOM     60  N   UNL A   1      44.086  28.583  32.483  1.00  0.00    -0.354 N 
ATOM     61  N   UNL A   1      43.850  26.554  30.359  1.00  0.00    -0.248 NA
ATOM     62  C   UNL A   1      44.726  24.727  29.194  1.00  0.00     0.031 C 
ATOM     63  C   UNL A   1      45.888  28.542  33.779  1.00  0.00     0.029 A 
ATOM     64  C   UNL A   1      45.278  27.910  32.708  1.00  0.00     0.049 A 
ATOM     65  H   UNL A   1      43.439  28.364  31.774  1.00  0.00     0.167 HD
ATOM     66  C   UNL A   1      45.075  26.200  30.919  1.00  0.00     0.074 A 
ATOM     67  C   UNL A   1      45.552  25.049  30.180  1.00  0.00     0.031 C 
ATOM     68  C   UNL A   1      45.742  26.769  31.954  1.00  0.00     0.034 A 
BRANCH  55  69
ATOM     69  C   UNL A   1      42.845  31.665  34.440  1.00  0.00     0.023 A 
ATOM     70  C   UNL A   1      42.169  31.573  35.669  1.00  0.00     0.031 A 
ATOM     71  C   UNL A   1      43.515  32.867  34.147  1.00  0.00     0.131 A 
ATOM     72  C   UNL A   1      42.105  32.686  36.520  1.00  0.00     0.055 A 
ATOM     73  C   UNL A   1      43.519  33.943  35.037  1.00  0.00     0.041 A 
ATOM     74  F   UNL A   1      44.162  33.021  32.981  1.00  0.00    -0.206 F 
ATOM     75  C   UNL A   1      42.798  33.863  36.225  1.00  0.00     0.022 A 
BRANCH  72  76
ATOM     76  S   UNL A   1      40.983  32.623  37.943  1.00  0.00     0.124 S 
ATOM     77  O   UNL A   1      41.789  31.895  38.921  1.00  0.00    -0.237 OA
ATOM     78  O   UNL A   1      40.755  34.035  38.228  1.00  0.00    -0.237 OA
ATOM     79  O   UNL A   1      39.824  31.892  37.434  1.00  0.00    -0.744 OA
ENDBRANCH  72  76
ENDBRANCH  55  69
BRANCH  56  80
ATOM     80  C   UNL A   1      42.437  24.566  27.373  1.00  0.00     0.023 A 
ATOM     81  C   UNL A   1      41.673  23.396  27.502  1.00  0.00     0.031 A 
ATOM     82  C   UNL A   1      43.210  24.724  26.209  1.00  0.00     0.131 A 
ATOM     83  C   UNL A   1      41.731  22.408  26.506  1.00  0.00     0.055 A 
ATOM     84  C   UNL A   1      43.227  23.762  25.198  1.00  0.00     0.041 A 
ATOM     85  F   UNL A   1      43.953  25.830  26.032  1.00  0.00    -0.206 F 
ATOM     86  C   UNL A   1      42.494  22.588  25.351  1.00  0.00     0.022 A 
BRANCH  83  87
ATOM     87  S   UNL A   1      40.852  20.846  26.782  1.00  0.00     0.124 S 
ATOM     88  O   UNL A   1      40.792  20.791  28.237  1.00  0.00    -0.237 OA
ATOM     89  O   UNL A   1      39.587  21.086  26.095  1.00  0.00    -0.237 OA
ATOM     90  O   UNL A   1      41.720  19.852  26.153  1.00  0.00    -0.744 OA
ENDBRANCH  83  87
ENDBRANCH  56  80
BRANCH  68  91
ATOM     91  C   UNL A   1      47.038  26.120  32.370  1.00  0.00     0.023 A 
ATOM     92  C   UNL A   1      47.083  25.123  33.360  1.00  0.00     0.031 A 
ATOM     93  C   UNL A   1      48.249  26.516  31.773  1.00  0.00     0.131 A 
ATOM     94  C   UNL A   1      48.319  24.592  33.761  1.00  0.00     0.055 A 
ATOM     95  C   UNL A   1      49.468  25.945  32.136  1.00  0.00     0.041 A 
ATOM     96  F   UNL A   1      48.262  27.466  30.824  1.00  0.00    -0.206 F 
ATOM     97  C   UNL A   1      49.509  24.985  33.144  1.00  0.00     0.022 A 
BRANCH  94  98
ATOM     98  S   UNL A   1      48.359  23.437  35.159  1.00  0.00     0.124 S 
ATOM     99  O   UNL A   1      48.012  22.173  34.518  1.00  0.00    -0.237 OA
ATOM    100  O   UNL A   1      49.736  23.560  35.626  1.00  0.00    -0.237 OA
ATOM    101  O   UNL A   1      47.347  23.968  36.070  1.00  0.00    -0.744 OA
ENDBRANCH  94  98
ENDBRANCH  68  91
ENDBRANCH  42  43
ENDBRANCH  34  37
ENDBRANCH  32  33
ENDBRANCH  31  32
ENDBRANCH   1  31
TORSDOF 18
ENDMDL
MODEL 2
REMARK VINA RESULT:     -11.6      4.737      9.965
REMARK SMILES N#C/C(=C\c1ccc(-c2cc(C(=O)NCCCCNC(=O)c3ccc(-c4c5nc(c(-c6cc(S(=O)(=O)[O-])ccc6F)c6ccc([nH]6)c(-c6cc(S(=O)(=O)[O-])ccc6F)c6nc(c(-c7cc(S(=O)(=O)[O-])ccc7F)c7ccc4[nH]7)C=C6)C=C5)cc3)ccc2Cl)o1)C(=O)N1CCOCC1
REMARK SMILES IDX 16 1 15 2 14 3 12 4 13 5 11 7 9 8 10 9 87 10 86 11 88 12
REMARK SMILES IDX 85 13 8 14 5 15 6 16 89 17 7 18 4 19 3 20 2 21 1 22 90 23
REMARK SMILES IDX 91 24 92 25 93 26 97 27 94 28 96 29 95 30 17 31 18 32 19 33
REMARK SMILES IDX 20 34 21 36 22 37 23 38 84 39 24 40 83 41 25 42 26 43 27 44
REMARK SMILES IDX 77 45 28 46 82 47 76 48 78 49 29 50 81 51 75 52 74 53 30 55
REMARK SMILES IDX 62 56 42 57 61 58 43 59 46 60 60 61 79 62 44 63 45 64 59 66
REMARK SMILES IDX 80 67 47 68 31 69 32 70 40 71 33 72 39 73 41 74 38 75 34 76
REMARK SMILES IDX 35 77 36 78 37 79 63 80 64 81 72 82 65 83 71 84 73 85 70 86
REMARK SMILES IDX 66 87 67 88 68 89 69 90 48 91 49 92 57 93 50 94 56 95 58 96
REMARK SMILES IDX 55 97 51 98 52 99 53 100 54 101
REMARK H PARENT 14 6 19 35 78 54 46 65
REMARK Flexibility Score: inf
ROOT
ATOM      1  C   UNL A   1      40.158  23.465  27.297  1.00  0.00     0.023 C 
ENDROOT
BRANCH   1   2
ATOM      2  C   UNL A   1      38.818  23.734  26.606  1.00  0.00     0.116 C 
BRANCH   2   3
ATOM      3  N   UNL A   1      38.505  22.687  25.652  1.00  0.00    -0.352 N 
ATOM      4  C   UNL A   1      37.328  22.236  25.111  1.00  0.00     0.251 C 
ATOM      5  O   UNL A   1      37.402  21.335  24.273  1.00  0.00    -0.269 OA
ATOM      6  H   UNL A   1      39.298  22.202  25.328  1.00  0.00     0.163 HD
BRANCH   4   7
ATOM      7  C   UNL A   1      35.977  22.783  25.447  1.00  0.00     0.040 A 
ATOM      8  C   UNL A   1      34.175  24.324  24.787  1.00  0.00     0.037 A 
ATOM      9  C   UNL A   1      35.436  23.742  24.566  1.00  0.00     0.027 A 
ATOM     10  C   UNL A   1      33.449  23.939  25.925  1.00  0.00     0.052 A 
ATOM     11  C   UNL A   1      33.959  22.966  26.786  1.00  0.00     0.022 A 
ATOM     12  Cl  UNL A   1      31.894  24.594  26.311  1.00  0.00    -0.084 Cl
ATOM     13  C   UNL A   1      35.201  22.378  26.534  1.00  0.00     0.015 A 
BRANCH   8  14
ATOM     14  C   UNL A   1      33.667  25.320  23.856  1.00  0.00     0.136 A 
ATOM     15  C   UNL A   1      32.745  27.292  23.372  1.00  0.00     0.129 A 
ATOM     16  C   UNL A   1      33.099  26.664  22.179  1.00  0.00     0.051 A 
ATOM     17  O   UNL A   1      33.134  26.453  24.398  1.00  0.00    -0.457 OA
ATOM     18  C   UNL A   1      33.641  25.398  22.486  1.00  0.00     0.051 A 
BRANCH  15  19
ATOM     19  C   UNL A   1      32.119  28.561  23.608  1.00  0.00     0.072 C 
ATOM     20  C   UNL A   1      30.778  28.731  23.725  1.00  0.00     0.121 C 
BRANCH  20  21
ATOM     21  C   UNL A   1      30.006  27.444  23.962  1.00  0.00     0.105 C 
ATOM     22  N   UNL A   1      29.366  26.375  24.159  1.00  0.00    -0.192 NA
ENDBRANCH  20  21
BRANCH  20  23
ATOM     23  C   UNL A   1      30.189  30.040  24.112  1.00  0.00     0.264 C 
ATOM     24  O   UNL A   1      30.732  30.687  25.008  1.00  0.00    -0.268 OA
ATOM     25  N   UNL A   1      29.087  30.532  23.429  1.00  0.00    -0.333 N 
ATOM     26  C   UNL A   1      28.118  29.803  22.593  1.00  0.00     0.148 C 
ATOM     27  C   UNL A   1      28.794  31.967  23.502  1.00  0.00     0.148 C 
ATOM     28  C   UNL A   1      28.028  30.448  21.201  1.00  0.00     0.181 C 
ATOM     29  C   UNL A   1      28.711  32.542  22.081  1.00  0.00     0.181 C 
ATOM     30  O   UNL A   1      27.718  31.847  21.305  1.00  0.00    -0.378 OA
ENDBRANCH  20  23
ENDBRANCH  15  19
ENDBRANCH   8  14
ENDBRANCH   4   7
ENDBRANCH   2   3
ENDBRANCH   1   2
BRANCH   1  31
ATOM     31  C   UNL A   1      40.664  22.025  27.167  1.00  0.00     0.023 C 
BRANCH  31  32
ATOM     32  C   UNL A   1      42.182  21.869  27.130  1.00  0.00     0.116 C 
BRANCH  32  33
ATOM     33  N   UNL A   1      42.721  21.793  25.781  1.00  0.00    -0.352 N 
ATOM     34  C   UNL A   1      43.332  22.782  25.043  1.00  0.00     0.251 C 
ATOM     35  H   UNL A   1      42.638  20.918  25.336  1.00  0.00     0.163 HD
ATOM     36  O   UNL A   1      43.638  22.576  23.880  1.00  0.00    -0.269 OA
BRANCH  34  37
ATOM     37  C   UNL A   1      43.565  24.105  25.666  1.00  0.00     0.039 A 
ATOM     38  C   UNL A   1      43.116  25.248  24.999  1.00  0.00     0.014 A 
ATOM     39  C   UNL A   1      44.183  24.210  26.914  1.00  0.00     0.014 A 
ATOM     40  C   UNL A   1      43.222  26.493  25.621  1.00  0.00     0.010 A 
ATOM     41  C   UNL A   1      44.229  25.443  27.558  1.00  0.00     0.010 A 
ATOM     42  C   UNL A   1      43.742  26.596  26.922  1.00  0.00    -0.014 A 
BRANCH  42  43
ATOM     43  C   UNL A   1      43.778  27.896  27.638  1.00  0.00     0.031 A 
ATOM     44  C   UNL A   1      42.514  28.476  28.208  1.00  0.00     0.074 A 
ATOM     45  C   UNL A   1      44.935  28.584  27.708  1.00  0.00     0.049 A 
ATOM     46  N   UNL A   1      42.320  29.635  28.782  1.00  0.00    -0.248 NA
ATOM     47  C   UNL A   1      41.302  27.654  28.083  1.00  0.00     0.031 C 
ATOM     48  C   UNL A   1      46.217  28.142  27.155  1.00  0.00     0.029 A 
ATOM     49  N   UNL A   1      45.219  29.808  28.262  1.00  0.00    -0.354 N 
ATOM     50  C   UNL A   1      40.961  29.690  29.075  1.00  0.00     0.074 A 
ATOM     51  C   UNL A   1      40.374  28.471  28.560  1.00  0.00     0.031 C 
ATOM     52  C   UNL A   1      47.152  29.071  27.414  1.00  0.00     0.029 A 
ATOM     53  C   UNL A   1      46.531  30.192  28.112  1.00  0.00     0.049 A 
ATOM     54  H   UNL A   1      44.545  30.358  28.723  1.00  0.00     0.167 HD
ATOM     55  C   UNL A   1      40.274  30.655  29.734  1.00  0.00     0.034 A 
ATOM     56  C   UNL A   1      47.159  31.325  28.483  1.00  0.00     0.034 A 
ATOM     57  C   UNL A   1      40.879  31.858  30.253  1.00  0.00     0.049 A 
ATOM     58  C   UNL A   1      46.372  32.391  29.200  1.00  0.00     0.074 A 
ATOM     59  C   UNL A   1      40.290  32.877  30.981  1.00  0.00     0.029 A 
ATOM     60  N   UNL A   1      42.214  32.208  30.092  1.00  0.00    -0.354 N 
ATOM     61  N   UNL A   1      45.097  32.406  29.513  1.00  0.00    -0.248 NA
ATOM     62  C   UNL A   1      47.111  33.587  29.623  1.00  0.00     0.031 C 
ATOM     63  C   UNL A   1      41.252  33.868  31.209  1.00  0.00     0.029 A 
ATOM     64  C   UNL A   1      42.459  33.439  30.684  1.00  0.00     0.049 A 
ATOM     65  H   UNL A   1      42.888  31.663  29.626  1.00  0.00     0.167 HD
ATOM     66  C   UNL A   1      44.889  33.601  30.197  1.00  0.00     0.074 A 
ATOM     67  C   UNL A   1      46.172  34.271  30.261  1.00  0.00     0.031 C 
ATOM     68  C   UNL A   1      43.744  34.097  30.730  1.00  0.00     0.034 A 
BRANCH  55  69
ATOM     69  C   UNL A   1      38.787  30.452  29.903  1.00  0.00     0.023 A 
ATOM     70  C   UNL A   1      37.857  31.082  29.056  1.00  0.00     0.031 A 
ATOM     71  C   UNL A   1      38.289  29.651  30.946  1.00  0.00     0.131 A 
ATOM     72  C   UNL A   1      36.484  30.969  29.316  1.00  0.00     0.055 A 
ATOM     73  C   UNL A   1      36.918  29.475  31.148  1.00  0.00     0.041 A 
ATOM     74  F   UNL A   1      39.127  29.040  31.798  1.00  0.00    -0.206 F 
ATOM     75  C   UNL A   1      36.006  30.149  30.341  1.00  0.00     0.022 A 
BRANCH  72  76
ATOM     76  S   UNL A   1      35.339  32.028  28.391  1.00  0.00     0.124 S 
ATOM     77  O   UNL A   1      36.243  33.050  27.867  1.00  0.00    -0.237 OA
ATOM     78  O   UNL A   1      34.779  31.107  27.410  1.00  0.00    -0.237 OA
ATOM     79  O   UNL A   1      34.404  32.498  29.412  1.00  0.00    -0.744 OA
ENDBRANCH  72  76
ENDBRANCH  55  69
BRANCH  56  80
ATOM     80  C   UNL A   1      48.606  31.520  28.184  1.00  0.00     0.023 A 
ATOM     81  C   UNL A   1      49.020  32.375  27.151  1.00  0.00     0.031 A 
ATOM     82  C   UNL A   1      49.595  30.824  28.901  1.00  0.00     0.131 A 
ATOM     83  C   UNL A   1      50.383  32.479  26.833  1.00  0.00     0.055 A 
ATOM     84  C   UNL A   1      50.954  30.968  28.613  1.00  0.00     0.041 A 
ATOM     85  F   UNL A   1      49.253  29.999  29.905  1.00  0.00    -0.206 F 
ATOM     86  C   UNL A   1      51.353  31.791  27.564  1.00  0.00     0.022 A 
BRANCH  83  87
ATOM     87  S   UNL A   1      50.864  33.473  25.394  1.00  0.00     0.124 S 
ATOM     88  O   UNL A   1      51.279  32.446  24.447  1.00  0.00    -0.237 OA
ATOM     89  O   UNL A   1      49.621  34.172  25.080  1.00  0.00    -0.237 OA
ATOM     90  O   UNL A   1      51.938  34.320  25.909  1.00  0.00    -0.744 OA
ENDBRANCH  83  87
ENDBRANCH  56  80
BRANCH  68  91
ATOM     91  C   UNL A   1      43.846  35.409  31.467  1.00  0.00     0.023 A 
ATOM     92  C   UNL A   1      44.002  35.464  32.863  1.00  0.00     0.031 A 
ATOM     93  C   UNL A   1      43.775  36.622  30.759  1.00  0.00     0.131 A 
ATOM     94  C   UNL A   1      44.028  36.708  33.513  1.00  0.00     0.055 A 
ATOM     95  C   UNL A   1      43.859  37.855  31.405  1.00  0.00     0.041 A 
ATOM     96  F   UNL A   1      43.626  36.626  29.424  1.00  0.00    -0.206 F 
ATOM     97  C   UNL A   1      43.974  37.903  32.792  1.00  0.00     0.022 A 
BRANCH  94  98
ATOM     98  S   UNL A   1      44.053  36.742  35.327  1.00  0.00     0.124 S 
ATOM     99  O   UNL A   1      45.366  36.180  35.623  1.00  0.00    -0.237 OA
ATOM    100  O   UNL A   1      43.886  38.163  35.615  1.00  0.00    -0.237 OA
ATOM    101  O   UNL A   1      42.919  35.898  35.700  1.00  0.00    -0.744 OA
ENDBRANCH  94  98
ENDBRANCH  68  91
ENDBRANCH  42  43
ENDBRANCH  34  37
ENDBRANCH  32  33
ENDBRANCH  31  32
ENDBRANCH   1  31
TORSDOF 18
ENDMDL
MODEL 3
REMARK VINA RESULT:     -11.5      1.159      7.312
REMARK SMILES N#C/C(=C\c1ccc(-c2cc(C(=O)NCCCCNC(=O)c3ccc(-c4c5nc(c(-c6cc(S(=O)(=O)[O-])ccc6F)c6ccc([nH]6)c(-c6cc(S(=O)(=O)[O-])ccc6F)c6nc(c(-c7cc(S(=O)(=O)[O-])ccc7F)c7ccc4[nH]7)C=C6)C=C5)cc3)ccc2Cl)o1)C(=O)N1CCOCC1
REMARK SMILES IDX 16 1 15 2 14 3 12 4 13 5 11 7 9 8 10 9 87 10 86 11 88 12
REMARK SMILES IDX 85 13 8 14 5 15 6 16 89 17 7 18 4 19 3 20 2 21 1 22 90 23
REMARK SMILES IDX 91 24 92 25 93 26 97 27 94 28 96 29 95 30 17 31 18 32 19 33
REMARK SMILES IDX 20 34 21 36 22 37 23 38 84 39 24 40 83 41 25 42 26 43 27 44
REMARK SMILES IDX 77 45 28 46 82 47 76 48 78 49 29 50 81 51 75 52 74 53 30 55
REMARK SMILES IDX 62 56 42 57 61 58 43 59 46 60 60 61 79 62 44 63 45 64 59 66
REMARK SMILES IDX 80 67 47 68 31 69 32 70 40 71 33 72 39 73 41 74 38 75 34 76
REMARK SMILES IDX 35 77 36 78 37 79 63 80 64 81 72 82 65 83 71 84 73 85 70 86
REMARK SMILES IDX 66 87 67 88 68 89 69 90 48 91 49 92 57 93 50 94 56 95 58 96
REMARK SMILES IDX 55 97 51 98 52 99 53 100 54 101
REMARK H PARENT 14 6 19 35 78 54 46 65
REMARK Flexibility Score: inf
ROOT
ATOM      1  C   UNL A   1      31.763  29.365  25.678  1.00  0.00     0.023 C 
ENDROOT
BRANCH   1   2
ATOM      2  C   UNL A   1      30.885  30.338  24.886  1.00  0.00     0.116 C 
BRANCH   2   3
ATOM      3  N   UNL A   1      30.649  29.849  23.541  1.00  0.00    -0.352 N 
ATOM      4  C   UNL A   1      30.465  28.592  23.021  1.00  0.00     0.251 C 
ATOM      5  O   UNL A   1      30.238  28.511  21.813  1.00  0.00    -0.269 OA
ATOM      6  H   UNL A   1      30.615  30.563  22.864  1.00  0.00     0.163 HD
BRANCH   4   7
ATOM      7  C   UNL A   1      30.490  27.332  23.825  1.00  0.00     0.040 A 
ATOM      8  C   UNL A   1      31.885  25.534  24.765  1.00  0.00     0.037 A 
ATOM      9  C   UNL A   1      31.747  26.724  24.026  1.00  0.00     0.027 A 
ATOM     10  C   UNL A   1      30.733  24.941  25.302  1.00  0.00     0.052 A 
ATOM     11  C   UNL A   1      29.488  25.551  25.140  1.00  0.00     0.022 A 
ATOM     12  Cl  UNL A   1      30.774  23.472  26.216  1.00  0.00    -0.084 Cl
ATOM     13  C   UNL A   1      29.374  26.748  24.428  1.00  0.00     0.015 A 
BRANCH   8  14
ATOM     14  C   UNL A   1      33.202  24.938  24.931  1.00  0.00     0.136 A 
ATOM     15  C   UNL A   1      34.667  23.273  24.699  1.00  0.00     0.129 A 
ATOM     16  C   UNL A   1      35.334  24.379  25.223  1.00  0.00     0.051 A 
ATOM     17  O   UNL A   1      33.354  23.653  24.498  1.00  0.00    -0.457 OA
ATOM     18  C   UNL A   1      34.396  25.416  25.410  1.00  0.00     0.051 A 
BRANCH  15  19
ATOM     19  C   UNL A   1      35.149  21.961  24.372  1.00  0.00     0.072 C 
ATOM     20  C   UNL A   1      35.226  20.942  25.264  1.00  0.00     0.121 C 
BRANCH  20  21
ATOM     21  C   UNL A   1      34.424  21.166  26.535  1.00  0.00     0.105 C 
ATOM     22  N   UNL A   1      33.758  21.351  27.590  1.00  0.00    -0.192 NA
ENDBRANCH  20  21
BRANCH  20  23
ATOM     23  C   UNL A   1      35.596  19.565  24.844  1.00  0.00     0.264 C 
ATOM     24  O   UNL A   1      36.785  19.247  24.852  1.00  0.00    -0.268 OA
ATOM     25  N   UNL A   1      34.604  18.654  24.510  1.00  0.00    -0.333 N 
ATOM     26  C   UNL A   1      33.207  18.912  24.122  1.00  0.00     0.148 C 
ATOM     27  C   UNL A   1      34.922  17.223  24.534  1.00  0.00     0.148 C 
ATOM     28  C   UNL A   1      32.250  18.120  25.027  1.00  0.00     0.181 C 
ATOM     29  C   UNL A   1      33.927  16.496  25.448  1.00  0.00     0.181 C 
ATOM     30  O   UNL A   1      32.573  16.720  25.012  1.00  0.00    -0.378 OA
ENDBRANCH  20  23
ENDBRANCH  15  19
ENDBRANCH   8  14
ENDBRANCH   4   7
ENDBRANCH   2   3
ENDBRANCH   1   2
BRANCH   1  31
ATOM     31  C   UNL A   1      33.253  29.724  25.698  1.00  0.00     0.023 C 
BRANCH  31  32
ATOM     32  C   UNL A   1      33.909  29.704  27.076  1.00  0.00     0.116 C 
BRANCH  32  33
ATOM     33  N   UNL A   1      33.741  30.945  27.814  1.00  0.00    -0.352 N 
ATOM     34  C   UNL A   1      34.591  31.521  28.732  1.00  0.00     0.251 C 
ATOM     35  H   UNL A   1      32.908  31.440  27.634  1.00  0.00     0.163 HD
ATOM     36  O   UNL A   1      34.247  32.523  29.338  1.00  0.00    -0.269 OA
BRANCH  34  37
ATOM     37  C   UNL A   1      35.898  30.881  29.004  1.00  0.00     0.039 A 
ATOM     38  C   UNL A   1      37.052  31.468  28.482  1.00  0.00     0.014 A 
ATOM     39  C   UNL A   1      35.983  29.736  29.798  1.00  0.00     0.014 A 
ATOM     40  C   UNL A   1      38.303  30.947  28.821  1.00  0.00     0.010 A 
ATOM     41  C   UNL A   1      37.230  29.257  30.186  1.00  0.00     0.010 A 
ATOM     42  C   UNL A   1      38.404  29.863  29.707  1.00  0.00    -0.014 A 
BRANCH  42  43
ATOM     43  C   UNL A   1      39.724  29.351  30.155  1.00  0.00     0.031 A 
ATOM     44  C   UNL A   1      40.373  28.207  29.427  1.00  0.00     0.074 A 
ATOM     45  C   UNL A   1      40.299  29.869  31.258  1.00  0.00     0.049 A 
ATOM     46  N   UNL A   1      41.471  27.558  29.716  1.00  0.00    -0.248 NA
ATOM     47  C   UNL A   1      39.672  27.707  28.235  1.00  0.00     0.031 C 
ATOM     48  C   UNL A   1      39.742  30.953  32.071  1.00  0.00     0.029 A 
ATOM     49  N   UNL A   1      41.471  29.547  31.895  1.00  0.00    -0.354 N 
ATOM     50  C   UNL A   1      41.588  26.564  28.750  1.00  0.00     0.074 A 
ATOM     51  C   UNL A   1      40.415  26.661  27.906  1.00  0.00     0.031 C 
ATOM     52  C   UNL A   1      40.582  31.216  33.087  1.00  0.00     0.029 A 
ATOM     53  C   UNL A   1      41.712  30.295  33.023  1.00  0.00     0.049 A 
ATOM     54  H   UNL A   1      42.081  28.844  31.574  1.00  0.00     0.167 HD
ATOM     55  C   UNL A   1      42.591  25.669  28.572  1.00  0.00     0.034 A 
ATOM     56  C   UNL A   1      42.723  30.238  33.912  1.00  0.00     0.034 A 
ATOM     57  C   UNL A   1      43.760  25.595  29.415  1.00  0.00     0.049 A 
ATOM     58  C   UNL A   1      43.819  29.226  33.703  1.00  0.00     0.074 A 
ATOM     59  C   UNL A   1      44.861  24.765  29.295  1.00  0.00     0.029 A 
ATOM     60  N   UNL A   1      43.976  26.379  30.542  1.00  0.00    -0.354 N 
ATOM     61  N   UNL A   1      43.939  28.323  32.756  1.00  0.00    -0.248 NA
ATOM     62  C   UNL A   1      44.921  29.232  34.674  1.00  0.00     0.031 C 
ATOM     63  C   UNL A   1      45.713  25.006  30.380  1.00  0.00     0.029 A 
ATOM     64  C   UNL A   1      45.179  26.033  31.140  1.00  0.00     0.049 A 
ATOM     65  H   UNL A   1      43.364  27.078  30.869  1.00  0.00     0.167 HD
ATOM     66  C   UNL A   1      45.147  27.674  33.003  1.00  0.00     0.074 A 
ATOM     67  C   UNL A   1      45.720  28.298  34.178  1.00  0.00     0.031 C 
ATOM     68  C   UNL A   1      45.732  26.660  32.318  1.00  0.00     0.034 A 
BRANCH  55  69
ATOM     69  C   UNL A   1      42.447  24.687  27.433  1.00  0.00     0.023 A 
ATOM     70  C   UNL A   1      41.574  23.588  27.515  1.00  0.00     0.031 A 
ATOM     71  C   UNL A   1      43.219  24.827  26.266  1.00  0.00     0.131 A 
ATOM     72  C   UNL A   1      41.555  22.629  26.492  1.00  0.00     0.055 A 
ATOM     73  C   UNL A   1      43.133  23.914  25.212  1.00  0.00     0.041 A 
ATOM     74  F   UNL A   1      44.085  25.846  26.137  1.00  0.00    -0.206 F 
ATOM     75  C   UNL A   1      42.310  22.798  25.328  1.00  0.00     0.022 A 
BRANCH  72  76
ATOM     76  S   UNL A   1      40.645  21.086  26.769  1.00  0.00     0.124 S 
ATOM     77  O   UNL A   1      39.299  21.456  26.335  1.00  0.00    -0.237 OA
ATOM     78  O   UNL A   1      41.355  20.142  25.915  1.00  0.00    -0.237 OA
ATOM     79  O   UNL A   1      40.787  20.858  28.207  1.00  0.00    -0.744 OA
ENDBRANCH  72  76
ENDBRANCH  55  69
BRANCH  56  80
ATOM     80  C   UNL A   1      42.751  31.156  35.085  1.00  0.00     0.023 A 
ATOM     81  C   UNL A   1      43.208  32.477  34.958  1.00  0.00     0.031 A 
ATOM     82  C   UNL A   1      42.357  30.715  36.361  1.00  0.00     0.131 A 
ATOM     83  C   UNL A   1      43.303  33.298  36.093  1.00  0.00     0.055 A 
ATOM     84  C   UNL A   1      42.407  31.550  37.479  1.00  0.00     0.041 A 
ATOM     85  F   UNL A   1      41.904  29.462  36.536  1.00  0.00    -0.206 F 
ATOM     86  C   UNL A   1      42.895  32.847  37.350  1.00  0.00     0.022 A 
BRANCH  83  87
ATOM     87  S   UNL A   1      44.043  34.943  35.913  1.00  0.00     0.124 S 
ATOM     88  O   UNL A   1      43.766  35.244  34.514  1.00  0.00    -0.237 OA
ATOM     89  O   UNL A   1      43.295  35.720  36.896  1.00  0.00    -0.237 OA
ATOM     90  O   UNL A   1      45.450  34.721  36.239  1.00  0.00    -0.744 OA
ENDBRANCH  83  87
ENDBRANCH  56  80
BRANCH  68  91
ATOM     91  C   UNL A   1      47.083  26.198  32.804  1.00  0.00     0.023 A 
ATOM     92  C   UNL A   1      47.218  25.151  33.731  1.00  0.00     0.031 A 
ATOM     93  C   UNL A   1      48.251  26.826  32.337  1.00  0.00     0.131 A 
ATOM     94  C   UNL A   1      48.492  24.798  34.204  1.00  0.00     0.055 A 
ATOM     95  C   UNL A   1      49.518  26.432  32.767  1.00  0.00     0.041 A 
ATOM     96  F   UNL A   1      48.178  27.832  31.450  1.00  0.00    -0.206 F 
ATOM     97  C   UNL A   1      49.643  25.421  33.715  1.00  0.00     0.022 A 
BRANCH  94  98
ATOM     98  S   UNL A   1      48.619  23.566  35.529  1.00  0.00     0.124 S 
ATOM     99  O   UNL A   1      47.247  23.078  35.622  1.00  0.00    -0.237 OA
ATOM    100  O   UNL A   1      49.596  22.626  34.989  1.00  0.00    -0.237 OA
ATOM    101  O   UNL A   1      49.079  24.344  36.677  1.00  0.00    -0.744 OA
ENDBRANCH  94  98
ENDBRANCH  68  91
ENDBRANCH  42  43
ENDBRANCH  34  37
ENDBRANCH  32  33
ENDBRANCH  31  32
ENDBRANCH   1  31
TORSDOF 18
ENDMDL
