MODEL 1
REMARK VINA RESULT:     -10.6      0.000      0.000
REMARK SMILES C[C@H]([NH2+]CC(C)(C)C(=O)NCCCCNC(=O)c1ccc(-c2c3nc(c(-c4cc(S(=O)(=O)[O-])ccc4F)c4ccc([nH]4)c(-c4cc(S(=O)(=O)[O-])ccc4F)c4nc(c(-c5cc(S(=O)(=O)[O-])ccc5F)c5ccc2[nH]5)C=C4)C=C3)cc1)c1nccs1
REMARK SMILES IDX 12 1 11 2 10 3 8 4 9 5 5 7 6 8 7 9 4 10 3 11 2 14 1 15 81 16
REMARK SMILES IDX 82 17 85 18 83 19 84 20 13 21 14 22 15 23 16 24 17 26 18 27
REMARK SMILES IDX 19 28 80 29 20 30 79 31 21 32 22 33 23 34 73 35 24 36 78 37
REMARK SMILES IDX 72 38 74 39 25 40 77 41 71 42 70 43 26 45 58 46 38 47 57 48
REMARK SMILES IDX 39 49 42 50 56 51 75 52 40 53 41 54 55 56 76 57 43 58 27 59
REMARK SMILES IDX 28 60 36 61 29 62 35 63 37 64 34 65 30 66 31 67 32 68 33 69
REMARK SMILES IDX 59 70 60 71 68 72 61 73 67 74 69 75 66 76 62 77 63 78 64 79
REMARK SMILES IDX 65 80 44 81 45 82 53 83 46 84 52 85 54 86 51 87 47 88 48 89
REMARK SMILES IDX 49 90 50 91
REMARK H PARENT 10 6 3 12 3 13 15 25 74 44 42 55
REMARK Flexibility Score: inf
ROOT
ATOM      1  C   UNL A   1      32.351  28.091  27.362  1.00  0.00     0.023 C 
ENDROOT
BRANCH   1   2
ATOM      2  C   UNL A   1      32.004  26.828  26.575  1.00  0.00     0.116 C 
BRANCH   2   3
ATOM      3  N   UNL A   1      33.195  26.158  26.093  1.00  0.00    -0.355 N 
ATOM      4  C   UNL A   1      33.764  26.055  24.861  1.00  0.00     0.231 C 
ATOM      5  O   UNL A   1      34.671  25.224  24.770  1.00  0.00    -0.274 OA
ATOM      6  H   UNL A   1      33.692  25.683  26.797  1.00  0.00     0.163 HD
BRANCH   4   7
ATOM      7  C   UNL A   1      33.278  26.876  23.645  1.00  0.00     0.092 C 
ATOM      8  C   UNL A   1      33.545  26.159  22.309  1.00  0.00     0.027 C 
ATOM      9  C   UNL A   1      33.954  28.260  23.669  1.00  0.00     0.027 C 
BRANCH   7  10
ATOM     10  C   UNL A   1      31.739  27.140  23.774  1.00  0.00     0.277 C 
BRANCH  10  11
ATOM     11  N   UNL A   1      31.227  28.257  22.975  1.00  0.00    -0.337 N 
ATOM     12  H   UNL A   1      31.281  29.109  23.534  1.00  0.00     0.346 HD
ATOM     13  H   UNL A   1      31.800  28.319  22.133  1.00  0.00     0.346 HD
BRANCH  11  14
ATOM     14  C   UNL A   1      29.831  28.063  22.547  1.00  0.00     0.239 C 
ATOM     15  C   UNL A   1      29.047  27.229  23.567  1.00  0.00     0.083 C 
BRANCH  14  16
ATOM     16  C   UNL A   1      29.149  29.397  22.282  1.00  0.00     0.150 A 
ATOM     17  N   UNL A   1      29.528  30.238  21.337  1.00  0.00    -0.243 NA
ATOM     18  S   UNL A   1      27.790  29.918  23.214  1.00  0.00    -0.121 S 
ATOM     19  C   UNL A   1      28.766  31.386  21.395  1.00  0.00     0.123 A 
ATOM     20  C   UNL A   1      27.759  31.386  22.333  1.00  0.00     0.087 A 
ENDBRANCH  14  16
ENDBRANCH  11  14
ENDBRANCH  10  11
ENDBRANCH   7  10
ENDBRANCH   4   7
ENDBRANCH   2   3
ENDBRANCH   1   2
BRANCH   1  21
ATOM     21  C   UNL A   1      31.743  29.380  26.807  1.00  0.00     0.023 C 
BRANCH  21  22
ATOM     22  C   UNL A   1      32.748  30.409  26.302  1.00  0.00     0.116 C 
BRANCH  22  23
ATOM     23  N   UNL A   1      32.424  31.771  26.703  1.00  0.00    -0.352 N 
ATOM     24  C   UNL A   1      33.148  32.607  27.522  1.00  0.00     0.251 C 
ATOM     25  H   UNL A   1      31.584  32.137  26.347  1.00  0.00     0.163 HD
ATOM     26  O   UNL A   1      32.691  33.694  27.860  1.00  0.00    -0.269 OA
BRANCH  24  27
ATOM     27  C   UNL A   1      34.464  32.153  28.013  1.00  0.00     0.039 A 
ATOM     28  C   UNL A   1      35.552  33.028  27.960  1.00  0.00     0.014 A 
ATOM     29  C   UNL A   1      34.595  30.889  28.591  1.00  0.00     0.014 A 
ATOM     30  C   UNL A   1      36.758  32.663  28.562  1.00  0.00     0.010 A 
ATOM     31  C   UNL A   1      35.776  30.554  29.243  1.00  0.00     0.010 A 
ATOM     32  C   UNL A   1      36.866  31.440  29.241  1.00  0.00    -0.014 A 
BRANCH  32  33
ATOM     33  C   UNL A   1      38.109  31.035  29.948  1.00  0.00     0.031 A 
ATOM     34  C   UNL A   1      39.014  30.020  29.309  1.00  0.00     0.074 A 
ATOM     35  C   UNL A   1      38.358  31.484  31.194  1.00  0.00     0.049 A 
ATOM     36  N   UNL A   1      40.016  29.358  29.825  1.00  0.00    -0.248 NA
ATOM     37  C   UNL A   1      38.720  29.679  27.910  1.00  0.00     0.031 C 
ATOM     38  C   UNL A   1      37.544  32.456  31.925  1.00  0.00     0.029 A 
ATOM     39  N   UNL A   1      39.356  31.156  32.079  1.00  0.00    -0.354 N 
ATOM     40  C   UNL A   1      40.449  28.493  28.826  1.00  0.00     0.074 A 
ATOM     41  C   UNL A   1      39.571  28.689  27.692  1.00  0.00     0.031 C 
ATOM     42  C   UNL A   1      38.075  32.647  33.143  1.00  0.00     0.029 A 
ATOM     43  C   UNL A   1      39.234  31.772  33.303  1.00  0.00     0.049 A 
ATOM     44  H   UNL A   1      40.090  30.539  31.858  1.00  0.00     0.167 HD
ATOM     45  C   UNL A   1      41.492  27.627  28.851  1.00  0.00     0.034 A 
ATOM     46  C   UNL A   1      39.954  31.626  34.433  1.00  0.00     0.034 A 
ATOM     47  C   UNL A   1      42.372  27.468  29.982  1.00  0.00     0.049 A 
ATOM     48  C   UNL A   1      41.104  30.649  34.444  1.00  0.00     0.074 A 
ATOM     49  C   UNL A   1      43.484  26.655  30.103  1.00  0.00     0.029 A 
ATOM     50  N   UNL A   1      42.236  28.140  31.190  1.00  0.00    -0.354 N 
ATOM     51  N   UNL A   1      41.511  29.846  33.488  1.00  0.00    -0.248 NA
ATOM     52  C   UNL A   1      41.892  30.560  35.680  1.00  0.00     0.031 C 
ATOM     53  C   UNL A   1      43.992  26.797  31.399  1.00  0.00     0.029 A 
ATOM     54  C   UNL A   1      43.237  27.749  32.065  1.00  0.00     0.049 A 
ATOM     55  H   UNL A   1      41.533  28.799  31.394  1.00  0.00     0.167 HD
ATOM     56  C   UNL A   1      42.628  29.187  33.995  1.00  0.00     0.074 A 
ATOM     57  C   UNL A   1      42.826  29.681  35.343  1.00  0.00     0.031 C 
ATOM     58  C   UNL A   1      43.424  28.266  33.399  1.00  0.00     0.034 A 
BRANCH  45  59
ATOM     59  C   UNL A   1      41.707  26.769  27.627  1.00  0.00     0.023 A 
ATOM     60  C   UNL A   1      41.278  25.432  27.579  1.00  0.00     0.031 A 
ATOM     61  C   UNL A   1      42.391  27.282  26.510  1.00  0.00     0.131 A 
ATOM     62  C   UNL A   1      41.613  24.630  26.479  1.00  0.00     0.055 A 
ATOM     63  C   UNL A   1      42.644  26.502  25.382  1.00  0.00     0.041 A 
ATOM     64  F   UNL A   1      42.843  28.547  26.506  1.00  0.00    -0.206 F 
ATOM     65  C   UNL A   1      42.271  25.161  25.368  1.00  0.00     0.022 A 
BRANCH  62  66
ATOM     66  S   UNL A   1      41.311  22.845  26.590  1.00  0.00     0.124 S 
ATOM     67  O   UNL A   1      39.861  22.781  26.428  1.00  0.00    -0.237 OA
ATOM     68  O   UNL A   1      42.100  22.321  25.480  1.00  0.00    -0.237 OA
ATOM     69  O   UNL A   1      41.799  22.496  27.922  1.00  0.00    -0.744 OA
ENDBRANCH  62  66
ENDBRANCH  45  59
BRANCH  46  70
ATOM     70  C   UNL A   1      39.605  32.401  35.657  1.00  0.00     0.023 A 
ATOM     71  C   UNL A   1      38.731  31.872  36.620  1.00  0.00     0.031 A 
ATOM     72  C   UNL A   1      40.111  33.696  35.866  1.00  0.00     0.131 A 
ATOM     73  C   UNL A   1      38.354  32.650  37.726  1.00  0.00     0.055 A 
ATOM     74  C   UNL A   1      39.771  34.448  36.992  1.00  0.00     0.041 A 
ATOM     75  F   UNL A   1      40.956  34.246  34.979  1.00  0.00    -0.206 F 
ATOM     76  C   UNL A   1      38.877  33.930  37.924  1.00  0.00     0.022 A 
BRANCH  73  77
ATOM     77  S   UNL A   1      37.107  31.991  38.866  1.00  0.00     0.124 S 
ATOM     78  O   UNL A   1      37.710  32.276  40.164  1.00  0.00    -0.237 OA
ATOM     79  O   UNL A   1      35.930  32.780  38.517  1.00  0.00    -0.237 OA
ATOM     80  O   UNL A   1      37.034  30.576  38.510  1.00  0.00    -0.744 OA
ENDBRANCH  73  77
ENDBRANCH  46  70
BRANCH  58  81
ATOM     81  C   UNL A   1      44.630  27.794  34.168  1.00  0.00     0.023 A 
ATOM     82  C   UNL A   1      44.598  26.639  34.968  1.00  0.00     0.031 A 
ATOM     83  C   UNL A   1      45.840  28.502  34.064  1.00  0.00     0.131 A 
ATOM     84  C   UNL A   1      45.753  26.242  35.658  1.00  0.00     0.055 A 
ATOM     85  C   UNL A   1      46.996  28.078  34.719  1.00  0.00     0.041 A 
ATOM     86  F   UNL A   1      45.920  29.611  33.311  1.00  0.00    -0.206 F 
ATOM     87  C   UNL A   1      46.955  26.945  35.526  1.00  0.00     0.022 A 
BRANCH  84  88
ATOM     88  S   UNL A   1      45.663  24.808  36.765  1.00  0.00     0.124 S 
ATOM     89  O   UNL A   1      46.645  25.151  37.787  1.00  0.00    -0.237 OA
ATOM     90  O   UNL A   1      44.266  24.828  37.191  1.00  0.00    -0.237 OA
ATOM     91  O   UNL A   1      46.029  23.685  35.904  1.00  0.00    -0.744 OA
ENDBRANCH  84  88
ENDBRANCH  58  81
ENDBRANCH  32  33
ENDBRANCH  24  27
ENDBRANCH  22  23
ENDBRANCH  21  22
ENDBRANCH   1  21
TORSDOF 18
ENDMDL
MODEL 2
REMARK VINA RESULT:     -10.5      3.061      4.510
REMARK SMILES C[C@H]([NH2+]CC(C)(C)C(=O)NCCCCNC(=O)c1ccc(-c2c3nc(c(-c4cc(S(=O)(=O)[O-])ccc4F)c4ccc([nH]4)c(-c4cc(S(=O)(=O)[O-])ccc4F)c4nc(c(-c5cc(S(=O)(=O)[O-])ccc5F)c5ccc2[nH]5)C=C4)C=C3)cc1)c1nccs1
REMARK SMILES IDX 12 1 11 2 10 3 8 4 9 5 5 7 6 8 7 9 4 10 3 11 2 14 1 15 81 16
REMARK SMILES IDX 82 17 85 18 83 19 84 20 13 21 14 22 15 23 16 24 17 26 18 27
REMARK SMILES IDX 19 28 80 29 20 30 79 31 21 32 22 33 23 34 73 35 24 36 78 37
REMARK SMILES IDX 72 38 74 39 25 40 77 41 71 42 70 43 26 45 58 46 38 47 57 48
REMARK SMILES IDX 39 49 42 50 56 51 75 52 40 53 41 54 55 56 76 57 43 58 27 59
REMARK SMILES IDX 28 60 36 61 29 62 35 63 37 64 34 65 30 66 31 67 32 68 33 69
REMARK SMILES IDX 59 70 60 71 68 72 61 73 67 74 69 75 66 76 62 77 63 78 64 79
REMARK SMILES IDX 65 80 44 81 45 82 53 83 46 84 52 85 54 86 51 87 47 88 48 89
REMARK SMILES IDX 49 90 50 91
REMARK H PARENT 10 6 3 12 3 13 15 25 74 44 42 55
REMARK Flexibility Score: inf
ROOT
ATOM      1  C   UNL A   1      31.417  27.480  25.959  1.00  0.00     0.023 C 
ENDROOT
BRANCH   1   2
ATOM      2  C   UNL A   1      32.118  26.130  26.104  1.00  0.00     0.116 C 
BRANCH   2   3
ATOM      3  N   UNL A   1      31.272  25.161  26.771  1.00  0.00    -0.355 N 
ATOM      4  C   UNL A   1      31.380  23.819  26.967  1.00  0.00     0.231 C 
ATOM      5  O   UNL A   1      30.364  23.268  27.400  1.00  0.00    -0.274 OA
ATOM      6  H   UNL A   1      30.457  25.552  27.161  1.00  0.00     0.163 HD
BRANCH   4   7
ATOM      7  C   UNL A   1      32.660  23.025  26.623  1.00  0.00     0.092 C 
ATOM      8  C   UNL A   1      33.207  22.242  27.831  1.00  0.00     0.027 C 
ATOM      9  C   UNL A   1      33.723  23.995  26.072  1.00  0.00     0.027 C 
BRANCH   7  10
ATOM     10  C   UNL A   1      32.353  22.012  25.467  1.00  0.00     0.277 C 
BRANCH  10  11
ATOM     11  N   UNL A   1      32.588  20.603  25.792  1.00  0.00    -0.337 N 
ATOM     12  H   UNL A   1      33.046  20.550  26.702  1.00  0.00     0.346 HD
ATOM     13  H   UNL A   1      31.682  20.134  25.796  1.00  0.00     0.346 HD
BRANCH  11  14
ATOM     14  C   UNL A   1      33.435  19.919  24.800  1.00  0.00     0.239 C 
ATOM     15  C   UNL A   1      34.899  20.358  24.922  1.00  0.00     0.083 C 
BRANCH  14  16
ATOM     16  C   UNL A   1      33.301  18.408  24.913  1.00  0.00     0.150 A 
ATOM     17  N   UNL A   1      32.395  17.808  25.664  1.00  0.00    -0.243 NA
ATOM     18  S   UNL A   1      34.341  17.339  24.039  1.00  0.00    -0.121 S 
ATOM     19  C   UNL A   1      32.574  16.441  25.616  1.00  0.00     0.123 A 
ATOM     20  C   UNL A   1      33.565  15.999  24.770  1.00  0.00     0.087 A 
ENDBRANCH  14  16
ENDBRANCH  11  14
ENDBRANCH  10  11
ENDBRANCH   7  10
ENDBRANCH   4   7
ENDBRANCH   2   3
ENDBRANCH   1   2
BRANCH   1  21
ATOM     21  C   UNL A   1      31.848  28.539  26.975  1.00  0.00     0.023 C 
BRANCH  21  22
ATOM     22  C   UNL A   1      32.937  29.493  26.498  1.00  0.00     0.116 C 
BRANCH  22  23
ATOM     23  N   UNL A   1      32.605  30.894  26.714  1.00  0.00    -0.352 N 
ATOM     24  C   UNL A   1      33.343  31.847  27.379  1.00  0.00     0.251 C 
ATOM     25  H   UNL A   1      31.747  31.197  26.340  1.00  0.00     0.163 HD
ATOM     26  O   UNL A   1      32.881  32.965  27.576  1.00  0.00    -0.269 OA
BRANCH  24  27
ATOM     27  C   UNL A   1      34.683  31.481  27.881  1.00  0.00     0.039 A 
ATOM     28  C   UNL A   1      35.690  32.449  27.903  1.00  0.00     0.014 A 
ATOM     29  C   UNL A   1      34.911  30.203  28.395  1.00  0.00     0.014 A 
ATOM     30  C   UNL A   1      36.911  32.157  28.517  1.00  0.00     0.010 A 
ATOM     31  C   UNL A   1      36.102  29.937  29.060  1.00  0.00     0.010 A 
ATOM     32  C   UNL A   1      37.110  30.913  29.135  1.00  0.00    -0.014 A 
BRANCH  32  33
ATOM     33  C   UNL A   1      38.367  30.578  29.853  1.00  0.00     0.031 A 
ATOM     34  C   UNL A   1      39.306  29.571  29.250  1.00  0.00     0.074 A 
ATOM     35  C   UNL A   1      38.603  31.083  31.080  1.00  0.00     0.049 A 
ATOM     36  N   UNL A   1      40.332  28.965  29.788  1.00  0.00    -0.248 NA
ATOM     37  C   UNL A   1      39.022  29.167  27.866  1.00  0.00     0.031 C 
ATOM     38  C   UNL A   1      37.757  32.054  31.775  1.00  0.00     0.029 A 
ATOM     39  N   UNL A   1      39.613  30.825  31.973  1.00  0.00    -0.354 N 
ATOM     40  C   UNL A   1      40.793  28.078  28.822  1.00  0.00     0.074 A 
ATOM     41  C   UNL A   1      39.906  28.200  27.683  1.00  0.00     0.031 C 
ATOM     42  C   UNL A   1      38.283  32.310  32.984  1.00  0.00     0.029 A 
ATOM     43  C   UNL A   1      39.472  31.483  33.173  1.00  0.00     0.049 A 
ATOM     44  H   UNL A   1      40.368  30.225  31.774  1.00  0.00     0.167 HD
ATOM     45  C   UNL A   1      41.865  27.250  28.876  1.00  0.00     0.034 A 
ATOM     46  C   UNL A   1      40.199  31.405  34.306  1.00  0.00     0.034 A 
ATOM     47  C   UNL A   1      42.752  27.165  30.010  1.00  0.00     0.049 A 
ATOM     48  C   UNL A   1      41.382  30.470  34.350  1.00  0.00     0.074 A 
ATOM     49  C   UNL A   1      43.892  26.397  30.159  1.00  0.00     0.029 A 
ATOM     50  N   UNL A   1      42.595  27.879  31.192  1.00  0.00    -0.354 N 
ATOM     51  N   UNL A   1      41.815  29.646  33.425  1.00  0.00    -0.248 NA
ATOM     52  C   UNL A   1      42.175  30.456  35.587  1.00  0.00     0.031 C 
ATOM     53  C   UNL A   1      44.397  26.606  31.447  1.00  0.00     0.029 A 
ATOM     54  C   UNL A   1      43.610  27.556  32.078  1.00  0.00     0.049 A 
ATOM     55  H   UNL A   1      41.870  28.520  31.373  1.00  0.00     0.167 HD
ATOM     56  C   UNL A   1      42.955  29.046  33.954  1.00  0.00     0.074 A 
ATOM     57  C   UNL A   1      43.138  29.598  35.280  1.00  0.00     0.031 C 
ATOM     58  C   UNL A   1      43.782  28.130  33.391  1.00  0.00     0.034 A 
BRANCH  45  59
ATOM     59  C   UNL A   1      42.108  26.354  27.686  1.00  0.00     0.023 A 
ATOM     60  C   UNL A   1      41.763  24.992  27.706  1.00  0.00     0.031 A 
ATOM     61  C   UNL A   1      42.733  26.858  26.532  1.00  0.00     0.131 A 
ATOM     62  C   UNL A   1      42.125  24.164  26.633  1.00  0.00     0.055 A 
ATOM     63  C   UNL A   1      43.012  26.046  25.432  1.00  0.00     0.041 A 
ATOM     64  F   UNL A   1      43.104  28.148  26.462  1.00  0.00    -0.206 F 
ATOM     65  C   UNL A   1      42.724  24.685  25.485  1.00  0.00     0.022 A 
BRANCH  62  66
ATOM     66  S   UNL A   1      41.939  22.370  26.828  1.00  0.00     0.124 S 
ATOM     67  O   UNL A   1      41.567  22.265  28.237  1.00  0.00    -0.237 OA
ATOM     68  O   UNL A   1      40.889  22.055  25.866  1.00  0.00    -0.237 OA
ATOM     69  O   UNL A   1      43.264  21.851  26.499  1.00  0.00    -0.744 OA
ENDBRANCH  62  66
ENDBRANCH  45  59
BRANCH  46  70
ATOM     70  C   UNL A   1      39.825  32.214  35.501  1.00  0.00     0.023 A 
ATOM     71  C   UNL A   1      38.965  31.695  36.481  1.00  0.00     0.031 A 
ATOM     72  C   UNL A   1      40.293  33.530  35.662  1.00  0.00     0.131 A 
ATOM     73  C   UNL A   1      38.564  32.502  37.558  1.00  0.00     0.055 A 
ATOM     74  C   UNL A   1      39.929  34.313  36.759  1.00  0.00     0.041 A 
ATOM     75  F   UNL A   1      41.123  34.072  34.756  1.00  0.00    -0.206 F 
ATOM     76  C   UNL A   1      39.049  33.803  37.710  1.00  0.00     0.022 A 
BRANCH  73  77
ATOM     77  S   UNL A   1      37.334  31.849  38.720  1.00  0.00     0.124 S 
ATOM     78  O   UNL A   1      37.126  30.500  38.206  1.00  0.00    -0.237 OA
ATOM     79  O   UNL A   1      38.039  31.949  39.994  1.00  0.00    -0.237 OA
ATOM     80  O   UNL A   1      36.202  32.758  38.564  1.00  0.00    -0.744 OA
ENDBRANCH  73  77
ENDBRANCH  46  70
BRANCH  58  81
ATOM     81  C   UNL A   1      45.004  27.730  34.173  1.00  0.00     0.023 A 
ATOM     82  C   UNL A   1      46.216  28.434  34.074  1.00  0.00     0.031 A 
ATOM     83  C   UNL A   1      44.936  26.640  35.059  1.00  0.00     0.131 A 
ATOM     84  C   UNL A   1      47.323  28.021  34.830  1.00  0.00     0.055 A 
ATOM     85  C   UNL A   1      46.027  26.260  35.840  1.00  0.00     0.041 A 
ATOM     86  F   UNL A   1      43.800  25.937  35.190  1.00  0.00    -0.206 F 
ATOM     87  C   UNL A   1      47.231  26.949  35.723  1.00  0.00     0.022 A 
BRANCH  84  88
ATOM     88  S   UNL A   1      48.905  28.880  34.610  1.00  0.00     0.124 S 
ATOM     89  O   UNL A   1      49.840  27.767  34.490  1.00  0.00    -0.237 OA
ATOM     90  O   UNL A   1      48.675  29.655  33.394  1.00  0.00    -0.237 OA
ATOM     91  O   UNL A   1      49.038  29.674  35.831  1.00  0.00    -0.744 OA
ENDBRANCH  84  88
ENDBRANCH  58  81
ENDBRANCH  32  33
ENDBRANCH  24  27
ENDBRANCH  22  23
ENDBRANCH  21  22
ENDBRANCH   1  21
TORSDOF 18
ENDMDL
MODEL 3
REMARK VINA RESULT:     -10.4      2.121      2.756
REMARK SMILES C[C@H]([NH2+]CC(C)(C)C(=O)NCCCCNC(=O)c1ccc(-c2c3nc(c(-c4cc(S(=O)(=O)[O-])ccc4F)c4ccc([nH]4)c(-c4cc(S(=O)(=O)[O-])ccc4F)c4nc(c(-c5cc(S(=O)(=O)[O-])ccc5F)c5ccc2[nH]5)C=C4)C=C3)cc1)c1nccs1
REMARK SMILES IDX 12 1 11 2 10 3 8 4 9 5 5 7 6 8 7 9 4 10 3 11 2 14 1 15 81 16
REMARK SMILES IDX 82 17 85 18 83 19 84 20 13 21 14 22 15 23 16 24 17 26 18 27
REMARK SMILES IDX 19 28 80 29 20 30 79 31 21 32 22 33 23 34 73 35 24 36 78 37
REMARK SMILES IDX 72 38 74 39 25 40 77 41 71 42 70 43 26 45 58 46 38 47 57 48
REMARK SMILES IDX 39 49 42 50 56 51 75 52 40 53 41 54 55 56 76 57 43 58 27 59
REMARK SMILES IDX 28 60 36 61 29 62 35 63 37 64 34 65 30 66 31 67 32 68 33 69
REMARK SMILES IDX 59 70 60 71 68 72 61 73 67 74 69 75 66 76 62 77 63 78 64 79
REMARK SMILES IDX 65 80 44 81 45 82 53 83 46 84 52 85 54 86 51 87 47 88 48 89
REMARK SMILES IDX 49 90 50 91
REMARK H PARENT 10 6 3 12 3 13 15 25 74 44 42 55
REMARK Flexibility Score: inf
ROOT
ATOM      1  C   UNL A   1      34.768  30.501  27.636  1.00  0.00     0.023 C 
ENDROOT
BRANCH   1   2
ATOM      2  C   UNL A   1      34.348  29.157  27.041  1.00  0.00     0.116 C 
BRANCH   2   3
ATOM      3  N   UNL A   1      33.112  28.680  27.628  1.00  0.00    -0.355 N 
ATOM      4  C   UNL A   1      32.143  27.835  27.181  1.00  0.00     0.231 C 
ATOM      5  O   UNL A   1      31.113  27.814  27.860  1.00  0.00    -0.274 OA
ATOM      6  H   UNL A   1      32.938  29.038  28.528  1.00  0.00     0.163 HD
BRANCH   4   7
ATOM      7  C   UNL A   1      32.293  27.000  25.890  1.00  0.00     0.092 C 
ATOM      8  C   UNL A   1      31.245  25.876  25.793  1.00  0.00     0.027 C 
ATOM      9  C   UNL A   1      33.720  26.424  25.824  1.00  0.00     0.027 C 
BRANCH   7  10
ATOM     10  C   UNL A   1      32.142  27.935  24.642  1.00  0.00     0.277 C 
BRANCH  10  11
ATOM     11  N   UNL A   1      30.958  28.800  24.648  1.00  0.00    -0.337 N 
ATOM     12  H   UNL A   1      30.348  28.510  25.413  1.00  0.00     0.346 HD
ATOM     13  H   UNL A   1      31.281  29.760  24.763  1.00  0.00     0.346 HD
BRANCH  11  14
ATOM     14  C   UNL A   1      30.195  28.736  23.390  1.00  0.00     0.239 C 
ATOM     15  C   UNL A   1      29.234  27.541  23.382  1.00  0.00     0.083 C 
BRANCH  14  16
ATOM     16  C   UNL A   1      29.456  30.040  23.130  1.00  0.00     0.150 A 
ATOM     17  N   UNL A   1      29.430  31.049  23.983  1.00  0.00    -0.243 NA
ATOM     18  S   UNL A   1      28.584  30.310  21.663  1.00  0.00    -0.121 S 
ATOM     19  C   UNL A   1      28.621  32.055  23.498  1.00  0.00     0.123 A 
ATOM     20  C   UNL A   1      28.093  31.843  22.245  1.00  0.00     0.087 A 
ENDBRANCH  14  16
ENDBRANCH  11  14
ENDBRANCH  10  11
ENDBRANCH   7  10
ENDBRANCH   4   7
ENDBRANCH   2   3
ENDBRANCH   1   2
BRANCH   1  21
ATOM     21  C   UNL A   1      33.628  31.505  27.819  1.00  0.00     0.023 C 
BRANCH  21  22
ATOM     22  C   UNL A   1      33.930  32.924  27.350  1.00  0.00     0.116 C 
BRANCH  22  23
ATOM     23  N   UNL A   1      33.141  33.935  28.040  1.00  0.00    -0.352 N 
ATOM     24  C   UNL A   1      33.347  34.458  29.296  1.00  0.00     0.251 C 
ATOM     25  H   UNL A   1      32.365  34.286  27.548  1.00  0.00     0.163 HD
ATOM     26  O   UNL A   1      32.529  35.228  29.790  1.00  0.00    -0.269 OA
BRANCH  24  27
ATOM     27  C   UNL A   1      34.547  34.043  30.048  1.00  0.00     0.039 A 
ATOM     28  C   UNL A   1      34.416  33.113  31.083  1.00  0.00     0.014 A 
ATOM     29  C   UNL A   1      35.805  34.522  29.677  1.00  0.00     0.014 A 
ATOM     30  C   UNL A   1      35.562  32.600  31.696  1.00  0.00     0.010 A 
ATOM     31  C   UNL A   1      36.944  33.964  30.245  1.00  0.00     0.010 A 
ATOM     32  C   UNL A   1      36.834  32.992  31.254  1.00  0.00    -0.014 A 
BRANCH  32  33
ATOM     33  C   UNL A   1      38.082  32.430  31.833  1.00  0.00     0.031 A 
ATOM     34  C   UNL A   1      38.782  31.312  31.111  1.00  0.00     0.074 A 
ATOM     35  C   UNL A   1      38.512  32.836  33.043  1.00  0.00     0.049 A 
ATOM     36  N   UNL A   1      39.740  30.527  31.527  1.00  0.00    -0.248 NA
ATOM     37  C   UNL A   1      38.306  31.020  29.751  1.00  0.00     0.031 C 
ATOM     38  C   UNL A   1      37.906  33.899  33.846  1.00  0.00     0.029 A 
ATOM     39  N   UNL A   1      39.546  32.381  33.823  1.00  0.00    -0.354 N 
ATOM     40  C   UNL A   1      39.957  29.621  30.494  1.00  0.00     0.074 A 
ATOM     41  C   UNL A   1      38.998  29.932  29.454  1.00  0.00     0.031 C 
ATOM     42  C   UNL A   1      38.579  34.014  35.003  1.00  0.00     0.029 A 
ATOM     43  C   UNL A   1      39.629  33.000  35.049  1.00  0.00     0.049 A 
ATOM     44  H   UNL A   1      40.170  31.677  33.533  1.00  0.00     0.167 HD
ATOM     45  C   UNL A   1      40.879  28.630  30.418  1.00  0.00     0.034 A 
ATOM     46  C   UNL A   1      40.437  32.757  36.100  1.00  0.00     0.034 A 
ATOM     47  C   UNL A   1      41.843  28.354  31.454  1.00  0.00     0.049 A 
ATOM     48  C   UNL A   1      41.449  31.644  36.000  1.00  0.00     0.074 A 
ATOM     49  C   UNL A   1      42.851  27.408  31.466  1.00  0.00     0.029 A 
ATOM     50  N   UNL A   1      41.918  29.032  32.665  1.00  0.00    -0.354 N 
ATOM     51  N   UNL A   1      41.653  30.802  35.013  1.00  0.00    -0.248 NA
ATOM     52  C   UNL A   1      42.343  31.449  37.150  1.00  0.00     0.031 C 
ATOM     53  C   UNL A   1      43.503  27.477  32.702  1.00  0.00     0.029 A 
ATOM     54  C   UNL A   1      42.946  28.512  33.435  1.00  0.00     0.049 A 
ATOM     55  H   UNL A   1      41.328  29.772  32.936  1.00  0.00     0.167 HD
ATOM     56  C   UNL A   1      42.723  30.004  35.408  1.00  0.00     0.074 A 
ATOM     57  C   UNL A   1      43.119  30.462  36.724  1.00  0.00     0.031 C 
ATOM     58  C   UNL A   1      43.332  28.994  34.740  1.00  0.00     0.034 A 
BRANCH  45  59
ATOM     59  C   UNL A   1      40.858  27.759  29.185  1.00  0.00     0.023 A 
ATOM     60  C   UNL A   1      41.776  27.943  28.137  1.00  0.00     0.031 A 
ATOM     61  C   UNL A   1      39.879  26.760  29.036  1.00  0.00     0.131 A 
ATOM     62  C   UNL A   1      41.642  27.203  26.953  1.00  0.00     0.055 A 
ATOM     63  C   UNL A   1      39.806  25.968  27.889  1.00  0.00     0.041 A 
ATOM     64  F   UNL A   1      38.962  26.552  29.995  1.00  0.00    -0.206 F 
ATOM     65  C   UNL A   1      40.680  26.199  26.830  1.00  0.00     0.022 A 
BRANCH  62  66
ATOM     66  S   UNL A   1      42.646  27.681  25.520  1.00  0.00     0.124 S 
ATOM     67  O   UNL A   1      42.382  26.580  24.597  1.00  0.00    -0.237 OA
ATOM     68  O   UNL A   1      42.078  28.973  25.152  1.00  0.00    -0.237 OA
ATOM     69  O   UNL A   1      44.005  27.726  26.053  1.00  0.00    -0.744 OA
ENDBRANCH  62  66
ENDBRANCH  45  59
BRANCH  46  70
ATOM     70  C   UNL A   1      40.315  33.563  37.348  1.00  0.00     0.023 A 
ATOM     71  C   UNL A   1      39.698  33.031  38.491  1.00  0.00     0.031 A 
ATOM     72  C   UNL A   1      40.782  34.888  37.406  1.00  0.00     0.131 A 
ATOM     73  C   UNL A   1      39.523  33.833  39.630  1.00  0.00     0.055 A 
ATOM     74  C   UNL A   1      40.649  35.667  38.557  1.00  0.00     0.041 A 
ATOM     75  F   UNL A   1      41.386  35.442  36.343  1.00  0.00    -0.206 F 
ATOM     76  C   UNL A   1      40.005  35.144  39.675  1.00  0.00     0.022 A 
BRANCH  73  77
ATOM     77  S   UNL A   1      38.587  33.162  41.030  1.00  0.00     0.124 S 
ATOM     78  O   UNL A   1      37.489  34.117  41.139  1.00  0.00    -0.237 OA
ATOM     79  O   UNL A   1      38.234  31.830  40.547  1.00  0.00    -0.237 OA
ATOM     80  O   UNL A   1      39.549  33.189  42.128  1.00  0.00    -0.744 OA
ENDBRANCH  73  77
ENDBRANCH  46  70
BRANCH  58  81
ATOM     81  C   UNL A   1      44.541  28.369  35.384  1.00  0.00     0.023 A 
ATOM     82  C   UNL A   1      44.435  27.299  36.288  1.00  0.00     0.031 A 
ATOM     83  C   UNL A   1      45.825  28.840  35.054  1.00  0.00     0.131 A 
ATOM     84  C   UNL A   1      45.596  26.751  36.855  1.00  0.00     0.055 A 
ATOM     85  C   UNL A   1      46.977  28.263  35.588  1.00  0.00     0.041 A 
ATOM     86  F   UNL A   1      45.978  29.859  34.194  1.00  0.00    -0.206 F 
ATOM     87  C   UNL A   1      46.865  27.216  36.499  1.00  0.00     0.022 A 
BRANCH  84  88
ATOM     88  S   UNL A   1      45.429  25.440  38.096  1.00  0.00     0.124 S 
ATOM     89  O   UNL A   1      46.822  25.091  38.357  1.00  0.00    -0.237 OA
ATOM     90  O   UNL A   1      44.729  26.120  39.181  1.00  0.00    -0.237 OA
ATOM     91  O   UNL A   1      44.651  24.411  37.408  1.00  0.00    -0.744 OA
ENDBRANCH  84  88
ENDBRANCH  58  81
ENDBRANCH  32  33
ENDBRANCH  24  27
ENDBRANCH  22  23
ENDBRANCH  21  22
ENDBRANCH   1  21
TORSDOF 18
ENDMDL
