MODEL 1
REMARK VINA RESULT:     -10.7      0.000      0.000
REMARK SMILES COc1cc(Br)ccc1[C@H]([NH3+])C(=O)NCCCCNC(=O)c1ccc(-c2c3nc(c(-c4cc(S(=O)(=O)[O-])ccc4F)c4ccc([nH]4)c(-c4cc(S(=O)(=O)[O-])ccc4F)c4nc(c(-c5cc(S(=O)(=O)[O-])ccc5F)c5ccc2[nH]5)C=C4)C=C3)cc1
REMARK SMILES IDX 17 1 16 2 15 3 14 4 12 5 13 6 10 8 9 9 3 10 4 11 5 12 8 13
REMARK SMILES IDX 6 14 7 15 2 16 1 17 11 18 18 22 19 23 20 24 21 26 22 27
REMARK SMILES IDX 23 28 84 29 24 30 83 31 25 32 26 33 27 34 77 35 28 36 82 37
REMARK SMILES IDX 76 38 78 39 29 40 81 41 75 42 74 43 30 45 62 46 42 47 61 48
REMARK SMILES IDX 43 49 46 50 60 51 79 52 44 53 45 54 59 56 80 57 47 58 31 59
REMARK SMILES IDX 32 60 40 61 33 62 39 63 41 64 38 65 34 66 35 67 36 68 37 69
REMARK SMILES IDX 63 70 64 71 72 72 65 73 71 74 73 75 70 76 66 77 67 78 68 79
REMARK SMILES IDX 69 80 48 81 49 82 57 83 50 84 56 85 58 86 55 87 51 88 52 89
REMARK SMILES IDX 53 90 54 91
REMARK H PARENT 14 7 11 19 11 20 11 21 19 25 78 44 46 55
REMARK Flexibility Score: inf
ROOT
ATOM      1  C   UNL A   1      32.811  28.383  24.598  1.00  0.00     0.023 C 
ENDROOT
BRANCH   1   2
ATOM      2  C   UNL A   1      31.729  27.355  24.945  1.00  0.00     0.023 C 
BRANCH   2   3
ATOM      3  C   UNL A   1      31.077  26.683  23.740  1.00  0.00     0.116 C 
BRANCH   3   4
ATOM      4  N   UNL A   1      31.977  26.622  22.609  1.00  0.00    -0.351 N 
ATOM      5  C   UNL A   1      32.745  25.584  22.157  1.00  0.00     0.283 C 
ATOM      6  O   UNL A   1      33.368  25.763  21.103  1.00  0.00    -0.268 OA
ATOM      7  H   UNL A   1      32.046  27.452  22.085  1.00  0.00     0.163 HD
BRANCH   5   8
ATOM      8  C   UNL A   1      32.896  24.268  22.963  1.00  0.00     0.306 C 
BRANCH   8   9
ATOM      9  C   UNL A   1      34.193  24.075  23.762  1.00  0.00     0.061 A 
ATOM     10  C   UNL A   1      34.269  24.264  25.162  1.00  0.00     0.129 A 
ATOM     11  C   UNL A   1      35.453  23.988  25.861  1.00  0.00     0.062 A 
ATOM     12  C   UNL A   1      36.574  23.524  25.182  1.00  0.00     0.021 A 
ATOM     13  C   UNL A   1      35.345  23.575  23.113  1.00  0.00     0.015 A 
ATOM     14  Br  UNL A   1      38.162  23.142  26.135  1.00  0.00    -0.051 Br
ATOM     15  C   UNL A   1      36.526  23.314  23.813  1.00  0.00     0.016 A 
BRANCH  10  16
ATOM     16  O   UNL A   1      33.133  24.651  25.819  1.00  0.00    -0.496 OA
ATOM     17  C   UNL A   1      32.530  23.667  26.658  1.00  0.00     0.278 C 
ENDBRANCH  10  16
ENDBRANCH   8   9
BRANCH   8  18
ATOM     18  N   UNL A   1      32.566  23.144  22.048  1.00  0.00    -0.343 N 
ATOM     19  H   UNL A   1      33.051  23.274  21.160  1.00  0.00     0.345 HD
ATOM     20  H   UNL A   1      31.558  23.123  21.885  1.00  0.00     0.345 HD
ATOM     21  H   UNL A   1      32.860  22.263  22.471  1.00  0.00     0.345 HD
ENDBRANCH   8  18
ENDBRANCH   5   8
ENDBRANCH   3   4
ENDBRANCH   2   3
ENDBRANCH   1   2
BRANCH   1  22
ATOM     22  C   UNL A   1      33.743  28.759  25.745  1.00  0.00     0.116 C 
BRANCH  22  23
ATOM     23  N   UNL A   1      33.515  30.113  26.221  1.00  0.00    -0.352 N 
ATOM     24  C   UNL A   1      34.165  30.807  27.214  1.00  0.00     0.251 C 
ATOM     25  H   UNL A   1      32.791  30.603  25.770  1.00  0.00     0.163 HD
ATOM     26  O   UNL A   1      33.699  31.870  27.609  1.00  0.00    -0.269 OA
BRANCH  24  27
ATOM     27  C   UNL A   1      35.407  30.264  27.810  1.00  0.00     0.039 A 
ATOM     28  C   UNL A   1      36.599  30.350  27.086  1.00  0.00     0.014 A 
ATOM     29  C   UNL A   1      35.395  29.651  29.067  1.00  0.00     0.014 A 
ATOM     30  C   UNL A   1      37.783  29.856  27.638  1.00  0.00     0.010 A 
ATOM     31  C   UNL A   1      36.591  29.236  29.650  1.00  0.00     0.010 A 
ATOM     32  C   UNL A   1      37.795  29.311  28.933  1.00  0.00    -0.014 A 
BRANCH  32  33
ATOM     33  C   UNL A   1      39.044  28.762  29.524  1.00  0.00     0.031 A 
ATOM     34  C   UNL A   1      39.566  29.323  30.822  1.00  0.00     0.074 A 
ATOM     35  C   UNL A   1      39.725  27.788  28.887  1.00  0.00     0.049 A 
ATOM     36  N   UNL A   1      40.656  29.018  31.480  1.00  0.00    -0.248 NA
ATOM     37  C   UNL A   1      38.769  30.390  31.447  1.00  0.00     0.031 C 
ATOM     38  C   UNL A   1      39.340  27.186  27.609  1.00  0.00     0.029 A 
ATOM     39  N   UNL A   1      40.882  27.132  29.226  1.00  0.00    -0.354 N 
ATOM     40  C   UNL A   1      40.679  29.861  32.587  1.00  0.00     0.074 A 
ATOM     41  C   UNL A   1      39.536  30.740  32.468  1.00  0.00     0.031 C 
ATOM     42  C   UNL A   1      40.226  26.230  27.289  1.00  0.00     0.029 A 
ATOM     43  C   UNL A   1      41.266  26.178  28.312  1.00  0.00     0.049 A 
ATOM     44  H   UNL A   1      41.390  27.327  30.047  1.00  0.00     0.167 HD
ATOM     45  C   UNL A   1      41.555  29.883  33.623  1.00  0.00     0.034 A 
ATOM     46  C   UNL A   1      42.338  25.359  28.298  1.00  0.00     0.034 A 
ATOM     47  C   UNL A   1      42.684  28.992  33.734  1.00  0.00     0.049 A 
ATOM     48  C   UNL A   1      43.315  25.418  29.448  1.00  0.00     0.074 A 
ATOM     49  C   UNL A   1      43.614  28.901  34.755  1.00  0.00     0.029 A 
ATOM     50  N   UNL A   1      43.041  28.037  32.788  1.00  0.00    -0.354 N 
ATOM     51  N   UNL A   1      43.300  26.193  30.508  1.00  0.00    -0.248 NA
ATOM     52  C   UNL A   1      44.442  24.479  29.408  1.00  0.00     0.031 C 
ATOM     53  C   UNL A   1      44.569  27.943  34.396  1.00  0.00     0.029 A 
ATOM     54  C   UNL A   1      44.188  27.372  33.192  1.00  0.00     0.049 A 
ATOM     55  H   UNL A   1      42.550  27.860  31.953  1.00  0.00     0.167 HD
ATOM     56  C   UNL A   1      44.390  25.801  31.281  1.00  0.00     0.074 A 
ATOM     57  C   UNL A   1      45.031  24.715  30.570  1.00  0.00     0.031 C 
ATOM     58  C   UNL A   1      44.818  26.288  32.475  1.00  0.00     0.034 A 
BRANCH  45  59
ATOM     59  C   UNL A   1      41.332  30.920  34.699  1.00  0.00     0.023 A 
ATOM     60  C   UNL A   1      40.218  30.869  35.556  1.00  0.00     0.031 A 
ATOM     61  C   UNL A   1      42.229  31.993  34.855  1.00  0.00     0.131 A 
ATOM     62  C   UNL A   1      39.983  31.910  36.467  1.00  0.00     0.055 A 
ATOM     63  C   UNL A   1      42.038  32.979  35.826  1.00  0.00     0.041 A 
ATOM     64  F   UNL A   1      43.300  32.111  34.053  1.00  0.00    -0.206 F 
ATOM     65  C   UNL A   1      40.900  32.950  36.627  1.00  0.00     0.022 A 
BRANCH  62  66
ATOM     66  S   UNL A   1      38.385  31.967  37.322  1.00  0.00     0.124 S 
ATOM     67  O   UNL A   1      37.818  30.667  36.972  1.00  0.00    -0.237 OA
ATOM     68  O   UNL A   1      38.778  32.139  38.716  1.00  0.00    -0.237 OA
ATOM     69  O   UNL A   1      37.713  33.115  36.716  1.00  0.00    -0.744 OA
ENDBRANCH  62  66
ENDBRANCH  45  59
BRANCH  46  70
ATOM     70  C   UNL A   1      42.555  24.410  27.167  1.00  0.00     0.023 A 
ATOM     71  C   UNL A   1      42.061  23.097  27.218  1.00  0.00     0.031 A 
ATOM     72  C   UNL A   1      43.312  24.784  26.041  1.00  0.00     0.131 A 
ATOM     73  C   UNL A   1      42.376  22.189  26.195  1.00  0.00     0.055 A 
ATOM     74  C   UNL A   1      43.572  23.895  24.997  1.00  0.00     0.041 A 
ATOM     75  F   UNL A   1      43.806  26.028  25.939  1.00  0.00    -0.206 F 
ATOM     76  C   UNL A   1      43.116  22.583  25.078  1.00  0.00     0.022 A 
BRANCH  73  77
ATOM     77  S   UNL A   1      41.892  20.451  26.395  1.00  0.00     0.124 S 
ATOM     78  O   UNL A   1      42.207  20.217  27.800  1.00  0.00    -0.237 OA
ATOM     79  O   UNL A   1      40.475  20.492  26.053  1.00  0.00    -0.237 OA
ATOM     80  O   UNL A   1      42.743  19.749  25.438  1.00  0.00    -0.744 OA
ENDBRANCH  73  77
ENDBRANCH  46  70
BRANCH  58  81
ATOM     81  C   UNL A   1      45.997  25.597  33.119  1.00  0.00     0.023 A 
ATOM     82  C   UNL A   1      45.839  24.512  33.999  1.00  0.00     0.031 A 
ATOM     83  C   UNL A   1      47.304  26.046  32.853  1.00  0.00     0.131 A 
ATOM     84  C   UNL A   1      46.961  23.956  34.631  1.00  0.00     0.055 A 
ATOM     85  C   UNL A   1      48.421  25.444  33.433  1.00  0.00     0.041 A 
ATOM     86  F   UNL A   1      47.516  27.080  32.024  1.00  0.00    -0.206 F 
ATOM     87  C   UNL A   1      48.253  24.403  34.340  1.00  0.00     0.022 A 
BRANCH  84  88
ATOM     88  S   UNL A   1      46.704  22.713  35.927  1.00  0.00     0.124 S 
ATOM     89  O   UNL A   1      46.330  23.539  37.071  1.00  0.00    -0.237 OA
ATOM     90  O   UNL A   1      45.641  21.889  35.361  1.00  0.00    -0.237 OA
ATOM     91  O   UNL A   1      48.006  22.056  36.036  1.00  0.00    -0.744 OA
ENDBRANCH  84  88
ENDBRANCH  58  81
ENDBRANCH  32  33
ENDBRANCH  24  27
ENDBRANCH  22  23
ENDBRANCH   1  22
TORSDOF 17
ENDMDL
MODEL 2
REMARK VINA RESULT:     -10.7      1.640      1.897
REMARK SMILES COc1cc(Br)ccc1[C@H]([NH3+])C(=O)NCCCCNC(=O)c1ccc(-c2c3nc(c(-c4cc(S(=O)(=O)[O-])ccc4F)c4ccc([nH]4)c(-c4cc(S(=O)(=O)[O-])ccc4F)c4nc(c(-c5cc(S(=O)(=O)[O-])ccc5F)c5ccc2[nH]5)C=C4)C=C3)cc1
REMARK SMILES IDX 17 1 16 2 15 3 14 4 12 5 13 6 10 8 9 9 3 10 4 11 5 12 8 13
REMARK SMILES IDX 6 14 7 15 2 16 1 17 11 18 18 22 19 23 20 24 21 26 22 27
REMARK SMILES IDX 23 28 84 29 24 30 83 31 25 32 26 33 27 34 77 35 28 36 82 37
REMARK SMILES IDX 76 38 78 39 29 40 81 41 75 42 74 43 30 45 62 46 42 47 61 48
REMARK SMILES IDX 43 49 46 50 60 51 79 52 44 53 45 54 59 56 80 57 47 58 31 59
REMARK SMILES IDX 32 60 40 61 33 62 39 63 41 64 38 65 34 66 35 67 36 68 37 69
REMARK SMILES IDX 63 70 64 71 72 72 65 73 71 74 73 75 70 76 66 77 67 78 68 79
REMARK SMILES IDX 69 80 48 81 49 82 57 83 50 84 56 85 58 86 55 87 51 88 52 89
REMARK SMILES IDX 53 90 54 91
REMARK H PARENT 14 7 11 19 11 20 11 21 19 25 78 44 46 55
REMARK Flexibility Score: inf
ROOT
ATOM      1  C   UNL A   1      33.006  28.524  24.837  1.00  0.00     0.023 C 
ENDROOT
BRANCH   1   2
ATOM      2  C   UNL A   1      31.808  27.622  25.147  1.00  0.00     0.023 C 
BRANCH   2   3
ATOM      3  C   UNL A   1      31.340  26.758  23.979  1.00  0.00     0.116 C 
BRANCH   3   4
ATOM      4  N   UNL A   1      32.289  26.774  22.887  1.00  0.00    -0.351 N 
ATOM      5  C   UNL A   1      33.050  25.760  22.374  1.00  0.00     0.283 C 
ATOM      6  O   UNL A   1      33.725  26.017  21.369  1.00  0.00    -0.268 OA
ATOM      7  H   UNL A   1      32.404  27.647  22.447  1.00  0.00     0.163 HD
BRANCH   5   8
ATOM      8  C   UNL A   1      33.129  24.371  23.058  1.00  0.00     0.306 C 
BRANCH   8   9
ATOM      9  C   UNL A   1      34.438  24.012  23.776  1.00  0.00     0.061 A 
ATOM     10  C   UNL A   1      34.629  24.197  25.165  1.00  0.00     0.129 A 
ATOM     11  C   UNL A   1      35.809  23.770  25.792  1.00  0.00     0.062 A 
ATOM     12  C   UNL A   1      36.812  23.157  25.049  1.00  0.00     0.021 A 
ATOM     13  C   UNL A   1      35.469  23.359  23.062  1.00  0.00     0.015 A 
ATOM     14  Br  UNL A   1      38.394  22.572  25.904  1.00  0.00    -0.051 Br
ATOM     15  C   UNL A   1      36.648  22.947  23.689  1.00  0.00     0.016 A 
BRANCH  10  16
ATOM     16  O   UNL A   1      33.599  24.736  25.887  1.00  0.00    -0.496 OA
ATOM     17  C   UNL A   1      32.854  23.822  26.692  1.00  0.00     0.278 C 
ENDBRANCH  10  16
ENDBRANCH   8   9
BRANCH   8  18
ATOM     18  N   UNL A   1      32.673  23.360  22.069  1.00  0.00    -0.343 N 
ATOM     19  H   UNL A   1      32.188  22.604  22.553  1.00  0.00     0.345 HD
ATOM     20  H   UNL A   1      33.481  22.982  21.572  1.00  0.00     0.345 HD
ATOM     21  H   UNL A   1      32.039  23.799  21.401  1.00  0.00     0.345 HD
ENDBRANCH   8  18
ENDBRANCH   5   8
ENDBRANCH   3   4
ENDBRANCH   2   3
ENDBRANCH   1   2
BRANCH   1  22
ATOM     22  C   UNL A   1      33.911  28.835  26.025  1.00  0.00     0.116 C 
BRANCH  22  23
ATOM     23  N   UNL A   1      33.737  30.193  26.512  1.00  0.00    -0.352 N 
ATOM     24  C   UNL A   1      34.442  30.866  27.481  1.00  0.00     0.251 C 
ATOM     25  H   UNL A   1      33.011  30.704  26.088  1.00  0.00     0.163 HD
ATOM     26  O   UNL A   1      34.019  31.941  27.895  1.00  0.00    -0.269 OA
BRANCH  24  27
ATOM     27  C   UNL A   1      35.689  30.289  28.031  1.00  0.00     0.039 A 
ATOM     28  C   UNL A   1      36.859  30.357  27.270  1.00  0.00     0.014 A 
ATOM     29  C   UNL A   1      35.704  29.661  29.280  1.00  0.00     0.014 A 
ATOM     30  C   UNL A   1      38.049  29.830  27.778  1.00  0.00     0.010 A 
ATOM     31  C   UNL A   1      36.907  29.211  29.819  1.00  0.00     0.010 A 
ATOM     32  C   UNL A   1      38.089  29.269  29.065  1.00  0.00    -0.014 A 
BRANCH  32  33
ATOM     33  C   UNL A   1      39.344  28.685  29.610  1.00  0.00     0.031 A 
ATOM     34  C   UNL A   1      39.987  29.297  30.827  1.00  0.00     0.074 A 
ATOM     35  C   UNL A   1      39.922  27.631  28.999  1.00  0.00     0.049 A 
ATOM     36  N   UNL A   1      41.101  28.970  31.432  1.00  0.00    -0.248 NA
ATOM     37  C   UNL A   1      39.298  30.450  31.427  1.00  0.00     0.031 C 
ATOM     38  C   UNL A   1      39.415  26.970  27.795  1.00  0.00     0.029 A 
ATOM     39  N   UNL A   1      41.061  26.929  29.306  1.00  0.00    -0.354 N 
ATOM     40  C   UNL A   1      41.250  29.882  32.472  1.00  0.00     0.074 A 
ATOM     41  C   UNL A   1      40.152  30.819  32.368  1.00  0.00     0.031 C 
ATOM     42  C   UNL A   1      40.221  25.942  27.485  1.00  0.00     0.029 A 
ATOM     43  C   UNL A   1      41.326  25.895  28.438  1.00  0.00     0.049 A 
ATOM     44  H   UNL A   1      41.636  27.146  30.076  1.00  0.00     0.167 HD
ATOM     45  C   UNL A   1      42.196  29.919  33.444  1.00  0.00     0.034 A 
ATOM     46  C   UNL A   1      42.345  25.013  28.411  1.00  0.00     0.034 A 
ATOM     47  C   UNL A   1      43.278  28.970  33.542  1.00  0.00     0.049 A 
ATOM     48  C   UNL A   1      43.403  25.088  29.487  1.00  0.00     0.074 A 
ATOM     49  C   UNL A   1      44.270  28.890  34.504  1.00  0.00     0.029 A 
ATOM     50  N   UNL A   1      43.512  27.934  32.645  1.00  0.00    -0.354 N 
ATOM     51  N   UNL A   1      43.506  25.931  30.488  1.00  0.00    -0.248 NA
ATOM     52  C   UNL A   1      44.469  24.080  29.438  1.00  0.00     0.031 C 
ATOM     53  C   UNL A   1      45.142  27.854  34.150  1.00  0.00     0.029 A 
ATOM     54  C   UNL A   1      44.646  27.229  33.017  1.00  0.00     0.049 A 
ATOM     55  H   UNL A   1      42.955  27.732  31.859  1.00  0.00     0.167 HD
ATOM     56  C   UNL A   1      44.624  25.524  31.213  1.00  0.00     0.074 A 
ATOM     57  C   UNL A   1      45.151  24.356  30.539  1.00  0.00     0.031 C 
ATOM     58  C   UNL A   1      45.161  26.063  32.338  1.00  0.00     0.034 A 
BRANCH  45  59
ATOM     59  C   UNL A   1      42.108  31.037  34.458  1.00  0.00     0.023 A 
ATOM     60  C   UNL A   1      42.781  32.258  34.272  1.00  0.00     0.031 A 
ATOM     61  C   UNL A   1      41.367  30.871  35.641  1.00  0.00     0.131 A 
ATOM     62  C   UNL A   1      42.769  33.228  35.286  1.00  0.00     0.055 A 
ATOM     63  C   UNL A   1      41.284  31.876  36.607  1.00  0.00     0.041 A 
ATOM     64  F   UNL A   1      40.721  29.720  35.888  1.00  0.00    -0.206 F 
ATOM     65  C   UNL A   1      42.003  33.058  36.440  1.00  0.00     0.022 A 
BRANCH  62  66
ATOM     66  S   UNL A   1      43.897  34.642  35.144  1.00  0.00     0.124 S 
ATOM     67  O   UNL A   1      44.630  34.311  33.924  1.00  0.00    -0.237 OA
ATOM     68  O   UNL A   1      42.979  35.770  35.052  1.00  0.00    -0.237 OA
ATOM     69  O   UNL A   1      44.686  34.575  36.373  1.00  0.00    -0.744 OA
ENDBRANCH  62  66
ENDBRANCH  45  59
BRANCH  46  70
ATOM     70  C   UNL A   1      42.428  23.979  27.337  1.00  0.00     0.023 A 
ATOM     71  C   UNL A   1      41.874  22.702  27.516  1.00  0.00     0.031 A 
ATOM     72  C   UNL A   1      43.117  24.234  26.137  1.00  0.00     0.131 A 
ATOM     73  C   UNL A   1      42.065  21.711  26.540  1.00  0.00     0.055 A 
ATOM     74  C   UNL A   1      43.253  23.264  25.143  1.00  0.00     0.041 A 
ATOM     75  F   UNL A   1      43.665  25.439  25.911  1.00  0.00    -0.206 F 
ATOM     76  C   UNL A   1      42.738  21.987  25.349  1.00  0.00     0.022 A 
BRANCH  73  77
ATOM     77  S   UNL A   1      41.510  20.021  26.898  1.00  0.00     0.124 S 
ATOM     78  O   UNL A   1      40.751  19.698  25.694  1.00  0.00    -0.237 OA
ATOM     79  O   UNL A   1      42.776  19.318  27.067  1.00  0.00    -0.237 OA
ATOM     80  O   UNL A   1      40.716  20.174  28.115  1.00  0.00    -0.744 OA
ENDBRANCH  73  77
ENDBRANCH  46  70
BRANCH  58  81
ATOM     81  C   UNL A   1      46.342  25.345  32.950  1.00  0.00     0.023 A 
ATOM     82  C   UNL A   1      46.184  24.306  33.884  1.00  0.00     0.031 A 
ATOM     83  C   UNL A   1      47.651  25.721  32.597  1.00  0.00     0.131 A 
ATOM     84  C   UNL A   1      47.313  23.725  34.481  1.00  0.00     0.055 A 
ATOM     85  C   UNL A   1      48.770  25.092  33.144  1.00  0.00     0.041 A 
ATOM     86  F   UNL A   1      47.864  26.709  31.713  1.00  0.00    -0.206 F 
ATOM     87  C   UNL A   1      48.605  24.099  34.103  1.00  0.00     0.022 A 
BRANCH  84  88
ATOM     88  S   UNL A   1      47.071  22.550  35.842  1.00  0.00     0.124 S 
ATOM     89  O   UNL A   1      45.631  22.319  35.792  1.00  0.00    -0.237 OA
ATOM     90  O   UNL A   1      47.912  21.428  35.438  1.00  0.00    -0.237 OA
ATOM     91  O   UNL A   1      47.541  23.284  37.016  1.00  0.00    -0.744 OA
ENDBRANCH  84  88
ENDBRANCH  58  81
ENDBRANCH  32  33
ENDBRANCH  24  27
ENDBRANCH  22  23
ENDBRANCH   1  22
TORSDOF 17
ENDMDL
MODEL 3
REMARK VINA RESULT:     -10.6      5.168     10.109
REMARK SMILES COc1cc(Br)ccc1[C@H]([NH3+])C(=O)NCCCCNC(=O)c1ccc(-c2c3nc(c(-c4cc(S(=O)(=O)[O-])ccc4F)c4ccc([nH]4)c(-c4cc(S(=O)(=O)[O-])ccc4F)c4nc(c(-c5cc(S(=O)(=O)[O-])ccc5F)c5ccc2[nH]5)C=C4)C=C3)cc1
REMARK SMILES IDX 17 1 16 2 15 3 14 4 12 5 13 6 10 8 9 9 3 10 4 11 5 12 8 13
REMARK SMILES IDX 6 14 7 15 2 16 1 17 11 18 18 22 19 23 20 24 21 26 22 27
REMARK SMILES IDX 23 28 84 29 24 30 83 31 25 32 26 33 27 34 77 35 28 36 82 37
REMARK SMILES IDX 76 38 78 39 29 40 81 41 75 42 74 43 30 45 62 46 42 47 61 48
REMARK SMILES IDX 43 49 46 50 60 51 79 52 44 53 45 54 59 56 80 57 47 58 31 59
REMARK SMILES IDX 32 60 40 61 33 62 39 63 41 64 38 65 34 66 35 67 36 68 37 69
REMARK SMILES IDX 63 70 64 71 72 72 65 73 71 74 73 75 70 76 66 77 67 78 68 79
REMARK SMILES IDX 69 80 48 81 49 82 57 83 50 84 56 85 58 86 55 87 51 88 52 89
REMARK SMILES IDX 53 90 54 91
REMARK H PARENT 14 7 11 19 11 20 11 21 19 25 78 44 46 55
REMARK Flexibility Score: inf
ROOT
ATOM      1  C   UNL A   1      35.781  21.910  25.814  1.00  0.00     0.023 C 
ENDROOT
BRANCH   1   2
ATOM      2  C   UNL A   1      34.881  21.463  24.658  1.00  0.00     0.023 C 
BRANCH   2   3
ATOM      3  C   UNL A   1      33.388  21.473  24.971  1.00  0.00     0.116 C 
BRANCH   3   4
ATOM      4  N   UNL A   1      33.126  21.917  26.324  1.00  0.00    -0.351 N 
ATOM      5  C   UNL A   1      32.187  22.793  26.791  1.00  0.00     0.283 C 
ATOM      6  O   UNL A   1      32.112  22.937  28.018  1.00  0.00    -0.268 OA
ATOM      7  H   UNL A   1      33.714  21.528  27.011  1.00  0.00     0.163 HD
BRANCH   5   8
ATOM      8  C   UNL A   1      31.302  23.631  25.831  1.00  0.00     0.306 C 
BRANCH   8   9
ATOM      9  C   UNL A   1      31.966  24.812  25.111  1.00  0.00     0.061 A 
ATOM     10  C   UNL A   1      31.286  25.618  24.168  1.00  0.00     0.129 A 
ATOM     11  C   UNL A   1      31.906  26.742  23.602  1.00  0.00     0.062 A 
ATOM     12  C   UNL A   1      33.207  27.078  23.962  1.00  0.00     0.021 A 
ATOM     13  C   UNL A   1      33.275  25.204  25.471  1.00  0.00     0.015 A 
ATOM     14  Br  UNL A   1      34.031  28.602  23.205  1.00  0.00    -0.051 Br
ATOM     15  C   UNL A   1      33.894  26.317  24.896  1.00  0.00     0.016 A 
BRANCH  10  16
ATOM     16  O   UNL A   1      29.984  25.310  23.883  1.00  0.00    -0.496 OA
ATOM     17  C   UNL A   1      29.063  26.400  23.915  1.00  0.00     0.278 C 
ENDBRANCH  10  16
ENDBRANCH   8   9
BRANCH   8  18
ATOM     18  N   UNL A   1      30.056  23.980  26.564  1.00  0.00    -0.343 N 
ATOM     19  H   UNL A   1      29.849  23.254  27.250  1.00  0.00     0.345 HD
ATOM     20  H   UNL A   1      29.282  24.054  25.903  1.00  0.00     0.345 HD
ATOM     21  H   UNL A   1      30.182  24.873  27.041  1.00  0.00     0.345 HD
ENDBRANCH   8  18
ENDBRANCH   5   8
ENDBRANCH   3   4
ENDBRANCH   2   3
ENDBRANCH   1   2
BRANCH   1  22
ATOM     22  C   UNL A   1      37.220  22.239  25.429  1.00  0.00     0.116 C 
BRANCH  22  23
ATOM     23  N   UNL A   1      38.158  21.225  25.880  1.00  0.00    -0.352 N 
ATOM     24  C   UNL A   1      39.419  21.379  26.404  1.00  0.00     0.251 C 
ATOM     25  H   UNL A   1      37.847  20.296  25.796  1.00  0.00     0.163 HD
ATOM     26  O   UNL A   1      40.139  20.395  26.540  1.00  0.00    -0.269 OA
BRANCH  24  27
ATOM     27  C   UNL A   1      39.909  22.724  26.783  1.00  0.00     0.039 A 
ATOM     28  C   UNL A   1      40.836  22.838  27.823  1.00  0.00     0.014 A 
ATOM     29  C   UNL A   1      39.440  23.872  26.136  1.00  0.00     0.014 A 
ATOM     30  C   UNL A   1      41.320  24.098  28.185  1.00  0.00     0.010 A 
ATOM     31  C   UNL A   1      39.986  25.116  26.443  1.00  0.00     0.010 A 
ATOM     32  C   UNL A   1      40.914  25.247  27.486  1.00  0.00    -0.014 A 
BRANCH  32  33
ATOM     33  C   UNL A   1      41.405  26.596  27.876  1.00  0.00     0.031 A 
ATOM     34  C   UNL A   1      42.821  26.999  27.552  1.00  0.00     0.074 A 
ATOM     35  C   UNL A   1      40.597  27.445  28.542  1.00  0.00     0.049 A 
ATOM     36  N   UNL A   1      43.457  28.106  27.842  1.00  0.00    -0.248 NA
ATOM     37  C   UNL A   1      43.639  26.011  26.831  1.00  0.00     0.031 C 
ATOM     38  C   UNL A   1      39.218  27.159  28.943  1.00  0.00     0.029 A 
ATOM     39  N   UNL A   1      40.817  28.719  29.002  1.00  0.00    -0.354 N 
ATOM     40  C   UNL A   1      44.748  27.942  27.350  1.00  0.00     0.074 A 
ATOM     41  C   UNL A   1      44.824  26.601  26.813  1.00  0.00     0.031 C 
ATOM     42  C   UNL A   1      38.707  28.237  29.558  1.00  0.00     0.029 A 
ATOM     43  C   UNL A   1      39.730  29.275  29.638  1.00  0.00     0.049 A 
ATOM     44  H   UNL A   1      41.673  29.192  28.887  1.00  0.00     0.167 HD
ATOM     45  C   UNL A   1      45.768  28.835  27.321  1.00  0.00     0.034 A 
ATOM     46  C   UNL A   1      39.579  30.480  30.223  1.00  0.00     0.034 A 
ATOM     47  C   UNL A   1      45.673  30.174  27.850  1.00  0.00     0.049 A 
ATOM     48  C   UNL A   1      40.737  31.451  30.203  1.00  0.00     0.074 A 
ATOM     49  C   UNL A   1      46.629  31.175  27.842  1.00  0.00     0.029 A 
ATOM     50  N   UNL A   1      44.555  30.701  28.486  1.00  0.00    -0.354 N 
ATOM     51  N   UNL A   1      41.938  31.294  29.696  1.00  0.00    -0.248 NA
ATOM     52  C   UNL A   1      40.510  32.765  30.817  1.00  0.00     0.031 C 
ATOM     53  C   UNL A   1      46.117  32.279  28.532  1.00  0.00     0.029 A 
ATOM     54  C   UNL A   1      44.808  32.002  28.894  1.00  0.00     0.049 A 
ATOM     55  H   UNL A   1      43.707  30.221  28.626  1.00  0.00     0.167 HD
ATOM     56  C   UNL A   1      42.592  32.509  29.891  1.00  0.00     0.074 A 
ATOM     57  C   UNL A   1      41.648  33.386  30.551  1.00  0.00     0.031 C 
ATOM     58  C   UNL A   1      43.857  32.869  29.549  1.00  0.00     0.034 A 
BRANCH  45  59
ATOM     59  C   UNL A   1      47.076  28.378  26.717  1.00  0.00     0.023 A 
ATOM     60  C   UNL A   1      47.273  28.337  25.325  1.00  0.00     0.031 A 
ATOM     61  C   UNL A   1      48.132  27.948  27.541  1.00  0.00     0.131 A 
ATOM     62  C   UNL A   1      48.457  27.799  24.798  1.00  0.00     0.055 A 
ATOM     63  C   UNL A   1      49.344  27.498  27.012  1.00  0.00     0.041 A 
ATOM     64  F   UNL A   1      47.997  27.941  28.877  1.00  0.00    -0.206 F 
ATOM     65  C   UNL A   1      49.505  27.406  25.632  1.00  0.00     0.022 A 
BRANCH  62  66
ATOM     66  S   UNL A   1      48.542  27.473  23.016  1.00  0.00     0.124 S 
ATOM     67  O   UNL A   1      48.444  26.016  22.979  1.00  0.00    -0.237 OA
ATOM     68  O   UNL A   1      47.389  28.205  22.506  1.00  0.00    -0.237 OA
ATOM     69  O   UNL A   1      49.845  28.013  22.631  1.00  0.00    -0.744 OA
ENDBRANCH  62  66
ENDBRANCH  45  59
BRANCH  46  70
ATOM     70  C   UNL A   1      38.291  30.851  30.880  1.00  0.00     0.023 A 
ATOM     71  C   UNL A   1      37.286  31.528  30.172  1.00  0.00     0.031 A 
ATOM     72  C   UNL A   1      38.070  30.585  32.244  1.00  0.00     0.131 A 
ATOM     73  C   UNL A   1      36.132  31.968  30.840  1.00  0.00     0.055 A 
ATOM     74  C   UNL A   1      36.894  30.971  32.890  1.00  0.00     0.041 A 
ATOM     75  F   UNL A   1      38.995  29.937  32.969  1.00  0.00    -0.206 F 
ATOM     76  C   UNL A   1      35.923  31.681  32.191  1.00  0.00     0.022 A 
BRANCH  73  77
ATOM     77  S   UNL A   1      34.953  33.014  29.942  1.00  0.00     0.124 S 
ATOM     78  O   UNL A   1      35.824  34.057  29.414  1.00  0.00    -0.237 OA
ATOM     79  O   UNL A   1      34.404  32.079  28.965  1.00  0.00    -0.237 OA
ATOM     80  O   UNL A   1      34.020  33.445  30.981  1.00  0.00    -0.744 OA
ENDBRANCH  73  77
ENDBRANCH  46  70
BRANCH  58  81
ATOM     81  C   UNL A   1      44.264  34.299  29.819  1.00  0.00     0.023 A 
ATOM     82  C   UNL A   1      44.041  35.328  28.888  1.00  0.00     0.031 A 
ATOM     83  C   UNL A   1      44.899  34.631  31.030  1.00  0.00     0.131 A 
ATOM     84  C   UNL A   1      44.508  36.624  29.154  1.00  0.00     0.055 A 
ATOM     85  C   UNL A   1      45.299  35.936  31.318  1.00  0.00     0.041 A 
ATOM     86  F   UNL A   1      45.141  33.689  31.956  1.00  0.00    -0.206 F 
ATOM     87  C   UNL A   1      45.119  36.939  30.371  1.00  0.00     0.022 A 
BRANCH  84  88
ATOM     88  S   UNL A   1      44.406  37.873  27.842  1.00  0.00     0.124 S 
ATOM     89  O   UNL A   1      45.716  37.757  27.209  1.00  0.00    -0.237 OA
ATOM     90  O   UNL A   1      43.272  37.404  27.053  1.00  0.00    -0.237 OA
ATOM     91  O   UNL A   1      44.179  39.120  28.572  1.00  0.00    -0.744 OA
ENDBRANCH  84  88
ENDBRANCH  58  81
ENDBRANCH  32  33
ENDBRANCH  24  27
ENDBRANCH  22  23
ENDBRANCH   1  22
TORSDOF 17
ENDMDL
