MODEL 1
REMARK VINA RESULT:     -11.5      0.000      0.000
REMARK SMILES C[C@@H]1CCCCN1S(=O)(=O)c1ccc(CCC(=O)NCCCCNC(=O)c2ccc(-c3c4nc(c(-c5cc(S(=O)(=O)[O-])ccc5F)c5ccc([nH]5)c(-c5cc(S(=O)(=O)[O-])ccc5F)c5nc(c(-c6cc(S(=O)(=O)[O-])ccc6F)c6ccc3[nH]6)C=C5)C=C4)cc2)cc1
REMARK SMILES IDX 21 1 20 2 19 3 17 4 18 5 16 7 15 8 14 9 11 10 12 11 91 12
REMARK SMILES IDX 13 13 90 14 8 15 9 16 10 17 7 18 1 19 2 20 3 21 4 22 6 23
REMARK SMILES IDX 5 24 22 25 23 26 24 27 25 28 26 30 27 31 28 32 89 33 29 34
REMARK SMILES IDX 88 35 30 36 31 37 32 38 82 39 33 40 87 41 81 42 83 43 34 44
REMARK SMILES IDX 86 45 80 46 79 47 35 49 67 50 47 51 66 52 48 53 51 54 65 55
REMARK SMILES IDX 84 56 49 57 50 58 64 60 85 61 52 62 36 63 37 64 45 65 38 66
REMARK SMILES IDX 44 67 46 68 43 69 39 70 40 71 41 72 42 73 68 74 69 75 77 76
REMARK SMILES IDX 70 77 76 78 78 79 75 80 71 81 72 82 73 83 74 84 53 85 54 86
REMARK SMILES IDX 62 87 55 88 61 89 63 90 60 91 56 92 57 93 58 94 59 95
REMARK H PARENT 19 6 24 29 83 48 51 59
REMARK Flexibility Score: inf
ROOT
ATOM      1  C   UNL A   1      32.418  28.873  27.215  1.00  0.00     0.023 C 
ENDROOT
BRANCH   1   2
ATOM      2  C   UNL A   1      32.200  27.910  26.057  1.00  0.00     0.116 C 
BRANCH   2   3
ATOM      3  N   UNL A   1      33.023  28.288  24.921  1.00  0.00    -0.356 N 
ATOM      4  C   UNL A   1      32.649  28.701  23.677  1.00  0.00     0.220 C 
ATOM      5  O   UNL A   1      33.511  28.789  22.801  1.00  0.00    -0.275 OA
ATOM      6  H   UNL A   1      33.995  28.238  25.073  1.00  0.00     0.163 HD
BRANCH   4   7
ATOM      7  C   UNL A   1      31.212  29.099  23.384  1.00  0.00     0.105 C 
BRANCH   7   8
ATOM      8  C   UNL A   1      30.450  28.063  22.539  1.00  0.00     0.045 C 
BRANCH   8   9
ATOM      9  C   UNL A   1      30.394  26.693  23.182  1.00  0.00    -0.047 A 
ATOM     10  C   UNL A   1      30.696  24.380  24.728  1.00  0.00     0.082 A 
ATOM     11  C   UNL A   1      31.387  24.497  23.517  1.00  0.00     0.022 A 
ATOM     12  C   UNL A   1      29.747  25.344  25.088  1.00  0.00     0.022 A 
ATOM     13  C   UNL A   1      31.227  25.654  22.741  1.00  0.00     0.005 A 
ATOM     14  C   UNL A   1      29.585  26.486  24.307  1.00  0.00     0.005 A 
BRANCH  10  15
ATOM     15  S   UNL A   1      31.412  23.385  26.037  1.00  0.00     0.243 S 
ATOM     16  O   UNL A   1      30.771  22.086  25.934  1.00  0.00    -0.207 OA
ATOM     17  O   UNL A   1      31.292  24.160  27.252  1.00  0.00    -0.207 OA
BRANCH  15  18
ATOM     18  N   UNL A   1      33.059  23.215  25.696  1.00  0.00    -0.195 NA
ATOM     19  C   UNL A   1      33.820  21.744  27.619  1.00  0.00     0.026 C 
ATOM     20  C   UNL A   1      33.808  21.995  26.112  1.00  0.00     0.070 C 
ATOM     21  C   UNL A   1      35.266  22.074  25.599  1.00  0.00     0.020 C 
ATOM     22  C   UNL A   1      35.457  23.121  24.507  1.00  0.00     0.003 C 
ATOM     23  C   UNL A   1      33.832  24.468  25.935  1.00  0.00     0.103 C 
ATOM     24  C   UNL A   1      35.039  24.505  25.000  1.00  0.00     0.017 C 
ENDBRANCH  15  18
ENDBRANCH  10  15
ENDBRANCH   8   9
ENDBRANCH   7   8
ENDBRANCH   4   7
ENDBRANCH   2   3
ENDBRANCH   1   2
BRANCH   1  25
ATOM     25  C   UNL A   1      31.865  30.275  27.027  1.00  0.00     0.023 C 
BRANCH  25  26
ATOM     26  C   UNL A   1      32.925  31.323  26.724  1.00  0.00     0.116 C 
BRANCH  26  27
ATOM     27  N   UNL A   1      32.604  32.665  27.203  1.00  0.00    -0.352 N 
ATOM     28  C   UNL A   1      33.268  33.458  28.115  1.00  0.00     0.251 C 
ATOM     29  H   UNL A   1      31.790  33.064  26.818  1.00  0.00     0.163 HD
ATOM     30  O   UNL A   1      32.804  34.537  28.475  1.00  0.00    -0.269 OA
BRANCH  28  31
ATOM     31  C   UNL A   1      34.535  32.984  28.704  1.00  0.00     0.039 A 
ATOM     32  C   UNL A   1      35.587  33.890  28.867  1.00  0.00     0.014 A 
ATOM     33  C   UNL A   1      34.665  31.668  29.141  1.00  0.00     0.014 A 
ATOM     34  C   UNL A   1      36.735  33.494  29.554  1.00  0.00     0.010 A 
ATOM     35  C   UNL A   1      35.742  31.320  29.939  1.00  0.00     0.010 A 
ATOM     36  C   UNL A   1      36.799  32.222  30.140  1.00  0.00    -0.014 A 
BRANCH  36  37
ATOM     37  C   UNL A   1      37.973  31.761  30.923  1.00  0.00     0.031 A 
ATOM     38  C   UNL A   1      38.842  30.674  30.348  1.00  0.00     0.074 A 
ATOM     39  C   UNL A   1      38.189  32.223  32.169  1.00  0.00     0.049 A 
ATOM     40  N   UNL A   1      39.754  29.940  30.927  1.00  0.00    -0.248 NA
ATOM     41  C   UNL A   1      38.588  30.319  28.943  1.00  0.00     0.031 C 
ATOM     42  C   UNL A   1      37.392  33.245  32.849  1.00  0.00     0.029 A 
ATOM     43  N   UNL A   1      39.140  31.877  33.094  1.00  0.00    -0.354 N 
ATOM     44  C   UNL A   1      40.131  28.995  29.977  1.00  0.00     0.074 A 
ATOM     45  C   UNL A   1      39.291  29.207  28.819  1.00  0.00     0.031 C 
ATOM     46  C   UNL A   1      37.910  33.469  34.068  1.00  0.00     0.029 A 
ATOM     47  C   UNL A   1      39.037  32.567  34.278  1.00  0.00     0.049 A 
ATOM     48  H   UNL A   1      39.833  31.197  32.926  1.00  0.00     0.167 HD
ATOM     49  C   UNL A   1      41.110  28.059  30.053  1.00  0.00     0.034 A 
ATOM     50  C   UNL A   1      39.762  32.469  35.409  1.00  0.00     0.034 A 
ATOM     51  C   UNL A   1      41.974  27.918  31.199  1.00  0.00     0.049 A 
ATOM     52  C   UNL A   1      40.874  31.453  35.464  1.00  0.00     0.074 A 
ATOM     53  C   UNL A   1      43.042  27.057  31.380  1.00  0.00     0.029 A 
ATOM     54  N   UNL A   1      41.872  28.674  32.361  1.00  0.00    -0.354 N 
ATOM     55  N   UNL A   1      41.234  30.572  34.558  1.00  0.00    -0.248 NA
ATOM     56  C   UNL A   1      41.681  31.424  36.689  1.00  0.00     0.031 C 
ATOM     57  C   UNL A   1      43.558  27.265  32.665  1.00  0.00     0.029 A 
ATOM     58  C   UNL A   1      42.852  28.297  33.265  1.00  0.00     0.049 A 
ATOM     59  H   UNL A   1      41.201  29.377  32.520  1.00  0.00     0.167 HD
ATOM     60  C   UNL A   1      42.330  29.904  35.094  1.00  0.00     0.074 A 
ATOM     61  C   UNL A   1      42.576  30.491  36.396  1.00  0.00     0.031 C 
ATOM     62  C   UNL A   1      43.072  28.900  34.558  1.00  0.00     0.034 A 
BRANCH  49  63
ATOM     63  C   UNL A   1      41.264  27.125  28.873  1.00  0.00     0.023 A 
ATOM     64  C   UNL A   1      42.287  27.298  27.922  1.00  0.00     0.031 A 
ATOM     65  C   UNL A   1      40.325  26.105  28.641  1.00  0.00     0.131 A 
ATOM     66  C   UNL A   1      42.270  26.561  26.729  1.00  0.00     0.055 A 
ATOM     67  C   UNL A   1      40.380  25.298  27.501  1.00  0.00     0.041 A 
ATOM     68  F   UNL A   1      39.315  25.895  29.499  1.00  0.00    -0.206 F 
ATOM     69  C   UNL A   1      41.340  25.542  26.523  1.00  0.00     0.022 A 
BRANCH  66  70
ATOM     70  S   UNL A   1      43.349  27.097  25.372  1.00  0.00     0.124 S 
ATOM     71  O   UNL A   1      44.460  27.703  26.103  1.00  0.00    -0.237 OA
ATOM     72  O   UNL A   1      43.644  25.844  24.688  1.00  0.00    -0.237 OA
ATOM     73  O   UNL A   1      42.519  28.038  24.624  1.00  0.00    -0.744 OA
ENDBRANCH  66  70
ENDBRANCH  49  63
BRANCH  50  74
ATOM     74  C   UNL A   1      39.476  33.359  36.568  1.00  0.00     0.023 A 
ATOM     75  C   UNL A   1      38.808  32.865  37.701  1.00  0.00     0.031 A 
ATOM     76  C   UNL A   1      39.853  34.713  36.561  1.00  0.00     0.131 A 
ATOM     77  C   UNL A   1      38.507  33.728  38.766  1.00  0.00     0.055 A 
ATOM     78  C   UNL A   1      39.588  35.557  37.642  1.00  0.00     0.041 A 
ATOM     79  F   UNL A   1      40.504  35.231  35.508  1.00  0.00    -0.206 F 
ATOM     80  C   UNL A   1      38.902  35.066  38.750  1.00  0.00     0.022 A 
BRANCH  77  81
ATOM     81  S   UNL A   1      37.537  33.082  40.157  1.00  0.00     0.124 S 
ATOM     82  O   UNL A   1      37.525  34.221  41.066  1.00  0.00    -0.237 OA
ATOM     83  O   UNL A   1      36.267  32.757  39.518  1.00  0.00    -0.237 OA
ATOM     84  O   UNL A   1      38.316  31.931  40.609  1.00  0.00    -0.744 OA
ENDBRANCH  77  81
ENDBRANCH  50  74
BRANCH  62  85
ATOM     85  C   UNL A   1      44.251  28.424  35.365  1.00  0.00     0.023 A 
ATOM     86  C   UNL A   1      44.123  27.428  36.348  1.00  0.00     0.031 A 
ATOM     87  C   UNL A   1      45.523  28.981  35.144  1.00  0.00     0.131 A 
ATOM     88  C   UNL A   1      45.241  27.053  37.108  1.00  0.00     0.055 A 
ATOM     89  C   UNL A   1      46.641  28.566  35.866  1.00  0.00     0.041 A 
ATOM     90  F   UNL A   1      45.698  29.936  34.216  1.00  0.00    -0.206 F 
ATOM     91  C   UNL A   1      46.501  27.604  36.863  1.00  0.00     0.022 A 
BRANCH  88  92
ATOM     92  S   UNL A   1      45.010  25.887  38.477  1.00  0.00     0.124 S 
ATOM     93  O   UNL A   1      44.446  24.726  37.796  1.00  0.00    -0.237 OA
ATOM     94  O   UNL A   1      46.368  25.730  38.988  1.00  0.00    -0.237 OA
ATOM     95  O   UNL A   1      44.090  26.587  39.372  1.00  0.00    -0.744 OA
ENDBRANCH  88  92
ENDBRANCH  62  85
ENDBRANCH  36  37
ENDBRANCH  28  31
ENDBRANCH  26  27
ENDBRANCH  25  26
ENDBRANCH   1  25
TORSDOF 18
ENDMDL
MODEL 2
REMARK VINA RESULT:     -11.4      4.902      8.307
REMARK SMILES C[C@@H]1CCCCN1S(=O)(=O)c1ccc(CCC(=O)NCCCCNC(=O)c2ccc(-c3c4nc(c(-c5cc(S(=O)(=O)[O-])ccc5F)c5ccc([nH]5)c(-c5cc(S(=O)(=O)[O-])ccc5F)c5nc(c(-c6cc(S(=O)(=O)[O-])ccc6F)c6ccc3[nH]6)C=C5)C=C4)cc2)cc1
REMARK SMILES IDX 21 1 20 2 19 3 17 4 18 5 16 7 15 8 14 9 11 10 12 11 91 12
REMARK SMILES IDX 13 13 90 14 8 15 9 16 10 17 7 18 1 19 2 20 3 21 4 22 6 23
REMARK SMILES IDX 5 24 22 25 23 26 24 27 25 28 26 30 27 31 28 32 89 33 29 34
REMARK SMILES IDX 88 35 30 36 31 37 32 38 82 39 33 40 87 41 81 42 83 43 34 44
REMARK SMILES IDX 86 45 80 46 79 47 35 49 67 50 47 51 66 52 48 53 51 54 65 55
REMARK SMILES IDX 84 56 49 57 50 58 64 60 85 61 52 62 36 63 37 64 45 65 38 66
REMARK SMILES IDX 44 67 46 68 43 69 39 70 40 71 41 72 42 73 68 74 69 75 77 76
REMARK SMILES IDX 70 77 76 78 78 79 75 80 71 81 72 82 73 83 74 84 53 85 54 86
REMARK SMILES IDX 62 87 55 88 61 89 63 90 60 91 56 92 57 93 58 94 59 95
REMARK H PARENT 19 6 24 29 83 48 51 59
REMARK Flexibility Score: inf
ROOT
ATOM      1  C   UNL A   1      36.243  21.308  25.024  1.00  0.00     0.023 C 
ENDROOT
BRANCH   1   2
ATOM      2  C   UNL A   1      35.067  21.325  25.990  1.00  0.00     0.116 C 
BRANCH   2   3
ATOM      3  N   UNL A   1      34.073  20.340  25.596  1.00  0.00    -0.356 N 
ATOM      4  C   UNL A   1      32.829  20.525  25.072  1.00  0.00     0.220 C 
ATOM      5  O   UNL A   1      32.074  19.553  24.988  1.00  0.00    -0.275 OA
ATOM      6  H   UNL A   1      34.338  19.401  25.729  1.00  0.00     0.163 HD
BRANCH   4   7
ATOM      7  C   UNL A   1      32.393  21.883  24.550  1.00  0.00     0.105 C 
BRANCH   7   8
ATOM      8  C   UNL A   1      32.922  22.196  23.139  1.00  0.00     0.045 C 
BRANCH   8   9
ATOM      9  C   UNL A   1      33.257  23.659  22.938  1.00  0.00    -0.047 A 
ATOM     10  C   UNL A   1      33.399  26.454  22.891  1.00  0.00     0.082 A 
ATOM     11  C   UNL A   1      32.806  25.773  21.820  1.00  0.00     0.022 A 
ATOM     12  C   UNL A   1      34.047  25.737  23.902  1.00  0.00     0.022 A 
ATOM     13  C   UNL A   1      32.744  24.373  21.844  1.00  0.00     0.005 A 
ATOM     14  C   UNL A   1      33.992  24.345  23.914  1.00  0.00     0.005 A 
BRANCH  10  15
ATOM     15  S   UNL A   1      32.838  28.114  23.273  1.00  0.00     0.243 S 
ATOM     16  O   UNL A   1      31.740  28.375  22.358  1.00  0.00    -0.207 OA
ATOM     17  O   UNL A   1      34.012  28.956  23.258  1.00  0.00    -0.207 OA
BRANCH  15  18
ATOM     18  N   UNL A   1      32.241  28.092  24.856  1.00  0.00    -0.195 NA
ATOM     19  C   UNL A   1      30.164  26.660  24.588  1.00  0.00     0.026 C 
ATOM     20  C   UNL A   1      31.451  26.934  25.363  1.00  0.00     0.070 C 
ATOM     21  C   UNL A   1      31.110  27.147  26.857  1.00  0.00     0.020 C 
ATOM     22  C   UNL A   1      31.963  28.225  27.516  1.00  0.00     0.003 C 
ATOM     23  C   UNL A   1      31.667  29.403  25.275  1.00  0.00     0.103 C 
ATOM     24  C   UNL A   1      31.814  29.559  26.788  1.00  0.00     0.017 C 
ENDBRANCH  15  18
ENDBRANCH  10  15
ENDBRANCH   8   9
ENDBRANCH   7   8
ENDBRANCH   4   7
ENDBRANCH   2   3
ENDBRANCH   1   2
BRANCH   1  25
ATOM     25  C   UNL A   1      36.855  22.659  24.699  1.00  0.00     0.023 C 
BRANCH  25  26
ATOM     26  C   UNL A   1      37.792  23.189  25.774  1.00  0.00     0.116 C 
BRANCH  26  27
ATOM     27  N   UNL A   1      38.745  22.205  26.283  1.00  0.00    -0.352 N 
ATOM     28  C   UNL A   1      39.971  22.395  26.885  1.00  0.00     0.251 C 
ATOM     29  H   UNL A   1      38.472  21.265  26.181  1.00  0.00     0.163 HD
ATOM     30  O   UNL A   1      40.691  21.443  27.174  1.00  0.00    -0.269 OA
BRANCH  28  31
ATOM     31  C   UNL A   1      40.447  23.766  27.148  1.00  0.00     0.039 A 
ATOM     32  C   UNL A   1      40.304  24.736  26.152  1.00  0.00     0.014 A 
ATOM     33  C   UNL A   1      40.983  24.105  28.388  1.00  0.00     0.014 A 
ATOM     34  C   UNL A   1      40.615  26.066  26.437  1.00  0.00     0.010 A 
ATOM     35  C   UNL A   1      41.157  25.440  28.711  1.00  0.00     0.010 A 
ATOM     36  C   UNL A   1      40.994  26.436  27.735  1.00  0.00    -0.014 A 
BRANCH  36  37
ATOM     37  C   UNL A   1      41.291  27.841  28.111  1.00  0.00     0.031 A 
ATOM     38  C   UNL A   1      42.722  28.307  28.088  1.00  0.00     0.074 A 
ATOM     39  C   UNL A   1      40.315  28.646  28.574  1.00  0.00     0.049 A 
ATOM     40  N   UNL A   1      43.258  29.382  28.601  1.00  0.00    -0.248 NA
ATOM     41  C   UNL A   1      43.690  27.391  27.465  1.00  0.00     0.031 C 
ATOM     42  C   UNL A   1      38.898  28.294  28.682  1.00  0.00     0.029 A 
ATOM     43  N   UNL A   1      40.374  29.928  29.057  1.00  0.00    -0.354 N 
ATOM     44  C   UNL A   1      44.631  29.237  28.421  1.00  0.00     0.074 A 
ATOM     45  C   UNL A   1      44.839  27.935  27.825  1.00  0.00     0.031 C 
ATOM     46  C   UNL A   1      38.218  29.347  29.163  1.00  0.00     0.029 A 
ATOM     47  C   UNL A   1      39.155  30.426  29.453  1.00  0.00     0.049 A 
ATOM     48  H   UNL A   1      41.211  30.444  29.115  1.00  0.00     0.167 HD
ATOM     49  C   UNL A   1      45.622  30.121  28.698  1.00  0.00     0.034 A 
ATOM     50  C   UNL A   1      38.838  31.614  30.002  1.00  0.00     0.034 A 
ATOM     51  C   UNL A   1      45.373  31.437  29.233  1.00  0.00     0.049 A 
ATOM     52  C   UNL A   1      39.944  32.603  30.265  1.00  0.00     0.074 A 
ATOM     53  C   UNL A   1      46.276  32.450  29.498  1.00  0.00     0.029 A 
ATOM     54  N   UNL A   1      44.116  31.926  29.571  1.00  0.00    -0.354 N 
ATOM     55  N   UNL A   1      41.238  32.465  30.081  1.00  0.00    -0.248 NA
ATOM     56  C   UNL A   1      39.547  33.909  30.803  1.00  0.00     0.031 C 
ATOM     57  C   UNL A   1      45.571  33.534  30.035  1.00  0.00     0.029 A 
ATOM     58  C   UNL A   1      44.220  33.222  30.048  1.00  0.00     0.049 A 
ATOM     59  H   UNL A   1      43.273  31.424  29.484  1.00  0.00     0.167 HD
ATOM     60  C   UNL A   1      41.806  33.679  30.453  1.00  0.00     0.074 A 
ATOM     61  C   UNL A   1      40.712  34.538  30.862  1.00  0.00     0.031 C 
ATOM     62  C   UNL A   1      43.111  34.055  30.451  1.00  0.00     0.034 A 
BRANCH  49  63
ATOM     63  C   UNL A   1      47.042  29.668  28.441  1.00  0.00     0.023 A 
ATOM     64  C   UNL A   1      47.809  29.038  29.439  1.00  0.00     0.031 A 
ATOM     65  C   UNL A   1      47.673  29.952  27.217  1.00  0.00     0.131 A 
ATOM     66  C   UNL A   1      49.183  28.834  29.246  1.00  0.00     0.055 A 
ATOM     67  C   UNL A   1      49.018  29.645  26.992  1.00  0.00     0.041 A 
ATOM     68  F   UNL A   1      47.005  30.566  26.228  1.00  0.00    -0.206 F 
ATOM     69  C   UNL A   1      49.789  29.107  28.020  1.00  0.00     0.022 A 
BRANCH  66  70
ATOM     70  S   UNL A   1      50.199  28.405  30.688  1.00  0.00     0.124 S 
ATOM     71  O   UNL A   1      51.150  29.514  30.716  1.00  0.00    -0.237 OA
ATOM     72  O   UNL A   1      49.220  28.376  31.768  1.00  0.00    -0.237 OA
ATOM     73  O   UNL A   1      50.773  27.110  30.329  1.00  0.00    -0.744 OA
ENDBRANCH  66  70
ENDBRANCH  49  63
BRANCH  50  74
ATOM     74  C   UNL A   1      37.421  31.942  30.322  1.00  0.00     0.023 A 
ATOM     75  C   UNL A   1      36.566  32.457  29.334  1.00  0.00     0.031 A 
ATOM     76  C   UNL A   1      36.901  31.757  31.614  1.00  0.00     0.131 A 
ATOM     77  C   UNL A   1      35.246  32.802  29.662  1.00  0.00     0.055 A 
ATOM     78  C   UNL A   1      35.574  32.063  31.925  1.00  0.00     0.041 A 
ATOM     79  F   UNL A   1      37.674  31.257  32.592  1.00  0.00    -0.206 F 
ATOM     80  C   UNL A   1      34.741  32.598  30.947  1.00  0.00     0.022 A 
BRANCH  77  81
ATOM     81  S   UNL A   1      34.210  33.576  28.389  1.00  0.00     0.124 S 
ATOM     82  O   UNL A   1      33.473  32.431  27.868  1.00  0.00    -0.237 OA
ATOM     83  O   UNL A   1      33.436  34.536  29.169  1.00  0.00    -0.237 OA
ATOM     84  O   UNL A   1      35.183  34.165  27.471  1.00  0.00    -0.744 OA
ENDBRANCH  77  81
ENDBRANCH  50  74
BRANCH  62  85
ATOM     85  C   UNL A   1      43.407  35.476  30.851  1.00  0.00     0.023 A 
ATOM     86  C   UNL A   1      43.536  35.855  32.198  1.00  0.00     0.031 A 
ATOM     87  C   UNL A   1      43.562  36.465  29.864  1.00  0.00     0.131 A 
ATOM     88  C   UNL A   1      43.763  37.200  32.524  1.00  0.00     0.055 A 
ATOM     89  C   UNL A   1      43.841  37.791  30.192  1.00  0.00     0.041 A 
ATOM     90  F   UNL A   1      43.448  36.154  28.562  1.00  0.00    -0.206 F 
ATOM     91  C   UNL A   1      43.932  38.167  31.529  1.00  0.00     0.022 A 
BRANCH  88  92
ATOM     92  S   UNL A   1      43.760  37.685  34.271  1.00  0.00     0.124 S 
ATOM     93  O   UNL A   1      42.337  37.639  34.596  1.00  0.00    -0.237 OA
ATOM     94  O   UNL A   1      44.588  36.653  34.884  1.00  0.00    -0.237 OA
ATOM     95  O   UNL A   1      44.349  39.023  34.256  1.00  0.00    -0.744 OA
ENDBRANCH  88  92
ENDBRANCH  62  85
ENDBRANCH  36  37
ENDBRANCH  28  31
ENDBRANCH  26  27
ENDBRANCH  25  26
ENDBRANCH   1  25
TORSDOF 18
ENDMDL
MODEL 3
REMARK VINA RESULT:     -11.4      5.768      9.843
REMARK SMILES C[C@@H]1CCCCN1S(=O)(=O)c1ccc(CCC(=O)NCCCCNC(=O)c2ccc(-c3c4nc(c(-c5cc(S(=O)(=O)[O-])ccc5F)c5ccc([nH]5)c(-c5cc(S(=O)(=O)[O-])ccc5F)c5nc(c(-c6cc(S(=O)(=O)[O-])ccc6F)c6ccc3[nH]6)C=C5)C=C4)cc2)cc1
REMARK SMILES IDX 21 1 20 2 19 3 17 4 18 5 16 7 15 8 14 9 11 10 12 11 91 12
REMARK SMILES IDX 13 13 90 14 8 15 9 16 10 17 7 18 1 19 2 20 3 21 4 22 6 23
REMARK SMILES IDX 5 24 22 25 23 26 24 27 25 28 26 30 27 31 28 32 89 33 29 34
REMARK SMILES IDX 88 35 30 36 31 37 32 38 82 39 33 40 87 41 81 42 83 43 34 44
REMARK SMILES IDX 86 45 80 46 79 47 35 49 67 50 47 51 66 52 48 53 51 54 65 55
REMARK SMILES IDX 84 56 49 57 50 58 64 60 85 61 52 62 36 63 37 64 45 65 38 66
REMARK SMILES IDX 44 67 46 68 43 69 39 70 40 71 41 72 42 73 68 74 69 75 77 76
REMARK SMILES IDX 70 77 76 78 78 79 75 80 71 81 72 82 73 83 74 84 53 85 54 86
REMARK SMILES IDX 62 87 55 88 61 89 63 90 60 91 56 92 57 93 58 94 59 95
REMARK H PARENT 19 6 24 29 83 48 51 59
REMARK Flexibility Score: inf
ROOT
ATOM      1  C   UNL A   1      40.854  21.858  27.419  1.00  0.00     0.023 C 
ENDROOT
BRANCH   1   2
ATOM      2  C   UNL A   1      39.720  22.703  26.856  1.00  0.00     0.116 C 
BRANCH   2   3
ATOM      3  N   UNL A   1      39.076  22.015  25.750  1.00  0.00    -0.356 N 
ATOM      4  C   UNL A   1      37.819  22.171  25.246  1.00  0.00     0.220 C 
ATOM      5  O   UNL A   1      37.407  21.349  24.424  1.00  0.00    -0.275 OA
ATOM      6  H   UNL A   1      39.628  21.335  25.299  1.00  0.00     0.163 HD
BRANCH   4   7
ATOM      7  C   UNL A   1      36.959  23.359  25.640  1.00  0.00     0.105 C 
BRANCH   7   8
ATOM      8  C   UNL A   1      35.521  22.973  26.030  1.00  0.00     0.045 C 
BRANCH   8   9
ATOM      9  C   UNL A   1      34.502  23.309  24.962  1.00  0.00    -0.047 A 
ATOM     10  C   UNL A   1      32.496  24.385  23.333  1.00  0.00     0.082 A 
ATOM     11  C   UNL A   1      32.185  23.346  24.220  1.00  0.00     0.022 A 
ATOM     12  C   UNL A   1      33.827  24.777  23.156  1.00  0.00     0.022 A 
ATOM     13  C   UNL A   1      33.194  22.805  25.028  1.00  0.00     0.005 A 
ATOM     14  C   UNL A   1      34.828  24.227  23.955  1.00  0.00     0.005 A 
BRANCH  10  15
ATOM     15  S   UNL A   1      31.215  25.562  22.901  1.00  0.00     0.243 S 
ATOM     16  O   UNL A   1      29.957  24.893  23.187  1.00  0.00    -0.207 OA
ATOM     17  O   UNL A   1      31.509  26.013  21.560  1.00  0.00    -0.207 OA
BRANCH  15  18
ATOM     18  N   UNL A   1      31.380  26.889  23.937  1.00  0.00    -0.195 NA
ATOM     19  C   UNL A   1      30.559  25.916  26.132  1.00  0.00     0.026 C 
ATOM     20  C   UNL A   1      31.642  26.700  25.392  1.00  0.00     0.070 C 
ATOM     21  C   UNL A   1      31.828  28.076  26.075  1.00  0.00     0.020 C 
ATOM     22  C   UNL A   1      32.094  29.202  25.082  1.00  0.00     0.003 C 
ATOM     23  C   UNL A   1      30.373  27.958  23.672  1.00  0.00     0.103 C 
ATOM     24  C   UNL A   1      30.959  29.313  24.066  1.00  0.00     0.017 C 
ENDBRANCH  15  18
ENDBRANCH  10  15
ENDBRANCH   8   9
ENDBRANCH   7   8
ENDBRANCH   4   7
ENDBRANCH   2   3
ENDBRANCH   1   2
BRANCH   1  25
ATOM     25  C   UNL A   1      40.887  20.407  26.971  1.00  0.00     0.023 C 
BRANCH  25  26
ATOM     26  C   UNL A   1      42.187  19.688  27.297  1.00  0.00     0.116 C 
BRANCH  26  27
ATOM     27  N   UNL A   1      42.911  19.188  26.130  1.00  0.00    -0.352 N 
ATOM     28  C   UNL A   1      43.717  19.862  25.237  1.00  0.00     0.251 C 
ATOM     29  H   UNL A   1      42.807  18.225  25.954  1.00  0.00     0.163 HD
ATOM     30  O   UNL A   1      44.180  19.298  24.249  1.00  0.00    -0.269 OA
BRANCH  28  31
ATOM     31  C   UNL A   1      43.994  21.296  25.446  1.00  0.00     0.039 A 
ATOM     32  C   UNL A   1      43.360  22.235  24.628  1.00  0.00     0.014 A 
ATOM     33  C   UNL A   1      44.832  21.713  26.478  1.00  0.00     0.014 A 
ATOM     34  C   UNL A   1      43.498  23.595  24.907  1.00  0.00     0.010 A 
ATOM     35  C   UNL A   1      44.855  23.050  26.836  1.00  0.00     0.010 A 
ATOM     36  C   UNL A   1      44.204  24.010  26.045  1.00  0.00    -0.014 A 
BRANCH  36  37
ATOM     37  C   UNL A   1      44.344  25.440  26.420  1.00  0.00     0.031 A 
ATOM     38  C   UNL A   1      45.690  26.097  26.268  1.00  0.00     0.074 A 
ATOM     39  C   UNL A   1      43.320  26.100  26.994  1.00  0.00     0.049 A 
ATOM     40  N   UNL A   1      46.125  27.231  26.749  1.00  0.00    -0.248 NA
ATOM     41  C   UNL A   1      46.706  25.326  25.533  1.00  0.00     0.031 C 
ATOM     42  C   UNL A   1      41.982  25.557  27.232  1.00  0.00     0.029 A 
ATOM     43  N   UNL A   1      43.254  27.374  27.497  1.00  0.00    -0.354 N 
ATOM     44  C   UNL A   1      47.480  27.275  26.432  1.00  0.00     0.074 A 
ATOM     45  C   UNL A   1      47.801  26.019  25.790  1.00  0.00     0.031 C 
ATOM     46  C   UNL A   1      41.218  26.504  27.801  1.00  0.00     0.029 A 
ATOM     47  C   UNL A   1      42.025  27.698  28.021  1.00  0.00     0.049 A 
ATOM     48  H   UNL A   1      44.015  27.999  27.484  1.00  0.00     0.167 HD
ATOM     49  C   UNL A   1      48.365  28.284  26.630  1.00  0.00     0.034 A 
ATOM     50  C   UNL A   1      41.606  28.828  28.624  1.00  0.00     0.034 A 
ATOM     51  C   UNL A   1      47.996  29.549  27.215  1.00  0.00     0.049 A 
ATOM     52  C   UNL A   1      42.590  29.956  28.799  1.00  0.00     0.074 A 
ATOM     53  C   UNL A   1      48.776  30.674  27.413  1.00  0.00     0.029 A 
ATOM     54  N   UNL A   1      46.724  29.859  27.685  1.00  0.00    -0.354 N 
ATOM     55  N   UNL A   1      43.866  29.996  28.486  1.00  0.00    -0.248 NA
ATOM     56  C   UNL A   1      42.076  31.191  29.401  1.00  0.00     0.031 C 
ATOM     57  C   UNL A   1      47.988  31.647  28.040  1.00  0.00     0.029 A 
ATOM     58  C   UNL A   1      46.699  31.154  28.178  1.00  0.00     0.049 A 
ATOM     59  H   UNL A   1      45.953  29.248  27.670  1.00  0.00     0.167 HD
ATOM     60  C   UNL A   1      44.299  31.273  28.827  1.00  0.00     0.074 A 
ATOM     61  C   UNL A   1      43.146  31.973  29.360  1.00  0.00     0.031 C 
ATOM     62  C   UNL A   1      45.534  31.824  28.705  1.00  0.00     0.034 A 
BRANCH  49  63
ATOM     63  C   UNL A   1      49.801  28.031  26.226  1.00  0.00     0.023 A 
ATOM     64  C   UNL A   1      50.289  28.405  24.960  1.00  0.00     0.031 A 
ATOM     65  C   UNL A   1      50.670  27.324  27.075  1.00  0.00     0.131 A 
ATOM     66  C   UNL A   1      51.548  27.960  24.532  1.00  0.00     0.055 A 
ATOM     67  C   UNL A   1      51.966  26.980  26.683  1.00  0.00     0.041 A 
ATOM     68  F   UNL A   1      50.264  26.923  28.291  1.00  0.00    -0.206 F 
ATOM     69  C   UNL A   1      52.403  27.274  25.395  1.00  0.00     0.022 A 
BRANCH  66  70
ATOM     70  S   UNL A   1      51.961  28.113  22.771  1.00  0.00     0.124 S 
ATOM     71  O   UNL A   1      53.278  28.743  22.833  1.00  0.00    -0.237 OA
ATOM     72  O   UNL A   1      51.938  26.727  22.320  1.00  0.00    -0.237 OA
ATOM     73  O   UNL A   1      50.897  28.962  22.241  1.00  0.00    -0.744 OA
ENDBRANCH  66  70
ENDBRANCH  49  63
BRANCH  50  74
ATOM     74  C   UNL A   1      40.197  28.956  29.089  1.00  0.00     0.023 A 
ATOM     75  C   UNL A   1      39.879  28.822  30.450  1.00  0.00     0.031 A 
ATOM     76  C   UNL A   1      39.150  29.204  28.186  1.00  0.00     0.131 A 
ATOM     77  C   UNL A   1      38.541  28.902  30.867  1.00  0.00     0.055 A 
ATOM     78  C   UNL A   1      37.824  29.325  28.612  1.00  0.00     0.041 A 
ATOM     79  F   UNL A   1      39.402  29.352  26.876  1.00  0.00    -0.206 F 
ATOM     80  C   UNL A   1      37.513  29.164  29.959  1.00  0.00     0.022 A 
BRANCH  77  81
ATOM     81  S   UNL A   1      38.158  28.603  32.615  1.00  0.00     0.124 S 
ATOM     82  O   UNL A   1      39.267  29.275  33.282  1.00  0.00    -0.237 OA
ATOM     83  O   UNL A   1      36.850  29.234  32.751  1.00  0.00    -0.237 OA
ATOM     84  O   UNL A   1      38.157  27.146  32.718  1.00  0.00    -0.744 OA
ENDBRANCH  77  81
ENDBRANCH  50  74
BRANCH  62  85
ATOM     85  C   UNL A   1      45.675  33.269  29.106  1.00  0.00     0.023 A 
ATOM     86  C   UNL A   1      45.515  34.314  28.180  1.00  0.00     0.031 A 
ATOM     87  C   UNL A   1      45.975  33.601  30.439  1.00  0.00     0.131 A 
ATOM     88  C   UNL A   1      45.705  35.642  28.590  1.00  0.00     0.055 A 
ATOM     89  C   UNL A   1      46.110  34.926  30.852  1.00  0.00     0.041 A 
ATOM     90  F   UNL A   1      46.137  32.639  31.362  1.00  0.00    -0.206 F 
ATOM     91  C   UNL A   1      45.986  35.955  29.922  1.00  0.00     0.022 A 
BRANCH  88  92
ATOM     92  S   UNL A   1      45.656  36.953  27.339  1.00  0.00     0.124 S 
ATOM     93  O   UNL A   1      46.085  36.244  26.137  1.00  0.00    -0.237 OA
ATOM     94  O   UNL A   1      44.257  37.365  27.372  1.00  0.00    -0.237 OA
ATOM     95  O   UNL A   1      46.604  37.945  27.845  1.00  0.00    -0.744 OA
ENDBRANCH  88  92
ENDBRANCH  62  85
ENDBRANCH  36  37
ENDBRANCH  28  31
ENDBRANCH  26  27
ENDBRANCH  25  26
ENDBRANCH   1  25
TORSDOF 18
ENDMDL
