MODEL 1
REMARK VINA RESULT:     -12.5      0.000      0.000
REMARK SMILES COCC[C@]1(C(=O)NCCCCNC(=O)c2ccc(-c3c4nc(c(-c5cc(S(=O)(=O)[O-])ccc5F)c5ccc([nH]5)c(-c5cc(S(=O)(=O)[O-])ccc5F)c5nc(c(-c6cc(S(=O)(=O)[O-])ccc6F)c6ccc3[nH]6)C=C5)C=C4)cc2)CCCN(C(=O)c2ccc(=O)[nH]c2)C1
REMARK SMILES IDX 10 1 9 2 8 3 6 4 7 5 5 7 79 8 92 9 80 10 82 11 81 12 4 13
REMARK SMILES IDX 3 14 2 15 1 16 83 17 84 18 85 19 86 20 91 21 87 22 90 23
REMARK SMILES IDX 88 24 89 26 11 27 12 28 13 29 14 30 15 32 16 33 17 34 78 35
REMARK SMILES IDX 18 36 77 37 19 38 20 39 21 40 71 41 22 42 76 43 70 44 72 45
REMARK SMILES IDX 23 46 75 47 69 48 68 49 24 51 56 52 36 53 55 54 37 55 40 56
REMARK SMILES IDX 54 57 73 58 38 59 39 60 53 62 74 63 41 64 25 65 26 66 34 67
REMARK SMILES IDX 27 68 33 69 35 70 32 71 28 72 29 73 30 74 31 75 57 76 58 77
REMARK SMILES IDX 66 78 59 79 65 80 67 81 64 82 60 83 61 84 62 85 63 86 42 87
REMARK SMILES IDX 43 88 51 89 44 90 50 91 52 92 49 93 45 94 46 95 47 96 48 97
REMARK H PARENT 8 6 90 25 13 31 72 50 40 61
REMARK Flexibility Score: inf
ROOT
ATOM      1  C   UNL A   1      32.338  27.551  27.146  1.00  0.00     0.023 C 
ENDROOT
BRANCH   1   2
ATOM      2  C   UNL A   1      32.257  26.319  26.245  1.00  0.00     0.116 C 
BRANCH   2   3
ATOM      3  N   UNL A   1      31.434  25.276  26.829  1.00  0.00    -0.356 N 
ATOM      4  C   UNL A   1      31.113  24.013  26.446  1.00  0.00     0.228 C 
ATOM      5  O   UNL A   1      30.124  23.546  27.017  1.00  0.00    -0.274 OA
ATOM      6  H   UNL A   1      31.023  25.538  27.683  1.00  0.00     0.163 HD
BRANCH   4   7
ATOM      7  C   UNL A   1      31.840  23.244  25.318  1.00  0.00     0.069 C 
ATOM      8  C   UNL A   1      33.230  23.935  25.147  1.00  0.00     0.021 C 
ATOM      9  C   UNL A   1      32.001  21.732  25.618  1.00  0.00     0.136 C 
ATOM     10  C   UNL A   1      34.229  23.150  24.296  1.00  0.00     0.023 C 
ATOM     11  N   UNL A   1      32.973  21.102  24.715  1.00  0.00    -0.338 N 
ATOM     12  C   UNL A   1      34.305  21.699  24.743  1.00  0.00     0.120 C 
BRANCH   7  13
ATOM     13  C   UNL A   1      31.054  23.424  23.965  1.00  0.00     0.047 C 
BRANCH  13  14
ATOM     14  C   UNL A   1      30.954  24.832  23.348  1.00  0.00     0.161 C 
BRANCH  14  15
ATOM     15  O   UNL A   1      29.850  25.581  23.828  1.00  0.00    -0.385 OA
ATOM     16  C   UNL A   1      29.962  26.980  23.613  1.00  0.00     0.194 C 
ENDBRANCH  14  15
ENDBRANCH  13  14
ENDBRANCH   7  13
BRANCH  11  17
ATOM     17  C   UNL A   1      32.558  20.083  23.871  1.00  0.00     0.255 C 
ATOM     18  O   UNL A   1      31.956  20.274  22.817  1.00  0.00    -0.269 OA
BRANCH  17  19
ATOM     19  C   UNL A   1      32.927  18.691  24.241  1.00  0.00     0.056 A 
ATOM     20  C   UNL A   1      33.389  17.723  23.268  1.00  0.00     0.021 A 
ATOM     21  C   UNL A   1      32.854  18.356  25.537  1.00  0.00     0.099 A 
ATOM     22  C   UNL A   1      33.707  16.476  23.650  1.00  0.00     0.072 A 
ATOM     23  N   UNL A   1      33.183  17.083  25.940  1.00  0.00    -0.328 N 
ATOM     24  C   UNL A   1      33.604  16.092  25.084  1.00  0.00     0.247 A 
ATOM     25  H   UNL A   1      33.113  16.867  26.899  1.00  0.00     0.169 HD
ATOM     26  O   UNL A   1      33.880  14.959  25.459  1.00  0.00    -0.270 OA
ENDBRANCH  17  19
ENDBRANCH  11  17
ENDBRANCH   4   7
ENDBRANCH   2   3
ENDBRANCH   1   2
BRANCH   1  27
ATOM     27  C   UNL A   1      31.721  28.825  26.572  1.00  0.00     0.023 C 
BRANCH  27  28
ATOM     28  C   UNL A   1      32.714  29.871  26.081  1.00  0.00     0.116 C 
BRANCH  28  29
ATOM     29  N   UNL A   1      32.357  31.226  26.474  1.00  0.00    -0.352 N 
ATOM     30  C   UNL A   1      33.046  32.099  27.284  1.00  0.00     0.251 C 
ATOM     31  H   UNL A   1      31.507  31.564  26.110  1.00  0.00     0.163 HD
ATOM     32  O   UNL A   1      32.539  33.166  27.607  1.00  0.00    -0.269 OA
BRANCH  30  33
ATOM     33  C   UNL A   1      34.380  31.713  27.789  1.00  0.00     0.039 A 
ATOM     34  C   UNL A   1      35.378  32.687  27.884  1.00  0.00     0.014 A 
ATOM     35  C   UNL A   1      34.626  30.406  28.216  1.00  0.00     0.014 A 
ATOM     36  C   UNL A   1      36.597  32.371  28.488  1.00  0.00     0.010 A 
ATOM     37  C   UNL A   1      35.814  30.111  28.876  1.00  0.00     0.010 A 
ATOM     38  C   UNL A   1      36.808  31.092  29.027  1.00  0.00    -0.014 A 
BRANCH  38  39
ATOM     39  C   UNL A   1      38.053  30.746  29.760  1.00  0.00     0.031 A 
ATOM     40  C   UNL A   1      39.040  29.794  29.142  1.00  0.00     0.074 A 
ATOM     41  C   UNL A   1      38.244  31.205  31.013  1.00  0.00     0.049 A 
ATOM     42  N   UNL A   1      40.095  29.235  29.672  1.00  0.00    -0.248 NA
ATOM     43  C   UNL A   1      38.776  29.394  27.751  1.00  0.00     0.031 C 
ATOM     44  C   UNL A   1      37.342  32.108  31.732  1.00  0.00     0.029 A 
ATOM     45  N   UNL A   1      39.250  30.956  31.915  1.00  0.00    -0.354 N 
ATOM     46  C   UNL A   1      40.609  28.393  28.690  1.00  0.00     0.074 A 
ATOM     47  C   UNL A   1      39.717  28.484  27.553  1.00  0.00     0.031 C 
ATOM     48  C   UNL A   1      37.837  32.340  32.959  1.00  0.00     0.029 A 
ATOM     49  C   UNL A   1      39.064  31.569  33.133  1.00  0.00     0.049 A 
ATOM     50  H   UNL A   1      40.030  30.393  31.709  1.00  0.00     0.167 HD
ATOM     51  C   UNL A   1      41.729  27.630  28.729  1.00  0.00     0.034 A 
ATOM     52  C   UNL A   1      39.786  31.497  34.270  1.00  0.00     0.034 A 
ATOM     53  C   UNL A   1      42.619  27.572  29.863  1.00  0.00     0.049 A 
ATOM     54  C   UNL A   1      41.022  30.635  34.293  1.00  0.00     0.074 A 
ATOM     55  C   UNL A   1      43.811  26.879  29.990  1.00  0.00     0.029 A 
ATOM     56  N   UNL A   1      42.413  28.229  31.069  1.00  0.00    -0.354 N 
ATOM     57  N   UNL A   1      41.516  29.873  33.344  1.00  0.00    -0.248 NA
ATOM     58  C   UNL A   1      41.803  30.626  35.538  1.00  0.00     0.031 C 
ATOM     59  C   UNL A   1      44.295  27.074  31.287  1.00  0.00     0.029 A 
ATOM     60  C   UNL A   1      43.442  27.940  31.951  1.00  0.00     0.049 A 
ATOM     61  H   UNL A   1      41.646  28.814  31.268  1.00  0.00     0.167 HD
ATOM     62  C   UNL A   1      42.683  29.323  33.868  1.00  0.00     0.074 A 
ATOM     63  C   UNL A   1      42.822  29.844  35.212  1.00  0.00     0.031 C 
ATOM     64  C   UNL A   1      43.564  28.470  33.289  1.00  0.00     0.034 A 
BRANCH  51  65
ATOM     65  C   UNL A   1      42.032  26.781  27.519  1.00  0.00     0.023 A 
ATOM     66  C   UNL A   1      41.681  25.421  27.465  1.00  0.00     0.031 A 
ATOM     67  C   UNL A   1      42.709  27.331  26.417  1.00  0.00     0.131 A 
ATOM     68  C   UNL A   1      42.078  24.638  26.371  1.00  0.00     0.055 A 
ATOM     69  C   UNL A   1      43.030  26.565  25.293  1.00  0.00     0.041 A 
ATOM     70  F   UNL A   1      43.087  28.619  26.418  1.00  0.00    -0.206 F 
ATOM     71  C   UNL A   1      42.728  25.206  25.273  1.00  0.00     0.022 A 
BRANCH  68  72
ATOM     72  S   UNL A   1      41.860  22.841  26.471  1.00  0.00     0.124 S 
ATOM     73  O   UNL A   1      42.670  22.511  27.641  1.00  0.00    -0.237 OA
ATOM     74  O   UNL A   1      40.417  22.707  26.634  1.00  0.00    -0.237 OA
ATOM     75  O   UNL A   1      42.392  22.360  25.197  1.00  0.00    -0.744 OA
ENDBRANCH  68  72
ENDBRANCH  51  65
BRANCH  52  76
ATOM     76  C   UNL A   1      39.357  32.241  35.488  1.00  0.00     0.023 A 
ATOM     77  C   UNL A   1      38.635  31.600  36.506  1.00  0.00     0.031 A 
ATOM     78  C   UNL A   1      39.624  33.613  35.630  1.00  0.00     0.131 A 
ATOM     79  C   UNL A   1      38.163  32.341  37.602  1.00  0.00     0.055 A 
ATOM     80  C   UNL A   1      39.194  34.336  36.745  1.00  0.00     0.041 A 
ATOM     81  F   UNL A   1      40.317  34.272  34.688  1.00  0.00    -0.206 F 
ATOM     82  C   UNL A   1      38.446  33.702  37.733  1.00  0.00     0.022 A 
BRANCH  79  83
ATOM     83  S   UNL A   1      37.097  31.514  38.815  1.00  0.00     0.124 S 
ATOM     84  O   UNL A   1      37.910  31.590  40.024  1.00  0.00    -0.237 OA
ATOM     85  O   UNL A   1      35.904  32.352  38.789  1.00  0.00    -0.237 OA
ATOM     86  O   UNL A   1      36.926  30.173  38.259  1.00  0.00    -0.744 OA
ENDBRANCH  79  83
ENDBRANCH  52  76
BRANCH  64  87
ATOM     87  C   UNL A   1      44.785  28.097  34.088  1.00  0.00     0.023 A 
ATOM     88  C   UNL A   1      44.811  26.961  34.916  1.00  0.00     0.031 A 
ATOM     89  C   UNL A   1      45.942  28.893  34.014  1.00  0.00     0.131 A 
ATOM     90  C   UNL A   1      45.960  26.676  35.670  1.00  0.00     0.055 A 
ATOM     91  C   UNL A   1      47.098  28.575  34.726  1.00  0.00     0.041 A 
ATOM     92  F   UNL A   1      45.968  29.988  33.237  1.00  0.00    -0.206 F 
ATOM     93  C   UNL A   1      47.108  27.467  35.568  1.00  0.00     0.022 A 
BRANCH  90  94
ATOM     94  S   UNL A   1      45.915  25.289  36.837  1.00  0.00     0.124 S 
ATOM     95  O   UNL A   1      45.167  25.855  37.955  1.00  0.00    -0.237 OA
ATOM     96  O   UNL A   1      45.229  24.255  36.069  1.00  0.00    -0.237 OA
ATOM     97  O   UNL A   1      47.327  25.022  37.108  1.00  0.00    -0.744 OA
ENDBRANCH  90  94
ENDBRANCH  64  87
ENDBRANCH  38  39
ENDBRANCH  30  33
ENDBRANCH  28  29
ENDBRANCH  27  28
ENDBRANCH   1  27
TORSDOF 19
ENDMDL
MODEL 2
REMARK VINA RESULT:     -12.4      2.467      7.759
REMARK SMILES COCC[C@]1(C(=O)NCCCCNC(=O)c2ccc(-c3c4nc(c(-c5cc(S(=O)(=O)[O-])ccc5F)c5ccc([nH]5)c(-c5cc(S(=O)(=O)[O-])ccc5F)c5nc(c(-c6cc(S(=O)(=O)[O-])ccc6F)c6ccc3[nH]6)C=C5)C=C4)cc2)CCCN(C(=O)c2ccc(=O)[nH]c2)C1
REMARK SMILES IDX 10 1 9 2 8 3 6 4 7 5 5 7 79 8 92 9 80 10 82 11 81 12 4 13
REMARK SMILES IDX 3 14 2 15 1 16 83 17 84 18 85 19 86 20 91 21 87 22 90 23
REMARK SMILES IDX 88 24 89 26 11 27 12 28 13 29 14 30 15 32 16 33 17 34 78 35
REMARK SMILES IDX 18 36 77 37 19 38 20 39 21 40 71 41 22 42 76 43 70 44 72 45
REMARK SMILES IDX 23 46 75 47 69 48 68 49 24 51 56 52 36 53 55 54 37 55 40 56
REMARK SMILES IDX 54 57 73 58 38 59 39 60 53 62 74 63 41 64 25 65 26 66 34 67
REMARK SMILES IDX 27 68 33 69 35 70 32 71 28 72 29 73 30 74 31 75 57 76 58 77
REMARK SMILES IDX 66 78 59 79 65 80 67 81 64 82 60 83 61 84 62 85 63 86 42 87
REMARK SMILES IDX 43 88 51 89 44 90 50 91 52 92 49 93 45 94 46 95 47 96 48 97
REMARK H PARENT 8 6 90 25 13 31 72 50 40 61
REMARK Flexibility Score: inf
ROOT
ATOM      1  C   UNL A   1      31.898  27.738  26.176  1.00  0.00     0.023 C 
ENDROOT
BRANCH   1   2
ATOM      2  C   UNL A   1      31.540  26.414  25.502  1.00  0.00     0.116 C 
BRANCH   2   3
ATOM      3  N   UNL A   1      31.175  25.396  26.470  1.00  0.00    -0.356 N 
ATOM      4  C   UNL A   1      31.245  24.040  26.475  1.00  0.00     0.228 C 
ATOM      5  O   UNL A   1      30.532  23.499  27.325  1.00  0.00    -0.274 OA
ATOM      6  H   UNL A   1      30.796  25.768  27.299  1.00  0.00     0.163 HD
BRANCH   4   7
ATOM      7  C   UNL A   1      32.055  23.216  25.448  1.00  0.00     0.069 C 
ATOM      8  C   UNL A   1      33.513  23.775  25.496  1.00  0.00     0.021 C 
ATOM      9  C   UNL A   1      32.031  21.693  25.734  1.00  0.00     0.136 C 
ATOM     10  C   UNL A   1      34.549  22.907  24.781  1.00  0.00     0.023 C 
ATOM     11  N   UNL A   1      33.063  20.982  24.968  1.00  0.00    -0.338 N 
ATOM     12  C   UNL A   1      34.426  21.452  25.202  1.00  0.00     0.120 C 
BRANCH   7  13
ATOM     13  C   UNL A   1      31.496  23.482  24.000  1.00  0.00     0.047 C 
BRANCH  13  14
ATOM     14  C   UNL A   1      32.452  24.034  22.926  1.00  0.00     0.161 C 
BRANCH  14  15
ATOM     15  O   UNL A   1      31.895  25.094  22.167  1.00  0.00    -0.385 OA
ATOM     16  C   UNL A   1      32.854  26.019  21.674  1.00  0.00     0.194 C 
ENDBRANCH  14  15
ENDBRANCH  13  14
ENDBRANCH   7  13
BRANCH  11  17
ATOM     17  C   UNL A   1      32.685  20.015  24.049  1.00  0.00     0.255 C 
ATOM     18  O   UNL A   1      32.127  20.267  22.984  1.00  0.00    -0.269 OA
BRANCH  17  19
ATOM     19  C   UNL A   1      33.039  18.603  24.354  1.00  0.00     0.056 A 
ATOM     20  C   UNL A   1      33.602  17.710  23.362  1.00  0.00     0.021 A 
ATOM     21  C   UNL A   1      32.853  18.176  25.611  1.00  0.00     0.099 A 
ATOM     22  C   UNL A   1      33.902  16.443  23.683  1.00  0.00     0.072 A 
ATOM     23  N   UNL A   1      33.162  16.881  25.953  1.00  0.00    -0.328 N 
ATOM     24  C   UNL A   1      33.674  15.956  25.072  1.00  0.00     0.247 A 
ATOM     25  H   UNL A   1      33.008  16.597  26.884  1.00  0.00     0.169 HD
ATOM     26  O   UNL A   1      33.932  14.803  25.391  1.00  0.00    -0.270 OA
ENDBRANCH  17  19
ENDBRANCH  11  17
ENDBRANCH   4   7
ENDBRANCH   2   3
ENDBRANCH   1   2
BRANCH   1  27
ATOM     27  C   UNL A   1      33.275  27.786  26.836  1.00  0.00     0.023 C 
BRANCH  27  28
ATOM     28  C   UNL A   1      34.225  28.850  26.295  1.00  0.00     0.116 C 
BRANCH  28  29
ATOM     29  N   UNL A   1      33.834  30.202  26.662  1.00  0.00    -0.352 N 
ATOM     30  C   UNL A   1      34.419  31.051  27.574  1.00  0.00     0.251 C 
ATOM     31  H   UNL A   1      33.045  30.559  26.194  1.00  0.00     0.163 HD
ATOM     32  O   UNL A   1      33.886  32.120  27.846  1.00  0.00    -0.269 OA
BRANCH  30  33
ATOM     33  C   UNL A   1      35.669  30.638  28.245  1.00  0.00     0.039 A 
ATOM     34  C   UNL A   1      35.592  29.889  29.422  1.00  0.00     0.014 A 
ATOM     35  C   UNL A   1      36.911  30.944  27.681  1.00  0.00     0.014 A 
ATOM     36  C   UNL A   1      36.759  29.374  29.990  1.00  0.00     0.010 A 
ATOM     37  C   UNL A   1      38.064  30.375  28.211  1.00  0.00     0.010 A 
ATOM     38  C   UNL A   1      37.999  29.576  29.364  1.00  0.00    -0.014 A 
BRANCH  38  39
ATOM     39  C   UNL A   1      39.249  28.965  29.886  1.00  0.00     0.031 A 
ATOM     40  C   UNL A   1      39.963  29.605  31.044  1.00  0.00     0.074 A 
ATOM     41  C   UNL A   1      39.790  27.902  29.257  1.00  0.00     0.049 A 
ATOM     42  N   UNL A   1      41.141  29.336  31.543  1.00  0.00    -0.248 NA
ATOM     43  C   UNL A   1      39.268  30.722  31.702  1.00  0.00     0.031 C 
ATOM     44  C   UNL A   1      39.208  27.215  28.102  1.00  0.00     0.029 A 
ATOM     45  N   UNL A   1      40.965  27.228  29.485  1.00  0.00    -0.354 N 
ATOM     46  C   UNL A   1      41.343  30.268  32.557  1.00  0.00     0.074 A 
ATOM     47  C   UNL A   1      40.184  31.136  32.564  1.00  0.00     0.031 C 
ATOM     48  C   UNL A   1      40.024  26.215  27.727  1.00  0.00     0.029 A 
ATOM     49  C   UNL A   1      41.208  26.219  28.581  1.00  0.00     0.049 A 
ATOM     50  H   UNL A   1      41.575  27.447  30.225  1.00  0.00     0.167 HD
ATOM     51  C   UNL A   1      42.390  30.377  33.411  1.00  0.00     0.034 A 
ATOM     52  C   UNL A   1      42.274  25.405  28.442  1.00  0.00     0.034 A 
ATOM     53  C   UNL A   1      43.525  29.486  33.405  1.00  0.00     0.049 A 
ATOM     54  C   UNL A   1      43.431  25.551  29.397  1.00  0.00     0.074 A 
ATOM     55  C   UNL A   1      44.612  29.468  34.260  1.00  0.00     0.029 A 
ATOM     56  N   UNL A   1      43.721  28.457  32.493  1.00  0.00    -0.354 N 
ATOM     57  N   UNL A   1      43.591  26.413  30.375  1.00  0.00    -0.248 NA
ATOM     58  C   UNL A   1      44.548  24.611  29.235  1.00  0.00     0.031 C 
ATOM     59  C   UNL A   1      45.490  28.466  33.834  1.00  0.00     0.029 A 
ATOM     60  C   UNL A   1      44.922  27.814  32.752  1.00  0.00     0.049 A 
ATOM     61  H   UNL A   1      43.099  28.220  31.767  1.00  0.00     0.167 HD
ATOM     62  C   UNL A   1      44.811  26.095  30.964  1.00  0.00     0.074 A 
ATOM     63  C   UNL A   1      45.342  24.960  30.237  1.00  0.00     0.031 C 
ATOM     64  C   UNL A   1      45.434  26.683  32.015  1.00  0.00     0.034 A 
BRANCH  51  65
ATOM     65  C   UNL A   1      42.360  31.515  34.402  1.00  0.00     0.023 A 
ATOM     66  C   UNL A   1      41.491  31.509  35.506  1.00  0.00     0.031 A 
ATOM     67  C   UNL A   1      43.190  32.635  34.222  1.00  0.00     0.131 A 
ATOM     68  C   UNL A   1      41.412  32.633  36.341  1.00  0.00     0.055 A 
ATOM     69  C   UNL A   1      43.165  33.718  35.105  1.00  0.00     0.041 A 
ATOM     70  F   UNL A   1      44.027  32.707  33.175  1.00  0.00    -0.206 F 
ATOM     71  C   UNL A   1      42.261  33.728  36.163  1.00  0.00     0.022 A 
BRANCH  68  72
ATOM     72  S   UNL A   1      40.084  32.702  37.574  1.00  0.00     0.124 S 
ATOM     73  O   UNL A   1      39.605  34.074  37.413  1.00  0.00    -0.237 OA
ATOM     74  O   UNL A   1      39.178  31.653  37.121  1.00  0.00    -0.237 OA
ATOM     75  O   UNL A   1      40.772  32.433  38.835  1.00  0.00    -0.744 OA
ENDBRANCH  68  72
ENDBRANCH  51  65
BRANCH  52  76
ATOM     76  C   UNL A   1      42.316  24.394  27.347  1.00  0.00     0.023 A 
ATOM     77  C   UNL A   1      41.603  23.190  27.451  1.00  0.00     0.031 A 
ATOM     78  C   UNL A   1      43.104  24.599  26.201  1.00  0.00     0.131 A 
ATOM     79  C   UNL A   1      41.729  22.214  26.450  1.00  0.00     0.055 A 
ATOM     80  C   UNL A   1      43.188  23.646  25.185  1.00  0.00     0.041 A 
ATOM     81  F   UNL A   1      43.799  25.737  26.050  1.00  0.00    -0.206 F 
ATOM     82  C   UNL A   1      42.508  22.438  25.312  1.00  0.00     0.022 A 
BRANCH  79  83
ATOM     83  S   UNL A   1      40.923  20.608  26.697  1.00  0.00     0.124 S 
ATOM     84  O   UNL A   1      39.651  20.806  26.011  1.00  0.00    -0.237 OA
ATOM     85  O   UNL A   1      41.864  19.696  26.055  1.00  0.00    -0.237 OA
ATOM     86  O   UNL A   1      40.838  20.490  28.151  1.00  0.00    -0.744 OA
ENDBRANCH  79  83
ENDBRANCH  52  76
BRANCH  64  87
ATOM     87  C   UNL A   1      46.731  26.068  32.476  1.00  0.00     0.023 A 
ATOM     88  C   UNL A   1      47.959  26.387  31.871  1.00  0.00     0.031 A 
ATOM     89  C   UNL A   1      46.732  25.152  33.543  1.00  0.00     0.131 A 
ATOM     90  C   UNL A   1      49.134  25.760  32.312  1.00  0.00     0.055 A 
ATOM     91  C   UNL A   1      47.911  24.571  34.010  1.00  0.00     0.041 A 
ATOM     92  F   UNL A   1      45.585  24.815  34.154  1.00  0.00    -0.206 F 
ATOM     93  C   UNL A   1      49.120  24.866  33.387  1.00  0.00     0.022 A 
BRANCH  90  94
ATOM     94  S   UNL A   1      50.681  26.080  31.420  1.00  0.00     0.124 S 
ATOM     95  O   UNL A   1      50.636  25.075  30.363  1.00  0.00    -0.237 OA
ATOM     96  O   UNL A   1      50.514  27.465  30.991  1.00  0.00    -0.237 OA
ATOM     97  O   UNL A   1      51.713  25.868  32.434  1.00  0.00    -0.744 OA
ENDBRANCH  90  94
ENDBRANCH  64  87
ENDBRANCH  38  39
ENDBRANCH  30  33
ENDBRANCH  28  29
ENDBRANCH  27  28
ENDBRANCH   1  27
TORSDOF 19
ENDMDL
MODEL 3
REMARK VINA RESULT:     -12.1      5.362     10.814
REMARK SMILES COCC[C@]1(C(=O)NCCCCNC(=O)c2ccc(-c3c4nc(c(-c5cc(S(=O)(=O)[O-])ccc5F)c5ccc([nH]5)c(-c5cc(S(=O)(=O)[O-])ccc5F)c5nc(c(-c6cc(S(=O)(=O)[O-])ccc6F)c6ccc3[nH]6)C=C5)C=C4)cc2)CCCN(C(=O)c2ccc(=O)[nH]c2)C1
REMARK SMILES IDX 10 1 9 2 8 3 6 4 7 5 5 7 79 8 92 9 80 10 82 11 81 12 4 13
REMARK SMILES IDX 3 14 2 15 1 16 83 17 84 18 85 19 86 20 91 21 87 22 90 23
REMARK SMILES IDX 88 24 89 26 11 27 12 28 13 29 14 30 15 32 16 33 17 34 78 35
REMARK SMILES IDX 18 36 77 37 19 38 20 39 21 40 71 41 22 42 76 43 70 44 72 45
REMARK SMILES IDX 23 46 75 47 69 48 68 49 24 51 56 52 36 53 55 54 37 55 40 56
REMARK SMILES IDX 54 57 73 58 38 59 39 60 53 62 74 63 41 64 25 65 26 66 34 67
REMARK SMILES IDX 27 68 33 69 35 70 32 71 28 72 29 73 30 74 31 75 57 76 58 77
REMARK SMILES IDX 66 78 59 79 65 80 67 81 64 82 60 83 61 84 62 85 63 86 42 87
REMARK SMILES IDX 43 88 51 89 44 90 50 91 52 92 49 93 45 94 46 95 47 96 48 97
REMARK H PARENT 8 6 90 25 13 31 72 50 40 61
REMARK Flexibility Score: inf
ROOT
ATOM      1  C   UNL A   1      34.935  22.931  23.957  1.00  0.00     0.023 C 
ENDROOT
BRANCH   1   2
ATOM      2  C   UNL A   1      33.571  23.088  23.287  1.00  0.00     0.116 C 
BRANCH   2   3
ATOM      3  N   UNL A   1      33.634  23.961  22.130  1.00  0.00    -0.356 N 
ATOM      4  C   UNL A   1      32.954  25.077  21.760  1.00  0.00     0.228 C 
ATOM      5  O   UNL A   1      33.044  25.352  20.560  1.00  0.00    -0.274 OA
ATOM      6  H   UNL A   1      34.315  23.687  21.474  1.00  0.00     0.163 HD
BRANCH   4   7
ATOM      7  C   UNL A   1      32.050  25.890  22.716  1.00  0.00     0.069 C 
ATOM      8  C   UNL A   1      32.967  26.352  23.893  1.00  0.00     0.021 C 
ATOM      9  C   UNL A   1      31.372  27.103  22.028  1.00  0.00     0.136 C 
ATOM     10  C   UNL A   1      32.351  27.420  24.797  1.00  0.00     0.023 C 
ATOM     11  N   UNL A   1      30.807  28.036  23.011  1.00  0.00    -0.338 N 
ATOM     12  C   UNL A   1      31.771  28.561  23.976  1.00  0.00     0.120 C 
BRANCH   7  13
ATOM     13  C   UNL A   1      30.942  24.950  23.322  1.00  0.00     0.047 C 
BRANCH  13  14
ATOM     14  C   UNL A   1      30.901  24.740  24.847  1.00  0.00     0.161 C 
BRANCH  14  15
ATOM     15  O   UNL A   1      30.715  23.386  25.225  1.00  0.00    -0.385 OA
ATOM     16  C   UNL A   1      30.559  23.192  26.622  1.00  0.00     0.194 C 
ENDBRANCH  14  15
ENDBRANCH  13  14
ENDBRANCH   7  13
BRANCH  11  17
ATOM     17  C   UNL A   1      29.442  28.280  23.014  1.00  0.00     0.255 C 
ATOM     18  O   UNL A   1      28.600  27.439  23.316  1.00  0.00    -0.269 OA
BRANCH  17  19
ATOM     19  C   UNL A   1      28.991  29.660  22.694  1.00  0.00     0.056 A 
ATOM     20  C   UNL A   1      28.030  30.374  23.509  1.00  0.00     0.021 A 
ATOM     21  C   UNL A   1      29.538  30.258  21.624  1.00  0.00     0.099 A 
ATOM     22  C   UNL A   1      27.650  31.617  23.177  1.00  0.00     0.072 A 
ATOM     23  N   UNL A   1      29.160  31.534  21.279  1.00  0.00    -0.328 N 
ATOM     24  C   UNL A   1      28.235  32.276  21.977  1.00  0.00     0.247 A 
ATOM     25  H   UNL A   1      29.576  31.942  20.484  1.00  0.00     0.169 HD
ATOM     26  O   UNL A   1      27.901  33.407  21.647  1.00  0.00    -0.270 OA
ENDBRANCH  17  19
ENDBRANCH  11  17
ENDBRANCH   4   7
ENDBRANCH   2   3
ENDBRANCH   1   2
BRANCH   1  27
ATOM     27  C   UNL A   1      34.924  22.981  25.485  1.00  0.00     0.023 C 
BRANCH  27  28
ATOM     28  C   UNL A   1      36.283  23.182  26.144  1.00  0.00     0.116 C 
BRANCH  28  29
ATOM     29  N   UNL A   1      37.179  22.051  25.961  1.00  0.00    -0.352 N 
ATOM     30  C   UNL A   1      38.545  21.998  26.121  1.00  0.00     0.251 C 
ATOM     31  H   UNL A   1      36.751  21.210  25.685  1.00  0.00     0.163 HD
ATOM     32  O   UNL A   1      39.160  20.987  25.808  1.00  0.00    -0.269 OA
BRANCH  30  33
ATOM     33  C   UNL A   1      39.257  23.187  26.635  1.00  0.00     0.039 A 
ATOM     34  C   UNL A   1      40.261  23.017  27.592  1.00  0.00     0.014 A 
ATOM     35  C   UNL A   1      38.970  24.458  26.130  1.00  0.00     0.014 A 
ATOM     36  C   UNL A   1      41.035  24.111  27.983  1.00  0.00     0.010 A 
ATOM     37  C   UNL A   1      39.785  25.533  26.471  1.00  0.00     0.010 A 
ATOM     38  C   UNL A   1      40.832  25.369  27.392  1.00  0.00    -0.014 A 
BRANCH  38  39
ATOM     39  C   UNL A   1      41.696  26.534  27.712  1.00  0.00     0.031 A 
ATOM     40  C   UNL A   1      41.143  27.670  28.526  1.00  0.00     0.074 A 
ATOM     41  C   UNL A   1      42.936  26.613  27.188  1.00  0.00     0.049 A 
ATOM     42  N   UNL A   1      41.664  28.842  28.776  1.00  0.00    -0.248 NA
ATOM     43  C   UNL A   1      39.805  27.467  29.103  1.00  0.00     0.031 C 
ATOM     44  C   UNL A   1      43.572  25.590  26.355  1.00  0.00     0.029 A 
ATOM     45  N   UNL A   1      43.875  27.613  27.258  1.00  0.00    -0.354 N 
ATOM     46  C   UNL A   1      40.708  29.530  29.516  1.00  0.00     0.074 A 
ATOM     47  C   UNL A   1      39.558  28.657  29.630  1.00  0.00     0.031 C 
ATOM     48  C   UNL A   1      44.796  26.011  25.997  1.00  0.00     0.029 A 
ATOM     49  C   UNL A   1      45.015  27.351  26.532  1.00  0.00     0.049 A 
ATOM     50  H   UNL A   1      43.746  28.438  27.777  1.00  0.00     0.167 HD
ATOM     51  C   UNL A   1      40.789  30.768  30.064  1.00  0.00     0.034 A 
ATOM     52  C   UNL A   1      46.103  28.115  26.303  1.00  0.00     0.034 A 
ATOM     53  C   UNL A   1      41.953  31.615  29.960  1.00  0.00     0.049 A 
ATOM     54  C   UNL A   1      46.168  29.491  26.913  1.00  0.00     0.074 A 
ATOM     55  C   UNL A   1      42.166  32.861  30.523  1.00  0.00     0.029 A 
ATOM     56  N   UNL A   1      43.100  31.303  29.241  1.00  0.00    -0.354 N 
ATOM     57  N   UNL A   1      45.271  30.114  27.643  1.00  0.00    -0.248 NA
ATOM     58  C   UNL A   1      47.393  30.266  26.676  1.00  0.00     0.031 C 
ATOM     59  C   UNL A   1      43.417  33.325  30.101  1.00  0.00     0.029 A 
ATOM     60  C   UNL A   1      44.013  32.342  29.328  1.00  0.00     0.049 A 
ATOM     61  H   UNL A   1      43.242  30.467  28.741  1.00  0.00     0.167 HD
ATOM     62  C   UNL A   1      45.840  31.339  27.978  1.00  0.00     0.074 A 
ATOM     63  C   UNL A   1      47.157  31.366  27.378  1.00  0.00     0.031 C 
ATOM     64  C   UNL A   1      45.323  32.350  28.722  1.00  0.00     0.034 A 
BRANCH  51  65
ATOM     65  C   UNL A   1      39.575  31.283  30.797  1.00  0.00     0.023 A 
ATOM     66  C   UNL A   1      39.531  31.339  32.202  1.00  0.00     0.031 A 
ATOM     67  C   UNL A   1      38.434  31.692  30.085  1.00  0.00     0.131 A 
ATOM     68  C   UNL A   1      38.346  31.717  32.850  1.00  0.00     0.055 A 
ATOM     69  C   UNL A   1      37.284  32.146  30.736  1.00  0.00     0.041 A 
ATOM     70  F   UNL A   1      38.410  31.643  28.744  1.00  0.00    -0.206 F 
ATOM     71  C   UNL A   1      37.230  32.145  32.127  1.00  0.00     0.022 A 
BRANCH  68  72
ATOM     72  S   UNL A   1      38.238  31.502  34.647  1.00  0.00     0.124 S 
ATOM     73  O   UNL A   1      39.492  32.108  35.091  1.00  0.00    -0.237 OA
ATOM     74  O   UNL A   1      37.022  32.234  34.980  1.00  0.00    -0.237 OA
ATOM     75  O   UNL A   1      38.161  30.052  34.815  1.00  0.00    -0.744 OA
ENDBRANCH  68  72
ENDBRANCH  51  65
BRANCH  52  76
ATOM     76  C   UNL A   1      47.212  27.613  25.443  1.00  0.00     0.023 A 
ATOM     77  C   UNL A   1      47.291  27.968  24.088  1.00  0.00     0.031 A 
ATOM     78  C   UNL A   1      48.185  26.736  25.953  1.00  0.00     0.131 A 
ATOM     79  C   UNL A   1      48.292  27.412  23.275  1.00  0.00     0.055 A 
ATOM     80  C   UNL A   1      49.208  26.224  25.153  1.00  0.00     0.041 A 
ATOM     81  F   UNL A   1      48.160  26.371  27.245  1.00  0.00    -0.206 F 
ATOM     82  C   UNL A   1      49.257  26.551  23.801  1.00  0.00     0.022 A 
BRANCH  79  83
ATOM     83  S   UNL A   1      48.263  27.768  21.497  1.00  0.00     0.124 S 
ATOM     84  O   UNL A   1      49.434  28.626  21.347  1.00  0.00    -0.237 OA
ATOM     85  O   UNL A   1      48.369  26.432  20.920  1.00  0.00    -0.237 OA
ATOM     86  O   UNL A   1      46.974  28.428  21.303  1.00  0.00    -0.744 OA
ENDBRANCH  79  83
ENDBRANCH  52  76
BRANCH  64  87
ATOM     87  C   UNL A   1      46.212  33.540  28.973  1.00  0.00     0.023 A 
ATOM     88  C   UNL A   1      46.198  34.667  28.132  1.00  0.00     0.031 A 
ATOM     89  C   UNL A   1      47.082  33.545  30.078  1.00  0.00     0.131 A 
ATOM     90  C   UNL A   1      47.071  35.735  28.387  1.00  0.00     0.055 A 
ATOM     91  C   UNL A   1      47.911  34.632  30.355  1.00  0.00     0.041 A 
ATOM     92  F   UNL A   1      47.133  32.493  30.911  1.00  0.00    -0.206 F 
ATOM     93  C   UNL A   1      47.916  35.732  29.501  1.00  0.00     0.022 A 
BRANCH  90  94
ATOM     94  S   UNL A   1      47.135  37.110  27.206  1.00  0.00     0.124 S 
ATOM     95  O   UNL A   1      46.744  36.458  25.960  1.00  0.00    -0.237 OA
ATOM     96  O   UNL A   1      46.168  38.049  27.765  1.00  0.00    -0.237 OA
ATOM     97  O   UNL A   1      48.528  37.550  27.265  1.00  0.00    -0.744 OA
ENDBRANCH  90  94
ENDBRANCH  64  87
ENDBRANCH  38  39
ENDBRANCH  30  33
ENDBRANCH  28  29
ENDBRANCH  27  28
ENDBRANCH   1  27
TORSDOF 19
ENDMDL
