MODEL 1
REMARK VINA RESULT:     -10.3      0.000      0.000
REMARK SMILES COc1c[nH]c(C[N@H+]2CCC[C@@H](c3ccc(C(=O)NCCCCNC(=O)c4ccc(-c5c6nc(c(-c7cc(S(=O)(=O)[O-])ccc7F)c7ccc([nH]7)c(-c7cc(S(=O)(=O)[O-])ccc7F)c7nc(c(-c8cc(S(=O)(=O)[O-])ccc8F)c8ccc5[nH]8)C=C7)C=C6)cc4)cc3)C2)cc1=O
REMARK SMILES IDX 21 1 20 2 19 3 17 4 18 5 16 7 13 8 14 9 91 10 15 11 90 12
REMARK SMILES IDX 12 13 8 14 9 15 92 16 10 18 11 19 7 20 6 21 3 22 4 23 94 24
REMARK SMILES IDX 5 25 93 26 95 27 2 29 1 30 22 31 23 32 24 33 25 34 26 36
REMARK SMILES IDX 27 37 28 38 89 39 29 40 88 41 30 42 31 43 32 44 82 45 33 46
REMARK SMILES IDX 87 47 81 48 83 49 34 50 86 51 80 52 79 53 35 55 67 56 47 57
REMARK SMILES IDX 66 58 48 59 51 60 65 61 84 62 49 63 50 64 64 66 85 67 52 68
REMARK SMILES IDX 36 69 37 70 45 71 38 72 44 73 46 74 43 75 39 76 40 77 41 78
REMARK SMILES IDX 42 79 68 80 69 81 77 82 70 83 76 84 78 85 75 86 71 87 72 88
REMARK SMILES IDX 73 89 74 90 53 91 54 92 62 93 55 94 61 95 63 96 60 97 56 98
REMARK SMILES IDX 57 99 58 100 59 101
REMARK H PARENT 19 6 8 17 5 28 24 35 83 54 51 65
REMARK Flexibility Score: inf
ROOT
ATOM      1  C   UNL A   1      34.432  32.537  30.529  1.00  0.00     0.023 C 
ENDROOT
BRANCH   1   2
ATOM      2  C   UNL A   1      35.201  32.496  31.852  1.00  0.00     0.116 C 
BRANCH   2   3
ATOM      3  N   UNL A   1      35.108  33.773  32.531  1.00  0.00    -0.352 N 
ATOM      4  C   UNL A   1      36.067  34.691  32.874  1.00  0.00     0.251 C 
ATOM      5  O   UNL A   1      35.705  35.725  33.435  1.00  0.00    -0.269 OA
ATOM      6  H   UNL A   1      34.194  34.025  32.796  1.00  0.00     0.163 HD
BRANCH   4   7
ATOM      7  C   UNL A   1      37.508  34.525  32.531  1.00  0.00     0.039 A 
ATOM      8  C   UNL A   1      40.292  34.369  32.067  1.00  0.00    -0.039 A 
ATOM      9  C   UNL A   1      39.781  34.386  33.374  1.00  0.00     0.005 A 
ATOM     10  C   UNL A   1      39.388  34.336  31.002  1.00  0.00     0.005 A 
ATOM     11  C   UNL A   1      38.407  34.479  33.601  1.00  0.00     0.014 A 
ATOM     12  C   UNL A   1      38.010  34.389  31.235  1.00  0.00     0.014 A 
BRANCH   8  13
ATOM     13  C   UNL A   1      41.785  34.420  31.787  1.00  0.00     0.074 C 
ATOM     14  N   UNL A   1      43.475  35.017  30.013  1.00  0.00    -0.329 N 
ATOM     15  C   UNL A   1      44.158  35.910  30.959  1.00  0.00     0.262 C 
ATOM     16  C   UNL A   1      42.049  34.887  30.339  1.00  0.00     0.270 C 
ATOM     17  H   UNL A   1      43.891  34.091  30.116  1.00  0.00     0.348 HD
ATOM     18  C   UNL A   1      43.994  35.432  32.404  1.00  0.00     0.062 C 
ATOM     19  C   UNL A   1      42.521  35.316  32.788  1.00  0.00     0.020 C 
BRANCH  14  20
ATOM     20  C   UNL A   1      43.701  35.410  28.605  1.00  0.00     0.317 C 
BRANCH  20  21
ATOM     21  C   UNL A   1      44.309  34.348  27.693  1.00  0.00     0.074 A 
ATOM     22  C   UNL A   1      45.333  32.091  26.264  1.00  0.00     0.182 A 
ATOM     23  C   UNL A   1      45.645  32.349  27.542  1.00  0.00     0.133 A 
ATOM     24  C   UNL A   1      44.481  33.127  25.573  1.00  0.00     0.223 A 
ATOM     25  N   UNL A   1      45.222  33.456  28.225  1.00  0.00    -0.357 N 
ATOM     26  C   UNL A   1      43.955  34.254  26.398  1.00  0.00     0.083 A 
ATOM     27  O   UNL A   1      44.181  33.072  24.383  1.00  0.00    -0.286 OA
ATOM     28  H   UNL A   1      45.579  33.622  29.128  1.00  0.00     0.166 HD
BRANCH  22  29
ATOM     29  O   UNL A   1      45.727  30.901  25.683  1.00  0.00    -0.491 OA
ATOM     30  C   UNL A   1      46.648  30.146  26.458  1.00  0.00     0.278 C 
ENDBRANCH  22  29
ENDBRANCH  20  21
ENDBRANCH  14  20
ENDBRANCH   8  13
ENDBRANCH   4   7
ENDBRANCH   2   3
ENDBRANCH   1   2
BRANCH   1  31
ATOM     31  C   UNL A   1      34.814  33.702  29.614  1.00  0.00     0.023 C 
BRANCH  31  32
ATOM     32  C   UNL A   1      35.228  33.296  28.205  1.00  0.00     0.116 C 
BRANCH  32  33
ATOM     33  N   UNL A   1      34.317  32.341  27.596  1.00  0.00    -0.352 N 
ATOM     34  C   UNL A   1      34.490  30.989  27.411  1.00  0.00     0.251 C 
ATOM     35  H   UNL A   1      33.463  32.711  27.274  1.00  0.00     0.163 HD
ATOM     36  O   UNL A   1      33.670  30.351  26.774  1.00  0.00    -0.269 OA
BRANCH  34  37
ATOM     37  C   UNL A   1      35.705  30.339  27.952  1.00  0.00     0.039 A 
ATOM     38  C   UNL A   1      36.897  30.453  27.235  1.00  0.00     0.014 A 
ATOM     39  C   UNL A   1      35.675  29.654  29.169  1.00  0.00     0.014 A 
ATOM     40  C   UNL A   1      38.074  29.928  27.770  1.00  0.00     0.010 A 
ATOM     41  C   UNL A   1      36.861  29.197  29.735  1.00  0.00     0.010 A 
ATOM     42  C   UNL A   1      38.072  29.325  29.039  1.00  0.00    -0.014 A 
BRANCH  42  43
ATOM     43  C   UNL A   1      39.331  28.819  29.642  1.00  0.00     0.031 A 
ATOM     44  C   UNL A   1      39.858  29.429  30.912  1.00  0.00     0.074 A 
ATOM     45  C   UNL A   1      40.019  27.842  29.019  1.00  0.00     0.049 A 
ATOM     46  N   UNL A   1      40.943  29.136  31.582  1.00  0.00    -0.248 NA
ATOM     47  C   UNL A   1      39.081  30.538  31.483  1.00  0.00     0.031 C 
ATOM     48  C   UNL A   1      39.637  27.217  27.750  1.00  0.00     0.029 A 
ATOM     49  N   UNL A   1      41.181  27.202  29.366  1.00  0.00    -0.354 N 
ATOM     50  C   UNL A   1      40.982  30.028  32.649  1.00  0.00     0.074 A 
ATOM     51  C   UNL A   1      39.850  30.916  32.492  1.00  0.00     0.031 C 
ATOM     52  C   UNL A   1      40.529  26.262  27.444  1.00  0.00     0.029 A 
ATOM     53  C   UNL A   1      41.564  26.227  28.473  1.00  0.00     0.049 A 
ATOM     54  H   UNL A   1      41.694  27.419  30.177  1.00  0.00     0.167 HD
ATOM     55  C   UNL A   1      41.863  30.082  33.680  1.00  0.00     0.034 A 
ATOM     56  C   UNL A   1      42.625  25.397  28.486  1.00  0.00     0.034 A 
ATOM     57  C   UNL A   1      42.980  29.179  33.824  1.00  0.00     0.049 A 
ATOM     58  C   UNL A   1      43.584  25.467  29.646  1.00  0.00     0.074 A 
ATOM     59  C   UNL A   1      43.906  29.109  34.849  1.00  0.00     0.029 A 
ATOM     60  N   UNL A   1      43.323  28.188  32.912  1.00  0.00    -0.354 N 
ATOM     61  N   UNL A   1      43.572  26.274  30.683  1.00  0.00    -0.248 NA
ATOM     62  C   UNL A   1      44.685  24.496  29.652  1.00  0.00     0.031 C 
ATOM     63  C   UNL A   1      44.843  28.119  34.528  1.00  0.00     0.029 A 
ATOM     64  C   UNL A   1      44.459  27.518  33.340  1.00  0.00     0.049 A 
ATOM     65  H   UNL A   1      42.831  27.991  32.082  1.00  0.00     0.167 HD
ATOM     66  C   UNL A   1      44.646  25.885  31.479  1.00  0.00     0.074 A 
ATOM     67  C   UNL A   1      45.270  24.761  30.810  1.00  0.00     0.031 C 
ATOM     68  C   UNL A   1      45.074  26.404  32.658  1.00  0.00     0.034 A 
BRANCH  55  69
ATOM     69  C   UNL A   1      41.655  31.168  34.710  1.00  0.00     0.023 A 
ATOM     70  C   UNL A   1      40.507  31.204  35.523  1.00  0.00     0.031 A 
ATOM     71  C   UNL A   1      42.597  32.201  34.860  1.00  0.00     0.131 A 
ATOM     72  C   UNL A   1      40.289  32.291  36.382  1.00  0.00     0.055 A 
ATOM     73  C   UNL A   1      42.416  33.235  35.781  1.00  0.00     0.041 A 
ATOM     74  F   UNL A   1      43.703  32.234  34.100  1.00  0.00    -0.206 F 
ATOM     75  C   UNL A   1      41.248  33.294  36.537  1.00  0.00     0.022 A 
BRANCH  72  76
ATOM     76  S   UNL A   1      38.667  32.452  37.178  1.00  0.00     0.124 S 
ATOM     77  O   UNL A   1      37.871  31.492  36.418  1.00  0.00    -0.237 OA
ATOM     78  O   UNL A   1      38.957  32.091  38.561  1.00  0.00    -0.237 OA
ATOM     79  O   UNL A   1      38.316  33.853  36.960  1.00  0.00    -0.744 OA
ENDBRANCH  72  76
ENDBRANCH  55  69
BRANCH  56  80
ATOM     80  C   UNL A   1      42.834  24.420  27.380  1.00  0.00     0.023 A 
ATOM     81  C   UNL A   1      42.166  23.185  27.370  1.00  0.00     0.031 A 
ATOM     82  C   UNL A   1      43.734  24.692  26.334  1.00  0.00     0.131 A 
ATOM     83  C   UNL A   1      42.444  22.247  26.364  1.00  0.00     0.055 A 
ATOM     84  C   UNL A   1      43.969  23.775  25.308  1.00  0.00     0.041 A 
ATOM     85  F   UNL A   1      44.391  25.862  26.290  1.00  0.00    -0.206 F 
ATOM     86  C   UNL A   1      43.332  22.539  25.327  1.00  0.00     0.022 A 
BRANCH  83  87
ATOM     87  S   UNL A   1      41.684  20.604  26.478  1.00  0.00     0.124 S 
ATOM     88  O   UNL A   1      40.271  20.915  26.291  1.00  0.00    -0.237 OA
ATOM     89  O   UNL A   1      42.335  19.893  25.382  1.00  0.00    -0.237 OA
ATOM     90  O   UNL A   1      42.052  20.151  27.818  1.00  0.00    -0.744 OA
ENDBRANCH  83  87
ENDBRANCH  56  80
BRANCH  68  91
ATOM     91  C   UNL A   1      46.247  25.720  33.318  1.00  0.00     0.023 A 
ATOM     92  C   UNL A   1      47.575  26.020  32.966  1.00  0.00     0.031 A 
ATOM     93  C   UNL A   1      46.029  24.732  34.294  1.00  0.00     0.131 A 
ATOM     94  C   UNL A   1      48.630  25.295  33.539  1.00  0.00     0.055 A 
ATOM     95  C   UNL A   1      47.085  24.057  34.906  1.00  0.00     0.041 A 
ATOM     96  F   UNL A   1      44.781  24.404  34.667  1.00  0.00    -0.206 F 
ATOM     97  C   UNL A   1      48.395  24.326  34.517  1.00  0.00     0.022 A 
BRANCH  94  98
ATOM     98  S   UNL A   1      50.310  25.557  32.907  1.00  0.00     0.124 S 
ATOM     99  O   UNL A   1      51.129  25.010  33.984  1.00  0.00    -0.237 OA
ATOM    100  O   UNL A   1      50.297  24.792  31.664  1.00  0.00    -0.237 OA
ATOM    101  O   UNL A   1      50.391  27.007  32.741  1.00  0.00    -0.744 OA
ENDBRANCH  94  98
ENDBRANCH  68  91
ENDBRANCH  42  43
ENDBRANCH  34  37
ENDBRANCH  32  33
ENDBRANCH  31  32
ENDBRANCH   1  31
TORSDOF 18
ENDMDL
MODEL 2
REMARK VINA RESULT:     -10.1      1.791      2.247
REMARK SMILES COc1c[nH]c(C[N@H+]2CCC[C@@H](c3ccc(C(=O)NCCCCNC(=O)c4ccc(-c5c6nc(c(-c7cc(S(=O)(=O)[O-])ccc7F)c7ccc([nH]7)c(-c7cc(S(=O)(=O)[O-])ccc7F)c7nc(c(-c8cc(S(=O)(=O)[O-])ccc8F)c8ccc5[nH]8)C=C7)C=C6)cc4)cc3)C2)cc1=O
REMARK SMILES IDX 21 1 20 2 19 3 17 4 18 5 16 7 13 8 14 9 91 10 15 11 90 12
REMARK SMILES IDX 12 13 8 14 9 15 92 16 10 18 11 19 7 20 6 21 3 22 4 23 94 24
REMARK SMILES IDX 5 25 93 26 95 27 2 29 1 30 22 31 23 32 24 33 25 34 26 36
REMARK SMILES IDX 27 37 28 38 89 39 29 40 88 41 30 42 31 43 32 44 82 45 33 46
REMARK SMILES IDX 87 47 81 48 83 49 34 50 86 51 80 52 79 53 35 55 67 56 47 57
REMARK SMILES IDX 66 58 48 59 51 60 65 61 84 62 49 63 50 64 64 66 85 67 52 68
REMARK SMILES IDX 36 69 37 70 45 71 38 72 44 73 46 74 43 75 39 76 40 77 41 78
REMARK SMILES IDX 42 79 68 80 69 81 77 82 70 83 76 84 78 85 75 86 71 87 72 88
REMARK SMILES IDX 73 89 74 90 53 91 54 92 62 93 55 94 61 95 63 96 60 97 56 98
REMARK SMILES IDX 57 99 58 100 59 101
REMARK H PARENT 19 6 8 17 5 28 24 35 83 54 51 65
REMARK Flexibility Score: inf
ROOT
ATOM      1  C   UNL A   1      35.729  31.430  31.773  1.00  0.00     0.023 C 
ENDROOT
BRANCH   1   2
ATOM      2  C   UNL A   1      36.378  31.773  33.116  1.00  0.00     0.116 C 
BRANCH   2   3
ATOM      3  N   UNL A   1      36.013  33.114  33.527  1.00  0.00    -0.352 N 
ATOM      4  C   UNL A   1      36.700  34.299  33.472  1.00  0.00     0.251 C 
ATOM      5  O   UNL A   1      36.135  35.316  33.875  1.00  0.00    -0.269 OA
ATOM      6  H   UNL A   1      35.112  33.187  33.917  1.00  0.00     0.163 HD
BRANCH   4   7
ATOM      7  C   UNL A   1      38.063  34.420  32.882  1.00  0.00     0.039 A 
ATOM      8  C   UNL A   1      40.577  34.481  31.590  1.00  0.00    -0.039 A 
ATOM      9  C   UNL A   1      39.388  34.448  30.846  1.00  0.00     0.005 A 
ATOM     10  C   UNL A   1      40.487  34.579  32.981  1.00  0.00     0.005 A 
ATOM     11  C   UNL A   1      38.148  34.402  31.486  1.00  0.00     0.014 A 
ATOM     12  C   UNL A   1      39.242  34.573  33.617  1.00  0.00     0.014 A 
BRANCH   8  13
ATOM     13  C   UNL A   1      41.942  34.381  30.928  1.00  0.00     0.074 C 
ATOM     14  N   UNL A   1      43.691  32.728  30.178  1.00  0.00    -0.329 N 
ATOM     15  C   UNL A   1      43.667  33.308  28.829  1.00  0.00     0.262 C 
ATOM     16  C   UNL A   1      42.404  32.910  30.859  1.00  0.00     0.270 C 
ATOM     17  H   UNL A   1      44.389  33.242  30.716  1.00  0.00     0.348 HD
ATOM     18  C   UNL A   1      43.297  34.794  28.860  1.00  0.00     0.062 C 
ATOM     19  C   UNL A   1      41.946  35.017  29.535  1.00  0.00     0.020 C 
BRANCH  14  20
ATOM     20  C   UNL A   1      44.137  31.317  30.175  1.00  0.00     0.317 C 
BRANCH  20  21
ATOM     21  C   UNL A   1      44.400  30.691  28.809  1.00  0.00     0.074 A 
ATOM     22  C   UNL A   1      45.167  29.290  26.435  1.00  0.00     0.182 A 
ATOM     23  C   UNL A   1      46.048  29.910  27.233  1.00  0.00     0.133 A 
ATOM     24  C   UNL A   1      43.714  29.459  26.801  1.00  0.00     0.223 A 
ATOM     25  N   UNL A   1      45.698  30.641  28.335  1.00  0.00    -0.357 N 
ATOM     26  C   UNL A   1      43.399  30.169  28.076  1.00  0.00     0.083 A 
ATOM     27  O   UNL A   1      42.789  29.019  26.122  1.00  0.00    -0.286 OA
ATOM     28  H   UNL A   1      46.396  31.149  28.809  1.00  0.00     0.166 HD
BRANCH  22  29
ATOM     29  O   UNL A   1      45.617  28.495  25.398  1.00  0.00    -0.491 OA
ATOM     30  C   UNL A   1      47.029  28.355  25.334  1.00  0.00     0.278 C 
ENDBRANCH  22  29
ENDBRANCH  20  21
ENDBRANCH  14  20
ENDBRANCH   8  13
ENDBRANCH   4   7
ENDBRANCH   2   3
ENDBRANCH   1   2
BRANCH   1  31
ATOM     31  C   UNL A   1      34.663  32.428  31.316  1.00  0.00     0.023 C 
BRANCH  31  32
ATOM     32  C   UNL A   1      34.960  33.114  29.989  1.00  0.00     0.116 C 
BRANCH  32  33
ATOM     33  N   UNL A   1      34.306  32.477  28.859  1.00  0.00    -0.352 N 
ATOM     34  C   UNL A   1      34.755  31.430  28.087  1.00  0.00     0.251 C 
ATOM     35  H   UNL A   1      33.425  32.842  28.613  1.00  0.00     0.163 HD
ATOM     36  O   UNL A   1      34.131  31.090  27.097  1.00  0.00    -0.269 OA
BRANCH  34  37
ATOM     37  C   UNL A   1      36.026  30.764  28.449  1.00  0.00     0.039 A 
ATOM     38  C   UNL A   1      37.219  31.469  28.283  1.00  0.00     0.014 A 
ATOM     39  C   UNL A   1      36.038  29.471  28.978  1.00  0.00     0.014 A 
ATOM     40  C   UNL A   1      38.421  30.896  28.703  1.00  0.00     0.010 A 
ATOM     41  C   UNL A   1      37.225  28.932  29.464  1.00  0.00     0.010 A 
ATOM     42  C   UNL A   1      38.429  29.638  29.326  1.00  0.00    -0.014 A 
BRANCH  42  43
ATOM     43  C   UNL A   1      39.695  29.049  29.832  1.00  0.00     0.031 A 
ATOM     44  C   UNL A   1      40.329  29.585  31.086  1.00  0.00     0.074 A 
ATOM     45  C   UNL A   1      40.292  28.063  29.135  1.00  0.00     0.049 A 
ATOM     46  N   UNL A   1      41.436  29.215  31.678  1.00  0.00    -0.248 NA
ATOM     47  C   UNL A   1      39.646  30.709  31.742  1.00  0.00     0.031 C 
ATOM     48  C   UNL A   1      39.802  27.504  27.872  1.00  0.00     0.029 A 
ATOM     49  N   UNL A   1      41.439  27.353  29.387  1.00  0.00    -0.354 N 
ATOM     50  C   UNL A   1      41.586  30.063  32.769  1.00  0.00     0.074 A 
ATOM     51  C   UNL A   1      40.493  31.011  32.713  1.00  0.00     0.031 C 
ATOM     52  C   UNL A   1      40.624  26.518  27.479  1.00  0.00     0.029 A 
ATOM     53  C   UNL A   1      41.716  26.395  28.439  1.00  0.00     0.049 A 
ATOM     54  H   UNL A   1      42.011  27.515  30.171  1.00  0.00     0.167 HD
ATOM     55  C   UNL A   1      42.529  30.036  33.744  1.00  0.00     0.034 A 
ATOM     56  C   UNL A   1      42.732  25.513  28.358  1.00  0.00     0.034 A 
ATOM     57  C   UNL A   1      43.605  29.074  33.788  1.00  0.00     0.049 A 
ATOM     58  C   UNL A   1      43.762  25.493  29.458  1.00  0.00     0.074 A 
ATOM     59  C   UNL A   1      44.587  28.921  34.750  1.00  0.00     0.029 A 
ATOM     60  N   UNL A   1      43.840  28.101  32.823  1.00  0.00    -0.354 N 
ATOM     61  N   UNL A   1      43.855  26.261  30.519  1.00  0.00    -0.248 NA
ATOM     62  C   UNL A   1      44.810  24.469  29.362  1.00  0.00     0.031 C 
ATOM     63  C   UNL A   1      45.451  27.898  34.338  1.00  0.00     0.029 A 
ATOM     64  C   UNL A   1      44.965  27.361  33.157  1.00  0.00     0.049 A 
ATOM     65  H   UNL A   1      43.290  27.960  32.020  1.00  0.00     0.167 HD
ATOM     66  C   UNL A   1      44.953  25.790  31.233  1.00  0.00     0.074 A 
ATOM     67  C   UNL A   1      45.477  24.662  30.490  1.00  0.00     0.031 C 
ATOM     68  C   UNL A   1      45.479  26.244  32.400  1.00  0.00     0.034 A 
BRANCH  55  69
ATOM     69  C   UNL A   1      42.441  31.092  34.822  1.00  0.00     0.023 A 
ATOM     70  C   UNL A   1      43.053  32.350  34.673  1.00  0.00     0.031 A 
ATOM     71  C   UNL A   1      41.770  30.827  36.028  1.00  0.00     0.131 A 
ATOM     72  C   UNL A   1      43.055  33.260  35.741  1.00  0.00     0.055 A 
ATOM     73  C   UNL A   1      41.701  31.772  37.055  1.00  0.00     0.041 A 
ATOM     74  F   UNL A   1      41.184  29.638  36.239  1.00  0.00    -0.206 F 
ATOM     75  C   UNL A   1      42.361  32.991  36.922  1.00  0.00     0.022 A 
BRANCH  72  76
ATOM     76  S   UNL A   1      44.107  34.733  35.619  1.00  0.00     0.124 S 
ATOM     77  O   UNL A   1      43.152  35.738  35.157  1.00  0.00    -0.237 OA
ATOM     78  O   UNL A   1      44.590  34.890  36.986  1.00  0.00    -0.237 OA
ATOM     79  O   UNL A   1      45.120  34.350  34.639  1.00  0.00    -0.744 OA
ENDBRANCH  72  76
ENDBRANCH  55  69
BRANCH  56  80
ATOM     80  C   UNL A   1      42.823  24.568  27.209  1.00  0.00     0.023 A 
ATOM     81  C   UNL A   1      42.226  23.299  27.268  1.00  0.00     0.031 A 
ATOM     82  C   UNL A   1      43.539  24.908  26.048  1.00  0.00     0.131 A 
ATOM     83  C   UNL A   1      42.398  22.395  26.208  1.00  0.00     0.055 A 
ATOM     84  C   UNL A   1      43.665  24.023  24.975  1.00  0.00     0.041 A 
ATOM     85  F   UNL A   1      44.121  26.112  25.936  1.00  0.00    -0.206 F 
ATOM     86  C   UNL A   1      43.103  22.753  25.058  1.00  0.00     0.022 A 
BRANCH  83  87
ATOM     87  S   UNL A   1      41.750  20.710  26.392  1.00  0.00     0.124 S 
ATOM     88  O   UNL A   1      42.107  20.403  27.773  1.00  0.00    -0.237 OA
ATOM     89  O   UNL A   1      40.329  20.901  26.123  1.00  0.00    -0.237 OA
ATOM     90  O   UNL A   1      42.479  19.954  25.375  1.00  0.00    -0.744 OA
ENDBRANCH  83  87
ENDBRANCH  56  80
BRANCH  68  91
ATOM     91  C   UNL A   1      46.652  25.479  32.962  1.00  0.00     0.023 A 
ATOM     92  C   UNL A   1      47.966  25.695  32.507  1.00  0.00     0.031 A 
ATOM     93  C   UNL A   1      46.449  24.499  33.949  1.00  0.00     0.131 A 
ATOM     94  C   UNL A   1      49.013  24.897  32.991  1.00  0.00     0.055 A 
ATOM     95  C   UNL A   1      47.504  23.751  34.472  1.00  0.00     0.041 A 
ATOM     96  F   UNL A   1      45.215  24.249  34.419  1.00  0.00    -0.206 F 
ATOM     97  C   UNL A   1      48.793  23.937  33.981  1.00  0.00     0.022 A 
BRANCH  94  98
ATOM     98  S   UNL A   1      50.651  25.055  32.228  1.00  0.00     0.124 S 
ATOM     99  O   UNL A   1      51.340  23.874  32.738  1.00  0.00    -0.237 OA
ATOM    100  O   UNL A   1      50.333  25.042  30.804  1.00  0.00    -0.237 OA
ATOM    101  O   UNL A   1      51.146  26.332  32.740  1.00  0.00    -0.744 OA
ENDBRANCH  94  98
ENDBRANCH  68  91
ENDBRANCH  42  43
ENDBRANCH  34  37
ENDBRANCH  32  33
ENDBRANCH  31  32
ENDBRANCH   1  31
TORSDOF 18
ENDMDL
MODEL 3
REMARK VINA RESULT:     -10.0      1.800      2.290
REMARK SMILES COc1c[nH]c(C[N@H+]2CCC[C@@H](c3ccc(C(=O)NCCCCNC(=O)c4ccc(-c5c6nc(c(-c7cc(S(=O)(=O)[O-])ccc7F)c7ccc([nH]7)c(-c7cc(S(=O)(=O)[O-])ccc7F)c7nc(c(-c8cc(S(=O)(=O)[O-])ccc8F)c8ccc5[nH]8)C=C7)C=C6)cc4)cc3)C2)cc1=O
REMARK SMILES IDX 21 1 20 2 19 3 17 4 18 5 16 7 13 8 14 9 91 10 15 11 90 12
REMARK SMILES IDX 12 13 8 14 9 15 92 16 10 18 11 19 7 20 6 21 3 22 4 23 94 24
REMARK SMILES IDX 5 25 93 26 95 27 2 29 1 30 22 31 23 32 24 33 25 34 26 36
REMARK SMILES IDX 27 37 28 38 89 39 29 40 88 41 30 42 31 43 32 44 82 45 33 46
REMARK SMILES IDX 87 47 81 48 83 49 34 50 86 51 80 52 79 53 35 55 67 56 47 57
REMARK SMILES IDX 66 58 48 59 51 60 65 61 84 62 49 63 50 64 64 66 85 67 52 68
REMARK SMILES IDX 36 69 37 70 45 71 38 72 44 73 46 74 43 75 39 76 40 77 41 78
REMARK SMILES IDX 42 79 68 80 69 81 77 82 70 83 76 84 78 85 75 86 71 87 72 88
REMARK SMILES IDX 73 89 74 90 53 91 54 92 62 93 55 94 61 95 63 96 60 97 56 98
REMARK SMILES IDX 57 99 58 100 59 101
REMARK H PARENT 19 6 8 17 5 28 24 35 83 54 51 65
REMARK Flexibility Score: inf
ROOT
ATOM      1  C   UNL A   1      34.779  32.594  30.559  1.00  0.00     0.023 C 
ENDROOT
BRANCH   1   2
ATOM      2  C   UNL A   1      35.705  32.449  31.769  1.00  0.00     0.116 C 
BRANCH   2   3
ATOM      3  N   UNL A   1      35.542  33.573  32.669  1.00  0.00    -0.352 N 
ATOM      4  C   UNL A   1      36.445  34.480  33.162  1.00  0.00     0.251 C 
ATOM      5  O   UNL A   1      36.027  35.368  33.905  1.00  0.00    -0.269 OA
ATOM      6  H   UNL A   1      34.619  33.709  32.984  1.00  0.00     0.163 HD
BRANCH   4   7
ATOM      7  C   UNL A   1      37.886  34.479  32.781  1.00  0.00     0.039 A 
ATOM      8  C   UNL A   1      40.560  34.310  31.881  1.00  0.00    -0.039 A 
ATOM      9  C   UNL A   1      39.495  34.330  30.968  1.00  0.00     0.005 A 
ATOM     10  C   UNL A   1      40.273  34.471  33.239  1.00  0.00     0.005 A 
ATOM     11  C   UNL A   1      38.174  34.397  31.415  1.00  0.00     0.014 A 
ATOM     12  C   UNL A   1      38.950  34.579  33.680  1.00  0.00     0.014 A 
BRANCH   8  13
ATOM     13  C   UNL A   1      41.996  34.086  31.436  1.00  0.00     0.074 C 
ATOM     14  N   UNL A   1      43.397  32.950  29.674  1.00  0.00    -0.329 N 
ATOM     15  C   UNL A   1      44.060  34.225  29.373  1.00  0.00     0.262 C 
ATOM     16  C   UNL A   1      42.043  33.164  30.198  1.00  0.00     0.270 C 
ATOM     17  H   UNL A   1      43.935  32.495  30.413  1.00  0.00     0.348 HD
ATOM     18  C   UNL A   1      44.114  35.137  30.602  1.00  0.00     0.062 C 
ATOM     19  C   UNL A   1      42.717  35.408  31.155  1.00  0.00     0.020 C 
BRANCH  14  20
ATOM     20  C   UNL A   1      43.419  32.019  28.524  1.00  0.00     0.317 C 
BRANCH  20  21
ATOM     21  C   UNL A   1      44.121  30.682  28.747  1.00  0.00     0.074 A 
ATOM     22  C   UNL A   1      45.571  28.216  28.785  1.00  0.00     0.182 A 
ATOM     23  C   UNL A   1      44.673  28.520  27.837  1.00  0.00     0.133 A 
ATOM     24  C   UNL A   1      45.705  29.213  29.909  1.00  0.00     0.223 A 
ATOM     25  N   UNL A   1      43.921  29.663  27.834  1.00  0.00    -0.357 N 
ATOM     26  C   UNL A   1      44.944  30.492  29.794  1.00  0.00     0.083 A 
ATOM     27  O   UNL A   1      46.425  29.036  30.889  1.00  0.00    -0.286 OA
ATOM     28  H   UNL A   1      43.212  29.763  27.158  1.00  0.00     0.166 HD
BRANCH  22  29
ATOM     29  O   UNL A   1      46.354  27.085  28.657  1.00  0.00    -0.491 OA
ATOM     30  C   UNL A   1      47.681  27.336  28.212  1.00  0.00     0.278 C 
ENDBRANCH  22  29
ENDBRANCH  20  21
ENDBRANCH  14  20
ENDBRANCH   8  13
ENDBRANCH   4   7
ENDBRANCH   2   3
ENDBRANCH   1   2
BRANCH   1  31
ATOM     31  C   UNL A   1      35.231  33.643  29.541  1.00  0.00     0.023 C 
BRANCH  31  32
ATOM     32  C   UNL A   1      35.708  33.076  28.211  1.00  0.00     0.116 C 
BRANCH  32  33
ATOM     33  N   UNL A   1      34.770  32.132  27.625  1.00  0.00    -0.352 N 
ATOM     34  C   UNL A   1      34.913  30.774  27.457  1.00  0.00     0.251 C 
ATOM     35  H   UNL A   1      33.920  32.515  27.307  1.00  0.00     0.163 HD
ATOM     36  O   UNL A   1      34.073  30.144  26.837  1.00  0.00    -0.269 OA
BRANCH  34  37
ATOM     37  C   UNL A   1      36.121  30.107  27.993  1.00  0.00     0.039 A 
ATOM     38  C   UNL A   1      37.287  30.123  27.227  1.00  0.00     0.014 A 
ATOM     39  C   UNL A   1      36.111  29.501  29.252  1.00  0.00     0.014 A 
ATOM     40  C   UNL A   1      38.462  29.581  27.751  1.00  0.00     0.010 A 
ATOM     41  C   UNL A   1      37.298  29.028  29.802  1.00  0.00     0.010 A 
ATOM     42  C   UNL A   1      38.485  29.060  29.055  1.00  0.00    -0.014 A 
BRANCH  42  43
ATOM     43  C   UNL A   1      39.745  28.538  29.643  1.00  0.00     0.031 A 
ATOM     44  C   UNL A   1      40.375  29.234  30.818  1.00  0.00     0.074 A 
ATOM     45  C   UNL A   1      40.341  27.465  29.087  1.00  0.00     0.049 A 
ATOM     46  N   UNL A   1      41.476  28.941  31.460  1.00  0.00    -0.248 NA
ATOM     47  C   UNL A   1      39.693  30.438  31.313  1.00  0.00     0.031 C 
ATOM     48  C   UNL A   1      39.855  26.744  27.906  1.00  0.00     0.029 A 
ATOM     49  N   UNL A   1      41.482  26.790  29.438  1.00  0.00    -0.354 N 
ATOM     50  C   UNL A   1      41.624  29.927  32.430  1.00  0.00     0.074 A 
ATOM     51  C   UNL A   1      40.537  30.864  32.240  1.00  0.00     0.031 C 
ATOM     52  C   UNL A   1      40.674  25.711  27.653  1.00  0.00     0.029 A 
ATOM     53  C   UNL A   1      41.760  25.713  28.629  1.00  0.00     0.049 A 
ATOM     54  H   UNL A   1      42.051  27.053  30.197  1.00  0.00     0.167 HD
ATOM     55  C   UNL A   1      42.562  30.026  33.405  1.00  0.00     0.034 A 
ATOM     56  C   UNL A   1      42.772  24.824  28.672  1.00  0.00     0.034 A 
ATOM     57  C   UNL A   1      43.633  29.074  33.583  1.00  0.00     0.049 A 
ATOM     58  C   UNL A   1      43.795  24.946  29.771  1.00  0.00     0.074 A 
ATOM     59  C   UNL A   1      44.609  29.046  34.563  1.00  0.00     0.029 A 
ATOM     60  N   UNL A   1      43.868  27.980  32.758  1.00  0.00    -0.354 N 
ATOM     61  N   UNL A   1      43.886  25.848  30.721  1.00  0.00    -0.248 NA
ATOM     62  C   UNL A   1      44.839  23.914  29.819  1.00  0.00     0.031 C 
ATOM     63  C   UNL A   1      45.469  27.973  34.297  1.00  0.00     0.029 A 
ATOM     64  C   UNL A   1      44.987  27.286  33.195  1.00  0.00     0.049 A 
ATOM     65  H   UNL A   1      43.321  27.735  31.978  1.00  0.00     0.167 HD
ATOM     66  C   UNL A   1      44.978  25.472  31.498  1.00  0.00     0.074 A 
ATOM     67  C   UNL A   1      45.500  24.253  30.915  1.00  0.00     0.031 C 
ATOM     68  C   UNL A   1      45.499  26.075  32.597  1.00  0.00     0.034 A 
BRANCH  55  69
ATOM     69  C   UNL A   1      42.473  31.216  34.331  1.00  0.00     0.023 A 
ATOM     70  C   UNL A   1      41.545  31.261  35.388  1.00  0.00     0.031 A 
ATOM     71  C   UNL A   1      43.300  32.337  34.136  1.00  0.00     0.131 A 
ATOM     72  C   UNL A   1      41.407  32.430  36.152  1.00  0.00     0.055 A 
ATOM     73  C   UNL A   1      43.217  33.465  34.956  1.00  0.00     0.041 A 
ATOM     74  F   UNL A   1      44.190  32.364  33.133  1.00  0.00    -0.206 F 
ATOM     75  C   UNL A   1      42.254  33.523  35.961  1.00  0.00     0.022 A 
BRANCH  72  76
ATOM     76  S   UNL A   1      40.003  32.555  37.294  1.00  0.00     0.124 S 
ATOM     77  O   UNL A   1      39.159  31.451  36.844  1.00  0.00    -0.237 OA
ATOM     78  O   UNL A   1      40.639  32.385  38.595  1.00  0.00    -0.237 OA
ATOM     79  O   UNL A   1      39.466  33.887  37.031  1.00  0.00    -0.744 OA
ENDBRANCH  72  76
ENDBRANCH  55  69
BRANCH  56  80
ATOM     80  C   UNL A   1      42.864  23.734  27.660  1.00  0.00     0.023 A 
ATOM     81  C   UNL A   1      43.884  23.727  26.695  1.00  0.00     0.031 A 
ATOM     82  C   UNL A   1      41.911  22.701  27.620  1.00  0.00     0.131 A 
ATOM     83  C   UNL A   1      43.899  22.737  25.701  1.00  0.00     0.055 A 
ATOM     84  C   UNL A   1      41.959  21.690  26.659  1.00  0.00     0.041 A 
ATOM     85  F   UNL A   1      40.920  22.655  28.525  1.00  0.00    -0.206 F 
ATOM     86  C   UNL A   1      42.951  21.712  25.683  1.00  0.00     0.022 A 
BRANCH  83  87
ATOM     87  S   UNL A   1      45.136  22.856  24.378  1.00  0.00     0.124 S 
ATOM     88  O   UNL A   1      44.425  22.262  23.251  1.00  0.00    -0.237 OA
ATOM     89  O   UNL A   1      45.365  24.295  24.307  1.00  0.00    -0.237 OA
ATOM     90  O   UNL A   1      46.258  22.072  24.891  1.00  0.00    -0.744 OA
ENDBRANCH  83  87
ENDBRANCH  56  80
BRANCH  68  91
ATOM     91  C   UNL A   1      46.666  25.388  33.263  1.00  0.00     0.023 A 
ATOM     92  C   UNL A   1      47.987  25.563  32.813  1.00  0.00     0.031 A 
ATOM     93  C   UNL A   1      46.448  24.521  34.349  1.00  0.00     0.131 A 
ATOM     94  C   UNL A   1      49.029  24.832  33.403  1.00  0.00     0.055 A 
ATOM     95  C   UNL A   1      47.497  23.845  34.973  1.00  0.00     0.041 A 
ATOM     96  F   UNL A   1      45.207  24.315  34.819  1.00  0.00    -0.206 F 
ATOM     97  C   UNL A   1      48.795  23.986  34.489  1.00  0.00     0.022 A 
BRANCH  94  98
ATOM     98  S   UNL A   1      50.681  24.918  32.659  1.00  0.00     0.124 S 
ATOM     99  O   UNL A   1      50.934  26.355  32.643  1.00  0.00    -0.237 OA
ATOM    100  O   UNL A   1      51.484  24.140  33.597  1.00  0.00    -0.237 OA
ATOM    101  O   UNL A   1      50.498  24.305  31.345  1.00  0.00    -0.744 OA
ENDBRANCH  94  98
ENDBRANCH  68  91
ENDBRANCH  42  43
ENDBRANCH  34  37
ENDBRANCH  32  33
ENDBRANCH  31  32
ENDBRANCH   1  31
TORSDOF 18
ENDMDL
