MODEL 1
REMARK VINA RESULT:     -10.9      0.000      0.000
REMARK SMILES Cn1ccnc1SCC[C@@H]1CCC[C@]1([NH3+])C(=O)NCCCCNC(=O)c1ccc(-c2c3nc(c(-c4cc(S(=O)(=O)[O-])ccc4F)c4ccc([nH]4)c(-c4cc(S(=O)(=O)[O-])ccc4F)c4nc(c(-c5cc(S(=O)(=O)[O-])ccc5F)c5ccc2[nH]5)C=C4)C=C3)cc1
REMARK SMILES IDX 20 1 19 2 18 3 16 4 17 5 14 7 10 8 11 9 12 10 13 11 9 12
REMARK SMILES IDX 8 13 7 14 6 15 1 16 2 17 3 18 4 19 5 20 15 21 21 25 22 26
REMARK SMILES IDX 23 27 24 28 25 30 26 31 27 32 88 33 28 34 87 35 29 36 30 37
REMARK SMILES IDX 31 38 81 39 32 40 86 41 80 42 82 43 33 44 85 45 79 46 78 47
REMARK SMILES IDX 34 49 66 50 46 51 65 52 47 53 50 54 64 55 83 56 48 57 49 58
REMARK SMILES IDX 63 60 84 61 51 62 35 63 36 64 44 65 37 66 43 67 45 68 42 69
REMARK SMILES IDX 38 70 39 71 40 72 41 73 67 74 68 75 76 76 69 77 75 78 77 79
REMARK SMILES IDX 74 80 70 81 71 82 72 83 73 84 52 85 53 86 61 87 54 88 60 89
REMARK SMILES IDX 62 90 59 91 55 92 56 93 57 94 58 95
REMARK H PARENT 18 6 15 22 15 23 15 24 23 29 82 48 50 59
REMARK Flexibility Score: inf
ROOT
ATOM      1  C   UNL A   1      31.701  30.503  26.903  1.00  0.00     0.023 C 
ENDROOT
BRANCH   1   2
ATOM      2  C   UNL A   1      31.655  29.809  25.544  1.00  0.00     0.116 C 
BRANCH   2   3
ATOM      3  N   UNL A   1      31.926  28.394  25.657  1.00  0.00    -0.351 N 
ATOM      4  C   UNL A   1      32.450  27.512  24.760  1.00  0.00     0.281 C 
ATOM      5  O   UNL A   1      32.564  26.345  25.147  1.00  0.00    -0.268 OA
ATOM      6  H   UNL A   1      31.696  28.001  26.530  1.00  0.00     0.163 HD
BRANCH   4   7
ATOM      7  C   UNL A   1      32.919  27.960  23.326  1.00  0.00     0.176 C 
ATOM      8  C   UNL A   1      31.786  28.119  22.271  1.00  0.00     0.061 C 
ATOM      9  C   UNL A   1      31.368  26.658  22.037  1.00  0.00     0.011 C 
ATOM     10  C   UNL A   1      32.670  25.868  22.049  1.00  0.00     0.008 C 
ATOM     11  C   UNL A   1      33.714  26.787  22.687  1.00  0.00     0.079 C 
BRANCH   8  12
ATOM     12  C   UNL A   1      30.529  28.970  22.512  1.00  0.00     0.022 C 
BRANCH  12  13
ATOM     13  C   UNL A   1      29.290  28.304  23.121  1.00  0.00     0.079 C 
BRANCH  13  14
ATOM     14  S   UNL A   1      27.656  29.017  22.769  1.00  0.00    -0.088 SA
BRANCH  14  15
ATOM     15  C   UNL A   1      27.976  30.529  22.006  1.00  0.00     0.167 A 
ATOM     16  C   UNL A   1      28.805  31.867  24.002  1.00  0.00     0.152 C 
ATOM     17  N   UNL A   1      28.467  31.653  22.619  1.00  0.00    -0.329 N 
ATOM     18  C   UNL A   1      28.574  32.624  21.652  1.00  0.00     0.108 A 
ATOM     19  C   UNL A   1      28.066  32.053  20.510  1.00  0.00     0.132 A 
ATOM     20  N   UNL A   1      27.702  30.756  20.740  1.00  0.00    -0.231 NA
ENDBRANCH  14  15
ENDBRANCH  13  14
ENDBRANCH  12  13
ENDBRANCH   8  12
BRANCH   7  21
ATOM     21  N   UNL A   1      33.838  29.116  23.453  1.00  0.00    -0.345 N 
ATOM     22  H   UNL A   1      34.781  28.781  23.651  1.00  0.00     0.345 HD
ATOM     23  H   UNL A   1      33.525  29.718  24.214  1.00  0.00     0.345 HD
ATOM     24  H   UNL A   1      33.841  29.645  22.581  1.00  0.00     0.345 HD
ENDBRANCH   7  21
ENDBRANCH   4   7
ENDBRANCH   2   3
ENDBRANCH   1   2
BRANCH   1  25
ATOM     25  C   UNL A   1      31.513  32.012  26.829  1.00  0.00     0.023 C 
BRANCH  25  26
ATOM     26  C   UNL A   1      32.806  32.795  26.989  1.00  0.00     0.116 C 
BRANCH  26  27
ATOM     27  N   UNL A   1      32.591  34.086  27.625  1.00  0.00    -0.352 N 
ATOM     28  C   UNL A   1      33.206  34.604  28.744  1.00  0.00     0.251 C 
ATOM     29  H   UNL A   1      31.918  34.665  27.201  1.00  0.00     0.163 HD
ATOM     30  O   UNL A   1      32.775  35.608  29.279  1.00  0.00    -0.269 OA
BRANCH  28  31
ATOM     31  C   UNL A   1      34.381  33.888  29.288  1.00  0.00     0.039 A 
ATOM     32  C   UNL A   1      35.663  34.330  28.962  1.00  0.00     0.014 A 
ATOM     33  C   UNL A   1      34.199  32.827  30.179  1.00  0.00     0.014 A 
ATOM     34  C   UNL A   1      36.766  33.753  29.595  1.00  0.00     0.010 A 
ATOM     35  C   UNL A   1      35.287  32.330  30.883  1.00  0.00     0.010 A 
ATOM     36  C   UNL A   1      36.584  32.778  30.592  1.00  0.00    -0.014 A 
BRANCH  36  37
ATOM     37  C   UNL A   1      37.734  32.189  31.324  1.00  0.00     0.031 A 
ATOM     38  C   UNL A   1      38.508  31.059  30.697  1.00  0.00     0.074 A 
ATOM     39  C   UNL A   1      38.040  32.621  32.564  1.00  0.00     0.049 A 
ATOM     40  N   UNL A   1      39.474  30.336  31.203  1.00  0.00    -0.248 NA
ATOM     41  C   UNL A   1      38.118  30.666  29.332  1.00  0.00     0.031 C 
ATOM     42  C   UNL A   1      37.336  33.682  33.291  1.00  0.00     0.029 A 
ATOM     43  N   UNL A   1      39.020  32.221  33.438  1.00  0.00    -0.354 N 
ATOM     44  C   UNL A   1      39.797  29.401  30.225  1.00  0.00     0.074 A 
ATOM     45  C   UNL A   1      38.873  29.599  29.131  1.00  0.00     0.031 C 
ATOM     46  C   UNL A   1      37.926  33.868  34.482  1.00  0.00     0.029 A 
ATOM     47  C   UNL A   1      39.016  32.909  34.632  1.00  0.00     0.049 A 
ATOM     48  H   UNL A   1      39.665  31.507  33.232  1.00  0.00     0.167 HD
ATOM     49  C   UNL A   1      40.796  28.486  30.225  1.00  0.00     0.034 A 
ATOM     50  C   UNL A   1      39.795  32.770  35.724  1.00  0.00     0.034 A 
ATOM     51  C   UNL A   1      41.725  28.318  31.313  1.00  0.00     0.049 A 
ATOM     52  C   UNL A   1      40.881  31.720  35.708  1.00  0.00     0.074 A 
ATOM     53  C   UNL A   1      42.796  27.447  31.404  1.00  0.00     0.029 A 
ATOM     54  N   UNL A   1      41.695  29.038  32.499  1.00  0.00    -0.354 N 
ATOM     55  N   UNL A   1      41.198  30.872  34.756  1.00  0.00    -0.248 NA
ATOM     56  C   UNL A   1      41.722  31.618  36.907  1.00  0.00     0.031 C 
ATOM     57  C   UNL A   1      43.376  27.598  32.668  1.00  0.00     0.029 A 
ATOM     58  C   UNL A   1      42.716  28.617  33.336  1.00  0.00     0.049 A 
ATOM     59  H   UNL A   1      41.044  29.745  32.716  1.00  0.00     0.167 HD
ATOM     60  C   UNL A   1      42.302  30.167  35.229  1.00  0.00     0.074 A 
ATOM     61  C   UNL A   1      42.605  30.701  36.540  1.00  0.00     0.031 C 
ATOM     62  C   UNL A   1      43.004  29.169  34.638  1.00  0.00     0.034 A 
BRANCH  49  63
ATOM     63  C   UNL A   1      40.928  27.599  29.011  1.00  0.00     0.023 A 
ATOM     64  C   UNL A   1      41.936  27.810  28.053  1.00  0.00     0.031 A 
ATOM     65  C   UNL A   1      40.033  26.535  28.803  1.00  0.00     0.131 A 
ATOM     66  C   UNL A   1      41.985  27.011  26.901  1.00  0.00     0.055 A 
ATOM     67  C   UNL A   1      40.139  25.692  27.694  1.00  0.00     0.041 A 
ATOM     68  F   UNL A   1      39.036  26.300  29.670  1.00  0.00    -0.206 F 
ATOM     69  C   UNL A   1      41.112  25.936  26.729  1.00  0.00     0.022 A 
BRANCH  66  70
ATOM     70  S   UNL A   1      43.129  27.476  25.574  1.00  0.00     0.124 S 
ATOM     71  O   UNL A   1      43.568  26.168  25.093  1.00  0.00    -0.237 OA
ATOM     72  O   UNL A   1      42.275  28.236  24.669  1.00  0.00    -0.237 OA
ATOM     73  O   UNL A   1      44.156  28.255  26.264  1.00  0.00    -0.744 OA
ENDBRANCH  66  70
ENDBRANCH  49  63
BRANCH  50  74
ATOM     74  C   UNL A   1      39.588  33.625  36.931  1.00  0.00     0.023 A 
ATOM     75  C   UNL A   1      40.411  34.736  37.176  1.00  0.00     0.031 A 
ATOM     76  C   UNL A   1      38.624  33.297  37.900  1.00  0.00     0.131 A 
ATOM     77  C   UNL A   1      40.308  35.432  38.391  1.00  0.00     0.055 A 
ATOM     78  C   UNL A   1      38.478  34.034  39.078  1.00  0.00     0.041 A 
ATOM     79  F   UNL A   1      37.807  32.247  37.719  1.00  0.00    -0.206 F 
ATOM     80  C   UNL A   1      39.339  35.097  39.338  1.00  0.00     0.022 A 
BRANCH  77  81
ATOM     81  S   UNL A   1      41.554  36.694  38.773  1.00  0.00     0.124 S 
ATOM     82  O   UNL A   1      40.729  37.766  39.319  1.00  0.00    -0.237 OA
ATOM     83  O   UNL A   1      42.410  35.994  39.724  1.00  0.00    -0.237 OA
ATOM     84  O   UNL A   1      42.163  36.974  37.475  1.00  0.00    -0.744 OA
ENDBRANCH  77  81
ENDBRANCH  50  74
BRANCH  62  85
ATOM     85  C   UNL A   1      44.206  28.639  35.381  1.00  0.00     0.023 A 
ATOM     86  C   UNL A   1      44.097  27.604  36.324  1.00  0.00     0.031 A 
ATOM     87  C   UNL A   1      45.480  29.188  35.144  1.00  0.00     0.131 A 
ATOM     88  C   UNL A   1      45.230  27.189  37.040  1.00  0.00     0.055 A 
ATOM     89  C   UNL A   1      46.614  28.727  35.812  1.00  0.00     0.041 A 
ATOM     90  F   UNL A   1      45.641  30.180  34.253  1.00  0.00    -0.206 F 
ATOM     91  C   UNL A   1      46.490  27.731  36.777  1.00  0.00     0.022 A 
BRANCH  88  92
ATOM     92  S   UNL A   1      45.018  25.995  38.388  1.00  0.00     0.124 S 
ATOM     93  O   UNL A   1      44.463  26.830  39.448  1.00  0.00    -0.237 OA
ATOM     94  O   UNL A   1      44.104  25.021  37.801  1.00  0.00    -0.237 OA
ATOM     95  O   UNL A   1      46.373  25.506  38.629  1.00  0.00    -0.744 OA
ENDBRANCH  88  92
ENDBRANCH  62  85
ENDBRANCH  36  37
ENDBRANCH  28  31
ENDBRANCH  26  27
ENDBRANCH  25  26
ENDBRANCH   1  25
TORSDOF 19
ENDMDL
MODEL 2
REMARK VINA RESULT:     -10.7      2.825      8.615
REMARK SMILES Cn1ccnc1SCC[C@@H]1CCC[C@]1([NH3+])C(=O)NCCCCNC(=O)c1ccc(-c2c3nc(c(-c4cc(S(=O)(=O)[O-])ccc4F)c4ccc([nH]4)c(-c4cc(S(=O)(=O)[O-])ccc4F)c4nc(c(-c5cc(S(=O)(=O)[O-])ccc5F)c5ccc2[nH]5)C=C4)C=C3)cc1
REMARK SMILES IDX 20 1 19 2 18 3 16 4 17 5 14 7 10 8 11 9 12 10 13 11 9 12
REMARK SMILES IDX 8 13 7 14 6 15 1 16 2 17 3 18 4 19 5 20 15 21 21 25 22 26
REMARK SMILES IDX 23 27 24 28 25 30 26 31 27 32 88 33 28 34 87 35 29 36 30 37
REMARK SMILES IDX 31 38 81 39 32 40 86 41 80 42 82 43 33 44 85 45 79 46 78 47
REMARK SMILES IDX 34 49 66 50 46 51 65 52 47 53 50 54 64 55 83 56 48 57 49 58
REMARK SMILES IDX 63 60 84 61 51 62 35 63 36 64 44 65 37 66 43 67 45 68 42 69
REMARK SMILES IDX 38 70 39 71 40 72 41 73 67 74 68 75 76 76 69 77 75 78 77 79
REMARK SMILES IDX 74 80 70 81 71 82 72 83 73 84 52 85 53 86 61 87 54 88 60 89
REMARK SMILES IDX 62 90 59 91 55 92 56 93 57 94 58 95
REMARK H PARENT 18 6 15 22 15 23 15 24 23 29 82 48 50 59
REMARK Flexibility Score: inf
ROOT
ATOM      1  C   UNL A   1      31.162  31.018  25.596  1.00  0.00     0.023 C 
ENDROOT
BRANCH   1   2
ATOM      2  C   UNL A   1      32.309  30.043  25.847  1.00  0.00     0.116 C 
BRANCH   2   3
ATOM      3  N   UNL A   1      33.021  29.729  24.628  1.00  0.00    -0.351 N 
ATOM      4  C   UNL A   1      33.042  28.594  23.875  1.00  0.00     0.281 C 
ATOM      5  O   UNL A   1      33.759  28.621  22.870  1.00  0.00    -0.268 OA
ATOM      6  H   UNL A   1      33.584  30.460  24.283  1.00  0.00     0.163 HD
BRANCH   4   7
ATOM      7  C   UNL A   1      32.174  27.334  24.241  1.00  0.00     0.176 C 
ATOM      8  C   UNL A   1      31.838  26.385  23.053  1.00  0.00     0.061 C 
ATOM      9  C   UNL A   1      30.850  27.238  22.241  1.00  0.00     0.011 C 
ATOM     10  C   UNL A   1      29.988  27.943  23.279  1.00  0.00     0.008 C 
ATOM     11  C   UNL A   1      30.742  27.820  24.605  1.00  0.00     0.079 C 
BRANCH   8  12
ATOM     12  C   UNL A   1      32.907  25.814  22.109  1.00  0.00     0.022 C 
BRANCH  12  13
ATOM     13  C   UNL A   1      33.793  24.665  22.603  1.00  0.00     0.079 C 
BRANCH  13  14
ATOM     14  S   UNL A   1      33.125  22.975  22.573  1.00  0.00    -0.088 SA
BRANCH  14  15
ATOM     15  C   UNL A   1      33.936  22.145  23.848  1.00  0.00     0.167 A 
ATOM     16  C   UNL A   1      32.428  20.111  24.081  1.00  0.00     0.152 C 
ATOM     17  N   UNL A   1      33.560  20.945  24.394  1.00  0.00    -0.329 N 
ATOM     18  C   UNL A   1      34.477  20.644  25.373  1.00  0.00     0.108 A 
ATOM     19  C   UNL A   1      35.324  21.724  25.418  1.00  0.00     0.132 A 
ATOM     20  N   UNL A   1      34.981  22.646  24.468  1.00  0.00    -0.231 NA
ENDBRANCH  14  15
ENDBRANCH  13  14
ENDBRANCH  12  13
ENDBRANCH   8  12
BRANCH   7  21
ATOM     21  N   UNL A   1      32.749  26.676  25.438  1.00  0.00    -0.345 N 
ATOM     22  H   UNL A   1      32.226  25.824  25.643  1.00  0.00     0.345 HD
ATOM     23  H   UNL A   1      32.691  27.310  26.235  1.00  0.00     0.345 HD
ATOM     24  H   UNL A   1      33.725  26.441  25.261  1.00  0.00     0.345 HD
ENDBRANCH   7  21
ENDBRANCH   4   7
ENDBRANCH   2   3
ENDBRANCH   1   2
BRANCH   1  25
ATOM     25  C   UNL A   1      31.145  32.204  26.549  1.00  0.00     0.023 C 
BRANCH  25  26
ATOM     26  C   UNL A   1      32.531  32.714  26.911  1.00  0.00     0.116 C 
BRANCH  26  27
ATOM     27  N   UNL A   1      32.483  34.003  27.585  1.00  0.00    -0.352 N 
ATOM     28  C   UNL A   1      33.265  34.456  28.625  1.00  0.00     0.251 C 
ATOM     29  H   UNL A   1      31.804  34.634  27.255  1.00  0.00     0.163 HD
ATOM     30  O   UNL A   1      32.972  35.475  29.223  1.00  0.00    -0.269 OA
BRANCH  28  31
ATOM     31  C   UNL A   1      34.447  33.653  29.010  1.00  0.00     0.039 A 
ATOM     32  C   UNL A   1      35.720  34.209  28.891  1.00  0.00     0.014 A 
ATOM     33  C   UNL A   1      34.274  32.380  29.559  1.00  0.00     0.014 A 
ATOM     34  C   UNL A   1      36.819  33.511  29.396  1.00  0.00     0.010 A 
ATOM     35  C   UNL A   1      35.352  31.739  30.154  1.00  0.00     0.010 A 
ATOM     36  C   UNL A   1      36.639  32.291  30.070  1.00  0.00    -0.014 A 
BRANCH  36  37
ATOM     37  C   UNL A   1      37.782  31.556  30.669  1.00  0.00     0.031 A 
ATOM     38  C   UNL A   1      38.196  31.861  32.085  1.00  0.00     0.074 A 
ATOM     39  C   UNL A   1      38.480  30.672  29.929  1.00  0.00     0.049 A 
ATOM     40  N   UNL A   1      39.223  31.416  32.762  1.00  0.00    -0.248 NA
ATOM     41  C   UNL A   1      37.364  32.825  32.825  1.00  0.00     0.031 C 
ATOM     42  C   UNL A   1      38.199  30.324  28.533  1.00  0.00     0.029 A 
ATOM     43  N   UNL A   1      39.575  29.904  30.243  1.00  0.00    -0.354 N 
ATOM     44  C   UNL A   1      39.163  32.051  33.998  1.00  0.00     0.074 A 
ATOM     45  C   UNL A   1      38.048  32.969  33.948  1.00  0.00     0.031 C 
ATOM     46  C   UNL A   1      39.075  29.392  28.125  1.00  0.00     0.029 A 
ATOM     47  C   UNL A   1      40.014  29.110  29.206  1.00  0.00     0.049 A 
ATOM     48  H   UNL A   1      40.007  29.921  31.127  1.00  0.00     0.167 HD
ATOM     49  C   UNL A   1      39.946  31.859  35.088  1.00  0.00     0.034 A 
ATOM     50  C   UNL A   1      41.062  28.265  29.135  1.00  0.00     0.034 A 
ATOM     51  C   UNL A   1      41.039  30.922  35.130  1.00  0.00     0.049 A 
ATOM     52  C   UNL A   1      41.936  28.094  30.356  1.00  0.00     0.074 A 
ATOM     53  C   UNL A   1      41.874  30.620  36.192  1.00  0.00     0.029 A 
ATOM     54  N   UNL A   1      41.447  30.130  34.066  1.00  0.00    -0.354 N 
ATOM     55  N   UNL A   1      41.839  28.673  31.531  1.00  0.00    -0.248 NA
ATOM     56  C   UNL A   1      43.052  27.146  30.244  1.00  0.00     0.031 C 
ATOM     57  C   UNL A   1      42.824  29.694  35.751  1.00  0.00     0.029 A 
ATOM     58  C   UNL A   1      42.535  29.357  34.438  1.00  0.00     0.049 A 
ATOM     59  H   UNL A   1      41.026  30.119  33.175  1.00  0.00     0.167 HD
ATOM     60  C   UNL A   1      42.857  28.126  32.308  1.00  0.00     0.074 A 
ATOM     61  C   UNL A   1      43.542  27.160  31.474  1.00  0.00     0.031 C 
ATOM     62  C   UNL A   1      43.198  28.394  33.593  1.00  0.00     0.034 A 
BRANCH  49  63
ATOM     63  C   UNL A   1      39.644  32.683  36.316  1.00  0.00     0.023 A 
ATOM     64  C   UNL A   1      38.765  32.223  37.312  1.00  0.00     0.031 A 
ATOM     65  C   UNL A   1      40.235  33.946  36.491  1.00  0.00     0.131 A 
ATOM     66  C   UNL A   1      38.452  33.045  38.405  1.00  0.00     0.055 A 
ATOM     67  C   UNL A   1      39.983  34.725  37.623  1.00  0.00     0.041 A 
ATOM     68  F   UNL A   1      41.064  34.449  35.563  1.00  0.00    -0.206 F 
ATOM     69  C   UNL A   1      39.077  34.280  38.582  1.00  0.00     0.022 A 
BRANCH  66  70
ATOM     70  S   UNL A   1      37.125  32.526  39.525  1.00  0.00     0.124 S 
ATOM     71  O   UNL A   1      35.944  32.705  38.683  1.00  0.00    -0.237 OA
ATOM     72  O   UNL A   1      37.488  31.148  39.832  1.00  0.00    -0.237 OA
ATOM     73  O   UNL A   1      37.234  33.464  40.641  1.00  0.00    -0.744 OA
ENDBRANCH  66  70
ENDBRANCH  49  63
BRANCH  50  74
ATOM     74  C   UNL A   1      41.364  27.517  27.878  1.00  0.00     0.023 A 
ATOM     75  C   UNL A   1      41.136  26.135  27.790  1.00  0.00     0.031 A 
ATOM     76  C   UNL A   1      41.965  28.153  26.778  1.00  0.00     0.131 A 
ATOM     77  C   UNL A   1      41.574  25.421  26.663  1.00  0.00     0.055 A 
ATOM     78  C   UNL A   1      42.336  27.451  25.629  1.00  0.00     0.041 A 
ATOM     79  F   UNL A   1      42.205  29.474  26.804  1.00  0.00    -0.206 F 
ATOM     80  C   UNL A   1      42.159  26.071  25.576  1.00  0.00     0.022 A 
BRANCH  77  81
ATOM     81  S   UNL A   1      41.489  23.609  26.700  1.00  0.00     0.124 S 
ATOM     82  O   UNL A   1      42.320  23.252  25.556  1.00  0.00    -0.237 OA
ATOM     83  O   UNL A   1      42.043  23.308  28.015  1.00  0.00    -0.237 OA
ATOM     84  O   UNL A   1      40.062  23.333  26.547  1.00  0.00    -0.744 OA
ENDBRANCH  77  81
ENDBRANCH  50  74
BRANCH  62  85
ATOM     85  C   UNL A   1      44.322  27.583  34.190  1.00  0.00     0.023 A 
ATOM     86  C   UNL A   1      44.098  26.325  34.775  1.00  0.00     0.031 A 
ATOM     87  C   UNL A   1      45.636  28.084  34.178  1.00  0.00     0.131 A 
ATOM     88  C   UNL A   1      45.162  25.637  35.377  1.00  0.00     0.055 A 
ATOM     89  C   UNL A   1      46.701  27.366  34.721  1.00  0.00     0.041 A 
ATOM     90  F   UNL A   1      45.906  29.281  33.633  1.00  0.00    -0.206 F 
ATOM     91  C   UNL A   1      46.464  26.140  35.338  1.00  0.00     0.022 A 
BRANCH  88  92
ATOM     92  S   UNL A   1      44.803  24.115  36.296  1.00  0.00     0.124 S 
ATOM     93  O   UNL A   1      46.027  23.345  36.097  1.00  0.00    -0.237 OA
ATOM     94  O   UNL A   1      44.579  24.614  37.649  1.00  0.00    -0.237 OA
ATOM     95  O   UNL A   1      43.618  23.583  35.628  1.00  0.00    -0.744 OA
ENDBRANCH  88  92
ENDBRANCH  62  85
ENDBRANCH  36  37
ENDBRANCH  28  31
ENDBRANCH  26  27
ENDBRANCH  25  26
ENDBRANCH   1  25
TORSDOF 19
ENDMDL
MODEL 3
REMARK VINA RESULT:     -10.6      6.546     12.138
REMARK SMILES Cn1ccnc1SCC[C@@H]1CCC[C@]1([NH3+])C(=O)NCCCCNC(=O)c1ccc(-c2c3nc(c(-c4cc(S(=O)(=O)[O-])ccc4F)c4ccc([nH]4)c(-c4cc(S(=O)(=O)[O-])ccc4F)c4nc(c(-c5cc(S(=O)(=O)[O-])ccc5F)c5ccc2[nH]5)C=C4)C=C3)cc1
REMARK SMILES IDX 20 1 19 2 18 3 16 4 17 5 14 7 10 8 11 9 12 10 13 11 9 12
REMARK SMILES IDX 8 13 7 14 6 15 1 16 2 17 3 18 4 19 5 20 15 21 21 25 22 26
REMARK SMILES IDX 23 27 24 28 25 30 26 31 27 32 88 33 28 34 87 35 29 36 30 37
REMARK SMILES IDX 31 38 81 39 32 40 86 41 80 42 82 43 33 44 85 45 79 46 78 47
REMARK SMILES IDX 34 49 66 50 46 51 65 52 47 53 50 54 64 55 83 56 48 57 49 58
REMARK SMILES IDX 63 60 84 61 51 62 35 63 36 64 44 65 37 66 43 67 45 68 42 69
REMARK SMILES IDX 38 70 39 71 40 72 41 73 67 74 68 75 76 76 69 77 75 78 77 79
REMARK SMILES IDX 74 80 70 81 71 82 72 83 73 84 52 85 53 86 61 87 54 88 60 89
REMARK SMILES IDX 62 90 59 91 55 92 56 93 57 94 58 95
REMARK H PARENT 18 6 15 22 15 23 15 24 23 29 82 48 50 59
REMARK Flexibility Score: inf
ROOT
ATOM      1  C   UNL A   1      37.487  21.918  24.697  1.00  0.00     0.023 C 
ENDROOT
BRANCH   1   2
ATOM      2  C   UNL A   1      35.963  21.956  24.769  1.00  0.00     0.116 C 
BRANCH   2   3
ATOM      3  N   UNL A   1      35.383  22.458  23.544  1.00  0.00    -0.351 N 
ATOM      4  C   UNL A   1      34.408  23.386  23.333  1.00  0.00     0.281 C 
ATOM      5  O   UNL A   1      34.115  23.611  22.155  1.00  0.00    -0.268 OA
ATOM      6  H   UNL A   1      35.756  22.064  22.722  1.00  0.00     0.163 HD
BRANCH   4   7
ATOM      7  C   UNL A   1      33.721  24.158  24.520  1.00  0.00     0.176 C 
ATOM      8  C   UNL A   1      32.602  23.376  25.269  1.00  0.00     0.061 C 
ATOM      9  C   UNL A   1      31.486  23.340  24.212  1.00  0.00     0.011 C 
ATOM     10  C   UNL A   1      31.526  24.709  23.546  1.00  0.00     0.008 C 
ATOM     11  C   UNL A   1      32.879  25.320  23.921  1.00  0.00     0.079 C 
BRANCH   8  12
ATOM     12  C   UNL A   1      32.804  21.963  25.837  1.00  0.00     0.022 C 
BRANCH  12  13
ATOM     13  C   UNL A   1      32.038  20.795  25.207  1.00  0.00     0.079 C 
BRANCH  13  14
ATOM     14  S   UNL A   1      32.876  19.777  23.957  1.00  0.00    -0.088 SA
BRANCH  14  15
ATOM     15  C   UNL A   1      32.902  18.183  24.614  1.00  0.00     0.167 A 
ATOM     16  C   UNL A   1      34.100  16.951  22.740  1.00  0.00     0.152 C 
ATOM     17  N   UNL A   1      33.452  17.076  24.020  1.00  0.00    -0.329 N 
ATOM     18  C   UNL A   1      33.258  16.021  24.880  1.00  0.00     0.108 A 
ATOM     19  C   UNL A   1      32.528  16.536  25.923  1.00  0.00     0.132 A 
ATOM     20  N   UNL A   1      32.316  17.875  25.749  1.00  0.00    -0.231 NA
ENDBRANCH  14  15
ENDBRANCH  13  14
ENDBRANCH  12  13
ENDBRANCH   8  12
BRANCH   7  21
ATOM     21  N   UNL A   1      34.767  24.755  25.384  1.00  0.00    -0.345 N 
ATOM     22  H   UNL A   1      35.536  25.093  24.805  1.00  0.00     0.345 HD
ATOM     23  H   UNL A   1      35.116  24.050  26.033  1.00  0.00     0.345 HD
ATOM     24  H   UNL A   1      34.371  25.534  25.910  1.00  0.00     0.345 HD
ENDBRANCH   7  21
ENDBRANCH   4   7
ENDBRANCH   2   3
ENDBRANCH   1   2
BRANCH   1  25
ATOM     25  C   UNL A   1      38.090  20.595  25.149  1.00  0.00     0.023 C 
BRANCH  25  26
ATOM     26  C   UNL A   1      39.251  20.754  26.117  1.00  0.00     0.116 C 
BRANCH  26  27
ATOM     27  N   UNL A   1      40.135  19.598  26.109  1.00  0.00    -0.352 N 
ATOM     28  C   UNL A   1      41.513  19.573  26.116  1.00  0.00     0.251 C 
ATOM     29  H   UNL A   1      39.691  18.720  26.098  1.00  0.00     0.163 HD
ATOM     30  O   UNL A   1      42.114  18.538  25.897  1.00  0.00    -0.269 OA
BRANCH  28  31
ATOM     31  C   UNL A   1      42.232  20.841  26.365  1.00  0.00     0.039 A 
ATOM     32  C   UNL A   1      42.550  21.670  25.290  1.00  0.00     0.014 A 
ATOM     33  C   UNL A   1      42.519  21.233  27.675  1.00  0.00     0.014 A 
ATOM     34  C   UNL A   1      43.089  22.934  25.539  1.00  0.00     0.010 A 
ATOM     35  C   UNL A   1      42.955  22.527  27.923  1.00  0.00     0.010 A 
ATOM     36  C   UNL A   1      43.256  23.390  26.858  1.00  0.00    -0.014 A 
BRANCH  36  37
ATOM     37  C   UNL A   1      43.771  24.751  27.153  1.00  0.00     0.031 A 
ATOM     38  C   UNL A   1      42.833  25.794  27.701  1.00  0.00     0.074 A 
ATOM     39  C   UNL A   1      45.052  25.065  26.871  1.00  0.00     0.049 A 
ATOM     40  N   UNL A   1      43.048  27.064  27.928  1.00  0.00    -0.248 NA
ATOM     41  C   UNL A   1      41.458  25.357  27.998  1.00  0.00     0.031 C 
ATOM     42  C   UNL A   1      46.044  24.149  26.299  1.00  0.00     0.029 A 
ATOM     43  N   UNL A   1      45.742  26.242  27.021  1.00  0.00    -0.354 N 
ATOM     44  C   UNL A   1      41.838  27.576  28.384  1.00  0.00     0.074 A 
ATOM     45  C   UNL A   1      40.876  26.499  28.325  1.00  0.00     0.031 C 
ATOM     46  C   UNL A   1      47.218  24.789  26.179  1.00  0.00     0.029 A 
ATOM     47  C   UNL A   1      47.056  26.173  26.613  1.00  0.00     0.049 A 
ATOM     48  H   UNL A   1      45.335  27.060  27.386  1.00  0.00     0.167 HD
ATOM     49  C   UNL A   1      41.564  28.821  28.843  1.00  0.00     0.034 A 
ATOM     50  C   UNL A   1      48.013  27.123  26.581  1.00  0.00     0.034 A 
ATOM     51  C   UNL A   1      42.540  29.877  28.918  1.00  0.00     0.049 A 
ATOM     52  C   UNL A   1      47.670  28.511  27.070  1.00  0.00     0.074 A 
ATOM     53  C   UNL A   1      42.381  31.164  29.400  1.00  0.00     0.029 A 
ATOM     54  N   UNL A   1      43.861  29.767  28.505  1.00  0.00    -0.354 N 
ATOM     55  N   UNL A   1      46.529  28.965  27.536  1.00  0.00    -0.248 NA
ATOM     56  C   UNL A   1      48.747  29.509  27.041  1.00  0.00     0.031 C 
ATOM     57  C   UNL A   1      43.586  31.850  29.221  1.00  0.00     0.029 A 
ATOM     58  C   UNL A   1      44.521  30.970  28.700  1.00  0.00     0.049 A 
ATOM     59  H   UNL A   1      44.269  28.954  28.127  1.00  0.00     0.167 HD
ATOM     60  C   UNL A   1      46.767  30.290  27.894  1.00  0.00     0.074 A 
ATOM     61  C   UNL A   1      48.162  30.553  27.606  1.00  0.00     0.031 C 
ATOM     62  C   UNL A   1      45.915  31.208  28.413  1.00  0.00     0.034 A 
BRANCH  49  63
ATOM     63  C   UNL A   1      40.151  29.101  29.294  1.00  0.00     0.023 A 
ATOM     64  C   UNL A   1      39.784  29.032  30.649  1.00  0.00     0.031 A 
ATOM     65  C   UNL A   1      39.155  29.434  28.358  1.00  0.00     0.131 A 
ATOM     66  C   UNL A   1      38.447  29.229  31.025  1.00  0.00     0.055 A 
ATOM     67  C   UNL A   1      37.843  29.710  28.749  1.00  0.00     0.041 A 
ATOM     68  F   UNL A   1      39.439  29.492  27.048  1.00  0.00    -0.206 F 
ATOM     69  C   UNL A   1      37.480  29.596  30.088  1.00  0.00     0.022 A 
BRANCH  66  70
ATOM     70  S   UNL A   1      37.969  28.878  32.738  1.00  0.00     0.124 S 
ATOM     71  O   UNL A   1      38.951  29.663  33.483  1.00  0.00    -0.237 OA
ATOM     72  O   UNL A   1      36.595  29.360  32.789  1.00  0.00    -0.237 OA
ATOM     73  O   UNL A   1      38.128  27.429  32.847  1.00  0.00    -0.744 OA
ENDBRANCH  66  70
ENDBRANCH  49  63
BRANCH  50  74
ATOM     74  C   UNL A   1      49.382  26.820  26.066  1.00  0.00     0.023 A 
ATOM     75  C   UNL A   1      49.789  27.265  24.798  1.00  0.00     0.031 A 
ATOM     76  C   UNL A   1      50.271  26.009  26.792  1.00  0.00     0.131 A 
ATOM     77  C   UNL A   1      51.015  26.838  24.263  1.00  0.00     0.055 A 
ATOM     78  C   UNL A   1      51.521  25.643  26.286  1.00  0.00     0.041 A 
ATOM     79  F   UNL A   1      49.938  25.556  28.011  1.00  0.00    -0.206 F 
ATOM     80  C   UNL A   1      51.890  26.041  25.004  1.00  0.00     0.022 A 
BRANCH  77  81
ATOM     81  S   UNL A   1      51.387  27.228  22.531  1.00  0.00     0.124 S 
ATOM     82  O   UNL A   1      52.579  26.421  22.297  1.00  0.00    -0.237 OA
ATOM     83  O   UNL A   1      50.170  26.790  21.856  1.00  0.00    -0.237 OA
ATOM     84  O   UNL A   1      51.604  28.673  22.548  1.00  0.00    -0.744 OA
ENDBRANCH  77  81
ENDBRANCH  50  74
BRANCH  62  85
ATOM     85  C   UNL A   1      46.488  32.560  28.761  1.00  0.00     0.023 A 
ATOM     86  C   UNL A   1      46.505  33.618  27.837  1.00  0.00     0.031 A 
ATOM     87  C   UNL A   1      47.033  32.787  30.038  1.00  0.00     0.131 A 
ATOM     88  C   UNL A   1      47.109  34.836  28.182  1.00  0.00     0.055 A 
ATOM     89  C   UNL A   1      47.573  34.021  30.398  1.00  0.00     0.041 A 
ATOM     90  F   UNL A   1      47.042  31.810  30.960  1.00  0.00    -0.206 F 
ATOM     91  C   UNL A   1      47.626  35.050  29.462  1.00  0.00     0.022 A 
BRANCH  88  92
ATOM     92  S   UNL A   1      47.294  36.108  26.903  1.00  0.00     0.124 S 
ATOM     93  O   UNL A   1      45.973  36.107  26.282  1.00  0.00    -0.237 OA
ATOM     94  O   UNL A   1      47.626  37.293  27.687  1.00  0.00    -0.237 OA
ATOM     95  O   UNL A   1      48.375  35.597  26.065  1.00  0.00    -0.744 OA
ENDBRANCH  88  92
ENDBRANCH  62  85
ENDBRANCH  36  37
ENDBRANCH  28  31
ENDBRANCH  26  27
ENDBRANCH  25  26
ENDBRANCH   1  25
TORSDOF 19
ENDMDL
