MODEL 1
REMARK VINA RESULT:     -12.9      0.000      0.000
REMARK SMILES Cc1ccc(NC(=O)N2CCCC[C@@H]2C(=O)NCCCCNC(=O)c2ccc(-c3c4nc(c(-c5cc(S(=O)(=O)[O-])ccc5F)c5ccc([nH]5)c(-c5cc(S(=O)(=O)[O-])ccc5F)c5nc(c(-c6cc(S(=O)(=O)[O-])ccc6F)c6ccc3[nH]6)C=C5)C=C4)cc2)cc1
REMARK SMILES IDX 20 1 19 2 18 3 17 4 15 5 16 6 14 8 9 9 10 10 11 11 13 12
REMARK SMILES IDX 12 13 7 14 6 15 8 17 5 18 1 19 2 20 3 21 89 22 4 23 88 24
REMARK SMILES IDX 21 25 22 26 23 27 24 29 25 30 26 31 87 32 27 33 86 34 28 35
REMARK SMILES IDX 29 36 30 37 80 38 31 39 85 40 79 41 81 42 32 43 84 44 78 45
REMARK SMILES IDX 77 46 33 48 65 49 45 50 64 51 46 52 49 53 63 54 82 55 47 56
REMARK SMILES IDX 48 57 62 59 83 60 50 61 34 62 35 63 43 64 36 65 42 66 44 67
REMARK SMILES IDX 41 68 37 69 38 70 39 71 40 72 66 73 67 74 75 75 68 76 74 77
REMARK SMILES IDX 76 78 73 79 69 80 70 81 71 82 72 83 51 84 52 85 60 86 53 87
REMARK SMILES IDX 59 88 61 89 58 90 54 91 55 92 56 93 57 94
REMARK H PARENT 17 7 6 16 22 28 81 47 49 58
REMARK Flexibility Score: inf
ROOT
ATOM      1  C   UNL A   1      39.503  21.442  26.135  1.00  0.00     0.023 C 
ENDROOT
BRANCH   1   2
ATOM      2  C   UNL A   1      38.157  21.528  25.414  1.00  0.00     0.023 C 
BRANCH   2   3
ATOM      3  C   UNL A   1      37.529  22.931  25.337  1.00  0.00     0.116 C 
BRANCH   3   4
ATOM      4  N   UNL A   1      36.467  23.087  26.321  1.00  0.00    -0.354 N 
ATOM      5  C   UNL A   1      35.162  22.696  26.264  1.00  0.00     0.242 C 
ATOM      6  O   UNL A   1      34.382  23.253  27.048  1.00  0.00    -0.273 OA
ATOM      7  H   UNL A   1      36.730  23.544  27.152  1.00  0.00     0.163 HD
BRANCH   5   8
ATOM      8  C   UNL A   1      34.627  21.727  25.176  1.00  0.00     0.176 C 
ATOM      9  N   UNL A   1      33.934  22.387  24.037  1.00  0.00    -0.313 N 
ATOM     10  C   UNL A   1      32.872  21.671  23.331  1.00  0.00     0.122 C 
ATOM     11  C   UNL A   1      32.074  20.676  24.152  1.00  0.00     0.022 C 
ATOM     12  C   UNL A   1      33.805  20.642  25.897  1.00  0.00     0.035 C 
ATOM     13  C   UNL A   1      32.999  19.778  24.950  1.00  0.00     0.004 C 
BRANCH   9  14
ATOM     14  C   UNL A   1      34.407  23.504  23.355  1.00  0.00     0.322 C 
ATOM     15  N   UNL A   1      33.701  24.666  23.376  1.00  0.00    -0.308 N 
ATOM     16  H   UNL A   1      33.519  25.066  22.496  1.00  0.00     0.171 HD
ATOM     17  O   UNL A   1      35.433  23.477  22.671  1.00  0.00    -0.248 OA
BRANCH  15  18
ATOM     18  C   UNL A   1      33.196  25.374  24.479  1.00  0.00     0.042 A 
ATOM     19  C   UNL A   1      31.670  28.013  27.506  1.00  0.00     0.044 C 
ATOM     20  C   UNL A   1      32.228  27.012  26.541  1.00  0.00    -0.051 A 
ATOM     21  C   UNL A   1      31.384  26.090  25.916  1.00  0.00     0.005 A 
ATOM     22  C   UNL A   1      33.580  27.049  26.180  1.00  0.00     0.005 A 
ATOM     23  C   UNL A   1      31.874  25.256  24.910  1.00  0.00     0.026 A 
ATOM     24  C   UNL A   1      34.066  26.220  25.166  1.00  0.00     0.026 A 
ENDBRANCH  15  18
ENDBRANCH   9  14
ENDBRANCH   5   8
ENDBRANCH   3   4
ENDBRANCH   2   3
ENDBRANCH   1   2
BRANCH   1  25
ATOM     25  C   UNL A   1      39.960  22.752  26.759  1.00  0.00     0.116 C 
BRANCH  25  26
ATOM     26  N   UNL A   1      41.253  23.236  26.299  1.00  0.00    -0.352 N 
ATOM     27  C   UNL A   1      41.681  24.548  26.179  1.00  0.00     0.251 C 
ATOM     28  H   UNL A   1      41.904  22.545  26.039  1.00  0.00     0.163 HD
ATOM     29  O   UNL A   1      42.767  24.821  25.690  1.00  0.00    -0.269 OA
BRANCH  27  30
ATOM     30  C   UNL A   1      40.841  25.624  26.767  1.00  0.00     0.039 A 
ATOM     31  C   UNL A   1      40.902  26.885  26.166  1.00  0.00     0.014 A 
ATOM     32  C   UNL A   1      40.207  25.460  27.996  1.00  0.00     0.014 A 
ATOM     33  C   UNL A   1      40.533  28.010  26.904  1.00  0.00     0.010 A 
ATOM     34  C   UNL A   1      39.923  26.580  28.761  1.00  0.00     0.010 A 
ATOM     35  C   UNL A   1      40.150  27.859  28.240  1.00  0.00    -0.014 A 
BRANCH  35  36
ATOM     36  C   UNL A   1      40.154  28.979  29.180  1.00  0.00     0.031 A 
ATOM     37  C   UNL A   1      39.057  29.966  29.225  1.00  0.00     0.074 A 
ATOM     38  C   UNL A   1      41.209  29.172  30.004  1.00  0.00     0.049 A 
ATOM     39  N   UNL A   1      39.242  31.224  29.463  1.00  0.00    -0.248 NA
ATOM     40  C   UNL A   1      37.663  29.616  28.988  1.00  0.00     0.031 C 
ATOM     41  C   UNL A   1      41.319  30.151  31.082  1.00  0.00     0.029 A 
ATOM     42  N   UNL A   1      42.505  28.684  29.842  1.00  0.00    -0.354 N 
ATOM     43  C   UNL A   1      38.010  31.789  29.670  1.00  0.00     0.074 A 
ATOM     44  C   UNL A   1      37.054  30.767  29.297  1.00  0.00     0.031 C 
ATOM     45  C   UNL A   1      42.617  30.409  31.297  1.00  0.00     0.029 A 
ATOM     46  C   UNL A   1      43.384  29.683  30.300  1.00  0.00     0.049 A 
ATOM     47  H   UNL A   1      42.757  27.804  29.478  1.00  0.00     0.167 HD
ATOM     48  C   UNL A   1      37.891  33.010  30.260  1.00  0.00     0.034 A 
ATOM     49  C   UNL A   1      44.341  30.207  29.484  1.00  0.00     0.034 A 
ATOM     50  C   UNL A   1      39.170  33.585  30.662  1.00  0.00     0.049 A 
ATOM     51  C   UNL A   1      44.214  31.702  29.248  1.00  0.00     0.074 A 
ATOM     52  C   UNL A   1      39.831  33.710  31.873  1.00  0.00     0.029 A 
ATOM     53  N   UNL A   1      40.087  33.942  29.690  1.00  0.00    -0.354 N 
ATOM     54  N   UNL A   1      43.273  32.459  29.743  1.00  0.00    -0.248 NA
ATOM     55  C   UNL A   1      45.088  32.435  28.327  1.00  0.00     0.031 C 
ATOM     56  C   UNL A   1      41.158  34.153  31.613  1.00  0.00     0.029 A 
ATOM     57  C   UNL A   1      41.299  34.305  30.247  1.00  0.00     0.049 A 
ATOM     58  H   UNL A   1      39.901  33.938  28.723  1.00  0.00     0.167 HD
ATOM     59  C   UNL A   1      43.337  33.699  29.155  1.00  0.00     0.074 A 
ATOM     60  C   UNL A   1      44.496  33.639  28.286  1.00  0.00     0.031 C 
ATOM     61  C   UNL A   1      42.399  34.669  29.369  1.00  0.00     0.034 A 
BRANCH  48  62
ATOM     62  C   UNL A   1      36.561  33.558  30.694  1.00  0.00     0.023 A 
ATOM     63  C   UNL A   1      35.687  34.114  29.743  1.00  0.00     0.031 A 
ATOM     64  C   UNL A   1      36.115  33.568  32.030  1.00  0.00     0.131 A 
ATOM     65  C   UNL A   1      34.485  34.729  30.133  1.00  0.00     0.055 A 
ATOM     66  C   UNL A   1      34.946  34.228  32.427  1.00  0.00     0.041 A 
ATOM     67  F   UNL A   1      36.796  32.927  32.994  1.00  0.00    -0.206 F 
ATOM     68  C   UNL A   1      34.130  34.828  31.476  1.00  0.00     0.022 A 
BRANCH  65  69
ATOM     69  S   UNL A   1      33.394  35.406  28.852  1.00  0.00     0.124 S 
ATOM     70  O   UNL A   1      32.479  36.237  29.628  1.00  0.00    -0.237 OA
ATOM     71  O   UNL A   1      34.335  36.111  27.990  1.00  0.00    -0.237 OA
ATOM     72  O   UNL A   1      32.788  34.213  28.261  1.00  0.00    -0.744 OA
ENDBRANCH  65  69
ENDBRANCH  48  62
BRANCH  49  73
ATOM     73  C   UNL A   1      44.866  29.226  28.489  1.00  0.00     0.023 A 
ATOM     74  C   UNL A   1      45.784  28.248  28.937  1.00  0.00     0.031 A 
ATOM     75  C   UNL A   1      44.246  29.027  27.249  1.00  0.00     0.131 A 
ATOM     76  C   UNL A   1      45.964  27.064  28.207  1.00  0.00     0.055 A 
ATOM     77  C   UNL A   1      44.468  27.865  26.501  1.00  0.00     0.041 A 
ATOM     78  F   UNL A   1      43.328  29.891  26.792  1.00  0.00    -0.206 F 
ATOM     79  C   UNL A   1      45.299  26.863  26.997  1.00  0.00     0.022 A 
BRANCH  76  80
ATOM     80  S   UNL A   1      46.881  25.678  28.941  1.00  0.00     0.124 S 
ATOM     81  O   UNL A   1      46.006  24.545  28.668  1.00  0.00    -0.237 OA
ATOM     82  O   UNL A   1      48.150  25.687  28.221  1.00  0.00    -0.237 OA
ATOM     83  O   UNL A   1      46.991  26.064  30.347  1.00  0.00    -0.744 OA
ENDBRANCH  76  80
ENDBRANCH  49  73
BRANCH  61  84
ATOM     84  C   UNL A   1      42.443  36.034  28.729  1.00  0.00     0.023 A 
ATOM     85  C   UNL A   1      42.753  37.192  29.461  1.00  0.00     0.031 A 
ATOM     86  C   UNL A   1      42.106  36.227  27.370  1.00  0.00     0.131 A 
ATOM     87  C   UNL A   1      42.798  38.451  28.834  1.00  0.00     0.055 A 
ATOM     88  C   UNL A   1      42.070  37.489  26.770  1.00  0.00     0.041 A 
ATOM     89  F   UNL A   1      41.833  35.196  26.558  1.00  0.00    -0.206 F 
ATOM     90  C   UNL A   1      42.433  38.612  27.499  1.00  0.00     0.022 A 
BRANCH  87  91
ATOM     91  S   UNL A   1      43.417  39.870  29.775  1.00  0.00     0.124 S 
ATOM     92  O   UNL A   1      42.203  40.634  30.036  1.00  0.00    -0.237 OA
ATOM     93  O   UNL A   1      44.017  39.216  30.934  1.00  0.00    -0.237 OA
ATOM     94  O   UNL A   1      44.366  40.504  28.862  1.00  0.00    -0.744 OA
ENDBRANCH  87  91
ENDBRANCH  61  84
ENDBRANCH  35  36
ENDBRANCH  27  30
ENDBRANCH  25  26
ENDBRANCH   1  25
TORSDOF 16
ENDMDL
MODEL 2
REMARK VINA RESULT:     -12.8      4.068     10.480
REMARK SMILES Cc1ccc(NC(=O)N2CCCC[C@@H]2C(=O)NCCCCNC(=O)c2ccc(-c3c4nc(c(-c5cc(S(=O)(=O)[O-])ccc5F)c5ccc([nH]5)c(-c5cc(S(=O)(=O)[O-])ccc5F)c5nc(c(-c6cc(S(=O)(=O)[O-])ccc6F)c6ccc3[nH]6)C=C5)C=C4)cc2)cc1
REMARK SMILES IDX 20 1 19 2 18 3 17 4 15 5 16 6 14 8 9 9 10 10 11 11 13 12
REMARK SMILES IDX 12 13 7 14 6 15 8 17 5 18 1 19 2 20 3 21 89 22 4 23 88 24
REMARK SMILES IDX 21 25 22 26 23 27 24 29 25 30 26 31 87 32 27 33 86 34 28 35
REMARK SMILES IDX 29 36 30 37 80 38 31 39 85 40 79 41 81 42 32 43 84 44 78 45
REMARK SMILES IDX 77 46 33 48 65 49 45 50 64 51 46 52 49 53 63 54 82 55 47 56
REMARK SMILES IDX 48 57 62 59 83 60 50 61 34 62 35 63 43 64 36 65 42 66 44 67
REMARK SMILES IDX 41 68 37 69 38 70 39 71 40 72 66 73 67 74 75 75 68 76 74 77
REMARK SMILES IDX 76 78 73 79 69 80 70 81 71 82 72 83 51 84 52 85 60 86 53 87
REMARK SMILES IDX 59 88 61 89 58 90 54 91 55 92 56 93 57 94
REMARK H PARENT 17 7 6 16 22 28 81 47 49 58
REMARK Flexibility Score: inf
ROOT
ATOM      1  C   UNL A   1      33.682  30.160  27.474  1.00  0.00     0.023 C 
ENDROOT
BRANCH   1   2
ATOM      2  C   UNL A   1      33.834  29.188  26.303  1.00  0.00     0.023 C 
BRANCH   2   3
ATOM      3  C   UNL A   1      33.215  27.794  26.508  1.00  0.00     0.116 C 
BRANCH   3   4
ATOM      4  N   UNL A   1      31.967  27.659  25.768  1.00  0.00    -0.354 N 
ATOM      5  C   UNL A   1      31.370  26.544  25.261  1.00  0.00     0.242 C 
ATOM      6  O   UNL A   1      30.525  26.722  24.374  1.00  0.00    -0.273 OA
ATOM      7  H   UNL A   1      31.482  28.501  25.610  1.00  0.00     0.163 HD
BRANCH   5   8
ATOM      8  C   UNL A   1      31.824  25.108  25.639  1.00  0.00     0.176 C 
ATOM      9  N   UNL A   1      32.163  24.234  24.484  1.00  0.00    -0.313 N 
ATOM     10  C   UNL A   1      31.972  22.789  24.598  1.00  0.00     0.122 C 
ATOM     11  C   UNL A   1      30.853  22.331  25.515  1.00  0.00     0.022 C 
ATOM     12  C   UNL A   1      30.765  24.535  26.600  1.00  0.00     0.035 C 
ATOM     13  C   UNL A   1      30.928  23.049  26.848  1.00  0.00     0.004 C 
BRANCH   9  14
ATOM     14  C   UNL A   1      32.955  24.613  23.404  1.00  0.00     0.322 C 
ATOM     15  N   UNL A   1      34.277  24.873  23.586  1.00  0.00    -0.308 N 
ATOM     16  H   UNL A   1      34.593  25.734  23.229  1.00  0.00     0.171 HD
ATOM     17  O   UNL A   1      32.496  24.780  22.273  1.00  0.00    -0.248 OA
BRANCH  15  18
ATOM     18  C   UNL A   1      35.256  24.083  24.213  1.00  0.00     0.042 A 
ATOM     19  C   UNL A   1      38.634  21.943  25.782  1.00  0.00     0.044 C 
ATOM     20  C   UNL A   1      37.384  22.602  25.286  1.00  0.00    -0.051 A 
ATOM     21  C   UNL A   1      36.758  23.593  26.047  1.00  0.00     0.005 A 
ATOM     22  C   UNL A   1      36.881  22.305  24.013  1.00  0.00     0.005 A 
ATOM     23  C   UNL A   1      35.681  24.310  25.523  1.00  0.00     0.026 A 
ATOM     24  C   UNL A   1      35.810  23.030  23.486  1.00  0.00     0.026 A 
ENDBRANCH  15  18
ENDBRANCH   9  14
ENDBRANCH   5   8
ENDBRANCH   3   4
ENDBRANCH   2   3
ENDBRANCH   1   2
BRANCH   1  25
ATOM     25  C   UNL A   1      34.806  31.178  27.588  1.00  0.00     0.116 C 
BRANCH  25  26
ATOM     26  N   UNL A   1      35.134  31.585  28.946  1.00  0.00    -0.352 N 
ATOM     27  C   UNL A   1      35.976  30.955  29.849  1.00  0.00     0.251 C 
ATOM     28  H   UNL A   1      34.702  32.411  29.265  1.00  0.00     0.163 HD
ATOM     29  O   UNL A   1      36.093  31.355  30.997  1.00  0.00    -0.269 OA
BRANCH  27  30
ATOM     30  C   UNL A   1      36.832  29.843  29.360  1.00  0.00     0.039 A 
ATOM     31  C   UNL A   1      37.207  28.866  30.287  1.00  0.00     0.014 A 
ATOM     32  C   UNL A   1      37.435  29.888  28.104  1.00  0.00     0.014 A 
ATOM     33  C   UNL A   1      38.339  28.090  30.041  1.00  0.00     0.010 A 
ATOM     34  C   UNL A   1      38.608  29.180  27.896  1.00  0.00     0.010 A 
ATOM     35  C   UNL A   1      39.099  28.330  28.893  1.00  0.00    -0.014 A 
BRANCH  35  36
ATOM     36  C   UNL A   1      40.482  27.874  28.768  1.00  0.00     0.031 A 
ATOM     37  C   UNL A   1      40.818  26.516  28.295  1.00  0.00     0.074 A 
ATOM     38  C   UNL A   1      41.502  28.679  29.144  1.00  0.00     0.049 A 
ATOM     39  N   UNL A   1      41.813  25.828  28.753  1.00  0.00    -0.248 NA
ATOM     40  C   UNL A   1      40.046  25.816  27.276  1.00  0.00     0.031 C 
ATOM     41  C   UNL A   1      42.931  28.434  28.967  1.00  0.00     0.029 A 
ATOM     42  N   UNL A   1      41.439  29.768  30.012  1.00  0.00    -0.354 N 
ATOM     43  C   UNL A   1      41.973  24.741  27.935  1.00  0.00     0.074 A 
ATOM     44  C   UNL A   1      40.810  24.737  27.072  1.00  0.00     0.031 C 
ATOM     45  C   UNL A   1      43.603  29.132  29.894  1.00  0.00     0.029 A 
ATOM     46  C   UNL A   1      42.630  29.769  30.762  1.00  0.00     0.049 A 
ATOM     47  H   UNL A   1      40.701  30.415  30.085  1.00  0.00     0.167 HD
ATOM     48  C   UNL A   1      43.125  24.014  27.956  1.00  0.00     0.034 A 
ATOM     49  C   UNL A   1      42.605  29.708  32.124  1.00  0.00     0.034 A 
ATOM     50  C   UNL A   1      44.125  24.541  28.877  1.00  0.00     0.049 A 
ATOM     51  C   UNL A   1      43.307  28.496  32.710  1.00  0.00     0.074 A 
ATOM     52  C   UNL A   1      45.283  25.285  28.718  1.00  0.00     0.029 A 
ATOM     53  N   UNL A   1      43.872  24.519  30.237  1.00  0.00    -0.354 N 
ATOM     54  N   UNL A   1      43.879  27.553  32.011  1.00  0.00    -0.248 NA
ATOM     55  C   UNL A   1      43.310  28.199  34.145  1.00  0.00     0.031 C 
ATOM     56  C   UNL A   1      45.723  25.705  30.005  1.00  0.00     0.029 A 
ATOM     57  C   UNL A   1      44.839  25.208  30.943  1.00  0.00     0.049 A 
ATOM     58  H   UNL A   1      43.100  24.069  30.650  1.00  0.00     0.167 HD
ATOM     59  C   UNL A   1      44.217  26.515  32.845  1.00  0.00     0.074 A 
ATOM     60  C   UNL A   1      43.852  26.972  34.172  1.00  0.00     0.031 C 
ATOM     61  C   UNL A   1      44.710  25.327  32.386  1.00  0.00     0.034 A 
BRANCH  48  62
ATOM     62  C   UNL A   1      43.417  22.956  26.929  1.00  0.00     0.023 A 
ATOM     63  C   UNL A   1      42.813  21.691  27.033  1.00  0.00     0.031 A 
ATOM     64  C   UNL A   1      44.291  23.140  25.840  1.00  0.00     0.131 A 
ATOM     65  C   UNL A   1      43.149  20.650  26.151  1.00  0.00     0.055 A 
ATOM     66  C   UNL A   1      44.669  22.091  24.994  1.00  0.00     0.041 A 
ATOM     67  F   UNL A   1      44.800  24.351  25.556  1.00  0.00    -0.206 F 
ATOM     68  C   UNL A   1      44.108  20.831  25.156  1.00  0.00     0.022 A 
BRANCH  65  69
ATOM     69  S   UNL A   1      42.315  19.050  26.328  1.00  0.00     0.124 S 
ATOM     70  O   UNL A   1      43.141  18.173  25.505  1.00  0.00    -0.237 OA
ATOM     71  O   UNL A   1      42.376  18.831  27.768  1.00  0.00    -0.237 OA
ATOM     72  O   UNL A   1      40.975  19.307  25.799  1.00  0.00    -0.744 OA
ENDBRANCH  65  69
ENDBRANCH  48  62
BRANCH  49  73
ATOM     73  C   UNL A   1      41.411  30.376  32.719  1.00  0.00     0.023 A 
ATOM     74  C   UNL A   1      41.399  31.789  32.783  1.00  0.00     0.031 A 
ATOM     75  C   UNL A   1      40.198  29.700  32.898  1.00  0.00     0.131 A 
ATOM     76  C   UNL A   1      40.183  32.478  32.900  1.00  0.00     0.055 A 
ATOM     77  C   UNL A   1      38.994  30.393  33.064  1.00  0.00     0.041 A 
ATOM     78  F   UNL A   1      40.133  28.364  32.799  1.00  0.00    -0.206 F 
ATOM     79  C   UNL A   1      38.979  31.785  33.028  1.00  0.00     0.022 A 
BRANCH  76  80
ATOM     80  S   UNL A   1      40.135  34.277  32.651  1.00  0.00     0.124 S 
ATOM     81  O   UNL A   1      41.506  34.575  32.256  1.00  0.00    -0.237 OA
ATOM     82  O   UNL A   1      39.124  34.452  31.612  1.00  0.00    -0.237 OA
ATOM     83  O   UNL A   1      39.734  34.780  33.963  1.00  0.00    -0.744 OA
ENDBRANCH  76  80
ENDBRANCH  49  73
BRANCH  61  84
ATOM     84  C   UNL A   1      45.080  24.171  33.282  1.00  0.00     0.023 A 
ATOM     85  C   UNL A   1      46.371  24.021  33.813  1.00  0.00     0.031 A 
ATOM     86  C   UNL A   1      44.161  23.138  33.576  1.00  0.00     0.131 A 
ATOM     87  C   UNL A   1      46.683  22.938  34.655  1.00  0.00     0.055 A 
ATOM     88  C   UNL A   1      44.498  22.020  34.344  1.00  0.00     0.041 A 
ATOM     89  F   UNL A   1      42.887  23.188  33.162  1.00  0.00    -0.206 F 
ATOM     90  C   UNL A   1      45.763  21.921  34.904  1.00  0.00     0.022 A 
BRANCH  87  91
ATOM     91  S   UNL A   1      48.293  22.917  35.486  1.00  0.00     0.124 S 
ATOM     92  O   UNL A   1      49.181  22.405  34.449  1.00  0.00    -0.237 OA
ATOM     93  O   UNL A   1      48.465  24.326  35.830  1.00  0.00    -0.237 OA
ATOM     94  O   UNL A   1      48.084  22.023  36.624  1.00  0.00    -0.744 OA
ENDBRANCH  87  91
ENDBRANCH  61  84
ENDBRANCH  35  36
ENDBRANCH  27  30
ENDBRANCH  25  26
ENDBRANCH   1  25
TORSDOF 16
ENDMDL
MODEL 3
REMARK VINA RESULT:     -12.7      4.209     10.682
REMARK SMILES Cc1ccc(NC(=O)N2CCCC[C@@H]2C(=O)NCCCCNC(=O)c2ccc(-c3c4nc(c(-c5cc(S(=O)(=O)[O-])ccc5F)c5ccc([nH]5)c(-c5cc(S(=O)(=O)[O-])ccc5F)c5nc(c(-c6cc(S(=O)(=O)[O-])ccc6F)c6ccc3[nH]6)C=C5)C=C4)cc2)cc1
REMARK SMILES IDX 20 1 19 2 18 3 17 4 15 5 16 6 14 8 9 9 10 10 11 11 13 12
REMARK SMILES IDX 12 13 7 14 6 15 8 17 5 18 1 19 2 20 3 21 89 22 4 23 88 24
REMARK SMILES IDX 21 25 22 26 23 27 24 29 25 30 26 31 87 32 27 33 86 34 28 35
REMARK SMILES IDX 29 36 30 37 80 38 31 39 85 40 79 41 81 42 32 43 84 44 78 45
REMARK SMILES IDX 77 46 33 48 65 49 45 50 64 51 46 52 49 53 63 54 82 55 47 56
REMARK SMILES IDX 48 57 62 59 83 60 50 61 34 62 35 63 43 64 36 65 42 66 44 67
REMARK SMILES IDX 41 68 37 69 38 70 39 71 40 72 66 73 67 74 75 75 68 76 74 77
REMARK SMILES IDX 76 78 73 79 69 80 70 81 71 82 72 83 51 84 52 85 60 86 53 87
REMARK SMILES IDX 59 88 61 89 58 90 54 91 55 92 56 93 57 94
REMARK H PARENT 17 7 6 16 22 28 81 47 49 58
REMARK Flexibility Score: inf
ROOT
ATOM      1  C   UNL A   1      33.175  31.141  27.456  1.00  0.00     0.023 C 
ENDROOT
BRANCH   1   2
ATOM      2  C   UNL A   1      32.503  30.252  26.408  1.00  0.00     0.023 C 
BRANCH   2   3
ATOM      3  C   UNL A   1      31.718  29.048  26.960  1.00  0.00     0.116 C 
BRANCH   3   4
ATOM      4  N   UNL A   1      32.515  27.831  26.903  1.00  0.00    -0.354 N 
ATOM      5  C   UNL A   1      32.779  27.009  25.848  1.00  0.00     0.242 C 
ATOM      6  O   UNL A   1      33.166  25.865  26.120  1.00  0.00    -0.273 OA
ATOM      7  H   UNL A   1      32.925  27.559  27.756  1.00  0.00     0.163 HD
BRANCH   5   8
ATOM      8  C   UNL A   1      32.463  27.406  24.381  1.00  0.00     0.176 C 
ATOM      9  N   UNL A   1      31.638  26.421  23.630  1.00  0.00    -0.313 N 
ATOM     10  C   UNL A   1      31.799  26.309  22.181  1.00  0.00     0.122 C 
ATOM     11  C   UNL A   1      33.177  26.629  21.632  1.00  0.00     0.022 C 
ATOM     12  C   UNL A   1      33.800  27.779  23.713  1.00  0.00     0.035 C 
ATOM     13  C   UNL A   1      33.692  27.932  22.210  1.00  0.00     0.004 C 
BRANCH   9  14
ATOM     14  C   UNL A   1      30.487  25.810  24.117  1.00  0.00     0.322 C 
ATOM     15  N   UNL A   1      30.272  24.486  23.896  1.00  0.00    -0.308 N 
ATOM     16  H   UNL A   1      29.396  24.258  23.510  1.00  0.00     0.171 HD
ATOM     17  O   UNL A   1      29.604  26.436  24.706  1.00  0.00    -0.248 OA
BRANCH  15  18
ATOM     18  C   UNL A   1      31.127  23.398  24.141  1.00  0.00     0.042 A 
ATOM     19  C   UNL A   1      33.252  19.760  24.976  1.00  0.00     0.044 C 
ATOM     20  C   UNL A   1      32.618  21.089  24.705  1.00  0.00    -0.051 A 
ATOM     21  C   UNL A   1      32.550  21.585  23.400  1.00  0.00     0.005 A 
ATOM     22  C   UNL A   1      32.000  21.806  25.737  1.00  0.00     0.005 A 
ATOM     23  C   UNL A   1      31.832  22.749  23.125  1.00  0.00     0.026 A 
ATOM     24  C   UNL A   1      31.273  22.966  25.458  1.00  0.00     0.026 A 
ENDBRANCH  15  18
ENDBRANCH   9  14
ENDBRANCH   5   8
ENDBRANCH   3   4
ENDBRANCH   2   3
ENDBRANCH   1   2
BRANCH   1  25
ATOM     25  C   UNL A   1      34.573  30.690  27.850  1.00  0.00     0.116 C 
BRANCH  25  26
ATOM     26  N   UNL A   1      35.161  31.413  28.968  1.00  0.00    -0.352 N 
ATOM     27  C   UNL A   1      36.248  31.048  29.746  1.00  0.00     0.251 C 
ATOM     28  H   UNL A   1      34.733  32.268  29.202  1.00  0.00     0.163 HD
ATOM     29  O   UNL A   1      36.586  31.706  30.719  1.00  0.00    -0.269 OA
BRANCH  27  30
ATOM     30  C   UNL A   1      37.077  29.896  29.307  1.00  0.00     0.039 A 
ATOM     31  C   UNL A   1      37.433  28.954  30.278  1.00  0.00     0.014 A 
ATOM     32  C   UNL A   1      37.676  29.869  28.049  1.00  0.00     0.014 A 
ATOM     33  C   UNL A   1      38.547  28.142  30.065  1.00  0.00     0.010 A 
ATOM     34  C   UNL A   1      38.833  29.126  27.870  1.00  0.00     0.010 A 
ATOM     35  C   UNL A   1      39.308  28.312  28.904  1.00  0.00    -0.014 A 
BRANCH  35  36
ATOM     36  C   UNL A   1      40.680  27.818  28.797  1.00  0.00     0.031 A 
ATOM     37  C   UNL A   1      40.986  26.456  28.318  1.00  0.00     0.074 A 
ATOM     38  C   UNL A   1      41.715  28.593  29.196  1.00  0.00     0.049 A 
ATOM     39  N   UNL A   1      41.955  25.738  28.786  1.00  0.00    -0.248 NA
ATOM     40  C   UNL A   1      40.211  25.785  27.282  1.00  0.00     0.031 C 
ATOM     41  C   UNL A   1      43.140  28.311  29.039  1.00  0.00     0.029 A 
ATOM     42  N   UNL A   1      41.668  29.676  30.072  1.00  0.00    -0.354 N 
ATOM     43  C   UNL A   1      42.098  24.653  27.961  1.00  0.00     0.074 A 
ATOM     44  C   UNL A   1      40.950  24.688  27.080  1.00  0.00     0.031 C 
ATOM     45  C   UNL A   1      43.816  28.982  29.982  1.00  0.00     0.029 A 
ATOM     46  C   UNL A   1      42.847  29.638  30.840  1.00  0.00     0.049 A 
ATOM     47  H   UNL A   1      40.947  30.343  30.139  1.00  0.00     0.167 HD
ATOM     48  C   UNL A   1      43.229  23.895  27.994  1.00  0.00     0.034 A 
ATOM     49  C   UNL A   1      42.799  29.568  32.201  1.00  0.00     0.034 A 
ATOM     50  C   UNL A   1      44.229  24.387  28.935  1.00  0.00     0.049 A 
ATOM     51  C   UNL A   1      43.458  28.332  32.787  1.00  0.00     0.074 A 
ATOM     52  C   UNL A   1      45.409  25.100  28.800  1.00  0.00     0.029 A 
ATOM     53  N   UNL A   1      43.954  24.361  30.291  1.00  0.00    -0.354 N 
ATOM     54  N   UNL A   1      44.016  27.380  32.090  1.00  0.00    -0.248 NA
ATOM     55  C   UNL A   1      43.430  28.024  34.220  1.00  0.00     0.031 C 
ATOM     56  C   UNL A   1      45.840  25.498  30.097  1.00  0.00     0.029 A 
ATOM     57  C   UNL A   1      44.928  25.018  31.017  1.00  0.00     0.049 A 
ATOM     58  H   UNL A   1      43.163  23.929  30.688  1.00  0.00     0.167 HD
ATOM     59  C   UNL A   1      44.312  26.326  32.920  1.00  0.00     0.074 A 
ATOM     60  C   UNL A   1      43.938  26.782  34.245  1.00  0.00     0.031 C 
ATOM     61  C   UNL A   1      44.780  25.129  32.459  1.00  0.00     0.034 A 
BRANCH  48  62
ATOM     62  C   UNL A   1      43.509  22.837  26.963  1.00  0.00     0.023 A 
ATOM     63  C   UNL A   1      42.862  21.591  27.042  1.00  0.00     0.031 A 
ATOM     64  C   UNL A   1      44.411  23.003  25.894  1.00  0.00     0.131 A 
ATOM     65  C   UNL A   1      43.184  20.549  26.157  1.00  0.00     0.055 A 
ATOM     66  C   UNL A   1      44.772  21.950  25.046  1.00  0.00     0.041 A 
ATOM     67  F   UNL A   1      44.964  24.199  25.632  1.00  0.00    -0.206 F 
ATOM     68  C   UNL A   1      44.168  20.708  25.184  1.00  0.00     0.022 A 
BRANCH  65  69
ATOM     69  S   UNL A   1      42.295  18.975  26.301  1.00  0.00     0.124 S 
ATOM     70  O   UNL A   1      43.111  18.079  25.489  1.00  0.00    -0.237 OA
ATOM     71  O   UNL A   1      42.317  18.742  27.740  1.00  0.00    -0.237 OA
ATOM     72  O   UNL A   1      40.976  19.279  25.744  1.00  0.00    -0.744 OA
ENDBRANCH  65  69
ENDBRANCH  48  62
BRANCH  49  73
ATOM     73  C   UNL A   1      41.614  30.263  32.783  1.00  0.00     0.023 A 
ATOM     74  C   UNL A   1      41.629  31.676  32.837  1.00  0.00     0.031 A 
ATOM     75  C   UNL A   1      40.386  29.612  32.958  1.00  0.00     0.131 A 
ATOM     76  C   UNL A   1      40.427  32.390  32.941  1.00  0.00     0.055 A 
ATOM     77  C   UNL A   1      39.195  30.330  33.111  1.00  0.00     0.041 A 
ATOM     78  F   UNL A   1      40.297  28.277  32.868  1.00  0.00    -0.206 F 
ATOM     79  C   UNL A   1      39.208  31.722  33.065  1.00  0.00     0.022 A 
BRANCH  76  80
ATOM     80  S   UNL A   1      40.415  34.188  32.678  1.00  0.00     0.124 S 
ATOM     81  O   UNL A   1      41.725  34.424  32.082  1.00  0.00    -0.237 OA
ATOM     82  O   UNL A   1      39.270  34.398  31.798  1.00  0.00    -0.237 OA
ATOM     83  O   UNL A   1      40.233  34.716  34.029  1.00  0.00    -0.744 OA
ENDBRANCH  76  80
ENDBRANCH  49  73
BRANCH  61  84
ATOM     84  C   UNL A   1      45.104  23.956  33.351  1.00  0.00     0.023 A 
ATOM     85  C   UNL A   1      46.379  23.772  33.910  1.00  0.00     0.031 A 
ATOM     86  C   UNL A   1      44.157  22.940  33.612  1.00  0.00     0.131 A 
ATOM     87  C   UNL A   1      46.648  22.675  34.747  1.00  0.00     0.055 A 
ATOM     88  C   UNL A   1      44.452  21.808  34.376  1.00  0.00     0.041 A 
ATOM     89  F   UNL A   1      42.894  23.022  33.169  1.00  0.00    -0.206 F 
ATOM     90  C   UNL A   1      45.701  21.676  34.964  1.00  0.00     0.022 A 
BRANCH  87  91
ATOM     91  S   UNL A   1      48.237  22.611  35.614  1.00  0.00     0.124 S 
ATOM     92  O   UNL A   1      48.443  21.179  35.799  1.00  0.00    -0.237 OA
ATOM     93  O   UNL A   1      49.124  23.261  34.653  1.00  0.00    -0.237 OA
ATOM     94  O   UNL A   1      47.994  23.367  36.841  1.00  0.00    -0.744 OA
ENDBRANCH  87  91
ENDBRANCH  61  84
ENDBRANCH  35  36
ENDBRANCH  27  30
ENDBRANCH  25  26
ENDBRANCH   1  25
TORSDOF 16
ENDMDL
