MODEL 1
REMARK VINA RESULT:     -11.2      0.000      0.000
REMARK SMILES CC(=O)[C@@H]1CCCC[N@H+]1CC(C)(C)C(=O)NCCCCNC(=O)c1ccc(-c2c3nc(c(-c4cc(S(=O)(=O)[O-])ccc4F)c4ccc([nH]4)c(-c4cc(S(=O)(=O)[O-])ccc4F)c4nc(c(-c5cc(S(=O)(=O)[O-])ccc5F)c5ccc2[nH]5)C=C4)C=C3)cc1
REMARK SMILES IDX 18 1 17 2 16 3 14 4 15 5 11 7 12 8 13 9 10 10 9 11 4 12 5 13
REMARK SMILES IDX 6 14 8 15 7 17 2 18 1 19 3 20 19 21 20 22 21 23 22 24 23 26
REMARK SMILES IDX 24 27 25 28 86 29 26 30 85 31 27 32 28 33 29 34 79 35 30 36
REMARK SMILES IDX 84 37 78 38 80 39 31 40 83 41 77 42 76 43 32 45 64 46 44 47
REMARK SMILES IDX 63 48 45 49 48 50 62 51 81 52 46 53 47 54 61 56 82 57 49 58
REMARK SMILES IDX 33 59 34 60 42 61 35 62 41 63 43 64 40 65 36 66 37 67 38 68
REMARK SMILES IDX 39 69 65 70 66 71 74 72 67 73 73 74 75 75 72 76 68 77 69 78
REMARK SMILES IDX 70 79 71 80 50 81 51 82 59 83 52 84 58 85 60 86 57 87 53 88
REMARK SMILES IDX 54 89 55 90 56 91
REMARK H PARENT 16 6 9 16 21 25 80 44 48 55
REMARK Flexibility Score: inf
ROOT
ATOM      1  C   UNL A   1      32.020  27.211  25.733  1.00  0.00     0.023 C 
ENDROOT
BRANCH   1   2
ATOM      2  C   UNL A   1      30.734  26.445  25.434  1.00  0.00     0.116 C 
BRANCH   2   3
ATOM      3  N   UNL A   1      30.489  25.432  26.440  1.00  0.00    -0.355 N 
ATOM      4  C   UNL A   1      30.627  24.082  26.420  1.00  0.00     0.231 C 
ATOM      5  O   UNL A   1      29.958  23.478  27.264  1.00  0.00    -0.274 OA
ATOM      6  H   UNL A   1      30.163  25.789  27.297  1.00  0.00     0.163 HD
BRANCH   4   7
ATOM      7  C   UNL A   1      31.467  23.335  25.368  1.00  0.00     0.092 C 
ATOM      8  C   UNL A   1      30.980  23.502  23.923  1.00  0.00     0.027 C 
ATOM      9  C   UNL A   1      31.387  21.838  25.750  1.00  0.00     0.027 C 
BRANCH   7  10
ATOM     10  C   UNL A   1      32.988  23.753  25.481  1.00  0.00     0.279 C 
BRANCH  10  11
ATOM     11  N   UNL A   1      34.129  23.052  24.829  1.00  0.00    -0.325 N 
ATOM     12  C   UNL A   1      34.930  23.811  23.846  1.00  0.00     0.251 C 
ATOM     13  C   UNL A   1      36.032  22.952  23.194  1.00  0.00     0.074 C 
ATOM     14  C   UNL A   1      36.909  22.267  24.231  1.00  0.00     0.012 C 
ATOM     15  C   UNL A   1      34.978  22.365  25.817  1.00  0.00     0.262 C 
ATOM     16  H   UNL A   1      33.660  22.364  24.239  1.00  0.00     0.348 HD
ATOM     17  C   UNL A   1      36.033  21.465  25.177  1.00  0.00     0.062 C 
BRANCH  12  18
ATOM     18  C   UNL A   1      34.078  24.379  22.701  1.00  0.00     0.186 C 
ATOM     19  C   UNL A   1      33.658  25.829  22.746  1.00  0.00     0.094 C 
ATOM     20  O   UNL A   1      33.655  23.645  21.802  1.00  0.00    -0.293 OA
ENDBRANCH  12  18
ENDBRANCH  10  11
ENDBRANCH   7  10
ENDBRANCH   4   7
ENDBRANCH   2   3
ENDBRANCH   1   2
BRANCH   1  21
ATOM     21  C   UNL A   1      31.812  28.584  26.369  1.00  0.00     0.023 C 
BRANCH  21  22
ATOM     22  C   UNL A   1      32.881  29.617  26.032  1.00  0.00     0.116 C 
BRANCH  22  23
ATOM     23  N   UNL A   1      32.511  30.964  26.440  1.00  0.00    -0.352 N 
ATOM     24  C   UNL A   1      33.189  31.823  27.275  1.00  0.00     0.251 C 
ATOM     25  H   UNL A   1      31.665  31.307  26.071  1.00  0.00     0.163 HD
ATOM     26  O   UNL A   1      32.682  32.877  27.627  1.00  0.00    -0.269 OA
BRANCH  24  27
ATOM     27  C   UNL A   1      34.524  31.420  27.762  1.00  0.00     0.039 A 
ATOM     28  C   UNL A   1      35.552  32.363  27.782  1.00  0.00     0.014 A 
ATOM     29  C   UNL A   1      34.720  30.134  28.273  1.00  0.00     0.014 A 
ATOM     30  C   UNL A   1      36.765  32.040  28.396  1.00  0.00     0.010 A 
ATOM     31  C   UNL A   1      35.902  29.839  28.940  1.00  0.00     0.010 A 
ATOM     32  C   UNL A   1      36.931  30.792  29.017  1.00  0.00    -0.014 A 
BRANCH  32  33
ATOM     33  C   UNL A   1      38.174  30.442  29.751  1.00  0.00     0.031 A 
ATOM     34  C   UNL A   1      39.115  29.430  29.160  1.00  0.00     0.074 A 
ATOM     35  C   UNL A   1      38.404  30.957  30.974  1.00  0.00     0.049 A 
ATOM     36  N   UNL A   1      40.151  28.845  29.702  1.00  0.00    -0.248 NA
ATOM     37  C   UNL A   1      38.826  28.995  27.785  1.00  0.00     0.031 C 
ATOM     38  C   UNL A   1      37.553  31.934  31.657  1.00  0.00     0.029 A 
ATOM     39  N   UNL A   1      39.413  30.715  31.873  1.00  0.00    -0.354 N 
ATOM     40  C   UNL A   1      40.630  27.962  28.742  1.00  0.00     0.074 A 
ATOM     41  C   UNL A   1      39.732  28.046  27.608  1.00  0.00     0.031 C 
ATOM     42  C   UNL A   1      38.079  32.211  32.862  1.00  0.00     0.029 A 
ATOM     43  C   UNL A   1      39.274  31.396  33.061  1.00  0.00     0.049 A 
ATOM     44  H   UNL A   1      40.167  30.110  31.685  1.00  0.00     0.167 HD
ATOM     45  C   UNL A   1      41.729  27.169  28.791  1.00  0.00     0.034 A 
ATOM     46  C   UNL A   1      40.011  31.348  34.189  1.00  0.00     0.034 A 
ATOM     47  C   UNL A   1      42.618  27.107  29.924  1.00  0.00     0.049 A 
ATOM     48  C   UNL A   1      41.206  30.429  34.237  1.00  0.00     0.074 A 
ATOM     49  C   UNL A   1      43.770  26.356  30.077  1.00  0.00     0.029 A 
ATOM     50  N   UNL A   1      42.454  27.827  31.100  1.00  0.00    -0.354 N 
ATOM     51  N   UNL A   1      41.653  29.607  33.315  1.00  0.00    -0.248 NA
ATOM     52  C   UNL A   1      41.998  30.431  35.475  1.00  0.00     0.031 C 
ATOM     53  C   UNL A   1      44.276  26.586  31.362  1.00  0.00     0.029 A 
ATOM     54  C   UNL A   1      43.475  27.529  31.987  1.00  0.00     0.049 A 
ATOM     55  H   UNL A   1      41.719  28.459  31.278  1.00  0.00     0.167 HD
ATOM     56  C   UNL A   1      42.801  29.028  33.848  1.00  0.00     0.074 A 
ATOM     57  C   UNL A   1      42.979  29.593  35.169  1.00  0.00     0.031 C 
ATOM     58  C   UNL A   1      43.638  28.116  33.294  1.00  0.00     0.034 A 
BRANCH  45  59
ATOM     59  C   UNL A   1      42.006  26.300  27.590  1.00  0.00     0.023 A 
ATOM     60  C   UNL A   1      41.564  24.967  27.534  1.00  0.00     0.031 A 
ATOM     61  C   UNL A   1      42.751  26.793  26.505  1.00  0.00     0.131 A 
ATOM     62  C   UNL A   1      41.936  24.150  26.458  1.00  0.00     0.055 A 
ATOM     63  C   UNL A   1      43.049  25.998  25.396  1.00  0.00     0.041 A 
ATOM     64  F   UNL A   1      43.218  28.052  26.512  1.00  0.00    -0.206 F 
ATOM     65  C   UNL A   1      42.655  24.663  25.375  1.00  0.00     0.022 A 
BRANCH  62  66
ATOM     66  S   UNL A   1      41.592  22.374  26.563  1.00  0.00     0.124 S 
ATOM     67  O   UNL A   1      42.279  21.871  25.375  1.00  0.00    -0.237 OA
ATOM     68  O   UNL A   1      42.186  22.011  27.845  1.00  0.00    -0.237 OA
ATOM     69  O   UNL A   1      40.134  22.302  26.508  1.00  0.00    -0.744 OA
ENDBRANCH  62  66
ENDBRANCH  45  59
BRANCH  46  70
ATOM     70  C   UNL A   1      39.640  32.172  35.376  1.00  0.00     0.023 A 
ATOM     71  C   UNL A   1      38.848  31.637  36.404  1.00  0.00     0.031 A 
ATOM     72  C   UNL A   1      40.020  33.522  35.472  1.00  0.00     0.131 A 
ATOM     73  C   UNL A   1      38.414  32.460  37.455  1.00  0.00     0.055 A 
ATOM     74  C   UNL A   1      39.631  34.323  36.548  1.00  0.00     0.041 A 
ATOM     75  F   UNL A   1      40.780  34.084  34.519  1.00  0.00    -0.206 F 
ATOM     76  C   UNL A   1      38.810  33.796  37.539  1.00  0.00     0.022 A 
BRANCH  73  77
ATOM     77  S   UNL A   1      37.236  31.783  38.656  1.00  0.00     0.124 S 
ATOM     78  O   UNL A   1      36.111  32.701  38.519  1.00  0.00    -0.237 OA
ATOM     79  O   UNL A   1      37.028  30.431  38.145  1.00  0.00    -0.237 OA
ATOM     80  O   UNL A   1      37.959  31.865  39.924  1.00  0.00    -0.744 OA
ENDBRANCH  73  77
ENDBRANCH  46  70
BRANCH  58  81
ATOM     81  C   UNL A   1      44.860  27.732  34.089  1.00  0.00     0.023 A 
ATOM     82  C   UNL A   1      46.065  28.446  33.989  1.00  0.00     0.031 A 
ATOM     83  C   UNL A   1      44.801  26.641  34.975  1.00  0.00     0.131 A 
ATOM     84  C   UNL A   1      47.179  28.035  34.737  1.00  0.00     0.055 A 
ATOM     85  C   UNL A   1      45.898  26.267  35.750  1.00  0.00     0.041 A 
ATOM     86  F   UNL A   1      43.671  25.929  35.106  1.00  0.00    -0.206 F 
ATOM     87  C   UNL A   1      47.099  26.961  35.627  1.00  0.00     0.022 A 
BRANCH  84  88
ATOM     88  S   UNL A   1      48.757  28.898  34.497  1.00  0.00     0.124 S 
ATOM     89  O   UNL A   1      49.559  28.373  35.597  1.00  0.00    -0.237 OA
ATOM     90  O   UNL A   1      49.151  28.466  33.160  1.00  0.00    -0.237 OA
ATOM     91  O   UNL A   1      48.398  30.310  34.609  1.00  0.00    -0.744 OA
ENDBRANCH  84  88
ENDBRANCH  58  81
ENDBRANCH  32  33
ENDBRANCH  24  27
ENDBRANCH  22  23
ENDBRANCH  21  22
ENDBRANCH   1  21
TORSDOF 17
ENDMDL
MODEL 2
REMARK VINA RESULT:     -11.2      4.177      9.468
REMARK SMILES CC(=O)[C@@H]1CCCC[N@H+]1CC(C)(C)C(=O)NCCCCNC(=O)c1ccc(-c2c3nc(c(-c4cc(S(=O)(=O)[O-])ccc4F)c4ccc([nH]4)c(-c4cc(S(=O)(=O)[O-])ccc4F)c4nc(c(-c5cc(S(=O)(=O)[O-])ccc5F)c5ccc2[nH]5)C=C4)C=C3)cc1
REMARK SMILES IDX 18 1 17 2 16 3 14 4 15 5 11 7 12 8 13 9 10 10 9 11 4 12 5 13
REMARK SMILES IDX 6 14 8 15 7 17 2 18 1 19 3 20 19 21 20 22 21 23 22 24 23 26
REMARK SMILES IDX 24 27 25 28 86 29 26 30 85 31 27 32 28 33 29 34 79 35 30 36
REMARK SMILES IDX 84 37 78 38 80 39 31 40 83 41 77 42 76 43 32 45 64 46 44 47
REMARK SMILES IDX 63 48 45 49 48 50 62 51 81 52 46 53 47 54 61 56 82 57 49 58
REMARK SMILES IDX 33 59 34 60 42 61 35 62 41 63 43 64 40 65 36 66 37 67 38 68
REMARK SMILES IDX 39 69 65 70 66 71 74 72 67 73 73 74 75 75 72 76 68 77 69 78
REMARK SMILES IDX 70 79 71 80 50 81 51 82 59 83 52 84 58 85 60 86 57 87 53 88
REMARK SMILES IDX 54 89 55 90 56 91
REMARK H PARENT 16 6 9 16 21 25 80 44 48 55
REMARK Flexibility Score: inf
ROOT
ATOM      1  C   UNL A   1      33.864  21.148  25.862  1.00  0.00     0.023 C 
ENDROOT
BRANCH   1   2
ATOM      2  C   UNL A   1      32.477  21.303  25.244  1.00  0.00     0.116 C 
BRANCH   2   3
ATOM      3  N   UNL A   1      31.592  22.027  26.132  1.00  0.00    -0.355 N 
ATOM      4  C   UNL A   1      31.251  23.339  26.201  1.00  0.00     0.231 C 
ATOM      5  O   UNL A   1      30.816  23.707  27.297  1.00  0.00    -0.274 OA
ATOM      6  H   UNL A   1      31.156  21.463  26.811  1.00  0.00     0.163 HD
BRANCH   4   7
ATOM      7  C   UNL A   1      31.477  24.331  25.046  1.00  0.00     0.092 C 
ATOM      8  C   UNL A   1      31.052  23.814  23.666  1.00  0.00     0.027 C 
ATOM      9  C   UNL A   1      32.998  24.614  25.024  1.00  0.00     0.027 C 
BRANCH   7  10
ATOM     10  C   UNL A   1      30.763  25.708  25.355  1.00  0.00     0.279 C 
BRANCH  10  11
ATOM     11  N   UNL A   1      31.445  27.024  25.496  1.00  0.00    -0.325 N 
ATOM     12  C   UNL A   1      31.117  28.077  24.512  1.00  0.00     0.251 C 
ATOM     13  C   UNL A   1      31.941  29.362  24.726  1.00  0.00     0.074 C 
ATOM     14  C   UNL A   1      31.840  29.872  26.155  1.00  0.00     0.012 C 
ATOM     15  C   UNL A   1      31.375  27.524  26.880  1.00  0.00     0.262 C 
ATOM     16  H   UNL A   1      32.412  26.801  25.259  1.00  0.00     0.348 HD
ATOM     17  C   UNL A   1      32.237  28.762  27.113  1.00  0.00     0.062 C 
BRANCH  12  18
ATOM     18  C   UNL A   1      31.365  27.630  23.063  1.00  0.00     0.186 C 
ATOM     19  C   UNL A   1      32.782  27.387  22.600  1.00  0.00     0.094 C 
ATOM     20  O   UNL A   1      30.434  27.562  22.254  1.00  0.00    -0.293 OA
ENDBRANCH  12  18
ENDBRANCH  10  11
ENDBRANCH   7  10
ENDBRANCH   4   7
ENDBRANCH   2   3
ENDBRANCH   1   2
BRANCH   1  21
ATOM     21  C   UNL A   1      35.014  21.615  24.973  1.00  0.00     0.023 C 
BRANCH  21  22
ATOM     22  C   UNL A   1      36.329  21.867  25.701  1.00  0.00     0.116 C 
BRANCH  22  23
ATOM     23  N   UNL A   1      37.292  20.791  25.516  1.00  0.00    -0.352 N 
ATOM     24  C   UNL A   1      38.647  20.803  25.757  1.00  0.00     0.251 C 
ATOM     25  H   UNL A   1      36.926  19.943  25.172  1.00  0.00     0.163 HD
ATOM     26  O   UNL A   1      39.345  19.856  25.425  1.00  0.00    -0.269 OA
BRANCH  24  27
ATOM     27  C   UNL A   1      39.237  22.000  26.389  1.00  0.00     0.039 A 
ATOM     28  C   UNL A   1      40.278  21.840  27.303  1.00  0.00     0.014 A 
ATOM     29  C   UNL A   1      38.808  23.273  26.005  1.00  0.00     0.014 A 
ATOM     30  C   UNL A   1      40.953  22.968  27.776  1.00  0.00     0.010 A 
ATOM     31  C   UNL A   1      39.522  24.388  26.425  1.00  0.00     0.010 A 
ATOM     32  C   UNL A   1      40.607  24.246  27.306  1.00  0.00    -0.014 A 
BRANCH  32  33
ATOM     33  C   UNL A   1      41.354  25.461  27.721  1.00  0.00     0.031 A 
ATOM     34  C   UNL A   1      40.632  26.545  28.471  1.00  0.00     0.074 A 
ATOM     35  C   UNL A   1      42.636  25.628  27.344  1.00  0.00     0.049 A 
ATOM     36  N   UNL A   1      41.030  27.754  28.769  1.00  0.00    -0.248 NA
ATOM     37  C   UNL A   1      39.266  26.232  28.915  1.00  0.00     0.031 C 
ATOM     38  C   UNL A   1      43.434  24.653  26.597  1.00  0.00     0.029 A 
ATOM     39  N   UNL A   1      43.491  26.688  27.518  1.00  0.00    -0.354 N 
ATOM     40  C   UNL A   1      39.959  28.353  29.421  1.00  0.00     0.074 A 
ATOM     41  C   UNL A   1      38.875  27.392  29.420  1.00  0.00     0.031 C 
ATOM     42  C   UNL A   1      44.661  25.158  26.384  1.00  0.00     0.029 A 
ATOM     43  C   UNL A   1      44.723  26.510  26.931  1.00  0.00     0.049 A 
ATOM     44  H   UNL A   1      43.244  27.500  28.017  1.00  0.00     0.167 HD
ATOM     45  C   UNL A   1      39.892  29.583  29.989  1.00  0.00     0.034 A 
ATOM     46  C   UNL A   1      45.771  27.351  26.825  1.00  0.00     0.034 A 
ATOM     47  C   UNL A   1      40.986  30.522  29.991  1.00  0.00     0.049 A 
ATOM     48  C   UNL A   1      45.660  28.729  27.428  1.00  0.00     0.074 A 
ATOM     49  C   UNL A   1      41.038  31.786  30.551  1.00  0.00     0.029 A 
ATOM     50  N   UNL A   1      42.225  30.296  29.404  1.00  0.00    -0.354 N 
ATOM     51  N   UNL A   1      44.643  29.278  28.052  1.00  0.00    -0.248 NA
ATOM     52  C   UNL A   1      46.838  29.602  27.316  1.00  0.00     0.031 C 
ATOM     53  C   UNL A   1      42.289  32.343  30.262  1.00  0.00     0.029 A 
ATOM     54  C   UNL A   1      43.041  31.402  29.577  1.00  0.00     0.049 A 
ATOM     55  H   UNL A   1      42.485  29.471  28.934  1.00  0.00     0.167 HD
ATOM     56  C   UNL A   1      45.076  30.542  28.442  1.00  0.00     0.074 A 
ATOM     57  C   UNL A   1      46.442  30.676  27.985  1.00  0.00     0.031 C 
ATOM     58  C   UNL A   1      44.406  31.506  29.123  1.00  0.00     0.034 A 
BRANCH  45  59
ATOM     59  C   UNL A   1      38.586  29.975  30.632  1.00  0.00     0.023 A 
ATOM     60  C   UNL A   1      37.594  30.663  29.912  1.00  0.00     0.031 A 
ATOM     61  C   UNL A   1      38.339  29.692  31.986  1.00  0.00     0.131 A 
ATOM     62  C   UNL A   1      36.440  31.116  30.566  1.00  0.00     0.055 A 
ATOM     63  C   UNL A   1      37.150  30.073  32.612  1.00  0.00     0.041 A 
ATOM     64  F   UNL A   1      39.258  29.055  32.729  1.00  0.00    -0.206 F 
ATOM     65  C   UNL A   1      36.199  30.804  31.906  1.00  0.00     0.022 A 
BRANCH  62  66
ATOM     66  S   UNL A   1      35.330  32.242  29.679  1.00  0.00     0.124 S 
ATOM     67  O   UNL A   1      36.250  33.302  29.274  1.00  0.00    -0.237 OA
ATOM     68  O   UNL A   1      34.815  31.398  28.606  1.00  0.00    -0.237 OA
ATOM     69  O   UNL A   1      34.352  32.629  30.693  1.00  0.00    -0.744 OA
ENDBRANCH  62  66
ENDBRANCH  45  59
BRANCH  46  70
ATOM     70  C   UNL A   1      47.010  26.936  26.106  1.00  0.00     0.023 A 
ATOM     71  C   UNL A   1      48.054  26.287  26.785  1.00  0.00     0.031 A 
ATOM     72  C   UNL A   1      47.196  27.235  24.745  1.00  0.00     0.131 A 
ATOM     73  C   UNL A   1      49.257  26.009  26.118  1.00  0.00     0.055 A 
ATOM     74  C   UNL A   1      48.375  26.907  24.072  1.00  0.00     0.041 A 
ATOM     75  F   UNL A   1      46.229  27.851  24.046  1.00  0.00    -0.206 F 
ATOM     76  C   UNL A   1      49.420  26.304  24.764  1.00  0.00     0.022 A 
BRANCH  73  77
ATOM     77  S   UNL A   1      50.647  25.349  27.079  1.00  0.00     0.124 S 
ATOM     78  O   UNL A   1      51.560  24.923  26.025  1.00  0.00    -0.237 OA
ATOM     79  O   UNL A   1      51.059  26.515  27.853  1.00  0.00    -0.237 OA
ATOM     80  O   UNL A   1      50.040  24.269  27.855  1.00  0.00    -0.744 OA
ENDBRANCH  73  77
ENDBRANCH  46  70
BRANCH  58  81
ATOM     81  C   UNL A   1      45.170  32.756  29.476  1.00  0.00     0.023 A 
ATOM     82  C   UNL A   1      45.920  32.858  30.659  1.00  0.00     0.031 A 
ATOM     83  C   UNL A   1      45.157  33.853  28.596  1.00  0.00     0.131 A 
ATOM     84  C   UNL A   1      46.598  34.052  30.950  1.00  0.00     0.055 A 
ATOM     85  C   UNL A   1      45.871  35.019  28.869  1.00  0.00     0.041 A 
ATOM     86  F   UNL A   1      44.456  33.802  27.453  1.00  0.00    -0.206 F 
ATOM     87  C   UNL A   1      46.591  35.126  30.056  1.00  0.00     0.022 A 
BRANCH  84  88
ATOM     88  S   UNL A   1      47.457  34.202  32.541  1.00  0.00     0.124 S 
ATOM     89  O   UNL A   1      48.781  34.656  32.128  1.00  0.00    -0.237 OA
ATOM     90  O   UNL A   1      46.640  35.183  33.247  1.00  0.00    -0.237 OA
ATOM     91  O   UNL A   1      47.408  32.847  33.087  1.00  0.00    -0.744 OA
ENDBRANCH  84  88
ENDBRANCH  58  81
ENDBRANCH  32  33
ENDBRANCH  24  27
ENDBRANCH  22  23
ENDBRANCH  21  22
ENDBRANCH   1  21
TORSDOF 17
ENDMDL
MODEL 3
REMARK VINA RESULT:     -11.0      5.258     10.378
REMARK SMILES CC(=O)[C@@H]1CCCC[N@H+]1CC(C)(C)C(=O)NCCCCNC(=O)c1ccc(-c2c3nc(c(-c4cc(S(=O)(=O)[O-])ccc4F)c4ccc([nH]4)c(-c4cc(S(=O)(=O)[O-])ccc4F)c4nc(c(-c5cc(S(=O)(=O)[O-])ccc5F)c5ccc2[nH]5)C=C4)C=C3)cc1
REMARK SMILES IDX 18 1 17 2 16 3 14 4 15 5 11 7 12 8 13 9 10 10 9 11 4 12 5 13
REMARK SMILES IDX 6 14 8 15 7 17 2 18 1 19 3 20 19 21 20 22 21 23 22 24 23 26
REMARK SMILES IDX 24 27 25 28 86 29 26 30 85 31 27 32 28 33 29 34 79 35 30 36
REMARK SMILES IDX 84 37 78 38 80 39 31 40 83 41 77 42 76 43 32 45 64 46 44 47
REMARK SMILES IDX 63 48 45 49 48 50 62 51 81 52 46 53 47 54 61 56 82 57 49 58
REMARK SMILES IDX 33 59 34 60 42 61 35 62 41 63 43 64 40 65 36 66 37 67 38 68
REMARK SMILES IDX 39 69 65 70 66 71 74 72 67 73 73 74 75 75 72 76 68 77 69 78
REMARK SMILES IDX 70 79 71 80 50 81 51 82 59 83 52 84 58 85 60 86 57 87 53 88
REMARK SMILES IDX 54 89 55 90 56 91
REMARK H PARENT 16 6 9 16 21 25 80 44 48 55
REMARK Flexibility Score: inf
ROOT
ATOM      1  C   UNL A   1      39.047  23.022  26.445  1.00  0.00     0.023 C 
ENDROOT
BRANCH   1   2
ATOM      2  C   UNL A   1      37.680  23.609  26.104  1.00  0.00     0.116 C 
BRANCH   2   3
ATOM      3  N   UNL A   1      37.468  23.629  24.672  1.00  0.00    -0.355 N 
ATOM      4  C   UNL A   1      36.411  23.256  23.906  1.00  0.00     0.231 C 
ATOM      5  O   UNL A   1      36.684  23.008  22.727  1.00  0.00    -0.274 OA
ATOM      6  H   UNL A   1      38.231  23.980  24.158  1.00  0.00     0.163 HD
BRANCH   4   7
ATOM      7  C   UNL A   1      34.992  23.053  24.468  1.00  0.00     0.092 C 
ATOM      8  C   UNL A   1      34.797  21.755  25.260  1.00  0.00     0.027 C 
ATOM      9  C   UNL A   1      34.052  23.032  23.239  1.00  0.00     0.027 C 
BRANCH   7  10
ATOM     10  C   UNL A   1      34.565  24.296  25.347  1.00  0.00     0.279 C 
BRANCH  10  11
ATOM     11  N   UNL A   1      33.317  25.091  25.174  1.00  0.00    -0.325 N 
ATOM     12  C   UNL A   1      32.311  25.034  26.255  1.00  0.00     0.251 C 
ATOM     13  C   UNL A   1      31.040  25.840  25.921  1.00  0.00     0.074 C 
ATOM     14  C   UNL A   1      31.363  27.272  25.523  1.00  0.00     0.012 C 
ATOM     15  C   UNL A   1      33.610  26.476  24.767  1.00  0.00     0.262 C 
ATOM     16  H   UNL A   1      32.845  24.601  24.414  1.00  0.00     0.348 HD
ATOM     17  C   UNL A   1      32.360  27.262  24.378  1.00  0.00     0.062 C 
BRANCH  12  18
ATOM     18  C   UNL A   1      31.856  23.599  26.564  1.00  0.00     0.186 C 
ATOM     19  C   UNL A   1      31.056  22.843  25.530  1.00  0.00     0.094 C 
ATOM     20  O   UNL A   1      32.052  23.099  27.676  1.00  0.00    -0.293 OA
ENDBRANCH  12  18
ENDBRANCH  10  11
ENDBRANCH   7  10
ENDBRANCH   4   7
ENDBRANCH   2   3
ENDBRANCH   1   2
BRANCH   1  21
ATOM     21  C   UNL A   1      39.279  21.603  25.928  1.00  0.00     0.023 C 
BRANCH  21  22
ATOM     22  C   UNL A   1      39.976  20.668  26.909  1.00  0.00     0.116 C 
BRANCH  22  23
ATOM     23  N   UNL A   1      40.844  19.703  26.249  1.00  0.00    -0.352 N 
ATOM     24  C   UNL A   1      42.139  19.871  25.815  1.00  0.00     0.251 C 
ATOM     25  H   UNL A   1      40.452  18.813  26.092  1.00  0.00     0.163 HD
ATOM     26  O   UNL A   1      42.692  19.003  25.157  1.00  0.00    -0.269 OA
BRANCH  24  27
ATOM     27  C   UNL A   1      42.825  21.140  26.131  1.00  0.00     0.039 A 
ATOM     28  C   UNL A   1      42.999  22.087  25.121  1.00  0.00     0.014 A 
ATOM     29  C   UNL A   1      43.214  21.413  27.445  1.00  0.00     0.014 A 
ATOM     30  C   UNL A   1      43.493  23.353  25.447  1.00  0.00     0.010 A 
ATOM     31  C   UNL A   1      43.642  22.692  27.777  1.00  0.00     0.010 A 
ATOM     32  C   UNL A   1      43.776  23.677  26.784  1.00  0.00    -0.014 A 
BRANCH  32  33
ATOM     33  C   UNL A   1      44.223  25.036  27.182  1.00  0.00     0.031 A 
ATOM     34  C   UNL A   1      43.211  26.018  27.703  1.00  0.00     0.074 A 
ATOM     35  C   UNL A   1      45.501  25.412  26.986  1.00  0.00     0.049 A 
ATOM     36  N   UNL A   1      43.340  27.298  27.934  1.00  0.00    -0.248 NA
ATOM     37  C   UNL A   1      41.865  25.489  27.967  1.00  0.00     0.031 C 
ATOM     38  C   UNL A   1      46.568  24.551  26.468  1.00  0.00     0.029 A 
ATOM     39  N   UNL A   1      46.120  26.622  27.178  1.00  0.00    -0.354 N 
ATOM     40  C   UNL A   1      42.089  27.732  28.356  1.00  0.00     0.074 A 
ATOM     41  C   UNL A   1      41.202  26.589  28.289  1.00  0.00     0.031 C 
ATOM     42  C   UNL A   1      47.707  25.259  26.392  1.00  0.00     0.029 A 
ATOM     43  C   UNL A   1      47.444  26.635  26.803  1.00  0.00     0.049 A 
ATOM     44  H   UNL A   1      45.658  27.408  27.550  1.00  0.00     0.167 HD
ATOM     45  C   UNL A   1      41.718  28.965  28.780  1.00  0.00     0.034 A 
ATOM     46  C   UNL A   1      48.335  27.646  26.771  1.00  0.00     0.034 A 
ATOM     47  C   UNL A   1      42.618  30.090  28.851  1.00  0.00     0.049 A 
ATOM     48  C   UNL A   1      47.889  29.020  27.209  1.00  0.00     0.074 A 
ATOM     49  C   UNL A   1      42.358  31.378  29.284  1.00  0.00     0.029 A 
ATOM     50  N   UNL A   1      43.956  30.057  28.482  1.00  0.00    -0.354 N 
ATOM     51  N   UNL A   1      46.704  29.413  27.616  1.00  0.00    -0.248 NA
ATOM     52  C   UNL A   1      48.901  30.086  27.186  1.00  0.00     0.031 C 
ATOM     53  C   UNL A   1      43.525  32.136  29.130  1.00  0.00     0.029 A 
ATOM     54  C   UNL A   1      44.530  31.305  28.663  1.00  0.00     0.049 A 
ATOM     55  H   UNL A   1      44.429  29.263  28.141  1.00  0.00     0.167 HD
ATOM     56  C   UNL A   1      46.841  30.760  27.937  1.00  0.00     0.074 A 
ATOM     57  C   UNL A   1      48.221  31.113  27.678  1.00  0.00     0.031 C 
ATOM     58  C   UNL A   1      45.912  31.628  28.410  1.00  0.00     0.034 A 
BRANCH  45  59
ATOM     59  C   UNL A   1      40.276  29.152  29.178  1.00  0.00     0.023 A 
ATOM     60  C   UNL A   1      39.879  29.121  30.526  1.00  0.00     0.031 A 
ATOM     61  C   UNL A   1      39.279  29.327  28.203  1.00  0.00     0.131 A 
ATOM     62  C   UNL A   1      38.519  29.181  30.858  1.00  0.00     0.055 A 
ATOM     63  C   UNL A   1      37.933  29.471  28.544  1.00  0.00     0.041 A 
ATOM     64  F   UNL A   1      39.596  29.346  26.898  1.00  0.00    -0.206 F 
ATOM     65  C   UNL A   1      37.544  29.381  29.878  1.00  0.00     0.022 A 
BRANCH  62  66
ATOM     66  S   UNL A   1      38.032  28.848  32.573  1.00  0.00     0.124 S 
ATOM     67  O   UNL A   1      39.022  29.626  33.314  1.00  0.00    -0.237 OA
ATOM     68  O   UNL A   1      36.663  29.349  32.616  1.00  0.00    -0.237 OA
ATOM     69  O   UNL A   1      38.171  27.398  32.694  1.00  0.00    -0.744 OA
ENDBRANCH  62  66
ENDBRANCH  45  59
BRANCH  46  70
ATOM     70  C   UNL A   1      49.728  27.419  26.290  1.00  0.00     0.023 A 
ATOM     71  C   UNL A   1      50.771  27.170  27.196  1.00  0.00     0.031 A 
ATOM     72  C   UNL A   1      50.050  27.509  24.924  1.00  0.00     0.131 A 
ATOM     73  C   UNL A   1      52.093  27.073  26.734  1.00  0.00     0.055 A 
ATOM     74  C   UNL A   1      51.360  27.358  24.464  1.00  0.00     0.041 A 
ATOM     75  F   UNL A   1      49.091  27.742  24.014  1.00  0.00    -0.206 F 
ATOM     76  C   UNL A   1      52.392  27.154  25.374  1.00  0.00     0.022 A 
BRANCH  73  77
ATOM     77  S   UNL A   1      53.429  26.946  27.954  1.00  0.00     0.124 S 
ATOM     78  O   UNL A   1      54.152  28.192  27.734  1.00  0.00    -0.237 OA
ATOM     79  O   UNL A   1      52.685  26.846  29.206  1.00  0.00    -0.237 OA
ATOM     80  O   UNL A   1      54.139  25.732  27.554  1.00  0.00    -0.744 OA
ENDBRANCH  73  77
ENDBRANCH  46  70
BRANCH  58  81
ATOM     81  C   UNL A   1      46.381  33.021  28.746  1.00  0.00     0.023 A 
ATOM     82  C   UNL A   1      46.391  34.051  27.791  1.00  0.00     0.031 A 
ATOM     83  C   UNL A   1      46.807  33.318  30.052  1.00  0.00     0.131 A 
ATOM     84  C   UNL A   1      46.856  35.325  28.149  1.00  0.00     0.055 A 
ATOM     85  C   UNL A   1      47.223  34.598  30.414  1.00  0.00     0.041 A 
ATOM     86  F   UNL A   1      46.814  32.367  31.000  1.00  0.00    -0.206 F 
ATOM     87  C   UNL A   1      47.257  35.609  29.458  1.00  0.00     0.022 A 
BRANCH  84  88
ATOM     88  S   UNL A   1      46.975  36.603  26.867  1.00  0.00     0.124 S 
ATOM     89  O   UNL A   1      47.379  35.826  25.701  1.00  0.00    -0.237 OA
ATOM     90  O   UNL A   1      45.619  37.142  26.834  1.00  0.00    -0.237 OA
ATOM     91  O   UNL A   1      47.991  37.517  27.386  1.00  0.00    -0.744 OA
ENDBRANCH  84  88
ENDBRANCH  58  81
ENDBRANCH  32  33
ENDBRANCH  24  27
ENDBRANCH  22  23
ENDBRANCH  21  22
ENDBRANCH   1  21
TORSDOF 17
ENDMDL
