MODEL 1
REMARK VINA RESULT:     -11.9      0.000      0.000
REMARK SMILES CCCOC(=O)c1c(NC(=O)[C@@H]2CC=CC[C@H]2C(=O)NCCCCNC(=O)c2ccc(-c3c4nc(c(-c5cc(S(=O)(=O)[O-])ccc5F)c5ccc([nH]5)c(-c5cc(S(=O)(=O)[O-])ccc5F)c5nc(c(-c6cc(S(=O)(=O)[O-])ccc6F)c6ccc3[nH]6)C=C5)C=C4)cc2)sc2c1CCCC2
REMARK SMILES IDX 21 1 20 2 18 3 19 4 17 6 12 7 13 8 14 9 16 10 15 11 10 12
REMARK SMILES IDX 9 13 11 15 8 16 7 17 93 18 91 19 92 20 94 21 97 22 95 23
REMARK SMILES IDX 96 24 5 25 6 26 4 27 3 28 2 29 1 30 22 31 23 32 24 33 25 34
REMARK SMILES IDX 26 35 27 37 28 38 29 39 90 40 30 41 89 42 31 43 32 44 33 45
REMARK SMILES IDX 83 46 34 47 88 48 82 49 84 50 35 51 87 52 81 53 80 54 36 56
REMARK SMILES IDX 68 57 48 58 67 59 49 60 52 61 66 62 85 63 50 64 51 65 65 67
REMARK SMILES IDX 86 68 53 69 37 70 38 71 46 72 39 73 45 74 47 75 44 76 40 77
REMARK SMILES IDX 41 78 42 79 43 80 69 81 70 82 78 83 71 84 77 85 79 86 76 87
REMARK SMILES IDX 72 88 73 89 74 90 75 91 54 92 55 93 63 94 56 95 62 96 64 97
REMARK SMILES IDX 61 98 57 99 58 100 59 101 60 102
REMARK H PARENT 20 5 9 14 25 36 84 55 52 66
REMARK Flexibility Score: inf
ROOT
ATOM      1  C   UNL A   1      31.992  26.772  26.395  1.00  0.00     0.116 C 
ENDROOT
BRANCH   1   2
ATOM      2  N   UNL A   1      31.442  25.466  26.702  1.00  0.00    -0.356 N 
ATOM      3  C   UNL A   1      32.053  24.245  26.789  1.00  0.00     0.224 C 
ATOM      4  O   UNL A   1      31.584  23.471  27.634  1.00  0.00    -0.275 OA
ATOM      5  H   UNL A   1      30.473  25.457  26.875  1.00  0.00     0.163 HD
BRANCH   3   6
ATOM      6  C   UNL A   1      33.252  23.762  25.942  1.00  0.00     0.095 C 
ATOM      7  C   UNL A   1      33.042  23.555  24.449  1.00  0.00     0.095 C 
ATOM      8  C   UNL A   1      34.157  22.678  23.859  1.00  0.00     0.041 C 
ATOM      9  C   UNL A   1      35.506  23.233  24.209  1.00  0.00    -0.030 C 
ATOM     10  C   UNL A   1      34.541  24.585  26.096  1.00  0.00     0.041 C 
ATOM     11  C   UNL A   1      35.675  24.115  25.208  1.00  0.00    -0.030 C 
BRANCH   7  12
ATOM     12  C   UNL A   1      31.724  22.982  24.086  1.00  0.00     0.229 C 
ATOM     13  N   UNL A   1      30.812  23.752  23.449  1.00  0.00    -0.317 N 
ATOM     14  H   UNL A   1      30.021  23.235  23.169  1.00  0.00     0.170 HD
ATOM     15  O   UNL A   1      31.470  21.790  24.273  1.00  0.00    -0.274 OA
BRANCH  13  16
ATOM     16  C   UNL A   1      30.714  25.081  23.095  1.00  0.00     0.110 A 
ATOM     17  C   UNL A   1      31.325  26.105  22.359  1.00  0.00     0.098 A 
ATOM     18  C   UNL A   1      30.580  27.344  22.542  1.00  0.00    -0.017 A 
ATOM     19  S   UNL A   1      29.302  25.625  23.917  1.00  0.00    -0.122 S 
ATOM     20  C   UNL A   1      29.429  27.170  23.278  1.00  0.00     0.011 A 
ATOM     21  C   UNL A   1      30.925  28.685  21.954  1.00  0.00     0.038 C 
ATOM     22  C   UNL A   1      28.392  28.207  23.560  1.00  0.00     0.047 C 
ATOM     23  C   UNL A   1      30.103  29.809  22.604  1.00  0.00     0.005 C 
ATOM     24  C   UNL A   1      28.616  29.440  22.678  1.00  0.00     0.006 C 
BRANCH  17  25
ATOM     25  C   UNL A   1      32.495  26.096  21.465  1.00  0.00     0.341 C 
ATOM     26  O   UNL A   1      32.460  25.541  20.360  1.00  0.00    -0.246 OA
BRANCH  25  27
ATOM     27  O   UNL A   1      33.572  26.830  21.910  1.00  0.00    -0.462 OA
BRANCH  27  28
ATOM     28  C   UNL A   1      33.900  26.703  23.321  1.00  0.00     0.233 C 
BRANCH  28  29
ATOM     29  C   UNL A   1      34.237  28.052  23.994  1.00  0.00     0.038 C 
ATOM     30  C   UNL A   1      33.984  29.310  23.165  1.00  0.00     0.007 C 
ENDBRANCH  28  29
ENDBRANCH  27  28
ENDBRANCH  25  27
ENDBRANCH  17  25
ENDBRANCH  13  16
ENDBRANCH   7  12
ENDBRANCH   3   6
ENDBRANCH   1   2
BRANCH   1  31
ATOM     31  C   UNL A   1      32.005  27.804  27.533  1.00  0.00     0.023 C 
BRANCH  31  32
ATOM     32  C   UNL A   1      31.392  29.179  27.215  1.00  0.00     0.023 C 
BRANCH  32  33
ATOM     33  C   UNL A   1      32.256  30.174  26.428  1.00  0.00     0.116 C 
BRANCH  33  34
ATOM     34  N   UNL A   1      32.112  31.572  26.822  1.00  0.00    -0.352 N 
ATOM     35  C   UNL A   1      33.003  32.420  27.455  1.00  0.00     0.251 C 
ATOM     36  H   UNL A   1      31.242  31.976  26.603  1.00  0.00     0.163 HD
ATOM     37  O   UNL A   1      32.649  33.567  27.722  1.00  0.00    -0.269 OA
BRANCH  35  38
ATOM     38  C   UNL A   1      34.357  31.954  27.862  1.00  0.00     0.039 A 
ATOM     39  C   UNL A   1      35.406  32.881  27.920  1.00  0.00     0.014 A 
ATOM     40  C   UNL A   1      34.606  30.623  28.199  1.00  0.00     0.014 A 
ATOM     41  C   UNL A   1      36.654  32.504  28.439  1.00  0.00     0.010 A 
ATOM     42  C   UNL A   1      35.828  30.264  28.780  1.00  0.00     0.010 A 
ATOM     43  C   UNL A   1      36.856  31.208  28.941  1.00  0.00    -0.014 A 
BRANCH  43  44
ATOM     44  C   UNL A   1      38.094  30.830  29.688  1.00  0.00     0.031 A 
ATOM     45  C   UNL A   1      39.069  29.837  29.107  1.00  0.00     0.074 A 
ATOM     46  C   UNL A   1      38.291  31.292  30.942  1.00  0.00     0.049 A 
ATOM     47  N   UNL A   1      40.095  29.253  29.673  1.00  0.00    -0.248 NA
ATOM     48  C   UNL A   1      38.838  29.431  27.714  1.00  0.00     0.031 C 
ATOM     49  C   UNL A   1      37.417  32.236  31.641  1.00  0.00     0.029 A 
ATOM     50  N   UNL A   1      39.272  31.011  31.865  1.00  0.00    -0.354 N 
ATOM     51  C   UNL A   1      40.620  28.390  28.715  1.00  0.00     0.074 A 
ATOM     52  C   UNL A   1      39.768  28.502  27.548  1.00  0.00     0.031 C 
ATOM     53  C   UNL A   1      37.903  32.460  32.872  1.00  0.00     0.029 A 
ATOM     54  C   UNL A   1      39.089  31.635  33.079  1.00  0.00     0.049 A 
ATOM     55  H   UNL A   1      40.035  30.419  31.674  1.00  0.00     0.167 HD
ATOM     56  C   UNL A   1      41.714  27.590  28.796  1.00  0.00     0.034 A 
ATOM     57  C   UNL A   1      39.773  31.538  34.238  1.00  0.00     0.034 A 
ATOM     58  C   UNL A   1      42.568  27.499  29.957  1.00  0.00     0.049 A 
ATOM     59  C   UNL A   1      40.970  30.621  34.314  1.00  0.00     0.074 A 
ATOM     60  C   UNL A   1      43.727  26.757  30.118  1.00  0.00     0.029 A 
ATOM     61  N   UNL A   1      42.358  28.165  31.157  1.00  0.00    -0.354 N 
ATOM     62  N   UNL A   1      41.467  29.835  33.387  1.00  0.00    -0.248 NA
ATOM     63  C   UNL A   1      41.704  30.583  35.587  1.00  0.00     0.031 C 
ATOM     64  C   UNL A   1      44.181  26.924  31.430  1.00  0.00     0.029 A 
ATOM     65  C   UNL A   1      43.352  27.832  32.067  1.00  0.00     0.049 A 
ATOM     66  H   UNL A   1      41.615  28.785  31.336  1.00  0.00     0.167 HD
ATOM     67  C   UNL A   1      42.594  29.245  33.954  1.00  0.00     0.074 A 
ATOM     68  C   UNL A   1      42.705  29.766  35.299  1.00  0.00     0.031 C 
ATOM     69  C   UNL A   1      43.463  28.361  33.405  1.00  0.00     0.034 A 
BRANCH  56  70
ATOM     70  C   UNL A   1      42.035  26.724  27.601  1.00  0.00     0.023 A 
ATOM     71  C   UNL A   1      41.675  25.367  27.553  1.00  0.00     0.031 A 
ATOM     72  C   UNL A   1      42.718  27.261  26.495  1.00  0.00     0.131 A 
ATOM     73  C   UNL A   1      42.061  24.577  26.460  1.00  0.00     0.055 A 
ATOM     74  C   UNL A   1      43.028  26.489  25.373  1.00  0.00     0.041 A 
ATOM     75  F   UNL A   1      43.105  28.547  26.489  1.00  0.00    -0.206 F 
ATOM     76  C   UNL A   1      42.712  25.134  25.358  1.00  0.00     0.022 A 
BRANCH  73  77
ATOM     77  S   UNL A   1      41.820  22.782  26.562  1.00  0.00     0.124 S 
ATOM     78  O   UNL A   1      42.263  22.351  25.238  1.00  0.00    -0.237 OA
ATOM     79  O   UNL A   1      42.684  22.410  27.677  1.00  0.00    -0.237 OA
ATOM     80  O   UNL A   1      40.387  22.642  26.807  1.00  0.00    -0.744 OA
ENDBRANCH  73  77
ENDBRANCH  56  70
BRANCH  57  81
ATOM     81  C   UNL A   1      39.338  32.305  35.443  1.00  0.00     0.023 A 
ATOM     82  C   UNL A   1      38.653  31.673  36.493  1.00  0.00     0.031 A 
ATOM     83  C   UNL A   1      39.551  33.691  35.536  1.00  0.00     0.131 A 
ATOM     84  C   UNL A   1      38.158  32.434  37.563  1.00  0.00     0.055 A 
ATOM     85  C   UNL A   1      39.106  34.435  36.631  1.00  0.00     0.041 A 
ATOM     86  F   UNL A   1      40.203  34.346  34.561  1.00  0.00    -0.206 F 
ATOM     87  C   UNL A   1      38.391  33.808  37.647  1.00  0.00     0.022 A 
BRANCH  84  88
ATOM     88  S   UNL A   1      37.115  31.613  38.801  1.00  0.00     0.124 S 
ATOM     89  O   UNL A   1      35.917  32.445  38.778  1.00  0.00    -0.237 OA
ATOM     90  O   UNL A   1      36.978  30.273  38.240  1.00  0.00    -0.237 OA
ATOM     91  O   UNL A   1      37.910  31.696  40.025  1.00  0.00    -0.744 OA
ENDBRANCH  84  88
ENDBRANCH  57  81
BRANCH  69  92
ATOM     92  C   UNL A   1      44.659  27.958  34.233  1.00  0.00     0.023 A 
ATOM     93  C   UNL A   1      44.632  26.855  35.104  1.00  0.00     0.031 A 
ATOM     94  C   UNL A   1      45.855  28.694  34.137  1.00  0.00     0.131 A 
ATOM     95  C   UNL A   1      45.763  26.545  35.876  1.00  0.00     0.055 A 
ATOM     96  C   UNL A   1      46.993  28.350  34.867  1.00  0.00     0.041 A 
ATOM     97  F   UNL A   1      45.937  29.759  33.323  1.00  0.00    -0.206 F 
ATOM     98  C   UNL A   1      46.948  27.276  35.750  1.00  0.00     0.022 A 
BRANCH  95  99
ATOM     99  S   UNL A   1      45.649  25.212  37.100  1.00  0.00     0.124 S 
ATOM    100  O   UNL A   1      44.235  25.249  37.460  1.00  0.00    -0.237 OA
ATOM    101  O   UNL A   1      46.081  24.047  36.335  1.00  0.00    -0.237 OA
ATOM    102  O   UNL A   1      46.570  25.633  38.155  1.00  0.00    -0.744 OA
ENDBRANCH  95  99
ENDBRANCH  69  92
ENDBRANCH  43  44
ENDBRANCH  35  38
ENDBRANCH  33  34
ENDBRANCH  32  33
ENDBRANCH  31  32
ENDBRANCH   1  31
TORSDOF 20
ENDMDL
MODEL 2
REMARK VINA RESULT:     -11.7      0.695      7.173
REMARK SMILES CCCOC(=O)c1c(NC(=O)[C@@H]2CC=CC[C@H]2C(=O)NCCCCNC(=O)c2ccc(-c3c4nc(c(-c5cc(S(=O)(=O)[O-])ccc5F)c5ccc([nH]5)c(-c5cc(S(=O)(=O)[O-])ccc5F)c5nc(c(-c6cc(S(=O)(=O)[O-])ccc6F)c6ccc3[nH]6)C=C5)C=C4)cc2)sc2c1CCCC2
REMARK SMILES IDX 21 1 20 2 18 3 19 4 17 6 12 7 13 8 14 9 16 10 15 11 10 12
REMARK SMILES IDX 9 13 11 15 8 16 7 17 93 18 91 19 92 20 94 21 97 22 95 23
REMARK SMILES IDX 96 24 5 25 6 26 4 27 3 28 2 29 1 30 22 31 23 32 24 33 25 34
REMARK SMILES IDX 26 35 27 37 28 38 29 39 90 40 30 41 89 42 31 43 32 44 33 45
REMARK SMILES IDX 83 46 34 47 88 48 82 49 84 50 35 51 87 52 81 53 80 54 36 56
REMARK SMILES IDX 68 57 48 58 67 59 49 60 52 61 66 62 85 63 50 64 51 65 65 67
REMARK SMILES IDX 86 68 53 69 37 70 38 71 46 72 39 73 45 74 47 75 44 76 40 77
REMARK SMILES IDX 41 78 42 79 43 80 69 81 70 82 78 83 71 84 77 85 79 86 76 87
REMARK SMILES IDX 72 88 73 89 74 90 75 91 54 92 55 93 63 94 56 95 62 96 64 97
REMARK SMILES IDX 61 98 57 99 58 100 59 101 60 102
REMARK H PARENT 20 5 9 14 25 36 84 55 52 66
REMARK Flexibility Score: inf
ROOT
ATOM      1  C   UNL A   1      32.185  26.687  26.506  1.00  0.00     0.116 C 
ENDROOT
BRANCH   1   2
ATOM      2  N   UNL A   1      31.560  25.401  26.753  1.00  0.00    -0.356 N 
ATOM      3  C   UNL A   1      32.104  24.148  26.810  1.00  0.00     0.224 C 
ATOM      4  O   UNL A   1      31.574  23.370  27.616  1.00  0.00    -0.275 OA
ATOM      5  H   UNL A   1      30.587  25.437  26.902  1.00  0.00     0.163 HD
BRANCH   3   6
ATOM      6  C   UNL A   1      33.299  23.632  25.975  1.00  0.00     0.095 C 
ATOM      7  C   UNL A   1      33.089  23.401  24.486  1.00  0.00     0.095 C 
ATOM      8  C   UNL A   1      34.193  22.497  23.915  1.00  0.00     0.041 C 
ATOM      9  C   UNL A   1      35.549  23.039  24.259  1.00  0.00    -0.030 C 
ATOM     10  C   UNL A   1      34.600  24.438  26.118  1.00  0.00     0.041 C 
ATOM     11  C   UNL A   1      35.728  23.936  25.242  1.00  0.00    -0.030 C 
BRANCH   7  12
ATOM     12  C   UNL A   1      31.764  22.841  24.130  1.00  0.00     0.229 C 
ATOM     13  N   UNL A   1      30.859  23.617  23.490  1.00  0.00    -0.317 N 
ATOM     14  H   UNL A   1      30.062  23.108  23.215  1.00  0.00     0.170 HD
ATOM     15  O   UNL A   1      31.497  21.653  24.324  1.00  0.00    -0.274 OA
BRANCH  13  16
ATOM     16  C   UNL A   1      30.776  24.946  23.128  1.00  0.00     0.110 A 
ATOM     17  C   UNL A   1      31.360  25.941  22.333  1.00  0.00     0.098 A 
ATOM     18  C   UNL A   1      30.670  27.205  22.559  1.00  0.00    -0.017 A 
ATOM     19  S   UNL A   1      29.451  25.544  24.051  1.00  0.00    -0.122 S 
ATOM     20  C   UNL A   1      29.576  27.076  23.385  1.00  0.00     0.011 A 
ATOM     21  C   UNL A   1      31.010  28.529  21.928  1.00  0.00     0.038 C 
ATOM     22  C   UNL A   1      28.597  28.150  23.734  1.00  0.00     0.047 C 
ATOM     23  C   UNL A   1      30.278  29.686  22.626  1.00  0.00     0.005 C 
ATOM     24  C   UNL A   1      28.790  29.366  22.821  1.00  0.00     0.006 C 
BRANCH  17  25
ATOM     25  C   UNL A   1      32.454  25.885  21.351  1.00  0.00     0.341 C 
ATOM     26  O   UNL A   1      32.249  25.580  20.170  1.00  0.00    -0.246 OA
BRANCH  25  27
ATOM     27  O   UNL A   1      33.681  26.293  21.824  1.00  0.00    -0.462 OA
BRANCH  27  28
ATOM     28  C   UNL A   1      33.808  26.413  23.267  1.00  0.00     0.233 C 
BRANCH  28  29
ATOM     29  C   UNL A   1      34.331  27.793  23.723  1.00  0.00     0.038 C 
ATOM     30  C   UNL A   1      34.132  28.953  22.750  1.00  0.00     0.007 C 
ENDBRANCH  28  29
ENDBRANCH  27  28
ENDBRANCH  25  27
ENDBRANCH  17  25
ENDBRANCH  13  16
ENDBRANCH   7  12
ENDBRANCH   3   6
ENDBRANCH   1   2
BRANCH   1  31
ATOM     31  C   UNL A   1      31.408  27.933  26.959  1.00  0.00     0.023 C 
BRANCH  31  32
ATOM     32  C   UNL A   1      31.403  29.125  25.987  1.00  0.00     0.023 C 
BRANCH  32  33
ATOM     33  C   UNL A   1      32.673  29.984  25.913  1.00  0.00     0.116 C 
BRANCH  33  34
ATOM     34  N   UNL A   1      32.559  31.317  26.496  1.00  0.00    -0.352 N 
ATOM     35  C   UNL A   1      33.405  31.995  27.355  1.00  0.00     0.251 C 
ATOM     36  H   UNL A   1      31.749  31.814  26.237  1.00  0.00     0.163 HD
ATOM     37  O   UNL A   1      33.085  33.115  27.749  1.00  0.00    -0.269 OA
BRANCH  35  38
ATOM     38  C   UNL A   1      34.665  31.373  27.847  1.00  0.00     0.039 A 
ATOM     39  C   UNL A   1      35.789  32.184  28.049  1.00  0.00     0.014 A 
ATOM     40  C   UNL A   1      34.752  30.009  28.126  1.00  0.00     0.014 A 
ATOM     41  C   UNL A   1      36.942  31.657  28.650  1.00  0.00     0.010 A 
ATOM     42  C   UNL A   1      35.876  29.499  28.786  1.00  0.00     0.010 A 
ATOM     43  C   UNL A   1      36.972  30.324  29.090  1.00  0.00    -0.014 A 
BRANCH  43  44
ATOM     44  C   UNL A   1      38.094  29.784  29.916  1.00  0.00     0.031 A 
ATOM     45  C   UNL A   1      38.318  30.276  31.323  1.00  0.00     0.074 A 
ATOM     46  C   UNL A   1      38.986  28.932  29.364  1.00  0.00     0.049 A 
ATOM     47  N   UNL A   1      39.331  30.063  32.126  1.00  0.00    -0.248 NA
ATOM     48  C   UNL A   1      37.274  31.141  31.888  1.00  0.00     0.031 C 
ATOM     49  C   UNL A   1      38.910  28.393  28.005  1.00  0.00     0.029 A 
ATOM     50  N   UNL A   1      40.146  28.388  29.867  1.00  0.00    -0.354 N 
ATOM     51  C   UNL A   1      39.061  30.789  33.282  1.00  0.00     0.074 A 
ATOM     52  C   UNL A   1      37.807  31.478  33.054  1.00  0.00     0.031 C 
ATOM     53  C   UNL A   1      39.968  27.595  27.786  1.00  0.00     0.029 A 
ATOM     54  C   UNL A   1      40.831  27.607  28.962  1.00  0.00     0.049 A 
ATOM     55  H   UNL A   1      40.457  28.543  30.788  1.00  0.00     0.167 HD
ATOM     56  C   UNL A   1      39.783  30.865  34.429  1.00  0.00     0.034 A 
ATOM     57  C   UNL A   1      42.029  26.992  29.051  1.00  0.00     0.034 A 
ATOM     58  C   UNL A   1      41.023  30.159  34.656  1.00  0.00     0.049 A 
ATOM     59  C   UNL A   1      42.828  27.112  30.326  1.00  0.00     0.074 A 
ATOM     60  C   UNL A   1      41.801  30.131  35.801  1.00  0.00     0.029 A 
ATOM     61  N   UNL A   1      41.670  29.361  33.721  1.00  0.00    -0.354 N 
ATOM     62  N   UNL A   1      42.541  27.781  31.419  1.00  0.00    -0.248 NA
ATOM     63  C   UNL A   1      44.107  26.390  30.384  1.00  0.00     0.031 C 
ATOM     64  C   UNL A   1      42.946  29.371  35.540  1.00  0.00     0.029 A 
ATOM     65  C   UNL A   1      42.847  28.859  34.257  1.00  0.00     0.049 A 
ATOM     66  H   UNL A   1      41.341  29.178  32.811  1.00  0.00     0.167 HD
ATOM     67  C   UNL A   1      43.583  27.522  32.306  1.00  0.00     0.074 A 
ATOM     68  C   UNL A   1      44.502  26.637  31.624  1.00  0.00     0.031 C 
ATOM     69  C   UNL A   1      43.756  27.969  33.575  1.00  0.00     0.034 A 
BRANCH  56  70
ATOM     70  C   UNL A   1      39.263  31.767  35.523  1.00  0.00     0.023 A 
ATOM     71  C   UNL A   1      38.614  31.255  36.659  1.00  0.00     0.031 A 
ATOM     72  C   UNL A   1      39.413  33.162  35.426  1.00  0.00     0.131 A 
ATOM     73  C   UNL A   1      38.076  32.131  37.614  1.00  0.00     0.055 A 
ATOM     74  C   UNL A   1      38.947  34.025  36.420  1.00  0.00     0.041 A 
ATOM     75  F   UNL A   1      40.008  33.713  34.355  1.00  0.00    -0.206 F 
ATOM     76  C   UNL A   1      38.261  33.511  37.516  1.00  0.00     0.022 A 
BRANCH  73  77
ATOM     77  S   UNL A   1      37.013  31.445  38.913  1.00  0.00     0.124 S 
ATOM     78  O   UNL A   1      36.800  30.083  38.431  1.00  0.00    -0.237 OA
ATOM     79  O   UNL A   1      37.844  31.579  40.105  1.00  0.00    -0.237 OA
ATOM     80  O   UNL A   1      35.831  32.303  38.876  1.00  0.00    -0.744 OA
ENDBRANCH  73  77
ENDBRANCH  56  70
BRANCH  57  81
ATOM     81  C   UNL A   1      42.576  26.224  27.893  1.00  0.00     0.023 A 
ATOM     82  C   UNL A   1      42.312  24.853  27.746  1.00  0.00     0.031 A 
ATOM     83  C   UNL A   1      43.417  26.837  26.948  1.00  0.00     0.131 A 
ATOM     84  C   UNL A   1      42.925  24.129  26.713  1.00  0.00     0.055 A 
ATOM     85  C   UNL A   1      43.980  26.124  25.887  1.00  0.00     0.041 A 
ATOM     86  F   UNL A   1      43.701  28.147  27.039  1.00  0.00    -0.206 F 
ATOM     87  C   UNL A   1      43.747  24.757  25.774  1.00  0.00     0.022 A 
BRANCH  84  88
ATOM     88  S   UNL A   1      42.711  22.327  26.671  1.00  0.00     0.124 S 
ATOM     89  O   UNL A   1      41.494  22.192  25.881  1.00  0.00    -0.237 OA
ATOM     90  O   UNL A   1      43.947  21.892  26.029  1.00  0.00    -0.237 OA
ATOM     91  O   UNL A   1      42.583  21.968  28.083  1.00  0.00    -0.744 OA
ENDBRANCH  84  88
ENDBRANCH  57  81
BRANCH  69  92
ATOM     92  C   UNL A   1      44.948  27.446  34.339  1.00  0.00     0.023 A 
ATOM     93  C   UNL A   1      44.903  26.244  35.067  1.00  0.00     0.031 A 
ATOM     94  C   UNL A   1      46.156  28.168  34.329  1.00  0.00     0.131 A 
ATOM     95  C   UNL A   1      46.032  25.822  35.788  1.00  0.00     0.055 A 
ATOM     96  C   UNL A   1      47.290  27.716  35.004  1.00  0.00     0.041 A 
ATOM     97  F   UNL A   1      46.254  29.324  33.652  1.00  0.00    -0.206 F 
ATOM     98  C   UNL A   1      47.229  26.541  35.748  1.00  0.00     0.022 A 
BRANCH  95  99
ATOM     99  S   UNL A   1      45.898  24.349  36.839  1.00  0.00     0.124 S 
ATOM    100  O   UNL A   1      46.940  23.487  36.288  1.00  0.00    -0.237 OA
ATOM    101  O   UNL A   1      46.156  24.889  38.169  1.00  0.00    -0.237 OA
ATOM    102  O   UNL A   1      44.529  23.888  36.614  1.00  0.00    -0.744 OA
ENDBRANCH  95  99
ENDBRANCH  69  92
ENDBRANCH  43  44
ENDBRANCH  35  38
ENDBRANCH  33  34
ENDBRANCH  32  33
ENDBRANCH  31  32
ENDBRANCH   1  31
TORSDOF 20
ENDMDL
MODEL 3
REMARK VINA RESULT:     -11.6      2.361      4.286
REMARK SMILES CCCOC(=O)c1c(NC(=O)[C@@H]2CC=CC[C@H]2C(=O)NCCCCNC(=O)c2ccc(-c3c4nc(c(-c5cc(S(=O)(=O)[O-])ccc5F)c5ccc([nH]5)c(-c5cc(S(=O)(=O)[O-])ccc5F)c5nc(c(-c6cc(S(=O)(=O)[O-])ccc6F)c6ccc3[nH]6)C=C5)C=C4)cc2)sc2c1CCCC2
REMARK SMILES IDX 21 1 20 2 18 3 19 4 17 6 12 7 13 8 14 9 16 10 15 11 10 12
REMARK SMILES IDX 9 13 11 15 8 16 7 17 93 18 91 19 92 20 94 21 97 22 95 23
REMARK SMILES IDX 96 24 5 25 6 26 4 27 3 28 2 29 1 30 22 31 23 32 24 33 25 34
REMARK SMILES IDX 26 35 27 37 28 38 29 39 90 40 30 41 89 42 31 43 32 44 33 45
REMARK SMILES IDX 83 46 34 47 88 48 82 49 84 50 35 51 87 52 81 53 80 54 36 56
REMARK SMILES IDX 68 57 48 58 67 59 49 60 52 61 66 62 85 63 50 64 51 65 65 67
REMARK SMILES IDX 86 68 53 69 37 70 38 71 46 72 39 73 45 74 47 75 44 76 40 77
REMARK SMILES IDX 41 78 42 79 43 80 69 81 70 82 78 83 71 84 77 85 79 86 76 87
REMARK SMILES IDX 72 88 73 89 74 90 75 91 54 92 55 93 63 94 56 95 62 96 64 97
REMARK SMILES IDX 61 98 57 99 58 100 59 101 60 102
REMARK H PARENT 20 5 9 14 25 36 84 55 52 66
REMARK Flexibility Score: inf
ROOT
ATOM      1  C   UNL A   1      33.668  29.268  26.338  1.00  0.00     0.116 C 
ENDROOT
BRANCH   1   2
ATOM      2  N   UNL A   1      33.950  27.860  26.538  1.00  0.00    -0.356 N 
ATOM      3  C   UNL A   1      33.537  26.764  25.831  1.00  0.00     0.224 C 
ATOM      4  O   UNL A   1      34.350  25.832  25.765  1.00  0.00    -0.275 OA
ATOM      5  H   UNL A   1      34.532  27.660  27.306  1.00  0.00     0.163 HD
BRANCH   3   6
ATOM      6  C   UNL A   1      32.173  26.595  25.122  1.00  0.00     0.095 C 
ATOM      7  C   UNL A   1      32.099  25.672  23.915  1.00  0.00     0.095 C 
ATOM      8  C   UNL A   1      30.835  25.955  23.090  1.00  0.00     0.041 C 
ATOM      9  C   UNL A   1      29.614  25.910  23.963  1.00  0.00    -0.030 C 
ATOM     10  C   UNL A   1      30.998  26.219  26.039  1.00  0.00     0.041 C 
ATOM     11  C   UNL A   1      29.692  26.006  25.300  1.00  0.00    -0.030 C 
BRANCH   7  12
ATOM     12  C   UNL A   1      33.285  25.723  23.027  1.00  0.00     0.229 C 
ATOM     13  N   UNL A   1      34.034  24.611  22.846  1.00  0.00    -0.317 N 
ATOM     14  H   UNL A   1      34.727  24.739  22.158  1.00  0.00     0.170 HD
ATOM     15  O   UNL A   1      33.556  26.735  22.377  1.00  0.00    -0.274 OA
BRANCH  13  16
ATOM     16  C   UNL A   1      34.068  23.342  23.386  1.00  0.00     0.110 A 
ATOM     17  C   UNL A   1      34.725  22.523  24.314  1.00  0.00     0.098 A 
ATOM     18  C   UNL A   1      34.162  21.180  24.258  1.00  0.00    -0.017 A 
ATOM     19  S   UNL A   1      32.824  22.500  22.543  1.00  0.00    -0.122 S 
ATOM     20  C   UNL A   1      33.078  21.091  23.414  1.00  0.00     0.011 A 
ATOM     21  C   UNL A   1      34.611  19.993  25.066  1.00  0.00     0.038 C 
ATOM     22  C   UNL A   1      32.211  19.891  23.207  1.00  0.00     0.047 C 
ATOM     23  C   UNL A   1      34.005  18.687  24.528  1.00  0.00     0.005 C 
ATOM     24  C   UNL A   1      32.498  18.835  24.279  1.00  0.00     0.006 C 
BRANCH  17  25
ATOM     25  C   UNL A   1      35.789  22.816  25.288  1.00  0.00     0.341 C 
ATOM     26  O   UNL A   1      35.535  23.032  26.479  1.00  0.00    -0.246 OA
BRANCH  25  27
ATOM     27  O   UNL A   1      37.071  22.729  24.792  1.00  0.00    -0.462 OA
BRANCH  27  28
ATOM     28  C   UNL A   1      37.950  21.771  25.442  1.00  0.00     0.233 C 
BRANCH  28  29
ATOM     29  C   UNL A   1      39.108  22.433  26.221  1.00  0.00     0.038 C 
ATOM     30  C   UNL A   1      40.305  21.543  26.551  1.00  0.00     0.007 C 
ENDBRANCH  28  29
ENDBRANCH  27  28
ENDBRANCH  25  27
ENDBRANCH  17  25
ENDBRANCH  13  16
ENDBRANCH   7  12
ENDBRANCH   3   6
ENDBRANCH   1   2
BRANCH   1  31
ATOM     31  C   UNL A   1      32.303  29.777  26.827  1.00  0.00     0.023 C 
BRANCH  31  32
ATOM     32  C   UNL A   1      32.074  31.296  26.754  1.00  0.00     0.023 C 
BRANCH  32  33
ATOM     33  C   UNL A   1      33.137  32.204  27.388  1.00  0.00     0.116 C 
BRANCH  33  34
ATOM     34  N   UNL A   1      32.702  33.566  27.678  1.00  0.00    -0.352 N 
ATOM     35  C   UNL A   1      33.226  34.509  28.544  1.00  0.00     0.251 C 
ATOM     36  H   UNL A   1      31.907  33.862  27.178  1.00  0.00     0.163 HD
ATOM     37  O   UNL A   1      32.665  35.598  28.652  1.00  0.00    -0.269 OA
BRANCH  35  38
ATOM     38  C   UNL A   1      34.420  34.209  29.380  1.00  0.00     0.039 A 
ATOM     39  C   UNL A   1      34.249  33.518  30.587  1.00  0.00     0.014 A 
ATOM     40  C   UNL A   1      35.705  34.587  28.989  1.00  0.00     0.014 A 
ATOM     41  C   UNL A   1      35.366  33.093  31.322  1.00  0.00     0.010 A 
ATOM     42  C   UNL A   1      36.819  34.105  29.686  1.00  0.00     0.010 A 
ATOM     43  C   UNL A   1      36.665  33.322  30.842  1.00  0.00    -0.014 A 
BRANCH  43  44
ATOM     44  C   UNL A   1      37.869  32.709  31.483  1.00  0.00     0.031 A 
ATOM     45  C   UNL A   1      38.574  31.545  30.836  1.00  0.00     0.074 A 
ATOM     46  C   UNL A   1      38.264  33.124  32.706  1.00  0.00     0.049 A 
ATOM     47  N   UNL A   1      39.515  30.771  31.319  1.00  0.00    -0.248 NA
ATOM     48  C   UNL A   1      38.144  31.191  29.477  1.00  0.00     0.031 C 
ATOM     49  C   UNL A   1      37.658  34.222  33.463  1.00  0.00     0.029 A 
ATOM     50  N   UNL A   1      39.252  32.658  33.543  1.00  0.00    -0.354 N 
ATOM     51  C   UNL A   1      39.773  29.822  30.334  1.00  0.00     0.074 A 
ATOM     52  C   UNL A   1      38.857  30.098  29.245  1.00  0.00     0.031 C 
ATOM     53  C   UNL A   1      38.288  34.347  34.642  1.00  0.00     0.029 A 
ATOM     54  C   UNL A   1      39.304  33.306  34.757  1.00  0.00     0.049 A 
ATOM     55  H   UNL A   1      39.865  31.928  33.297  1.00  0.00     0.167 HD
ATOM     56  C   UNL A   1      40.692  28.824  30.332  1.00  0.00     0.034 A 
ATOM     57  C   UNL A   1      40.058  33.077  35.852  1.00  0.00     0.034 A 
ATOM     58  C   UNL A   1      41.615  28.568  31.414  1.00  0.00     0.049 A 
ATOM     59  C   UNL A   1      41.056  31.944  35.838  1.00  0.00     0.074 A 
ATOM     60  C   UNL A   1      42.616  27.614  31.485  1.00  0.00     0.029 A 
ATOM     61  N   UNL A   1      41.648  29.263  32.616  1.00  0.00    -0.354 N 
ATOM     62  N   UNL A   1      41.304  31.075  34.885  1.00  0.00    -0.248 NA
ATOM     63  C   UNL A   1      41.881  31.765  37.042  1.00  0.00     0.031 C 
ATOM     64  C   UNL A   1      43.211  27.689  32.748  1.00  0.00     0.029 A 
ATOM     65  C   UNL A   1      42.636  28.742  33.440  1.00  0.00     0.049 A 
ATOM     66  H   UNL A   1      41.059  30.016  32.849  1.00  0.00     0.167 HD
ATOM     67  C   UNL A   1      42.342  30.278  35.361  1.00  0.00     0.074 A 
ATOM     68  C   UNL A   1      42.674  30.767  36.681  1.00  0.00     0.031 C 
ATOM     69  C   UNL A   1      42.969  29.240  34.753  1.00  0.00     0.034 A 
BRANCH  56  70
ATOM     70  C   UNL A   1      40.729  27.911  29.129  1.00  0.00     0.023 A 
ATOM     71  C   UNL A   1      41.677  28.074  28.106  1.00  0.00     0.031 A 
ATOM     72  C   UNL A   1      39.797  26.865  29.001  1.00  0.00     0.131 A 
ATOM     73  C   UNL A   1      41.628  27.255  26.968  1.00  0.00     0.055 A 
ATOM     74  C   UNL A   1      39.805  26.001  27.904  1.00  0.00     0.041 A 
ATOM     75  F   UNL A   1      38.855  26.670  29.938  1.00  0.00    -0.206 F 
ATOM     76  C   UNL A   1      40.716  26.203  26.871  1.00  0.00     0.022 A 
BRANCH  73  77
ATOM     77  S   UNL A   1      42.686  27.673  25.555  1.00  0.00     0.124 S 
ATOM     78  O   UNL A   1      42.001  28.844  25.011  1.00  0.00    -0.237 OA
ATOM     79  O   UNL A   1      43.975  27.924  26.188  1.00  0.00    -0.237 OA
ATOM     80  O   UNL A   1      42.623  26.479  24.715  1.00  0.00    -0.744 OA
ENDBRANCH  73  77
ENDBRANCH  56  70
BRANCH  57  81
ATOM     81  C   UNL A   1      39.892  33.915  37.077  1.00  0.00     0.023 A 
ATOM     82  C   UNL A   1      39.246  33.409  38.217  1.00  0.00     0.031 A 
ATOM     83  C   UNL A   1      40.326  35.252  37.106  1.00  0.00     0.131 A 
ATOM     84  C   UNL A   1      39.004  34.249  39.314  1.00  0.00     0.055 A 
ATOM     85  C   UNL A   1      40.134  36.067  38.223  1.00  0.00     0.041 A 
ATOM     86  F   UNL A   1      40.953  35.786  36.045  1.00  0.00    -0.206 F 
ATOM     87  C   UNL A   1      39.455  35.570  39.332  1.00  0.00     0.022 A 
BRANCH  84  88
ATOM     88  S   UNL A   1      37.999  33.614  40.686  1.00  0.00     0.124 S 
ATOM     89  O   UNL A   1      38.810  32.496  41.154  1.00  0.00    -0.237 OA
ATOM     90  O   UNL A   1      37.929  34.773  41.570  1.00  0.00    -0.237 OA
ATOM     91  O   UNL A   1      36.739  33.246  40.042  1.00  0.00    -0.744 OA
ENDBRANCH  84  88
ENDBRANCH  57  81
BRANCH  69  92
ATOM     92  C   UNL A   1      44.134  28.611  35.478  1.00  0.00     0.023 A 
ATOM     93  C   UNL A   1      43.961  27.609  36.449  1.00  0.00     0.031 A 
ATOM     94  C   UNL A   1      45.446  29.024  35.182  1.00  0.00     0.131 A 
ATOM     95  C   UNL A   1      45.078  27.083  37.117  1.00  0.00     0.055 A 
ATOM     96  C   UNL A   1      46.556  28.460  35.811  1.00  0.00     0.041 A 
ATOM     97  F   UNL A   1      45.670  29.980  34.265  1.00  0.00    -0.206 F 
ATOM     98  C   UNL A   1      46.374  27.490  36.792  1.00  0.00     0.022 A 
BRANCH  95  99
ATOM     99  S   UNL A   1      44.814  25.902  38.468  1.00  0.00     0.124 S 
ATOM    100  O   UNL A   1      44.504  24.674  37.743  1.00  0.00    -0.237 OA
ATOM    101  O   UNL A   1      46.098  25.926  39.160  1.00  0.00    -0.237 OA
ATOM    102  O   UNL A   1      43.698  26.478  39.216  1.00  0.00    -0.744 OA
ENDBRANCH  95  99
ENDBRANCH  69  92
ENDBRANCH  43  44
ENDBRANCH  35  38
ENDBRANCH  33  34
ENDBRANCH  32  33
ENDBRANCH  31  32
ENDBRANCH   1  31
TORSDOF 20
ENDMDL
