MODEL 1
REMARK VINA RESULT:     -12.5      0.000      0.000
REMARK SMILES Cc1cc(F)cc(N[C@@](C)(C(=O)NCCCCNC(=O)c2ccc(-c3c4nc(c(-c5cc(S(=O)(=O)[O-])ccc5F)c5ccc([nH]5)c(-c5cc(S(=O)(=O)[O-])ccc5F)c5nc(c(-c6cc(S(=O)(=O)[O-])ccc6F)c6ccc3[nH]6)C=C5)C=C4)cc2)c2ccc(O)cc2)c1
REMARK SMILES IDX 16 1 15 2 14 3 13 4 11 5 12 6 9 8 10 9 8 10 7 12 1 13 2 14
REMARK SMILES IDX 3 15 91 16 4 17 5 18 6 19 84 20 85 21 90 22 86 23 89 24
REMARK SMILES IDX 87 25 88 26 17 28 18 29 19 30 20 32 21 33 22 34 83 35 23 36
REMARK SMILES IDX 82 37 24 38 25 39 26 40 76 41 27 42 81 43 75 44 77 45 28 46
REMARK SMILES IDX 80 47 74 48 73 49 29 51 61 52 41 53 60 54 42 55 45 56 59 57
REMARK SMILES IDX 78 58 43 59 44 60 58 62 79 63 46 64 30 65 31 66 39 67 32 68
REMARK SMILES IDX 38 69 40 70 37 71 33 72 34 73 35 74 36 75 62 76 63 77 71 78
REMARK SMILES IDX 64 79 70 80 72 81 69 82 65 83 66 84 67 85 68 86 47 87 48 88
REMARK SMILES IDX 56 89 49 90 55 91 57 92 54 93 50 94 51 95 52 96 53 97
REMARK H PARENT 13 7 8 11 88 27 18 31 77 50 45 61
REMARK Flexibility Score: inf
ROOT
ATOM      1  C   UNL A   1      31.364  31.866  26.679  1.00  0.00     0.023 C 
ENDROOT
BRANCH   1   2
ATOM      2  C   UNL A   1      31.453  30.632  25.778  1.00  0.00     0.023 C 
BRANCH   2   3
ATOM      3  C   UNL A   1      32.765  29.853  25.862  1.00  0.00     0.116 C 
BRANCH   3   4
ATOM      4  N   UNL A   1      33.374  29.672  24.558  1.00  0.00    -0.354 N 
ATOM      5  C   UNL A   1      33.635  28.567  23.793  1.00  0.00     0.250 C 
ATOM      6  O   UNL A   1      34.347  28.800  22.806  1.00  0.00    -0.272 OA
ATOM      7  H   UNL A   1      33.656  30.516  24.137  1.00  0.00     0.163 HD
BRANCH   5   8
ATOM      8  C   UNL A   1      33.090  27.117  24.152  1.00  0.00     0.139 C 
ATOM      9  C   UNL A   1      33.478  26.740  25.605  1.00  0.00     0.051 C 
BRANCH   8  10
ATOM     10  N   UNL A   1      33.752  26.150  23.229  1.00  0.00    -0.368 N 
ATOM     11  H   UNL A   1      34.249  26.569  22.490  1.00  0.00     0.161 HD
BRANCH  10  12
ATOM     12  C   UNL A   1      33.788  24.767  23.230  1.00  0.00     0.038 A 
ATOM     13  C   UNL A   1      35.843  22.127  25.111  1.00  0.00     0.044 C 
ATOM     14  C   UNL A   1      34.779  22.753  24.261  1.00  0.00    -0.046 A 
ATOM     15  C   UNL A   1      33.732  21.982  23.761  1.00  0.00     0.042 A 
ATOM     16  C   UNL A   1      34.777  24.137  24.014  1.00  0.00     0.029 A 
ATOM     17  C   UNL A   1      32.784  22.576  22.942  1.00  0.00     0.125 A 
ATOM     18  F   UNL A   1      31.777  21.831  22.465  1.00  0.00    -0.207 F 
ATOM     19  C   UNL A   1      32.836  23.936  22.636  1.00  0.00     0.065 A 
ENDBRANCH  10  12
ENDBRANCH   8  10
BRANCH   8  20
ATOM     20  C   UNL A   1      31.537  26.987  24.172  1.00  0.00    -0.013 A 
ATOM     21  C   UNL A   1      30.892  26.159  25.116  1.00  0.00     0.010 A 
ATOM     22  C   UNL A   1      30.708  27.722  23.302  1.00  0.00     0.010 A 
ATOM     23  C   UNL A   1      29.512  25.942  25.074  1.00  0.00     0.046 A 
ATOM     24  C   UNL A   1      29.326  27.518  23.263  1.00  0.00     0.046 A 
ATOM     25  C   UNL A   1      28.745  26.600  24.126  1.00  0.00     0.115 A 
BRANCH  25  26
ATOM     26  O   UNL A   1      27.413  26.317  24.065  1.00  0.00    -0.508 OA
ATOM     27  H   UNL A   1      26.905  26.610  23.334  1.00  0.00     0.293 HD
ENDBRANCH  25  26
ENDBRANCH   8  20
ENDBRANCH   5   8
ENDBRANCH   3   4
ENDBRANCH   2   3
ENDBRANCH   1   2
BRANCH   1  28
ATOM     28  C   UNL A   1      32.691  32.543  27.011  1.00  0.00     0.116 C 
BRANCH  28  29
ATOM     29  N   UNL A   1      32.529  33.845  27.637  1.00  0.00    -0.352 N 
ATOM     30  C   UNL A   1      33.247  34.422  28.660  1.00  0.00     0.251 C 
ATOM     31  H   UNL A   1      31.796  34.395  27.277  1.00  0.00     0.163 HD
ATOM     32  O   UNL A   1      32.871  35.485  29.135  1.00  0.00    -0.269 OA
BRANCH  30  33
ATOM     33  C   UNL A   1      34.446  33.740  29.202  1.00  0.00     0.039 A 
ATOM     34  C   UNL A   1      35.692  34.356  29.058  1.00  0.00     0.014 A 
ATOM     35  C   UNL A   1      34.346  32.510  29.855  1.00  0.00     0.014 A 
ATOM     36  C   UNL A   1      36.825  33.776  29.637  1.00  0.00     0.010 A 
ATOM     37  C   UNL A   1      35.463  31.969  30.490  1.00  0.00     0.010 A 
ATOM     38  C   UNL A   1      36.714  32.599  30.395  1.00  0.00    -0.014 A 
BRANCH  38  39
ATOM     39  C   UNL A   1      37.887  32.018  31.103  1.00  0.00     0.031 A 
ATOM     40  C   UNL A   1      38.672  30.898  30.471  1.00  0.00     0.074 A 
ATOM     41  C   UNL A   1      38.192  32.440  32.347  1.00  0.00     0.049 A 
ATOM     42  N   UNL A   1      39.657  30.196  30.968  1.00  0.00    -0.248 NA
ATOM     43  C   UNL A   1      38.277  30.498  29.112  1.00  0.00     0.031 C 
ATOM     44  C   UNL A   1      37.476  33.483  33.086  1.00  0.00     0.029 A 
ATOM     45  N   UNL A   1      39.170  32.034  33.222  1.00  0.00    -0.354 N 
ATOM     46  C   UNL A   1      39.979  29.252  29.999  1.00  0.00     0.074 A 
ATOM     47  C   UNL A   1      39.059  29.449  28.900  1.00  0.00     0.031 C 
ATOM     48  C   UNL A   1      38.044  33.639  34.293  1.00  0.00     0.029 A 
ATOM     49  C   UNL A   1      39.134  32.680  34.438  1.00  0.00     0.049 A 
ATOM     50  H   UNL A   1      39.837  31.344  33.001  1.00  0.00     0.167 HD
ATOM     51  C   UNL A   1      40.961  28.318  30.021  1.00  0.00     0.034 A 
ATOM     52  C   UNL A   1      39.877  32.506  35.550  1.00  0.00     0.034 A 
ATOM     53  C   UNL A   1      41.897  28.159  31.107  1.00  0.00     0.049 A 
ATOM     54  C   UNL A   1      40.972  31.467  35.538  1.00  0.00     0.074 A 
ATOM     55  C   UNL A   1      42.986  27.310  31.185  1.00  0.00     0.029 A 
ATOM     56  N   UNL A   1      41.850  28.855  32.307  1.00  0.00    -0.354 N 
ATOM     57  N   UNL A   1      41.314  30.639  34.578  1.00  0.00    -0.248 NA
ATOM     58  C   UNL A   1      41.791  31.350  36.751  1.00  0.00     0.031 C 
ATOM     59  C   UNL A   1      43.556  27.441  32.455  1.00  0.00     0.029 A 
ATOM     60  C   UNL A   1      42.870  28.429  33.143  1.00  0.00     0.049 A 
ATOM     61  H   UNL A   1      41.189  29.549  32.532  1.00  0.00     0.167 HD
ATOM     62  C   UNL A   1      42.410  29.930  35.063  1.00  0.00     0.074 A 
ATOM     63  C   UNL A   1      42.682  30.439  36.390  1.00  0.00     0.031 C 
ATOM     64  C   UNL A   1      43.131  28.948  34.464  1.00  0.00     0.034 A 
BRANCH  51  65
ATOM     65  C   UNL A   1      41.062  27.372  28.848  1.00  0.00     0.023 A 
ATOM     66  C   UNL A   1      42.083  27.480  27.889  1.00  0.00     0.031 A 
ATOM     67  C   UNL A   1      40.128  26.330  28.703  1.00  0.00     0.131 A 
ATOM     68  C   UNL A   1      42.114  26.598  26.799  1.00  0.00     0.055 A 
ATOM     69  C   UNL A   1      40.207  25.411  27.655  1.00  0.00     0.041 A 
ATOM     70  F   UNL A   1      39.119  26.190  29.578  1.00  0.00    -0.206 F 
ATOM     71  C   UNL A   1      41.200  25.548  26.689  1.00  0.00     0.022 A 
BRANCH  68  72
ATOM     72  S   UNL A   1      43.307  26.904  25.467  1.00  0.00     0.124 S 
ATOM     73  O   UNL A   1      44.455  27.413  26.211  1.00  0.00    -0.237 OA
ATOM     74  O   UNL A   1      43.467  25.580  24.875  1.00  0.00    -0.237 OA
ATOM     75  O   UNL A   1      42.634  27.888  24.622  1.00  0.00    -0.744 OA
ENDBRANCH  68  72
ENDBRANCH  51  65
BRANCH  52  76
ATOM     76  C   UNL A   1      39.608  33.306  36.782  1.00  0.00     0.023 A 
ATOM     77  C   UNL A   1      38.886  32.762  37.856  1.00  0.00     0.031 A 
ATOM     78  C   UNL A   1      40.003  34.652  36.871  1.00  0.00     0.131 A 
ATOM     79  C   UNL A   1      38.523  33.575  38.941  1.00  0.00     0.055 A 
ATOM     80  C   UNL A   1      39.694  35.442  37.981  1.00  0.00     0.041 A 
ATOM     81  F   UNL A   1      40.699  35.225  35.875  1.00  0.00    -0.206 F 
ATOM     82  C   UNL A   1      38.932  34.908  39.016  1.00  0.00     0.022 A 
BRANCH  79  83
ATOM     83  S   UNL A   1      37.399  32.898  40.194  1.00  0.00     0.124 S 
ATOM     84  O   UNL A   1      38.127  31.717  40.640  1.00  0.00    -0.237 OA
ATOM     85  O   UNL A   1      37.316  33.999  41.149  1.00  0.00    -0.237 OA
ATOM     86  O   UNL A   1      36.174  32.632  39.444  1.00  0.00    -0.744 OA
ENDBRANCH  79  83
ENDBRANCH  52  76
BRANCH  64  87
ATOM     87  C   UNL A   1      44.318  28.406  35.221  1.00  0.00     0.023 A 
ATOM     88  C   UNL A   1      44.193  27.355  36.146  1.00  0.00     0.031 A 
ATOM     89  C   UNL A   1      45.595  28.961  35.019  1.00  0.00     0.131 A 
ATOM     90  C   UNL A   1      45.314  26.927  36.873  1.00  0.00     0.055 A 
ATOM     91  C   UNL A   1      46.717  28.490  35.700  1.00  0.00     0.041 A 
ATOM     92  F   UNL A   1      45.772  29.968  34.148  1.00  0.00    -0.206 F 
ATOM     93  C   UNL A   1      46.578  27.477  36.643  1.00  0.00     0.022 A 
BRANCH  90  94
ATOM     94  S   UNL A   1      45.083  25.701  38.190  1.00  0.00     0.124 S 
ATOM     95  O   UNL A   1      44.200  26.409  39.112  1.00  0.00    -0.237 OA
ATOM     96  O   UNL A   1      44.487  24.580  37.471  1.00  0.00    -0.237 OA
ATOM     97  O   UNL A   1      46.439  25.468  38.684  1.00  0.00    -0.744 OA
ENDBRANCH  90  94
ENDBRANCH  64  87
ENDBRANCH  38  39
ENDBRANCH  30  33
ENDBRANCH  28  29
ENDBRANCH   1  28
TORSDOF 18
ENDMDL
MODEL 2
REMARK VINA RESULT:     -12.4      3.281      8.676
REMARK SMILES Cc1cc(F)cc(N[C@@](C)(C(=O)NCCCCNC(=O)c2ccc(-c3c4nc(c(-c5cc(S(=O)(=O)[O-])ccc5F)c5ccc([nH]5)c(-c5cc(S(=O)(=O)[O-])ccc5F)c5nc(c(-c6cc(S(=O)(=O)[O-])ccc6F)c6ccc3[nH]6)C=C5)C=C4)cc2)c2ccc(O)cc2)c1
REMARK SMILES IDX 16 1 15 2 14 3 13 4 11 5 12 6 9 8 10 9 8 10 7 12 1 13 2 14
REMARK SMILES IDX 3 15 91 16 4 17 5 18 6 19 84 20 85 21 90 22 86 23 89 24
REMARK SMILES IDX 87 25 88 26 17 28 18 29 19 30 20 32 21 33 22 34 83 35 23 36
REMARK SMILES IDX 82 37 24 38 25 39 26 40 76 41 27 42 81 43 75 44 77 45 28 46
REMARK SMILES IDX 80 47 74 48 73 49 29 51 61 52 41 53 60 54 42 55 45 56 59 57
REMARK SMILES IDX 78 58 43 59 44 60 58 62 79 63 46 64 30 65 31 66 39 67 32 68
REMARK SMILES IDX 38 69 40 70 37 71 33 72 34 73 35 74 36 75 62 76 63 77 71 78
REMARK SMILES IDX 64 79 70 80 72 81 69 82 65 83 66 84 67 85 68 86 47 87 48 88
REMARK SMILES IDX 56 89 49 90 55 91 57 92 54 93 50 94 51 95 52 96 53 97
REMARK H PARENT 13 7 8 11 88 27 18 31 77 50 45 61
REMARK Flexibility Score: inf
ROOT
ATOM      1  C   UNL A   1      32.915  28.105  25.760  1.00  0.00     0.023 C 
ENDROOT
BRANCH   1   2
ATOM      2  C   UNL A   1      32.910  26.655  26.247  1.00  0.00     0.023 C 
BRANCH   2   3
ATOM      3  C   UNL A   1      31.752  25.797  25.741  1.00  0.00     0.116 C 
BRANCH   3   4
ATOM      4  N   UNL A   1      31.422  24.729  26.664  1.00  0.00    -0.354 N 
ATOM      5  C   UNL A   1      31.497  23.364  26.581  1.00  0.00     0.250 C 
ATOM      6  O   UNL A   1      30.940  22.775  27.517  1.00  0.00    -0.272 OA
ATOM      7  H   UNL A   1      31.074  25.050  27.526  1.00  0.00     0.163 HD
BRANCH   5   8
ATOM      8  C   UNL A   1      32.218  22.608  25.381  1.00  0.00     0.139 C 
ATOM      9  C   UNL A   1      31.630  23.069  24.023  1.00  0.00     0.051 C 
BRANCH   8  10
ATOM     10  N   UNL A   1      31.937  21.152  25.538  1.00  0.00    -0.368 N 
ATOM     11  H   UNL A   1      31.349  20.931  26.296  1.00  0.00     0.161 HD
BRANCH  10  12
ATOM     12  C   UNL A   1      32.360  20.057  24.805  1.00  0.00     0.038 A 
ATOM     13  C   UNL A   1      33.416  16.473  25.683  1.00  0.00     0.044 C 
ATOM     14  C   UNL A   1      33.003  17.673  24.887  1.00  0.00    -0.046 A 
ATOM     15  C   UNL A   1      32.784  17.568  23.515  1.00  0.00     0.042 A 
ATOM     16  C   UNL A   1      32.761  18.907  25.516  1.00  0.00     0.029 A 
ATOM     17  C   UNL A   1      32.444  18.702  22.793  1.00  0.00     0.125 A 
ATOM     18  F   UNL A   1      32.231  18.596  21.474  1.00  0.00    -0.207 F 
ATOM     19  C   UNL A   1      32.284  19.940  23.417  1.00  0.00     0.065 A 
ENDBRANCH  10  12
ENDBRANCH   8  10
BRANCH   8  20
ATOM     20  C   UNL A   1      33.734  22.931  25.220  1.00  0.00    -0.013 A 
ATOM     21  C   UNL A   1      34.299  23.133  23.942  1.00  0.00     0.010 A 
ATOM     22  C   UNL A   1      34.592  23.093  26.326  1.00  0.00     0.010 A 
ATOM     23  C   UNL A   1      35.676  23.308  23.773  1.00  0.00     0.046 A 
ATOM     24  C   UNL A   1      35.967  23.280  26.163  1.00  0.00     0.046 A 
ATOM     25  C   UNL A   1      36.502  23.348  24.884  1.00  0.00     0.115 A 
BRANCH  25  26
ATOM     26  O   UNL A   1      37.846  23.452  24.685  1.00  0.00    -0.508 OA
ATOM     27  H   UNL A   1      38.178  23.694  23.843  1.00  0.00     0.293 HD
ENDBRANCH  25  26
ENDBRANCH   8  20
ENDBRANCH   5   8
ENDBRANCH   3   4
ENDBRANCH   2   3
ENDBRANCH   1   2
BRANCH   1  28
ATOM     28  C   UNL A   1      34.113  28.948  26.194  1.00  0.00     0.116 C 
BRANCH  28  29
ATOM     29  N   UNL A   1      33.741  30.272  26.664  1.00  0.00    -0.352 N 
ATOM     30  C   UNL A   1      34.336  31.062  27.621  1.00  0.00     0.251 C 
ATOM     31  H   UNL A   1      32.945  30.661  26.233  1.00  0.00     0.163 HD
ATOM     32  O   UNL A   1      33.793  32.103  27.966  1.00  0.00    -0.269 OA
BRANCH  30  33
ATOM     33  C   UNL A   1      35.607  30.634  28.252  1.00  0.00     0.039 A 
ATOM     34  C   UNL A   1      35.552  29.825  29.391  1.00  0.00     0.014 A 
ATOM     35  C   UNL A   1      36.842  31.015  27.723  1.00  0.00     0.014 A 
ATOM     36  C   UNL A   1      36.736  29.335  29.952  1.00  0.00     0.010 A 
ATOM     37  C   UNL A   1      38.016  30.470  28.242  1.00  0.00     0.010 A 
ATOM     38  C   UNL A   1      37.977  29.619  29.357  1.00  0.00    -0.014 A 
BRANCH  38  39
ATOM     39  C   UNL A   1      39.240  29.028  29.878  1.00  0.00     0.031 A 
ATOM     40  C   UNL A   1      39.944  29.662  31.049  1.00  0.00     0.074 A 
ATOM     41  C   UNL A   1      39.794  27.974  29.244  1.00  0.00     0.049 A 
ATOM     42  N   UNL A   1      41.099  29.359  31.581  1.00  0.00    -0.248 NA
ATOM     43  C   UNL A   1      39.272  30.806  31.684  1.00  0.00     0.031 C 
ATOM     44  C   UNL A   1      39.233  27.303  28.069  1.00  0.00     0.029 A 
ATOM     45  N   UNL A   1      40.962  27.291  29.484  1.00  0.00    -0.354 N 
ATOM     46  C   UNL A   1      41.308  30.291  32.593  1.00  0.00     0.074 A 
ATOM     47  C   UNL A   1      40.177  31.192  32.573  1.00  0.00     0.031 C 
ATOM     48  C   UNL A   1      40.051  26.303  27.698  1.00  0.00     0.029 A 
ATOM     49  C   UNL A   1      41.217  26.287  28.576  1.00  0.00     0.049 A 
ATOM     50  H   UNL A   1      41.563  27.501  30.235  1.00  0.00     0.167 HD
ATOM     51  C   UNL A   1      42.344  30.376  33.464  1.00  0.00     0.034 A 
ATOM     52  C   UNL A   1      42.275  25.462  28.451  1.00  0.00     0.034 A 
ATOM     53  C   UNL A   1      43.446  29.447  33.497  1.00  0.00     0.049 A 
ATOM     54  C   UNL A   1      43.406  25.571  29.445  1.00  0.00     0.074 A 
ATOM     55  C   UNL A   1      44.493  29.387  34.400  1.00  0.00     0.029 A 
ATOM     56  N   UNL A   1      43.652  28.422  32.584  1.00  0.00    -0.354 N 
ATOM     57  N   UNL A   1      43.546  26.410  30.447  1.00  0.00    -0.248 NA
ATOM     58  C   UNL A   1      44.513  24.617  29.303  1.00  0.00     0.031 C 
ATOM     59  C   UNL A   1      45.366  28.374  33.995  1.00  0.00     0.029 A 
ATOM     60  C   UNL A   1      44.826  27.748  32.883  1.00  0.00     0.049 A 
ATOM     61  H   UNL A   1      43.052  28.204  31.834  1.00  0.00     0.167 HD
ATOM     62  C   UNL A   1      44.739  26.056  31.072  1.00  0.00     0.074 A 
ATOM     63  C   UNL A   1      45.268  24.921  30.347  1.00  0.00     0.031 C 
ATOM     64  C   UNL A   1      45.342  26.615  32.152  1.00  0.00     0.034 A 
BRANCH  51  65
ATOM     65  C   UNL A   1      42.353  31.529  34.439  1.00  0.00     0.023 A 
ATOM     66  C   UNL A   1      41.508  31.562  35.562  1.00  0.00     0.031 A 
ATOM     67  C   UNL A   1      43.239  32.604  34.248  1.00  0.00     0.131 A 
ATOM     68  C   UNL A   1      41.531  32.671  36.421  1.00  0.00     0.055 A 
ATOM     69  C   UNL A   1      43.306  33.672  35.146  1.00  0.00     0.041 A 
ATOM     70  F   UNL A   1      44.054  32.637  33.182  1.00  0.00    -0.206 F 
ATOM     71  C   UNL A   1      42.441  33.713  36.235  1.00  0.00     0.022 A 
BRANCH  68  72
ATOM     72  S   UNL A   1      40.278  32.783  37.728  1.00  0.00     0.124 S 
ATOM     73  O   UNL A   1      41.076  32.526  38.923  1.00  0.00    -0.237 OA
ATOM     74  O   UNL A   1      39.781  34.146  37.573  1.00  0.00    -0.237 OA
ATOM     75  O   UNL A   1      39.326  31.729  37.383  1.00  0.00    -0.744 OA
ENDBRANCH  68  72
ENDBRANCH  51  65
BRANCH  52  76
ATOM     76  C   UNL A   1      42.346  24.472  27.334  1.00  0.00     0.023 A 
ATOM     77  C   UNL A   1      41.542  23.322  27.333  1.00  0.00     0.031 A 
ATOM     78  C   UNL A   1      43.275  24.625  26.290  1.00  0.00     0.131 A 
ATOM     79  C   UNL A   1      41.727  22.337  26.350  1.00  0.00     0.055 A 
ATOM     80  C   UNL A   1      43.413  23.672  25.278  1.00  0.00     0.041 A 
ATOM     81  F   UNL A   1      44.068  25.707  26.237  1.00  0.00    -0.206 F 
ATOM     82  C   UNL A   1      42.649  22.511  25.316  1.00  0.00     0.022 A 
BRANCH  79  83
ATOM     83  S   UNL A   1      40.832  20.768  26.515  1.00  0.00     0.124 S 
ATOM     84  O   UNL A   1      41.642  19.875  25.696  1.00  0.00    -0.237 OA
ATOM     85  O   UNL A   1      40.885  20.542  27.956  1.00  0.00    -0.237 OA
ATOM     86  O   UNL A   1      39.507  21.075  25.983  1.00  0.00    -0.744 OA
ENDBRANCH  79  83
ENDBRANCH  52  76
BRANCH  64  87
ATOM     87  C   UNL A   1      46.611  25.966  32.646  1.00  0.00     0.023 A 
ATOM     88  C   UNL A   1      46.593  24.921  33.585  1.00  0.00     0.031 A 
ATOM     89  C   UNL A   1      47.859  26.410  32.173  1.00  0.00     0.131 A 
ATOM     90  C   UNL A   1      47.801  24.391  34.063  1.00  0.00     0.055 A 
ATOM     91  C   UNL A   1      49.054  25.837  32.606  1.00  0.00     0.041 A 
ATOM     92  F   UNL A   1      47.934  27.406  31.276  1.00  0.00    -0.206 F 
ATOM     93  C   UNL A   1      49.031  24.831  33.566  1.00  0.00     0.022 A 
BRANCH  90  94
ATOM     94  S   UNL A   1      47.748  23.176  35.409  1.00  0.00     0.124 S 
ATOM     95  O   UNL A   1      48.642  23.777  36.395  1.00  0.00    -0.237 OA
ATOM     96  O   UNL A   1      46.332  23.160  35.760  1.00  0.00    -0.237 OA
ATOM     97  O   UNL A   1      48.246  21.952  34.786  1.00  0.00    -0.744 OA
ENDBRANCH  90  94
ENDBRANCH  64  87
ENDBRANCH  38  39
ENDBRANCH  30  33
ENDBRANCH  28  29
ENDBRANCH   1  28
TORSDOF 18
ENDMDL
MODEL 3
REMARK VINA RESULT:     -12.4      5.423      8.457
REMARK SMILES Cc1cc(F)cc(N[C@@](C)(C(=O)NCCCCNC(=O)c2ccc(-c3c4nc(c(-c5cc(S(=O)(=O)[O-])ccc5F)c5ccc([nH]5)c(-c5cc(S(=O)(=O)[O-])ccc5F)c5nc(c(-c6cc(S(=O)(=O)[O-])ccc6F)c6ccc3[nH]6)C=C5)C=C4)cc2)c2ccc(O)cc2)c1
REMARK SMILES IDX 16 1 15 2 14 3 13 4 11 5 12 6 9 8 10 9 8 10 7 12 1 13 2 14
REMARK SMILES IDX 3 15 91 16 4 17 5 18 6 19 84 20 85 21 90 22 86 23 89 24
REMARK SMILES IDX 87 25 88 26 17 28 18 29 19 30 20 32 21 33 22 34 83 35 23 36
REMARK SMILES IDX 82 37 24 38 25 39 26 40 76 41 27 42 81 43 75 44 77 45 28 46
REMARK SMILES IDX 80 47 74 48 73 49 29 51 61 52 41 53 60 54 42 55 45 56 59 57
REMARK SMILES IDX 78 58 43 59 44 60 58 62 79 63 46 64 30 65 31 66 39 67 32 68
REMARK SMILES IDX 38 69 40 70 37 71 33 72 34 73 35 74 36 75 62 76 63 77 71 78
REMARK SMILES IDX 64 79 70 80 72 81 69 82 65 83 66 84 67 85 68 86 47 87 48 88
REMARK SMILES IDX 56 89 49 90 55 91 57 92 54 93 50 94 51 95 52 96 53 97
REMARK H PARENT 13 7 8 11 88 27 18 31 77 50 45 61
REMARK Flexibility Score: inf
ROOT
ATOM      1  C   UNL A   1      35.590  22.357  24.409  1.00  0.00     0.023 C 
ENDROOT
BRANCH   1   2
ATOM      2  C   UNL A   1      35.401  23.866  24.245  1.00  0.00     0.023 C 
BRANCH   2   3
ATOM      3  C   UNL A   1      33.978  24.318  23.924  1.00  0.00     0.116 C 
BRANCH   3   4
ATOM      4  N   UNL A   1      33.920  25.119  22.717  1.00  0.00    -0.354 N 
ATOM      5  C   UNL A   1      33.036  26.060  22.259  1.00  0.00     0.250 C 
ATOM      6  O   UNL A   1      33.225  26.391  21.081  1.00  0.00    -0.272 OA
ATOM      7  H   UNL A   1      34.669  24.953  22.101  1.00  0.00     0.163 HD
BRANCH   5   8
ATOM      8  C   UNL A   1      31.864  26.655  23.155  1.00  0.00     0.139 C 
ATOM      9  C   UNL A   1      30.966  25.512  23.695  1.00  0.00     0.051 C 
BRANCH   8  10
ATOM     10  N   UNL A   1      31.030  27.525  22.278  1.00  0.00    -0.368 N 
ATOM     11  H   UNL A   1      31.301  27.527  21.331  1.00  0.00     0.161 HD
BRANCH  10  12
ATOM     12  C   UNL A   1      29.942  28.332  22.562  1.00  0.00     0.038 A 
ATOM     13  C   UNL A   1      28.919  31.907  21.611  1.00  0.00     0.044 C 
ATOM     14  C   UNL A   1      28.847  30.504  22.133  1.00  0.00    -0.046 A 
ATOM     15  C   UNL A   1      27.641  29.988  22.601  1.00  0.00     0.042 A 
ATOM     16  C   UNL A   1      29.971  29.662  22.093  1.00  0.00     0.029 A 
ATOM     17  C   UNL A   1      27.608  28.701  23.119  1.00  0.00     0.125 A 
ATOM     18  F   UNL A   1      26.446  28.208  23.565  1.00  0.00    -0.207 F 
ATOM     19  C   UNL A   1      28.751  27.901  23.148  1.00  0.00     0.065 A 
ENDBRANCH  10  12
ENDBRANCH   8  10
BRANCH   8  20
ATOM     20  C   UNL A   1      32.333  27.363  24.461  1.00  0.00    -0.013 A 
ATOM     21  C   UNL A   1      33.435  28.247  24.449  1.00  0.00     0.010 A 
ATOM     22  C   UNL A   1      31.659  27.205  25.688  1.00  0.00     0.010 A 
ATOM     23  C   UNL A   1      33.939  28.798  25.631  1.00  0.00     0.046 A 
ATOM     24  C   UNL A   1      32.152  27.764  26.870  1.00  0.00     0.046 A 
ATOM     25  C   UNL A   1      33.311  28.526  26.835  1.00  0.00     0.115 A 
BRANCH  25  26
ATOM     26  O   UNL A   1      33.865  29.022  27.977  1.00  0.00    -0.508 OA
ATOM     27  H   UNL A   1      34.636  29.553  27.932  1.00  0.00     0.293 HD
ENDBRANCH  25  26
ENDBRANCH   8  20
ENDBRANCH   5   8
ENDBRANCH   3   4
ENDBRANCH   2   3
ENDBRANCH   1   2
BRANCH   1  28
ATOM     28  C   UNL A   1      36.106  21.897  25.771  1.00  0.00     0.116 C 
BRANCH  28  29
ATOM     29  N   UNL A   1      37.187  20.930  25.676  1.00  0.00    -0.352 N 
ATOM     30  C   UNL A   1      38.541  21.108  25.848  1.00  0.00     0.251 C 
ATOM     31  H   UNL A   1      36.910  20.011  25.455  1.00  0.00     0.163 HD
ATOM     32  O   UNL A   1      39.307  20.187  25.599  1.00  0.00    -0.269 OA
BRANCH  30  33
ATOM     33  C   UNL A   1      39.066  22.419  26.298  1.00  0.00     0.039 A 
ATOM     34  C   UNL A   1      40.144  22.443  27.187  1.00  0.00     0.014 A 
ATOM     35  C   UNL A   1      38.509  23.617  25.842  1.00  0.00     0.014 A 
ATOM     36  C   UNL A   1      40.713  23.666  27.556  1.00  0.00     0.010 A 
ATOM     37  C   UNL A   1      39.120  24.829  26.157  1.00  0.00     0.010 A 
ATOM     38  C   UNL A   1      40.233  24.868  27.012  1.00  0.00    -0.014 A 
BRANCH  38  39
ATOM     39  C   UNL A   1      40.885  26.171  27.313  1.00  0.00     0.031 A 
ATOM     40  C   UNL A   1      42.291  26.439  26.843  1.00  0.00     0.074 A 
ATOM     41  C   UNL A   1      40.244  27.077  28.081  1.00  0.00     0.049 A 
ATOM     42  N   UNL A   1      43.064  27.465  27.089  1.00  0.00    -0.248 NA
ATOM     43  C   UNL A   1      42.919  25.402  26.009  1.00  0.00     0.031 C 
ATOM     44  C   UNL A   1      38.900  26.913  28.638  1.00  0.00     0.029 A 
ATOM     45  N   UNL A   1      40.642  28.308  28.544  1.00  0.00    -0.354 N 
ATOM     46  C   UNL A   1      44.278  27.185  26.469  1.00  0.00     0.074 A 
ATOM     47  C   UNL A   1      44.149  25.876  25.868  1.00  0.00     0.031 C 
ATOM     48  C   UNL A   1      38.583  28.002  29.357  1.00  0.00     0.029 A 
ATOM     49  C   UNL A   1      39.714  28.924  29.354  1.00  0.00     0.049 A 
ATOM     50  H   UNL A   1      41.511  28.713  28.318  1.00  0.00     0.167 HD
ATOM     51  C   UNL A   1      45.390  27.956  26.400  1.00  0.00     0.034 A 
ATOM     52  C   UNL A   1      39.774  30.087  30.033  1.00  0.00     0.034 A 
ATOM     53  C   UNL A   1      45.491  29.277  26.972  1.00  0.00     0.049 A 
ATOM     54  C   UNL A   1      41.021  30.932  29.924  1.00  0.00     0.074 A 
ATOM     55  C   UNL A   1      46.536  30.178  26.874  1.00  0.00     0.029 A 
ATOM     56  N   UNL A   1      44.518  29.882  27.756  1.00  0.00    -0.354 N 
ATOM     57  N   UNL A   1      42.129  30.685  29.264  1.00  0.00    -0.248 NA
ATOM     58  C   UNL A   1      41.021  32.215  30.636  1.00  0.00     0.031 C 
ATOM     59  C   UNL A   1      46.227  31.296  27.653  1.00  0.00     0.029 A 
ATOM     60  C   UNL A   1      44.954  31.129  28.175  1.00  0.00     0.049 A 
ATOM     61  H   UNL A   1      43.646  29.484  27.980  1.00  0.00     0.167 HD
ATOM     62  C   UNL A   1      42.940  31.801  29.455  1.00  0.00     0.074 A 
ATOM     63  C   UNL A   1      42.188  32.726  30.276  1.00  0.00     0.031 C 
ATOM     64  C   UNL A   1      44.192  32.043  28.992  1.00  0.00     0.034 A 
BRANCH  51  65
ATOM     65  C   UNL A   1      46.602  27.386  25.704  1.00  0.00     0.023 A 
ATOM     66  C   UNL A   1      46.972  27.781  24.407  1.00  0.00     0.031 A 
ATOM     67  C   UNL A   1      47.413  26.444  26.362  1.00  0.00     0.131 A 
ATOM     68  C   UNL A   1      48.088  27.197  23.790  1.00  0.00     0.055 A 
ATOM     69  C   UNL A   1      48.563  25.919  25.770  1.00  0.00     0.041 A 
ATOM     70  F   UNL A   1      47.098  26.014  27.594  1.00  0.00    -0.206 F 
ATOM     71  C   UNL A   1      48.901  26.289  24.472  1.00  0.00     0.022 A 
BRANCH  68  72
ATOM     72  S   UNL A   1      48.405  27.563  22.042  1.00  0.00     0.124 S 
ATOM     73  O   UNL A   1      49.609  28.386  22.127  1.00  0.00    -0.237 OA
ATOM     74  O   UNL A   1      48.581  26.234  21.467  1.00  0.00    -0.237 OA
ATOM     75  O   UNL A   1      47.202  28.273  21.615  1.00  0.00    -0.744 OA
ENDBRANCH  68  72
ENDBRANCH  51  65
BRANCH  52  76
ATOM     76  C   UNL A   1      38.640  30.526  30.901  1.00  0.00     0.023 A 
ATOM     77  C   UNL A   1      37.494  31.122  30.350  1.00  0.00     0.031 A 
ATOM     78  C   UNL A   1      38.719  30.424  32.301  1.00  0.00     0.131 A 
ATOM     79  C   UNL A   1      36.506  31.655  31.193  1.00  0.00     0.055 A 
ATOM     80  C   UNL A   1      37.705  30.900  33.135  1.00  0.00     0.041 A 
ATOM     81  F   UNL A   1      39.789  29.860  32.883  1.00  0.00    -0.206 F 
ATOM     82  C   UNL A   1      36.599  31.537  32.582  1.00  0.00     0.022 A 
BRANCH  79  83
ATOM     83  S   UNL A   1      35.159  32.616  30.451  1.00  0.00     0.124 S 
ATOM     84  O   UNL A   1      34.216  32.712  31.558  1.00  0.00    -0.237 OA
ATOM     85  O   UNL A   1      35.841  33.852  30.079  1.00  0.00    -0.237 OA
ATOM     86  O   UNL A   1      34.725  31.785  29.331  1.00  0.00    -0.744 OA
ENDBRANCH  79  83
ENDBRANCH  52  76
BRANCH  64  87
ATOM     87  C   UNL A   1      44.799  33.385  29.315  1.00  0.00     0.023 A 
ATOM     88  C   UNL A   1      44.692  34.479  28.438  1.00  0.00     0.031 A 
ATOM     89  C   UNL A   1      45.504  33.569  30.518  1.00  0.00     0.131 A 
ATOM     90  C   UNL A   1      45.327  35.691  28.751  1.00  0.00     0.055 A 
ATOM     91  C   UNL A   1      46.081  34.794  30.853  1.00  0.00     0.041 A 
ATOM     92  F   UNL A   1      45.638  32.558  31.392  1.00  0.00    -0.206 F 
ATOM     93  C   UNL A   1      46.005  35.859  29.961  1.00  0.00     0.022 A 
BRANCH  90  94
ATOM     94  S   UNL A   1      45.328  37.019  27.516  1.00  0.00     0.124 S 
ATOM     95  O   UNL A   1      46.442  36.631  26.656  1.00  0.00    -0.237 OA
ATOM     96  O   UNL A   1      43.998  36.900  26.928  1.00  0.00    -0.237 OA
ATOM     97  O   UNL A   1      45.548  38.225  28.310  1.00  0.00    -0.744 OA
ENDBRANCH  90  94
ENDBRANCH  64  87
ENDBRANCH  38  39
ENDBRANCH  30  33
ENDBRANCH  28  29
ENDBRANCH   1  28
TORSDOF 18
ENDMDL
