MODEL 1
REMARK VINA RESULT:     -11.6      0.000      0.000
REMARK SMILES C[C@H](C(=O)NCCCCNC(=O)c1ccc(-c2c3nc(c(-c4cc(S(=O)(=O)[O-])ccc4F)c4ccc([nH]4)c(-c4cc(S(=O)(=O)[O-])ccc4F)c4nc(c(-c5cc(S(=O)(=O)[O-])ccc5F)c5ccc2[nH]5)C=C4)C=C3)cc1)[C@H](C)[NH+]1CCN(S(C)(=O)=O)CC1
REMARK SMILES IDX 7 1 6 2 5 3 3 4 4 5 2 7 1 8 76 9 77 10 78 11 79 12 87 13
REMARK SMILES IDX 80 15 86 16 81 17 82 18 83 19 84 20 85 21 8 22 9 23 10 24
REMARK SMILES IDX 11 25 12 27 13 28 14 29 75 30 15 31 74 32 16 33 17 34 18 35
REMARK SMILES IDX 68 36 19 37 73 38 67 39 69 40 20 41 72 42 66 43 65 44 21 46
REMARK SMILES IDX 53 47 33 48 52 49 34 50 37 51 51 52 70 53 35 54 36 55 50 57
REMARK SMILES IDX 71 58 38 59 22 60 23 61 31 62 24 63 30 64 32 65 29 66 25 67
REMARK SMILES IDX 26 68 27 69 28 70 54 71 55 72 63 73 56 74 62 75 64 76 61 77
REMARK SMILES IDX 57 78 58 79 59 80 60 81 39 82 40 83 48 84 41 85 47 86 49 87
REMARK SMILES IDX 46 88 42 89 43 90 44 91 45 92
REMARK H PARENT 5 6 78 14 10 26 69 45 37 56
REMARK Flexibility Score: inf
ROOT
ATOM      1  C   UNL A   1      31.427  27.449  27.107  1.00  0.00     0.023 C 
ENDROOT
BRANCH   1   2
ATOM      2  C   UNL A   1      31.963  26.155  26.507  1.00  0.00     0.116 C 
BRANCH   2   3
ATOM      3  N   UNL A   1      31.167  25.007  26.864  1.00  0.00    -0.356 N 
ATOM      4  C   UNL A   1      31.457  23.689  26.982  1.00  0.00     0.228 C 
ATOM      5  O   UNL A   1      30.526  22.989  27.400  1.00  0.00    -0.275 OA
ATOM      6  H   UNL A   1      30.227  25.224  27.061  1.00  0.00     0.163 HD
BRANCH   4   7
ATOM      7  C   UNL A   1      32.850  23.081  26.752  1.00  0.00     0.133 C 
ATOM      8  C   UNL A   1      33.221  22.270  28.022  1.00  0.00     0.024 C 
BRANCH   7   9
ATOM      9  C   UNL A   1      33.180  22.225  25.482  1.00  0.00     0.193 C 
ATOM     10  C   UNL A   1      34.206  21.094  25.776  1.00  0.00     0.076 C 
BRANCH   9  11
ATOM     11  N   UNL A   1      33.270  22.789  24.125  1.00  0.00    -0.330 N 
ATOM     12  C   UNL A   1      32.024  23.000  23.377  1.00  0.00     0.279 C 
ATOM     13  C   UNL A   1      34.260  23.812  23.799  1.00  0.00     0.279 C 
ATOM     14  H   UNL A   1      33.700  21.933  23.776  1.00  0.00     0.348 HD
ATOM     15  C   UNL A   1      31.478  24.442  23.356  1.00  0.00     0.163 C 
ATOM     16  C   UNL A   1      33.750  25.274  23.759  1.00  0.00     0.163 C 
ATOM     17  N   UNL A   1      32.522  25.408  22.978  1.00  0.00    -0.191 NA
BRANCH  17  18
ATOM     18  S   UNL A   1      32.549  26.206  21.519  1.00  0.00     0.211 S 
ATOM     19  C   UNL A   1      33.599  27.594  21.872  1.00  0.00     0.176 C 
ATOM     20  O   UNL A   1      33.226  25.370  20.548  1.00  0.00    -0.212 OA
ATOM     21  O   UNL A   1      31.224  26.729  21.269  1.00  0.00    -0.212 OA
ENDBRANCH  17  18
ENDBRANCH   9  11
ENDBRANCH   7   9
ENDBRANCH   4   7
ENDBRANCH   2   3
ENDBRANCH   1   2
BRANCH   1  22
ATOM     22  C   UNL A   1      31.843  28.711  26.383  1.00  0.00     0.023 C 
BRANCH  22  23
ATOM     23  C   UNL A   1      32.971  29.387  27.115  1.00  0.00     0.116 C 
BRANCH  23  24
ATOM     24  N   UNL A   1      32.889  30.844  26.985  1.00  0.00    -0.352 N 
ATOM     25  C   UNL A   1      33.732  31.792  27.508  1.00  0.00     0.251 C 
ATOM     26  H   UNL A   1      32.133  31.187  26.457  1.00  0.00     0.163 HD
ATOM     27  O   UNL A   1      33.396  32.966  27.577  1.00  0.00    -0.269 OA
BRANCH  25  28
ATOM     28  C   UNL A   1      35.042  31.323  27.973  1.00  0.00     0.039 A 
ATOM     29  C   UNL A   1      36.123  32.197  28.033  1.00  0.00     0.014 A 
ATOM     30  C   UNL A   1      35.127  30.020  28.469  1.00  0.00     0.014 A 
ATOM     31  C   UNL A   1      37.293  31.755  28.642  1.00  0.00     0.010 A 
ATOM     32  C   UNL A   1      36.204  29.668  29.246  1.00  0.00     0.010 A 
ATOM     33  C   UNL A   1      37.325  30.501  29.277  1.00  0.00    -0.014 A 
BRANCH  33  34
ATOM     34  C   UNL A   1      38.554  29.969  29.895  1.00  0.00     0.031 A 
ATOM     35  C   UNL A   1      38.917  30.431  31.283  1.00  0.00     0.074 A 
ATOM     36  C   UNL A   1      39.345  29.142  29.191  1.00  0.00     0.049 A 
ATOM     37  N   UNL A   1      39.973  30.152  31.997  1.00  0.00    -0.248 NA
ATOM     38  C   UNL A   1      38.000  31.386  31.932  1.00  0.00     0.031 C 
ATOM     39  C   UNL A   1      39.104  28.701  27.814  1.00  0.00     0.029 A 
ATOM     40  N   UNL A   1      40.506  28.511  29.542  1.00  0.00    -0.354 N 
ATOM     41  C   UNL A   1      39.855  30.918  33.152  1.00  0.00     0.074 A 
ATOM     42  C   UNL A   1      38.694  31.758  32.992  1.00  0.00     0.031 C 
ATOM     43  C   UNL A   1      40.049  27.815  27.465  1.00  0.00     0.029 A 
ATOM     44  C   UNL A   1      40.988  27.668  28.570  1.00  0.00     0.049 A 
ATOM     45  H   UNL A   1      40.954  28.649  30.407  1.00  0.00     0.167 HD
ATOM     46  C   UNL A   1      40.617  30.883  34.270  1.00  0.00     0.034 A 
ATOM     47  C   UNL A   1      42.064  26.861  28.589  1.00  0.00     0.034 A 
ATOM     48  C   UNL A   1      41.744  29.999  34.407  1.00  0.00     0.049 A 
ATOM     49  C   UNL A   1      42.900  26.833  29.844  1.00  0.00     0.074 A 
ATOM     50  C   UNL A   1      42.566  29.809  35.499  1.00  0.00     0.029 A 
ATOM     51  N   UNL A   1      42.204  29.150  33.405  1.00  0.00    -0.354 N 
ATOM     52  N   UNL A   1      42.741  27.509  30.960  1.00  0.00    -0.248 NA
ATOM     53  C   UNL A   1      44.047  25.920  29.846  1.00  0.00     0.031 C 
ATOM     54  C   UNL A   1      43.569  28.906  35.133  1.00  0.00     0.029 A 
ATOM     55  C   UNL A   1      43.320  28.460  33.843  1.00  0.00     0.049 A 
ATOM     56  H   UNL A   1      41.795  29.054  32.514  1.00  0.00     0.167 HD
ATOM     57  C   UNL A   1      43.751  27.074  31.813  1.00  0.00     0.074 A 
ATOM     58  C   UNL A   1      44.495  26.065  31.084  1.00  0.00     0.031 C 
ATOM     59  C   UNL A   1      44.042  27.465  33.082  1.00  0.00     0.034 A 
BRANCH  46  60
ATOM     60  C   UNL A   1      40.258  31.834  35.389  1.00  0.00     0.023 A 
ATOM     61  C   UNL A   1      39.375  31.468  36.423  1.00  0.00     0.031 A 
ATOM     62  C   UNL A   1      40.749  33.150  35.386  1.00  0.00     0.131 A 
ATOM     63  C   UNL A   1      38.934  32.430  37.344  1.00  0.00     0.055 A 
ATOM     64  C   UNL A   1      40.385  34.076  36.366  1.00  0.00     0.041 A 
ATOM     65  F   UNL A   1      41.570  33.572  34.412  1.00  0.00    -0.206 F 
ATOM     66  C   UNL A   1      39.456  33.724  37.341  1.00  0.00     0.022 A 
BRANCH  63  67
ATOM     67  S   UNL A   1      37.534  32.018  38.423  1.00  0.00     0.124 S 
ATOM     68  O   UNL A   1      37.250  30.641  38.024  1.00  0.00    -0.237 OA
ATOM     69  O   UNL A   1      38.100  32.193  39.756  1.00  0.00    -0.237 OA
ATOM     70  O   UNL A   1      36.511  32.991  38.045  1.00  0.00    -0.744 OA
ENDBRANCH  63  67
ENDBRANCH  46  60
BRANCH  47  71
ATOM     71  C   UNL A   1      42.391  25.999  27.416  1.00  0.00     0.023 A 
ATOM     72  C   UNL A   1      41.927  24.676  27.347  1.00  0.00     0.031 A 
ATOM     73  C   UNL A   1      43.193  26.472  26.363  1.00  0.00     0.131 A 
ATOM     74  C   UNL A   1      42.314  23.853  26.278  1.00  0.00     0.055 A 
ATOM     75  C   UNL A   1      43.525  25.667  25.271  1.00  0.00     0.041 A 
ATOM     76  F   UNL A   1      43.656  27.732  26.373  1.00  0.00    -0.206 F 
ATOM     77  C   UNL A   1      43.098  24.344  25.232  1.00  0.00     0.022 A 
BRANCH  74  78
ATOM     78  S   UNL A   1      41.856  22.099  26.327  1.00  0.00     0.124 S 
ATOM     79  O   UNL A   1      40.429  22.157  26.030  1.00  0.00    -0.237 OA
ATOM     80  O   UNL A   1      42.706  21.535  25.283  1.00  0.00    -0.237 OA
ATOM     81  O   UNL A   1      42.196  21.696  27.690  1.00  0.00    -0.744 OA
ENDBRANCH  74  78
ENDBRANCH  47  71
BRANCH  59  82
ATOM     82  C   UNL A   1      45.183  26.755  33.764  1.00  0.00     0.023 A 
ATOM     83  C   UNL A   1      44.980  25.590  34.522  1.00  0.00     0.031 A 
ATOM     84  C   UNL A   1      46.490  27.263  33.664  1.00  0.00     0.131 A 
ATOM     85  C   UNL A   1      46.054  25.016  35.214  1.00  0.00     0.055 A 
ATOM     86  C   UNL A   1      47.569  26.641  34.290  1.00  0.00     0.041 A 
ATOM     87  F   UNL A   1      46.739  28.374  32.952  1.00  0.00    -0.206 F 
ATOM     88  C   UNL A   1      47.351  25.520  35.086  1.00  0.00     0.022 A 
BRANCH  85  89
ATOM     89  S   UNL A   1      45.710  23.677  36.387  1.00  0.00     0.124 S 
ATOM     90  O   UNL A   1      45.302  24.415  37.577  1.00  0.00    -0.237 OA
ATOM     91  O   UNL A   1      44.655  22.931  35.708  1.00  0.00    -0.237 OA
ATOM     92  O   UNL A   1      46.990  22.981  36.497  1.00  0.00    -0.744 OA
ENDBRANCH  85  89
ENDBRANCH  59  82
ENDBRANCH  33  34
ENDBRANCH  25  28
ENDBRANCH  23  24
ENDBRANCH  22  23
ENDBRANCH   1  22
TORSDOF 17
ENDMDL
MODEL 2
REMARK VINA RESULT:     -11.5      2.097      2.912
REMARK SMILES C[C@H](C(=O)NCCCCNC(=O)c1ccc(-c2c3nc(c(-c4cc(S(=O)(=O)[O-])ccc4F)c4ccc([nH]4)c(-c4cc(S(=O)(=O)[O-])ccc4F)c4nc(c(-c5cc(S(=O)(=O)[O-])ccc5F)c5ccc2[nH]5)C=C4)C=C3)cc1)[C@H](C)[NH+]1CCN(S(C)(=O)=O)CC1
REMARK SMILES IDX 7 1 6 2 5 3 3 4 4 5 2 7 1 8 76 9 77 10 78 11 79 12 87 13
REMARK SMILES IDX 80 15 86 16 81 17 82 18 83 19 84 20 85 21 8 22 9 23 10 24
REMARK SMILES IDX 11 25 12 27 13 28 14 29 75 30 15 31 74 32 16 33 17 34 18 35
REMARK SMILES IDX 68 36 19 37 73 38 67 39 69 40 20 41 72 42 66 43 65 44 21 46
REMARK SMILES IDX 53 47 33 48 52 49 34 50 37 51 51 52 70 53 35 54 36 55 50 57
REMARK SMILES IDX 71 58 38 59 22 60 23 61 31 62 24 63 30 64 32 65 29 66 25 67
REMARK SMILES IDX 26 68 27 69 28 70 54 71 55 72 63 73 56 74 62 75 64 76 61 77
REMARK SMILES IDX 57 78 58 79 59 80 60 81 39 82 40 83 48 84 41 85 47 86 49 87
REMARK SMILES IDX 46 88 42 89 43 90 44 91 45 92
REMARK H PARENT 5 6 78 14 10 26 69 45 37 56
REMARK Flexibility Score: inf
ROOT
ATOM      1  C   UNL A   1      32.100  28.177  27.431  1.00  0.00     0.023 C 
ENDROOT
BRANCH   1   2
ATOM      2  C   UNL A   1      32.183  26.950  26.532  1.00  0.00     0.116 C 
BRANCH   2   3
ATOM      3  N   UNL A   1      31.197  25.952  26.864  1.00  0.00    -0.356 N 
ATOM      4  C   UNL A   1      30.591  24.983  26.137  1.00  0.00     0.228 C 
ATOM      5  O   UNL A   1      29.843  24.239  26.786  1.00  0.00    -0.275 OA
ATOM      6  H   UNL A   1      30.907  25.981  27.804  1.00  0.00     0.163 HD
BRANCH   4   7
ATOM      7  C   UNL A   1      30.872  24.704  24.652  1.00  0.00     0.133 C 
ATOM      8  C   UNL A   1      30.144  25.797  23.825  1.00  0.00     0.024 C 
BRANCH   7   9
ATOM      9  C   UNL A   1      32.330  24.532  24.105  1.00  0.00     0.193 C 
ATOM     10  C   UNL A   1      32.595  25.390  22.835  1.00  0.00     0.076 C 
BRANCH   9  11
ATOM     11  N   UNL A   1      33.063  23.255  24.138  1.00  0.00    -0.330 N 
ATOM     12  C   UNL A   1      33.083  22.500  25.398  1.00  0.00     0.279 C 
ATOM     13  C   UNL A   1      33.069  22.358  22.987  1.00  0.00     0.279 C 
ATOM     14  H   UNL A   1      33.956  23.742  24.056  1.00  0.00     0.348 HD
ATOM     15  C   UNL A   1      32.098  21.316  25.498  1.00  0.00     0.163 C 
ATOM     16  C   UNL A   1      32.100  21.151  23.050  1.00  0.00     0.163 C 
ATOM     17  N   UNL A   1      32.194  20.436  24.322  1.00  0.00    -0.191 NA
BRANCH  17  18
ATOM     18  S   UNL A   1      32.849  18.909  24.369  1.00  0.00     0.211 S 
ATOM     19  C   UNL A   1      32.429  18.272  22.766  1.00  0.00     0.176 C 
ATOM     20  O   UNL A   1      34.292  19.029  24.438  1.00  0.00    -0.212 OA
ATOM     21  O   UNL A   1      32.111  18.133  25.341  1.00  0.00    -0.212 OA
ENDBRANCH  17  18
ENDBRANCH   9  11
ENDBRANCH   7   9
ENDBRANCH   4   7
ENDBRANCH   2   3
ENDBRANCH   1   2
BRANCH   1  22
ATOM     22  C   UNL A   1      31.608  29.436  26.752  1.00  0.00     0.023 C 
BRANCH  22  23
ATOM     23  C   UNL A   1      32.772  30.265  26.279  1.00  0.00     0.116 C 
BRANCH  23  24
ATOM     24  N   UNL A   1      32.547  31.690  26.535  1.00  0.00    -0.352 N 
ATOM     25  C   UNL A   1      33.216  32.512  27.406  1.00  0.00     0.251 C 
ATOM     26  H   UNL A   1      31.825  32.112  26.016  1.00  0.00     0.163 HD
ATOM     27  O   UNL A   1      32.748  33.592  27.740  1.00  0.00    -0.269 OA
BRANCH  25  28
ATOM     28  C   UNL A   1      34.506  32.028  27.909  1.00  0.00     0.039 A 
ATOM     29  C   UNL A   1      35.611  32.873  27.946  1.00  0.00     0.014 A 
ATOM     30  C   UNL A   1      34.548  30.746  28.462  1.00  0.00     0.014 A 
ATOM     31  C   UNL A   1      36.759  32.427  28.591  1.00  0.00     0.010 A 
ATOM     32  C   UNL A   1      35.605  30.399  29.269  1.00  0.00     0.010 A 
ATOM     33  C   UNL A   1      36.748  31.201  29.279  1.00  0.00    -0.014 A 
BRANCH  33  34
ATOM     34  C   UNL A   1      37.953  30.663  29.937  1.00  0.00     0.031 A 
ATOM     35  C   UNL A   1      38.229  31.057  31.366  1.00  0.00     0.074 A 
ATOM     36  C   UNL A   1      38.802  29.892  29.236  1.00  0.00     0.049 A 
ATOM     37  N   UNL A   1      39.251  30.763  32.122  1.00  0.00    -0.248 NA
ATOM     38  C   UNL A   1      37.255  31.957  32.011  1.00  0.00     0.031 C 
ATOM     39  C   UNL A   1      38.647  29.520  27.827  1.00  0.00     0.029 A 
ATOM     40  N   UNL A   1      39.957  29.268  29.619  1.00  0.00    -0.354 N 
ATOM     41  C   UNL A   1      39.050  31.464  33.307  1.00  0.00     0.074 A 
ATOM     42  C   UNL A   1      37.880  32.287  33.126  1.00  0.00     0.031 C 
ATOM     43  C   UNL A   1      39.631  28.674  27.486  1.00  0.00     0.029 A 
ATOM     44  C   UNL A   1      40.512  28.488  28.632  1.00  0.00     0.049 A 
ATOM     45  H   UNL A   1      40.353  29.369  30.514  1.00  0.00     0.167 HD
ATOM     46  C   UNL A   1      39.751  31.386  34.462  1.00  0.00     0.034 A 
ATOM     47  C   UNL A   1      41.604  27.704  28.670  1.00  0.00     0.034 A 
ATOM     48  C   UNL A   1      40.889  30.519  34.616  1.00  0.00     0.049 A 
ATOM     49  C   UNL A   1      42.370  27.626  29.966  1.00  0.00     0.074 A 
ATOM     50  C   UNL A   1      41.655  30.289  35.742  1.00  0.00     0.029 A 
ATOM     51  N   UNL A   1      41.424  29.735  33.599  1.00  0.00    -0.354 N 
ATOM     52  N   UNL A   1      42.134  28.239  31.106  1.00  0.00    -0.248 NA
ATOM     53  C   UNL A   1      43.537  26.740  29.986  1.00  0.00     0.031 C 
ATOM     54  C   UNL A   1      42.697  29.428  35.386  1.00  0.00     0.029 A 
ATOM     55  C   UNL A   1      42.531  29.046  34.062  1.00  0.00     0.049 A 
ATOM     56  H   UNL A   1      41.067  29.678  32.683  1.00  0.00     0.167 HD
ATOM     57  C   UNL A   1      43.106  27.780  31.991  1.00  0.00     0.074 A 
ATOM     58  C   UNL A   1      43.913  26.828  31.253  1.00  0.00     0.031 C 
ATOM     59  C   UNL A   1      43.317  28.109  33.293  1.00  0.00     0.034 A 
BRANCH  46  60
ATOM     60  C   UNL A   1      39.308  32.268  35.607  1.00  0.00     0.023 A 
ATOM     61  C   UNL A   1      39.765  33.592  35.748  1.00  0.00     0.031 A 
ATOM     62  C   UNL A   1      38.471  31.756  36.613  1.00  0.00     0.131 A 
ATOM     63  C   UNL A   1      39.468  34.319  36.912  1.00  0.00     0.055 A 
ATOM     64  C   UNL A   1      38.097  32.521  37.720  1.00  0.00     0.041 A 
ATOM     65  F   UNL A   1      38.025  30.492  36.555  1.00  0.00    -0.206 F 
ATOM     66  C   UNL A   1      38.612  33.803  37.885  1.00  0.00     0.022 A 
BRANCH  63  67
ATOM     67  S   UNL A   1      40.366  35.866  37.218  1.00  0.00     0.124 S 
ATOM     68  O   UNL A   1      39.998  36.152  38.603  1.00  0.00    -0.237 OA
ATOM     69  O   UNL A   1      41.753  35.477  36.993  1.00  0.00    -0.237 OA
ATOM     70  O   UNL A   1      39.808  36.788  36.231  1.00  0.00    -0.744 OA
ENDBRANCH  63  67
ENDBRANCH  46  60
BRANCH  47  71
ATOM     71  C   UNL A   1      42.015  26.913  27.475  1.00  0.00     0.023 A 
ATOM     72  C   UNL A   1      41.756  25.536  27.401  1.00  0.00     0.031 A 
ATOM     73  C   UNL A   1      42.698  27.512  26.401  1.00  0.00     0.131 A 
ATOM     74  C   UNL A   1      42.225  24.791  26.308  1.00  0.00     0.055 A 
ATOM     75  C   UNL A   1      43.109  26.778  25.287  1.00  0.00     0.041 A 
ATOM     76  F   UNL A   1      42.964  28.828  26.414  1.00  0.00    -0.206 F 
ATOM     77  C   UNL A   1      42.887  25.405  25.243  1.00  0.00     0.022 A 
BRANCH  74  78
ATOM     78  S   UNL A   1      42.040  22.987  26.346  1.00  0.00     0.124 S 
ATOM     79  O   UNL A   1      42.622  22.603  25.065  1.00  0.00    -0.237 OA
ATOM     80  O   UNL A   1      42.810  22.630  27.534  1.00  0.00    -0.237 OA
ATOM     81  O   UNL A   1      40.596  22.796  26.460  1.00  0.00    -0.744 OA
ENDBRANCH  74  78
ENDBRANCH  47  71
BRANCH  59  82
ATOM     82  C   UNL A   1      44.435  27.388  34.000  1.00  0.00     0.023 A 
ATOM     83  C   UNL A   1      44.208  26.213  34.735  1.00  0.00     0.031 A 
ATOM     84  C   UNL A   1      45.746  27.895  33.947  1.00  0.00     0.131 A 
ATOM     85  C   UNL A   1      45.259  25.627  35.452  1.00  0.00     0.055 A 
ATOM     86  C   UNL A   1      46.803  27.263  34.598  1.00  0.00     0.041 A 
ATOM     87  F   UNL A   1      46.018  29.016  33.259  1.00  0.00    -0.206 F 
ATOM     88  C   UNL A   1      46.560  26.132  35.370  1.00  0.00     0.022 A 
BRANCH  85  89
ATOM     89  S   UNL A   1      44.878  24.272  36.594  1.00  0.00     0.124 S 
ATOM     90  O   UNL A   1      44.261  23.293  35.705  1.00  0.00    -0.237 OA
ATOM     91  O   UNL A   1      46.196  23.920  37.110  1.00  0.00    -0.237 OA
ATOM     92  O   UNL A   1      43.974  24.886  37.564  1.00  0.00    -0.744 OA
ENDBRANCH  85  89
ENDBRANCH  59  82
ENDBRANCH  33  34
ENDBRANCH  25  28
ENDBRANCH  23  24
ENDBRANCH  22  23
ENDBRANCH   1  22
TORSDOF 17
ENDMDL
MODEL 3
REMARK VINA RESULT:     -11.5      1.273      2.390
REMARK SMILES C[C@H](C(=O)NCCCCNC(=O)c1ccc(-c2c3nc(c(-c4cc(S(=O)(=O)[O-])ccc4F)c4ccc([nH]4)c(-c4cc(S(=O)(=O)[O-])ccc4F)c4nc(c(-c5cc(S(=O)(=O)[O-])ccc5F)c5ccc2[nH]5)C=C4)C=C3)cc1)[C@H](C)[NH+]1CCN(S(C)(=O)=O)CC1
REMARK SMILES IDX 7 1 6 2 5 3 3 4 4 5 2 7 1 8 76 9 77 10 78 11 79 12 87 13
REMARK SMILES IDX 80 15 86 16 81 17 82 18 83 19 84 20 85 21 8 22 9 23 10 24
REMARK SMILES IDX 11 25 12 27 13 28 14 29 75 30 15 31 74 32 16 33 17 34 18 35
REMARK SMILES IDX 68 36 19 37 73 38 67 39 69 40 20 41 72 42 66 43 65 44 21 46
REMARK SMILES IDX 53 47 33 48 52 49 34 50 37 51 51 52 70 53 35 54 36 55 50 57
REMARK SMILES IDX 71 58 38 59 22 60 23 61 31 62 24 63 30 64 32 65 29 66 25 67
REMARK SMILES IDX 26 68 27 69 28 70 54 71 55 72 63 73 56 74 62 75 64 76 61 77
REMARK SMILES IDX 57 78 58 79 59 80 60 81 39 82 40 83 48 84 41 85 47 86 49 87
REMARK SMILES IDX 46 88 42 89 43 90 44 91 45 92
REMARK H PARENT 5 6 78 14 10 26 69 45 37 56
REMARK Flexibility Score: inf
ROOT
ATOM      1  C   UNL A   1      31.442  29.710  24.884  1.00  0.00     0.023 C 
ENDROOT
BRANCH   1   2
ATOM      2  C   UNL A   1      30.447  28.982  23.991  1.00  0.00     0.116 C 
BRANCH   2   3
ATOM      3  N   UNL A   1      31.090  28.109  23.040  1.00  0.00    -0.356 N 
ATOM      4  C   UNL A   1      31.262  26.766  22.996  1.00  0.00     0.228 C 
ATOM      5  O   UNL A   1      31.800  26.346  21.964  1.00  0.00    -0.275 OA
ATOM      6  H   UNL A   1      31.481  28.583  22.271  1.00  0.00     0.163 HD
BRANCH   4   7
ATOM      7  C   UNL A   1      30.734  25.786  24.056  1.00  0.00     0.133 C 
ATOM      8  C   UNL A   1      30.553  24.406  23.368  1.00  0.00     0.024 C 
BRANCH   7   9
ATOM      9  C   UNL A   1      31.460  25.583  25.430  1.00  0.00     0.193 C 
ATOM     10  C   UNL A   1      30.927  26.541  26.533  1.00  0.00     0.076 C 
BRANCH   9  11
ATOM     11  N   UNL A   1      32.890  25.256  25.550  1.00  0.00    -0.330 N 
ATOM     12  C   UNL A   1      33.258  23.914  26.024  1.00  0.00     0.279 C 
ATOM     13  C   UNL A   1      33.862  25.757  24.583  1.00  0.00     0.279 C 
ATOM     14  H   UNL A   1      32.993  25.900  26.335  1.00  0.00     0.348 HD
ATOM     15  C   UNL A   1      33.670  22.898  24.939  1.00  0.00     0.163 C 
ATOM     16  C   UNL A   1      34.310  24.765  23.481  1.00  0.00     0.163 C 
ATOM     17  N   UNL A   1      34.682  23.462  24.030  1.00  0.00    -0.191 NA
BRANCH  17  18
ATOM     18  S   UNL A   1      36.272  22.978  24.014  1.00  0.00     0.211 S 
ATOM     19  C   UNL A   1      36.168  21.335  24.682  1.00  0.00     0.176 C 
ATOM     20  O   UNL A   1      36.709  22.873  22.636  1.00  0.00    -0.212 OA
ATOM     21  O   UNL A   1      36.996  23.780  24.975  1.00  0.00    -0.212 OA
ENDBRANCH  17  18
ENDBRANCH   9  11
ENDBRANCH   7   9
ENDBRANCH   4   7
ENDBRANCH   2   3
ENDBRANCH   1   2
BRANCH   1  22
ATOM     22  C   UNL A   1      32.868  29.212  24.793  1.00  0.00     0.023 C 
BRANCH  22  23
ATOM     23  C   UNL A   1      33.620  29.544  26.054  1.00  0.00     0.116 C 
BRANCH  23  24
ATOM     24  N   UNL A   1      33.296  30.894  26.525  1.00  0.00    -0.352 N 
ATOM     25  C   UNL A   1      33.899  31.610  27.527  1.00  0.00     0.251 C 
ATOM     26  H   UNL A   1      32.551  31.343  26.064  1.00  0.00     0.163 HD
ATOM     27  O   UNL A   1      33.356  32.591  28.015  1.00  0.00    -0.269 OA
BRANCH  25  28
ATOM     28  C   UNL A   1      35.215  31.140  27.973  1.00  0.00     0.039 A 
ATOM     29  C   UNL A   1      36.305  32.004  27.989  1.00  0.00     0.014 A 
ATOM     30  C   UNL A   1      35.298  29.848  28.497  1.00  0.00     0.014 A 
ATOM     31  C   UNL A   1      37.484  31.565  28.582  1.00  0.00     0.010 A 
ATOM     32  C   UNL A   1      36.389  29.503  29.258  1.00  0.00     0.010 A 
ATOM     33  C   UNL A   1      37.519  30.325  29.245  1.00  0.00    -0.014 A 
BRANCH  33  34
ATOM     34  C   UNL A   1      38.756  29.796  29.848  1.00  0.00     0.031 A 
ATOM     35  C   UNL A   1      39.149  30.277  31.221  1.00  0.00     0.074 A 
ATOM     36  C   UNL A   1      39.529  28.952  29.142  1.00  0.00     0.049 A 
ATOM     37  N   UNL A   1      40.217  30.003  31.919  1.00  0.00    -0.248 NA
ATOM     38  C   UNL A   1      38.251  31.249  31.872  1.00  0.00     0.031 C 
ATOM     39  C   UNL A   1      39.257  28.491  27.778  1.00  0.00     0.029 A 
ATOM     40  N   UNL A   1      40.692  28.320  29.481  1.00  0.00    -0.354 N 
ATOM     41  C   UNL A   1      40.126  30.788  33.063  1.00  0.00     0.074 A 
ATOM     42  C   UNL A   1      38.967  31.633  32.912  1.00  0.00     0.031 C 
ATOM     43  C   UNL A   1      40.190  27.593  27.425  1.00  0.00     0.029 A 
ATOM     44  C   UNL A   1      41.150  27.457  28.513  1.00  0.00     0.049 A 
ATOM     45  H   UNL A   1      41.158  28.468  30.335  1.00  0.00     0.167 HD
ATOM     46  C   UNL A   1      40.910  30.767  34.166  1.00  0.00     0.034 A 
ATOM     47  C   UNL A   1      42.221  26.643  28.525  1.00  0.00     0.034 A 
ATOM     48  C   UNL A   1      42.033  29.877  34.296  1.00  0.00     0.049 A 
ATOM     49  C   UNL A   1      43.081  26.630  29.764  1.00  0.00     0.074 A 
ATOM     50  C   UNL A   1      42.876  29.700  35.375  1.00  0.00     0.029 A 
ATOM     51  N   UNL A   1      42.469  29.010  33.299  1.00  0.00    -0.354 N 
ATOM     52  N   UNL A   1      42.948  27.326  30.872  1.00  0.00    -0.248 NA
ATOM     53  C   UNL A   1      44.223  25.711  29.759  1.00  0.00     0.031 C 
ATOM     54  C   UNL A   1      43.865  28.785  35.004  1.00  0.00     0.029 A 
ATOM     55  C   UNL A   1      43.589  28.320  33.727  1.00  0.00     0.049 A 
ATOM     56  H   UNL A   1      42.042  28.902  32.418  1.00  0.00     0.167 HD
ATOM     57  C   UNL A   1      43.972  26.898  31.712  1.00  0.00     0.074 A 
ATOM     58  C   UNL A   1      44.695  25.873  30.986  1.00  0.00     0.031 C 
ATOM     59  C   UNL A   1      44.289  27.308  32.969  1.00  0.00     0.034 A 
BRANCH  46  60
ATOM     60  C   UNL A   1      40.578  31.738  35.276  1.00  0.00     0.023 A 
ATOM     61  C   UNL A   1      39.537  31.495  36.193  1.00  0.00     0.031 A 
ATOM     62  C   UNL A   1      41.265  32.959  35.379  1.00  0.00     0.131 A 
ATOM     63  C   UNL A   1      39.149  32.495  37.098  1.00  0.00     0.055 A 
ATOM     64  C   UNL A   1      40.940  33.909  36.350  1.00  0.00     0.041 A 
ATOM     65  F   UNL A   1      42.247  33.266  34.518  1.00  0.00    -0.206 F 
ATOM     66  C   UNL A   1      39.863  33.689  37.204  1.00  0.00     0.022 A 
BRANCH  63  67
ATOM     67  S   UNL A   1      37.589  32.287  38.002  1.00  0.00     0.124 S 
ATOM     68  O   UNL A   1      36.673  33.096  37.200  1.00  0.00    -0.237 OA
ATOM     69  O   UNL A   1      37.382  30.844  37.947  1.00  0.00    -0.237 OA
ATOM     70  O   UNL A   1      37.886  32.825  39.328  1.00  0.00    -0.744 OA
ENDBRANCH  63  67
ENDBRANCH  46  60
BRANCH  47  71
ATOM     71  C   UNL A   1      42.519  25.761  27.361  1.00  0.00     0.023 A 
ATOM     72  C   UNL A   1      42.050  24.439  27.324  1.00  0.00     0.031 A 
ATOM     73  C   UNL A   1      43.300  26.213  26.282  1.00  0.00     0.131 A 
ATOM     74  C   UNL A   1      42.411  23.596  26.262  1.00  0.00     0.055 A 
ATOM     75  C   UNL A   1      43.606  25.389  25.198  1.00  0.00     0.041 A 
ATOM     76  F   UNL A   1      43.768  27.472  26.261  1.00  0.00    -0.206 F 
ATOM     77  C   UNL A   1      43.174  24.066  25.190  1.00  0.00     0.022 A 
BRANCH  74  78
ATOM     78  S   UNL A   1      41.949  21.845  26.350  1.00  0.00     0.124 S 
ATOM     79  O   UNL A   1      42.364  21.496  27.703  1.00  0.00    -0.237 OA
ATOM     80  O   UNL A   1      40.509  21.900  26.114  1.00  0.00    -0.237 OA
ATOM     81  O   UNL A   1      42.731  21.232  25.278  1.00  0.00    -0.744 OA
ENDBRANCH  74  78
ENDBRANCH  47  71
BRANCH  59  82
ATOM     82  C   UNL A   1      45.439  26.602  33.640  1.00  0.00     0.023 A 
ATOM     83  C   UNL A   1      45.243  25.454  34.426  1.00  0.00     0.031 A 
ATOM     84  C   UNL A   1      46.748  27.096  33.501  1.00  0.00     0.131 A 
ATOM     85  C   UNL A   1      46.327  24.884  35.106  1.00  0.00     0.055 A 
ATOM     86  C   UNL A   1      47.835  26.477  34.116  1.00  0.00     0.041 A 
ATOM     87  F   UNL A   1      46.991  28.190  32.761  1.00  0.00    -0.206 F 
ATOM     88  C   UNL A   1      47.625  25.375  34.939  1.00  0.00     0.022 A 
BRANCH  85  89
ATOM     89  S   UNL A   1      45.998  23.573  36.313  1.00  0.00     0.124 S 
ATOM     90  O   UNL A   1      44.912  22.839  35.672  1.00  0.00    -0.237 OA
ATOM     91  O   UNL A   1      47.281  22.881  36.379  1.00  0.00    -0.237 OA
ATOM     92  O   UNL A   1      45.624  24.305  37.521  1.00  0.00    -0.744 OA
ENDBRANCH  85  89
ENDBRANCH  59  82
ENDBRANCH  33  34
ENDBRANCH  25  28
ENDBRANCH  23  24
ENDBRANCH  22  23
ENDBRANCH   1  22
TORSDOF 17
ENDMDL
