MODEL 1
REMARK VINA RESULT:     -10.6      0.000      0.000
REMARK SMILES O=C(NCCCCNC(=O)[C@@H]1C=C[C@H](NC(=O)c2ccc(Br)cc2)C1)c1ccc(-c2c3nc(c(-c4cc(S(=O)(=O)[O-])ccc4F)c4ccc([nH]4)c(-c4cc(S(=O)(=O)[O-])ccc4F)c4nc(c(-c5cc(S(=O)(=O)[O-])ccc5F)c5ccc2[nH]5)C=C4)C=C3)cc1
REMARK SMILES IDX 5 1 4 2 3 3 1 4 2 5 26 7 27 8 88 9 28 10 87 11 29 12 30 13
REMARK SMILES IDX 31 14 81 15 32 16 86 17 80 18 82 19 33 20 85 21 79 22 78 23
REMARK SMILES IDX 34 25 66 26 46 27 65 28 47 29 50 30 64 31 83 32 48 33 49 34
REMARK SMILES IDX 63 36 84 37 51 38 35 39 36 40 44 41 37 42 43 43 45 44 42 45
REMARK SMILES IDX 38 46 39 47 40 48 41 49 67 50 68 51 76 52 69 53 75 54 77 55
REMARK SMILES IDX 74 56 70 57 71 58 72 59 73 60 52 61 53 62 61 63 54 64 60 65
REMARK SMILES IDX 62 66 59 67 55 68 56 69 57 70 58 71 6 72 7 73 8 74 9 75
REMARK SMILES IDX 10 77 11 78 12 79 25 80 13 81 14 82 15 83 16 84 17 86 18 87
REMARK SMILES IDX 19 88 24 89 20 90 23 91 21 92 22 93
REMARK H PARENT 3 6 82 24 50 35 8 76 15 85
REMARK Flexibility Score: inf
ROOT
ATOM      1  C   UNL A   1      34.412  34.620  27.908  1.00  0.00     0.023 C 
ENDROOT
BRANCH   1   2
ATOM      2  C   UNL A   1      34.195  33.333  28.697  1.00  0.00     0.116 C 
BRANCH   2   3
ATOM      3  N   UNL A   1      33.626  32.276  27.873  1.00  0.00    -0.352 N 
ATOM      4  O   UNL A   1      33.637  30.419  26.602  1.00  0.00    -0.269 OA
ATOM      5  C   UNL A   1      34.180  31.080  27.475  1.00  0.00     0.251 C 
ATOM      6  H   UNL A   1      32.709  32.440  27.554  1.00  0.00     0.163 HD
BRANCH   5   7
ATOM      7  C   UNL A   1      35.433  30.608  28.106  1.00  0.00     0.039 A 
ATOM      8  C   UNL A   1      36.668  31.067  27.647  1.00  0.00     0.014 A 
ATOM      9  C   UNL A   1      35.370  29.714  29.178  1.00  0.00     0.014 A 
ATOM     10  C   UNL A   1      37.841  30.529  28.164  1.00  0.00     0.010 A 
ATOM     11  C   UNL A   1      36.552  29.241  29.758  1.00  0.00     0.010 A 
ATOM     12  C   UNL A   1      37.799  29.625  29.238  1.00  0.00    -0.014 A 
BRANCH  12  13
ATOM     13  C   UNL A   1      39.074  29.157  29.842  1.00  0.00     0.031 A 
ATOM     14  C   UNL A   1      39.570  29.716  31.147  1.00  0.00     0.074 A 
ATOM     15  C   UNL A   1      39.772  28.195  29.207  1.00  0.00     0.049 A 
ATOM     16  N   UNL A   1      40.661  29.422  31.808  1.00  0.00    -0.248 NA
ATOM     17  C   UNL A   1      38.742  30.748  31.788  1.00  0.00     0.031 C 
ATOM     18  C   UNL A   1      39.385  27.582  27.932  1.00  0.00     0.029 A 
ATOM     19  N   UNL A   1      40.934  27.549  29.542  1.00  0.00    -0.354 N 
ATOM     20  C   UNL A   1      40.660  30.238  32.934  1.00  0.00     0.074 A 
ATOM     21  C   UNL A   1      39.474  31.065  32.846  1.00  0.00     0.031 C 
ATOM     22  C   UNL A   1      40.267  26.623  27.618  1.00  0.00     0.029 A 
ATOM     23  C   UNL A   1      41.325  26.605  28.621  1.00  0.00     0.049 A 
ATOM     24  H   UNL A   1      41.441  27.744  30.364  1.00  0.00     0.167 HD
ATOM     25  C   UNL A   1      41.564  30.284  33.947  1.00  0.00     0.034 A 
ATOM     26  C   UNL A   1      42.424  25.830  28.569  1.00  0.00     0.034 A 
ATOM     27  C   UNL A   1      42.741  29.447  34.011  1.00  0.00     0.049 A 
ATOM     28  C   UNL A   1      43.432  25.936  29.680  1.00  0.00     0.074 A 
ATOM     29  C   UNL A   1      43.703  29.389  35.006  1.00  0.00     0.029 A 
ATOM     30  N   UNL A   1      43.127  28.532  33.039  1.00  0.00    -0.354 N 
ATOM     31  N   UNL A   1      43.407  26.700  30.747  1.00  0.00    -0.248 NA
ATOM     32  C   UNL A   1      44.614  25.072  29.583  1.00  0.00     0.031 C 
ATOM     33  C   UNL A   1      44.705  28.502  34.600  1.00  0.00     0.029 A 
ATOM     34  C   UNL A   1      44.329  27.935  33.393  1.00  0.00     0.049 A 
ATOM     35  H   UNL A   1      42.621  28.335  32.218  1.00  0.00     0.167 HD
ATOM     36  C   UNL A   1      44.561  26.392  31.461  1.00  0.00     0.074 A 
ATOM     37  C   UNL A   1      45.245  25.356  30.712  1.00  0.00     0.031 C 
ATOM     38  C   UNL A   1      45.013  26.916  32.628  1.00  0.00     0.034 A 
BRANCH  25  39
ATOM     39  C   UNL A   1      41.342  31.305  35.039  1.00  0.00     0.023 A 
ATOM     40  C   UNL A   1      40.198  31.288  35.855  1.00  0.00     0.031 A 
ATOM     41  C   UNL A   1      42.294  32.317  35.267  1.00  0.00     0.131 A 
ATOM     42  C   UNL A   1      40.003  32.296  36.813  1.00  0.00     0.055 A 
ATOM     43  C   UNL A   1      42.133  33.270  36.275  1.00  0.00     0.041 A 
ATOM     44  F   UNL A   1      43.398  32.400  34.507  1.00  0.00    -0.206 F 
ATOM     45  C   UNL A   1      40.975  33.271  37.046  1.00  0.00     0.022 A 
BRANCH  42  46
ATOM     46  S   UNL A   1      38.400  32.395  37.658  1.00  0.00     0.124 S 
ATOM     47  O   UNL A   1      38.039  33.794  37.442  1.00  0.00    -0.237 OA
ATOM     48  O   UNL A   1      37.603  31.410  36.936  1.00  0.00    -0.237 OA
ATOM     49  O   UNL A   1      38.718  32.048  39.041  1.00  0.00    -0.744 OA
ENDBRANCH  42  46
ENDBRANCH  25  39
BRANCH  26  50
ATOM     50  C   UNL A   1      42.647  24.924  27.407  1.00  0.00     0.023 A 
ATOM     51  C   UNL A   1      42.125  23.622  27.388  1.00  0.00     0.031 A 
ATOM     52  C   UNL A   1      43.411  25.345  26.302  1.00  0.00     0.131 A 
ATOM     53  C   UNL A   1      42.409  22.773  26.306  1.00  0.00     0.055 A 
ATOM     54  C   UNL A   1      43.638  24.518  25.201  1.00  0.00     0.041 A 
ATOM     55  F   UNL A   1      43.931  26.582  26.268  1.00  0.00    -0.206 F 
ATOM     56  C   UNL A   1      43.146  23.217  25.206  1.00  0.00     0.022 A 
BRANCH  53  57
ATOM     57  S   UNL A   1      41.872  21.043  26.399  1.00  0.00     0.124 S 
ATOM     58  O   UNL A   1      42.235  20.692  27.767  1.00  0.00    -0.237 OA
ATOM     59  O   UNL A   1      40.443  21.154  26.121  1.00  0.00    -0.237 OA
ATOM     60  O   UNL A   1      42.658  20.388  25.355  1.00  0.00    -0.744 OA
ENDBRANCH  53  57
ENDBRANCH  26  50
BRANCH  38  61
ATOM     61  C   UNL A   1      46.293  26.339  33.183  1.00  0.00     0.023 A 
ATOM     62  C   UNL A   1      46.300  25.178  33.975  1.00  0.00     0.031 A 
ATOM     63  C   UNL A   1      47.521  26.980  32.937  1.00  0.00     0.131 A 
ATOM     64  C   UNL A   1      47.501  24.730  34.546  1.00  0.00     0.055 A 
ATOM     65  C   UNL A   1      48.722  26.490  33.452  1.00  0.00     0.041 A 
ATOM     66  F   UNL A   1      47.574  28.097  32.193  1.00  0.00    -0.206 F 
ATOM     67  C   UNL A   1      48.714  25.367  34.275  1.00  0.00     0.022 A 
BRANCH  64  68
ATOM     68  S   UNL A   1      47.441  23.364  35.739  1.00  0.00     0.124 S 
ATOM     69  O   UNL A   1      48.235  23.892  36.844  1.00  0.00    -0.237 OA
ATOM     70  O   UNL A   1      46.009  23.231  35.989  1.00  0.00    -0.237 OA
ATOM     71  O   UNL A   1      48.049  22.249  35.015  1.00  0.00    -0.744 OA
ENDBRANCH  64  68
ENDBRANCH  38  61
ENDBRANCH  12  13
ENDBRANCH   5   7
ENDBRANCH   2   3
ENDBRANCH   1   2
BRANCH   1  72
ATOM     72  C   UNL A   1      33.930  35.896  28.612  1.00  0.00     0.023 C 
BRANCH  72  73
ATOM     73  C   UNL A   1      33.129  35.656  29.896  1.00  0.00     0.116 C 
BRANCH  73  74
ATOM     74  N   UNL A   1      33.848  36.196  31.034  1.00  0.00    -0.356 N 
ATOM     75  C   UNL A   1      34.299  35.601  32.172  1.00  0.00     0.227 C 
ATOM     76  H   UNL A   1      34.043  37.159  30.972  1.00  0.00     0.163 HD
ATOM     77  O   UNL A   1      34.618  36.356  33.094  1.00  0.00    -0.274 OA
BRANCH  75  78
ATOM     78  C   UNL A   1      34.491  34.084  32.243  1.00  0.00     0.103 C 
ATOM     79  C   UNL A   1      34.474  33.624  33.671  1.00  0.00    -0.016 C 
ATOM     80  C   UNL A   1      35.894  33.613  31.807  1.00  0.00     0.047 C 
ATOM     81  C   UNL A   1      35.702  33.329  34.119  1.00  0.00    -0.006 C 
ATOM     82  C   UNL A   1      36.768  33.541  33.074  1.00  0.00     0.106 C 
BRANCH  82  83
ATOM     83  N   UNL A   1      37.579  34.665  33.543  1.00  0.00    -0.346 N 
ATOM     84  C   UNL A   1      38.934  34.821  33.740  1.00  0.00     0.251 C 
ATOM     85  H   UNL A   1      37.052  35.469  33.760  1.00  0.00     0.164 HD
ATOM     86  O   UNL A   1      39.324  35.302  34.804  1.00  0.00    -0.269 OA
BRANCH  84  87
ATOM     87  C   UNL A   1      39.930  34.530  32.681  1.00  0.00     0.039 A 
ATOM     88  C   UNL A   1      39.529  34.416  31.357  1.00  0.00     0.015 A 
ATOM     89  C   UNL A   1      41.300  34.514  32.957  1.00  0.00     0.015 A 
ATOM     90  C   UNL A   1      40.419  34.057  30.347  1.00  0.00     0.016 A 
ATOM     91  C   UNL A   1      42.221  34.232  31.936  1.00  0.00     0.016 A 
ATOM     92  C   UNL A   1      41.768  33.951  30.647  1.00  0.00     0.018 A 
ATOM     93  Br  UNL A   1      42.978  33.455  29.287  1.00  0.00    -0.051 Br
ENDBRANCH  84  87
ENDBRANCH  82  83
ENDBRANCH  75  78
ENDBRANCH  73  74
ENDBRANCH  72  73
ENDBRANCH   1  72
TORSDOF 16
ENDMDL
MODEL 2
REMARK VINA RESULT:     -10.6      4.891     10.856
REMARK SMILES O=C(NCCCCNC(=O)[C@@H]1C=C[C@H](NC(=O)c2ccc(Br)cc2)C1)c1ccc(-c2c3nc(c(-c4cc(S(=O)(=O)[O-])ccc4F)c4ccc([nH]4)c(-c4cc(S(=O)(=O)[O-])ccc4F)c4nc(c(-c5cc(S(=O)(=O)[O-])ccc5F)c5ccc2[nH]5)C=C4)C=C3)cc1
REMARK SMILES IDX 5 1 4 2 3 3 1 4 2 5 26 7 27 8 88 9 28 10 87 11 29 12 30 13
REMARK SMILES IDX 31 14 81 15 32 16 86 17 80 18 82 19 33 20 85 21 79 22 78 23
REMARK SMILES IDX 34 25 66 26 46 27 65 28 47 29 50 30 64 31 83 32 48 33 49 34
REMARK SMILES IDX 63 36 84 37 51 38 35 39 36 40 44 41 37 42 43 43 45 44 42 45
REMARK SMILES IDX 38 46 39 47 40 48 41 49 67 50 68 51 76 52 69 53 75 54 77 55
REMARK SMILES IDX 74 56 70 57 71 58 72 59 73 60 52 61 53 62 61 63 54 64 60 65
REMARK SMILES IDX 62 66 59 67 55 68 56 69 57 70 58 71 6 72 7 73 8 74 9 75
REMARK SMILES IDX 10 77 11 78 12 79 25 80 13 81 14 82 15 83 16 84 17 86 18 87
REMARK SMILES IDX 19 88 24 89 20 90 23 91 21 92 22 93
REMARK H PARENT 3 6 82 24 50 35 8 76 15 85
REMARK Flexibility Score: inf
ROOT
ATOM      1  C   UNL A   1      31.362  31.933  26.496  1.00  0.00     0.023 C 
ENDROOT
BRANCH   1   2
ATOM      2  C   UNL A   1      32.608  32.379  27.255  1.00  0.00     0.116 C 
BRANCH   2   3
ATOM      3  N   UNL A   1      32.556  33.789  27.611  1.00  0.00    -0.352 N 
ATOM      4  O   UNL A   1      32.922  35.612  28.880  1.00  0.00    -0.269 OA
ATOM      5  C   UNL A   1      33.258  34.477  28.576  1.00  0.00     0.251 C 
ATOM      6  H   UNL A   1      31.926  34.332  27.084  1.00  0.00     0.163 HD
BRANCH   5   7
ATOM      7  C   UNL A   1      34.413  33.831  29.240  1.00  0.00     0.039 A 
ATOM      8  C   UNL A   1      34.212  32.794  30.151  1.00  0.00     0.014 A 
ATOM      9  C   UNL A   1      35.709  34.255  28.932  1.00  0.00     0.014 A 
ATOM     10  C   UNL A   1      35.291  32.277  30.858  1.00  0.00     0.010 A 
ATOM     11  C   UNL A   1      36.802  33.670  29.579  1.00  0.00     0.010 A 
ATOM     12  C   UNL A   1      36.601  32.693  30.567  1.00  0.00    -0.014 A 
BRANCH  12  13
ATOM     13  C   UNL A   1      37.740  32.036  31.260  1.00  0.00     0.031 A 
ATOM     14  C   UNL A   1      38.507  30.917  30.611  1.00  0.00     0.074 A 
ATOM     15  C   UNL A   1      38.094  32.482  32.482  1.00  0.00     0.049 A 
ATOM     16  N   UNL A   1      39.522  30.235  31.078  1.00  0.00    -0.248 NA
ATOM     17  C   UNL A   1      38.073  30.502  29.270  1.00  0.00     0.031 C 
ATOM     18  C   UNL A   1      37.416  33.561  33.208  1.00  0.00     0.029 A 
ATOM     19  N   UNL A   1      39.110  32.108  33.322  1.00  0.00    -0.354 N 
ATOM     20  C   UNL A   1      39.842  29.301  30.098  1.00  0.00     0.074 A 
ATOM     21  C   UNL A   1      38.887  29.484  29.024  1.00  0.00     0.031 C 
ATOM     22  C   UNL A   1      38.061  33.789  34.360  1.00  0.00     0.029 A 
ATOM     23  C   UNL A   1      39.145  32.824  34.497  1.00  0.00     0.049 A 
ATOM     24  H   UNL A   1      39.753  31.393  33.107  1.00  0.00     0.167 HD
ATOM     25  C   UNL A   1      40.843  28.384  30.097  1.00  0.00     0.034 A 
ATOM     26  C   UNL A   1      39.939  32.702  35.577  1.00  0.00     0.034 A 
ATOM     27  C   UNL A   1      41.784  28.221  31.183  1.00  0.00     0.049 A 
ATOM     28  C   UNL A   1      41.009  31.645  35.568  1.00  0.00     0.074 A 
ATOM     29  C   UNL A   1      42.855  27.347  31.270  1.00  0.00     0.029 A 
ATOM     30  N   UNL A   1      41.762  28.935  32.374  1.00  0.00    -0.354 N 
ATOM     31  N   UNL A   1      41.309  30.782  34.625  1.00  0.00    -0.248 NA
ATOM     32  C   UNL A   1      41.851  31.550  36.766  1.00  0.00     0.031 C 
ATOM     33  C   UNL A   1      43.428  27.477  32.539  1.00  0.00     0.029 A 
ATOM     34  C   UNL A   1      42.776  28.496  33.215  1.00  0.00     0.049 A 
ATOM     35  H   UNL A   1      41.122  29.650  32.592  1.00  0.00     0.167 HD
ATOM     36  C   UNL A   1      42.391  30.054  35.109  1.00  0.00     0.074 A 
ATOM     37  C   UNL A   1      42.702  30.597  36.417  1.00  0.00     0.031 C 
ATOM     38  C   UNL A   1      43.066  29.031  34.526  1.00  0.00     0.034 A 
BRANCH  25  39
ATOM     39  C   UNL A   1      40.940  27.453  28.910  1.00  0.00     0.023 A 
ATOM     40  C   UNL A   1      41.913  27.621  27.908  1.00  0.00     0.031 A 
ATOM     41  C   UNL A   1      40.042  26.378  28.777  1.00  0.00     0.131 A 
ATOM     42  C   UNL A   1      41.923  26.772  26.790  1.00  0.00     0.055 A 
ATOM     43  C   UNL A   1      40.108  25.488  27.702  1.00  0.00     0.041 A 
ATOM     44  F   UNL A   1      39.078  26.177  29.689  1.00  0.00    -0.206 F 
ATOM     45  C   UNL A   1      41.044  25.691  26.694  1.00  0.00     0.022 A 
BRANCH  42  46
ATOM     46  S   UNL A   1      43.012  27.181  25.397  1.00  0.00     0.124 S 
ATOM     47  O   UNL A   1      44.236  27.581  26.087  1.00  0.00    -0.237 OA
ATOM     48  O   UNL A   1      43.073  25.922  24.665  1.00  0.00    -0.237 OA
ATOM     49  O   UNL A   1      42.306  28.266  24.717  1.00  0.00    -0.744 OA
ENDBRANCH  42  46
ENDBRANCH  25  39
BRANCH  26  50
ATOM     50  C   UNL A   1      39.720  33.572  36.768  1.00  0.00     0.023 A 
ATOM     51  C   UNL A   1      39.057  33.093  37.908  1.00  0.00     0.031 A 
ATOM     52  C   UNL A   1      40.155  34.910  36.771  1.00  0.00     0.131 A 
ATOM     53  C   UNL A   1      38.810  33.958  38.986  1.00  0.00     0.055 A 
ATOM     54  C   UNL A   1      39.962  35.748  37.869  1.00  0.00     0.041 A 
ATOM     55  F   UNL A   1      40.797  35.418  35.707  1.00  0.00    -0.206 F 
ATOM     56  C   UNL A   1      39.272  35.276  38.981  1.00  0.00     0.022 A 
BRANCH  53  57
ATOM     57  S   UNL A   1      37.793  33.358  40.362  1.00  0.00     0.124 S 
ATOM     58  O   UNL A   1      37.688  34.550  41.195  1.00  0.00    -0.237 OA
ATOM     59  O   UNL A   1      36.573  32.942  39.678  1.00  0.00    -0.237 OA
ATOM     60  O   UNL A   1      38.592  32.270  40.924  1.00  0.00    -0.744 OA
ENDBRANCH  53  57
ENDBRANCH  26  50
BRANCH  38  61
ATOM     61  C   UNL A   1      44.237  28.465  35.291  1.00  0.00     0.023 A 
ATOM     62  C   UNL A   1      44.072  27.469  36.270  1.00  0.00     0.031 A 
ATOM     63  C   UNL A   1      45.536  28.951  35.056  1.00  0.00     0.131 A 
ATOM     64  C   UNL A   1      45.176  27.038  37.022  1.00  0.00     0.055 A 
ATOM     65  C   UNL A   1      46.640  28.469  35.760  1.00  0.00     0.041 A 
ATOM     66  F   UNL A   1      45.753  29.907  34.138  1.00  0.00    -0.206 F 
ATOM     67  C   UNL A   1      46.461  27.518  36.760  1.00  0.00     0.022 A 
BRANCH  64  68
ATOM     68  S   UNL A   1      44.892  25.920  38.422  1.00  0.00     0.124 S 
ATOM     69  O   UNL A   1      46.218  25.851  39.027  1.00  0.00    -0.237 OA
ATOM     70  O   UNL A   1      43.876  26.634  39.191  1.00  0.00    -0.237 OA
ATOM     71  O   UNL A   1      44.433  24.686  37.788  1.00  0.00    -0.744 OA
ENDBRANCH  64  68
ENDBRANCH  38  61
ENDBRANCH  12  13
ENDBRANCH   5   7
ENDBRANCH   2   3
ENDBRANCH   1   2
BRANCH   1  72
ATOM     72  C   UNL A   1      31.483  30.567  25.805  1.00  0.00     0.023 C 
BRANCH  72  73
ATOM     73  C   UNL A   1      30.601  30.396  24.564  1.00  0.00     0.116 C 
BRANCH  73  74
ATOM     74  N   UNL A   1      31.232  29.481  23.633  1.00  0.00    -0.356 N 
ATOM     75  C   UNL A   1      31.432  28.137  23.695  1.00  0.00     0.227 C 
ATOM     76  H   UNL A   1      31.576  29.907  22.814  1.00  0.00     0.163 HD
ATOM     77  O   UNL A   1      32.251  27.669  22.901  1.00  0.00    -0.274 OA
BRANCH  75  78
ATOM     78  C   UNL A   1      30.598  27.261  24.634  1.00  0.00     0.103 C 
ATOM     79  C   UNL A   1      31.494  26.395  25.470  1.00  0.00    -0.016 C 
ATOM     80  C   UNL A   1      29.761  26.189  23.906  1.00  0.00     0.047 C 
ATOM     81  C   UNL A   1      31.499  25.123  25.049  1.00  0.00    -0.006 C 
ATOM     82  C   UNL A   1      30.610  24.903  23.851  1.00  0.00     0.106 C 
BRANCH  82  83
ATOM     83  N   UNL A   1      31.502  24.589  22.735  1.00  0.00    -0.346 N 
ATOM     84  C   UNL A   1      32.649  23.830  22.643  1.00  0.00     0.251 C 
ATOM     85  H   UNL A   1      31.229  24.999  21.883  1.00  0.00     0.164 HD
ATOM     86  O   UNL A   1      33.631  24.311  22.077  1.00  0.00    -0.269 OA
BRANCH  84  87
ATOM     87  C   UNL A   1      32.711  22.422  23.104  1.00  0.00     0.039 A 
ATOM     88  C   UNL A   1      32.139  21.412  22.342  1.00  0.00     0.015 A 
ATOM     89  C   UNL A   1      33.465  22.056  24.223  1.00  0.00     0.015 A 
ATOM     90  C   UNL A   1      32.099  20.092  22.784  1.00  0.00     0.016 A 
ATOM     91  C   UNL A   1      33.503  20.717  24.640  1.00  0.00     0.016 A 
ATOM     92  C   UNL A   1      32.773  19.751  23.947  1.00  0.00     0.018 A 
ATOM     93  Br  UNL A   1      32.714  17.966  24.557  1.00  0.00    -0.051 Br
ENDBRANCH  84  87
ENDBRANCH  82  83
ENDBRANCH  75  78
ENDBRANCH  73  74
ENDBRANCH  72  73
ENDBRANCH   1  72
TORSDOF 16
ENDMDL
MODEL 3
REMARK VINA RESULT:     -10.5      4.191      7.480
REMARK SMILES O=C(NCCCCNC(=O)[C@@H]1C=C[C@H](NC(=O)c2ccc(Br)cc2)C1)c1ccc(-c2c3nc(c(-c4cc(S(=O)(=O)[O-])ccc4F)c4ccc([nH]4)c(-c4cc(S(=O)(=O)[O-])ccc4F)c4nc(c(-c5cc(S(=O)(=O)[O-])ccc5F)c5ccc2[nH]5)C=C4)C=C3)cc1
REMARK SMILES IDX 5 1 4 2 3 3 1 4 2 5 26 7 27 8 88 9 28 10 87 11 29 12 30 13
REMARK SMILES IDX 31 14 81 15 32 16 86 17 80 18 82 19 33 20 85 21 79 22 78 23
REMARK SMILES IDX 34 25 66 26 46 27 65 28 47 29 50 30 64 31 83 32 48 33 49 34
REMARK SMILES IDX 63 36 84 37 51 38 35 39 36 40 44 41 37 42 43 43 45 44 42 45
REMARK SMILES IDX 38 46 39 47 40 48 41 49 67 50 68 51 76 52 69 53 75 54 77 55
REMARK SMILES IDX 74 56 70 57 71 58 72 59 73 60 52 61 53 62 61 63 54 64 60 65
REMARK SMILES IDX 62 66 59 67 55 68 56 69 57 70 58 71 6 72 7 73 8 74 9 75
REMARK SMILES IDX 10 77 11 78 12 79 25 80 13 81 14 82 15 83 16 84 17 86 18 87
REMARK SMILES IDX 19 88 24 89 20 90 23 91 21 92 22 93
REMARK H PARENT 3 6 82 24 50 35 8 76 15 85
REMARK Flexibility Score: inf
ROOT
ATOM      1  C   UNL A   1      32.914  28.095  25.267  1.00  0.00     0.023 C 
ENDROOT
BRANCH   1   2
ATOM      2  C   UNL A   1      34.088  28.691  26.037  1.00  0.00     0.116 C 
BRANCH   2   3
ATOM      3  N   UNL A   1      33.800  30.035  26.517  1.00  0.00    -0.352 N 
ATOM      4  O   UNL A   1      33.903  31.789  27.924  1.00  0.00    -0.269 OA
ATOM      5  C   UNL A   1      34.421  30.764  27.507  1.00  0.00     0.251 C 
ATOM      6  H   UNL A   1      33.052  30.490  26.068  1.00  0.00     0.163 HD
BRANCH   5   7
ATOM      7  C   UNL A   1      35.712  30.296  28.060  1.00  0.00     0.039 A 
ATOM      8  C   UNL A   1      36.893  30.475  27.339  1.00  0.00     0.014 A 
ATOM      9  C   UNL A   1      35.742  29.693  29.321  1.00  0.00     0.014 A 
ATOM     10  C   UNL A   1      38.080  29.927  27.811  1.00  0.00     0.010 A 
ATOM     11  C   UNL A   1      36.955  29.222  29.835  1.00  0.00     0.010 A 
ATOM     12  C   UNL A   1      38.131  29.311  29.073  1.00  0.00    -0.014 A 
BRANCH  12  13
ATOM     13  C   UNL A   1      39.440  28.840  29.597  1.00  0.00     0.031 A 
ATOM     14  C   UNL A   1      40.108  29.524  30.757  1.00  0.00     0.074 A 
ATOM     15  C   UNL A   1      40.010  27.761  29.025  1.00  0.00     0.049 A 
ATOM     16  N   UNL A   1      41.249  29.242  31.333  1.00  0.00    -0.248 NA
ATOM     17  C   UNL A   1      39.412  30.680  31.339  1.00  0.00     0.031 C 
ATOM     18  C   UNL A   1      39.450  27.020  27.889  1.00  0.00     0.029 A 
ATOM     19  N   UNL A   1      41.166  27.086  29.319  1.00  0.00    -0.354 N 
ATOM     20  C   UNL A   1      41.418  30.192  32.336  1.00  0.00     0.074 A 
ATOM     21  C   UNL A   1      40.275  31.079  32.264  1.00  0.00     0.031 C 
ATOM     22  C   UNL A   1      40.239  25.972  27.615  1.00  0.00     0.029 A 
ATOM     23  C   UNL A   1      41.401  26.009  28.496  1.00  0.00     0.049 A 
ATOM     24  H   UNL A   1      41.773  27.348  30.050  1.00  0.00     0.167 HD
ATOM     25  C   UNL A   1      42.431  30.304  33.233  1.00  0.00     0.034 A 
ATOM     26  C   UNL A   1      42.445  25.162  28.432  1.00  0.00     0.034 A 
ATOM     27  C   UNL A   1      43.562  29.406  33.284  1.00  0.00     0.049 A 
ATOM     28  C   UNL A   1      43.576  25.340  29.407  1.00  0.00     0.074 A 
ATOM     29  C   UNL A   1      44.625  29.409  34.172  1.00  0.00     0.029 A 
ATOM     30  N   UNL A   1      43.787  28.352  32.406  1.00  0.00    -0.354 N 
ATOM     31  N   UNL A   1      43.711  26.232  30.361  1.00  0.00    -0.248 NA
ATOM     32  C   UNL A   1      44.692  24.393  29.302  1.00  0.00     0.031 C 
ATOM     33  C   UNL A   1      45.527  28.413  33.784  1.00  0.00     0.029 A 
ATOM     34  C   UNL A   1      44.988  27.725  32.709  1.00  0.00     0.049 A 
ATOM     35  H   UNL A   1      43.182  28.087  31.676  1.00  0.00     0.167 HD
ATOM     36  C   UNL A   1      44.920  25.940  30.984  1.00  0.00     0.074 A 
ATOM     37  C   UNL A   1      45.460  24.774  30.311  1.00  0.00     0.031 C 
ATOM     38  C   UNL A   1      45.527  26.575  32.018  1.00  0.00     0.034 A 
BRANCH  25  39
ATOM     39  C   UNL A   1      42.387  31.467  34.198  1.00  0.00     0.023 A 
ATOM     40  C   UNL A   1      41.551  31.468  35.328  1.00  0.00     0.031 A 
ATOM     41  C   UNL A   1      43.197  32.598  33.982  1.00  0.00     0.131 A 
ATOM     42  C   UNL A   1      41.496  32.598  36.160  1.00  0.00     0.055 A 
ATOM     43  C   UNL A   1      43.196  33.686  34.857  1.00  0.00     0.041 A 
ATOM     44  F   UNL A   1      44.002  32.666  32.910  1.00  0.00    -0.206 F 
ATOM     45  C   UNL A   1      42.332  33.696  35.947  1.00  0.00     0.022 A 
BRANCH  42  46
ATOM     46  S   UNL A   1      40.217  32.669  37.446  1.00  0.00     0.124 S 
ATOM     47  O   UNL A   1      39.311  31.605  37.021  1.00  0.00    -0.237 OA
ATOM     48  O   UNL A   1      40.979  32.413  38.662  1.00  0.00    -0.237 OA
ATOM     49  O   UNL A   1      39.678  34.022  37.320  1.00  0.00    -0.744 OA
ENDBRANCH  42  46
ENDBRANCH  25  39
BRANCH  26  50
ATOM     50  C   UNL A   1      42.488  24.105  27.382  1.00  0.00     0.023 A 
ATOM     51  C   UNL A   1      41.817  22.884  27.551  1.00  0.00     0.031 A 
ATOM     52  C   UNL A   1      43.225  24.294  26.199  1.00  0.00     0.131 A 
ATOM     53  C   UNL A   1      41.932  21.884  26.572  1.00  0.00     0.055 A 
ATOM     54  C   UNL A   1      43.285  23.321  25.201  1.00  0.00     0.041 A 
ATOM     55  F   UNL A   1      43.883  25.445  25.985  1.00  0.00    -0.206 F 
ATOM     56  C   UNL A   1      42.647  22.101  25.391  1.00  0.00     0.022 A 
BRANCH  53  57
ATOM     57  S   UNL A   1      41.203  20.257  26.905  1.00  0.00     0.124 S 
ATOM     58  O   UNL A   1      42.312  19.365  26.590  1.00  0.00    -0.237 OA
ATOM     59  O   UNL A   1      40.849  20.369  28.317  1.00  0.00    -0.237 OA
ATOM     60  O   UNL A   1      40.071  20.198  25.984  1.00  0.00    -0.744 OA
ENDBRANCH  53  57
ENDBRANCH  26  50
BRANCH  38  61
ATOM     61  C   UNL A   1      46.829  25.988  32.507  1.00  0.00     0.023 A 
ATOM     62  C   UNL A   1      46.868  25.005  33.512  1.00  0.00     0.031 A 
ATOM     63  C   UNL A   1      48.052  26.442  31.979  1.00  0.00     0.131 A 
ATOM     64  C   UNL A   1      48.104  24.554  34.001  1.00  0.00     0.055 A 
ATOM     65  C   UNL A   1      49.276  25.940  32.423  1.00  0.00     0.041 A 
ATOM     66  F   UNL A   1      48.075  27.385  31.023  1.00  0.00    -0.206 F 
ATOM     67  C   UNL A   1      49.307  25.002  33.450  1.00  0.00     0.022 A 
BRANCH  64  68
ATOM     68  S   UNL A   1      48.121  23.455  35.444  1.00  0.00     0.124 S 
ATOM     69  O   UNL A   1      46.800  23.691  36.019  1.00  0.00    -0.237 OA
ATOM     70  O   UNL A   1      48.327  22.144  34.836  1.00  0.00    -0.237 OA
ATOM     71  O   UNL A   1      49.241  23.952  36.240  1.00  0.00    -0.744 OA
ENDBRANCH  64  68
ENDBRANCH  38  61
ENDBRANCH  12  13
ENDBRANCH   5   7
ENDBRANCH   2   3
ENDBRANCH   1   2
BRANCH   1  72
ATOM     72  C   UNL A   1      33.291  26.980  24.281  1.00  0.00     0.023 C 
BRANCH  72  73
ATOM     73  C   UNL A   1      34.012  25.784  24.912  1.00  0.00     0.116 C 
BRANCH  73  74
ATOM     74  N   UNL A   1      34.326  24.803  23.891  1.00  0.00    -0.356 N 
ATOM     75  C   UNL A   1      35.312  23.869  23.819  1.00  0.00     0.227 C 
ATOM     76  H   UNL A   1      33.719  24.816  23.115  1.00  0.00     0.163 HD
ATOM     77  O   UNL A   1      35.515  23.371  22.710  1.00  0.00    -0.274 OA
BRANCH  75  78
ATOM     78  C   UNL A   1      36.045  23.402  25.080  1.00  0.00     0.103 C 
ATOM     79  C   UNL A   1      36.946  22.245  24.760  1.00  0.00    -0.016 C 
ATOM     80  C   UNL A   1      35.121  22.761  26.136  1.00  0.00     0.047 C 
ATOM     81  C   UNL A   1      36.440  21.080  25.189  1.00  0.00    -0.006 C 
ATOM     82  C   UNL A   1      35.106  21.242  25.873  1.00  0.00     0.106 C 
BRANCH  82  83
ATOM     83  N   UNL A   1      34.123  20.598  25.002  1.00  0.00    -0.346 N 
ATOM     84  C   UNL A   1      32.747  20.654  24.945  1.00  0.00     0.251 C 
ATOM     85  H   UNL A   1      34.523  20.009  24.321  1.00  0.00     0.164 HD
ATOM     86  O   UNL A   1      32.115  19.600  24.882  1.00  0.00    -0.269 OA
BRANCH  84  87
ATOM     87  C   UNL A   1      32.007  21.936  24.852  1.00  0.00     0.039 A 
ATOM     88  C   UNL A   1      31.673  22.460  23.611  1.00  0.00     0.015 A 
ATOM     89  C   UNL A   1      31.498  22.566  25.991  1.00  0.00     0.015 A 
ATOM     90  C   UNL A   1      31.058  23.703  23.480  1.00  0.00     0.016 A 
ATOM     91  C   UNL A   1      30.805  23.780  25.874  1.00  0.00     0.016 A 
ATOM     92  C   UNL A   1      30.637  24.369  24.621  1.00  0.00     0.018 A 
ATOM     93  Br  UNL A   1      29.812  26.058  24.452  1.00  0.00    -0.051 Br
ENDBRANCH  84  87
ENDBRANCH  82  83
ENDBRANCH  75  78
ENDBRANCH  73  74
ENDBRANCH  72  73
ENDBRANCH   1  72
TORSDOF 16
ENDMDL
