MODEL 1
REMARK VINA RESULT:     -13.5      0.000      0.000
REMARK SMILES O=C(NCCCCNC(=O)c1ccc2c(c1)[C@@H]1C=CC[C@@H]1[C@H](c1ccncc1)N2)c1ccc(-c2c3nc(c(-c4cc(S(=O)(=O)[O-])ccc4F)c4ccc([nH]4)c(-c4cc(S(=O)(=O)[O-])ccc4F)c4nc(c(-c5cc(S(=O)(=O)[O-])ccc5F)c5ccc2[nH]5)C=C4)C=C3)cc1
REMARK SMILES IDX 4 1 3 2 1 3 2 4 30 6 31 7 92 8 32 9 91 10 33 11 34 12 35 13
REMARK SMILES IDX 85 14 36 15 90 16 84 17 86 18 37 19 89 20 83 21 82 22 38 24
REMARK SMILES IDX 70 25 50 26 69 27 51 28 54 29 68 30 87 31 52 32 53 33 67 35
REMARK SMILES IDX 88 36 55 37 39 38 40 39 48 40 41 41 47 42 49 43 46 44 42 45
REMARK SMILES IDX 43 46 44 47 45 48 71 49 72 50 80 51 73 52 79 53 81 54 78 55
REMARK SMILES IDX 74 56 75 57 76 58 77 59 56 60 57 61 65 62 58 63 64 64 66 65
REMARK SMILES IDX 63 66 59 67 60 68 61 69 62 70 5 71 6 72 7 73 8 74 9 75 10 77
REMARK SMILES IDX 11 78 12 79 16 80 13 81 15 82 14 83 17 84 29 85 18 86 21 87
REMARK SMILES IDX 22 88 19 90 20 91 23 92 24 93 28 94 25 95 27 96 26 97
REMARK H PARENT 3 5 86 23 54 34 8 76 29 89
REMARK Flexibility Score: inf
ROOT
ATOM      1  C   UNL A   1      36.480  22.025  25.305  1.00  0.00     0.116 C 
ENDROOT
BRANCH   1   2
ATOM      2  N   UNL A   1      37.416  20.923  25.468  1.00  0.00    -0.352 N 
ATOM      3  O   UNL A   1      39.408  19.929  25.834  1.00  0.00    -0.269 OA
ATOM      4  C   UNL A   1      38.731  20.954  25.870  1.00  0.00     0.251 C 
ATOM      5  H   UNL A   1      37.058  20.029  25.259  1.00  0.00     0.163 HD
BRANCH   4   6
ATOM      6  C   UNL A   1      39.332  22.229  26.320  1.00  0.00     0.039 A 
ATOM      7  C   UNL A   1      38.815  23.452  25.887  1.00  0.00     0.014 A 
ATOM      8  C   UNL A   1      40.437  22.197  27.176  1.00  0.00     0.014 A 
ATOM      9  C   UNL A   1      39.489  24.630  26.185  1.00  0.00     0.010 A 
ATOM     10  C   UNL A   1      41.064  23.392  27.544  1.00  0.00     0.010 A 
ATOM     11  C   UNL A   1      40.615  24.617  27.024  1.00  0.00    -0.014 A 
BRANCH  11  12
ATOM     12  C   UNL A   1      41.273  25.901  27.379  1.00  0.00     0.031 A 
ATOM     13  C   UNL A   1      42.635  26.250  26.846  1.00  0.00     0.074 A 
ATOM     14  C   UNL A   1      40.608  26.770  28.166  1.00  0.00     0.049 A 
ATOM     15  N   UNL A   1      43.348  27.330  27.048  1.00  0.00    -0.248 NA
ATOM     16  C   UNL A   1      43.288  25.254  25.984  1.00  0.00     0.031 C 
ATOM     17  C   UNL A   1      39.282  26.534  28.743  1.00  0.00     0.029 A 
ATOM     18  N   UNL A   1      40.940  28.025  28.603  1.00  0.00    -0.354 N 
ATOM     19  C   UNL A   1      44.537  27.141  26.351  1.00  0.00     0.074 A 
ATOM     20  C   UNL A   1      44.461  25.825  25.750  1.00  0.00     0.031 C 
ATOM     21  C   UNL A   1      38.897  27.625  29.420  1.00  0.00     0.029 A 
ATOM     22  C   UNL A   1      39.971  28.609  29.383  1.00  0.00     0.049 A 
ATOM     23  H   UNL A   1      41.792  28.467  28.380  1.00  0.00     0.167 HD
ATOM     24  C   UNL A   1      45.589  27.990  26.222  1.00  0.00     0.034 A 
ATOM     25  C   UNL A   1      39.953  29.797  30.018  1.00  0.00     0.034 A 
ATOM     26  C   UNL A   1      45.644  29.300  26.829  1.00  0.00     0.049 A 
ATOM     27  C   UNL A   1      41.145  30.704  29.887  1.00  0.00     0.074 A 
ATOM     28  C   UNL A   1      46.646  30.252  26.737  1.00  0.00     0.029 A 
ATOM     29  N   UNL A   1      44.660  29.843  27.648  1.00  0.00    -0.354 N 
ATOM     30  N   UNL A   1      42.257  30.514  29.215  1.00  0.00    -0.248 NA
ATOM     31  C   UNL A   1      41.079  31.986  30.598  1.00  0.00     0.031 C 
ATOM     32  C   UNL A   1      46.297  31.339  27.548  1.00  0.00     0.029 A 
ATOM     33  C   UNL A   1      45.045  31.099  28.092  1.00  0.00     0.049 A 
ATOM     34  H   UNL A   1      43.813  29.398  27.880  1.00  0.00     0.167 HD
ATOM     35  C   UNL A   1      43.017  31.661  29.411  1.00  0.00     0.074 A 
ATOM     36  C   UNL A   1      42.227  32.544  30.246  1.00  0.00     0.031 C 
ATOM     37  C   UNL A   1      44.257  31.957  28.945  1.00  0.00     0.034 A 
BRANCH  24  38
ATOM     38  C   UNL A   1      46.782  27.506  25.433  1.00  0.00     0.023 A 
ATOM     39  C   UNL A   1      47.026  27.937  24.116  1.00  0.00     0.031 A 
ATOM     40  C   UNL A   1      47.683  26.588  26.001  1.00  0.00     0.131 A 
ATOM     41  C   UNL A   1      48.102  27.401  23.391  1.00  0.00     0.055 A 
ATOM     42  C   UNL A   1      48.793  26.112  25.299  1.00  0.00     0.041 A 
ATOM     43  F   UNL A   1      47.492  26.125  27.246  1.00  0.00    -0.206 F 
ATOM     44  C   UNL A   1      49.001  26.509  23.982  1.00  0.00     0.022 A 
BRANCH  41  45
ATOM     45  S   UNL A   1      48.237  27.785  21.624  1.00  0.00     0.124 S 
ATOM     46  O   UNL A   1      49.310  28.778  21.617  1.00  0.00    -0.237 OA
ATOM     47  O   UNL A   1      48.561  26.489  21.042  1.00  0.00    -0.237 OA
ATOM     48  O   UNL A   1      46.915  28.309  21.285  1.00  0.00    -0.744 OA
ENDBRANCH  41  45
ENDBRANCH  24  38
BRANCH  25  49
ATOM     49  C   UNL A   1      38.785  30.176  30.859  1.00  0.00     0.023 A 
ATOM     50  C   UNL A   1      37.738  30.951  30.341  1.00  0.00     0.031 A 
ATOM     51  C   UNL A   1      38.708  29.773  32.205  1.00  0.00     0.131 A 
ATOM     52  C   UNL A   1      36.673  31.330  31.173  1.00  0.00     0.055 A 
ATOM     53  C   UNL A   1      37.623  30.109  33.015  1.00  0.00     0.041 A 
ATOM     54  F   UNL A   1      39.682  29.024  32.746  1.00  0.00    -0.206 F 
ATOM     55  C   UNL A   1      36.602  30.903  32.502  1.00  0.00     0.022 A 
BRANCH  52  56
ATOM     56  S   UNL A   1      35.408  32.448  30.512  1.00  0.00     0.124 S 
ATOM     57  O   UNL A   1      35.051  31.787  29.262  1.00  0.00    -0.237 OA
ATOM     58  O   UNL A   1      34.398  32.419  31.565  1.00  0.00    -0.237 OA
ATOM     59  O   UNL A   1      36.118  33.717  30.367  1.00  0.00    -0.744 OA
ENDBRANCH  52  56
ENDBRANCH  25  49
BRANCH  37  60
ATOM     60  C   UNL A   1      44.809  33.311  29.315  1.00  0.00     0.023 A 
ATOM     61  C   UNL A   1      44.519  34.456  28.554  1.00  0.00     0.031 A 
ATOM     62  C   UNL A   1      45.663  33.448  30.423  1.00  0.00     0.131 A 
ATOM     63  C   UNL A   1      45.126  35.680  28.877  1.00  0.00     0.055 A 
ATOM     64  C   UNL A   1      46.220  34.678  30.772  1.00  0.00     0.041 A 
ATOM     65  F   UNL A   1      45.976  32.384  31.180  1.00  0.00    -0.206 F 
ATOM     66  C   UNL A   1      45.963  35.800  29.990  1.00  0.00     0.022 A 
BRANCH  63  67
ATOM     67  S   UNL A   1      44.879  37.093  27.768  1.00  0.00     0.124 S 
ATOM     68  O   UNL A   1      43.881  36.579  26.837  1.00  0.00    -0.237 OA
ATOM     69  O   UNL A   1      44.421  38.134  28.683  1.00  0.00    -0.237 OA
ATOM     70  O   UNL A   1      46.205  37.314  27.194  1.00  0.00    -0.744 OA
ENDBRANCH  63  67
ENDBRANCH  37  60
ENDBRANCH  11  12
ENDBRANCH   4   6
ENDBRANCH   1   2
BRANCH   1  71
ATOM     71  C   UNL A   1      35.259  21.658  24.471  1.00  0.00     0.023 C 
BRANCH  71  72
ATOM     72  C   UNL A   1      34.632  20.304  24.786  1.00  0.00     0.023 C 
BRANCH  72  73
ATOM     73  C   UNL A   1      33.335  20.353  25.585  1.00  0.00     0.116 C 
BRANCH  73  74
ATOM     74  N   UNL A   1      33.505  20.907  26.920  1.00  0.00    -0.352 N 
ATOM     75  C   UNL A   1      33.196  22.162  27.383  1.00  0.00     0.251 C 
ATOM     76  H   UNL A   1      33.899  20.297  27.585  1.00  0.00     0.163 HD
ATOM     77  O   UNL A   1      33.508  22.513  28.517  1.00  0.00    -0.269 OA
BRANCH  75  78
ATOM     78  C   UNL A   1      32.500  23.114  26.495  1.00  0.00     0.040 A 
ATOM     79  C   UNL A   1      31.158  22.899  26.193  1.00  0.00     0.016 A 
ATOM     80  C   UNL A   1      33.161  24.238  26.001  1.00  0.00     0.020 A 
ATOM     81  C   UNL A   1      30.470  23.842  25.428  1.00  0.00     0.027 A 
ATOM     82  C   UNL A   1      32.452  25.226  25.304  1.00  0.00    -0.017 A 
ATOM     83  C   UNL A   1      31.108  25.001  24.961  1.00  0.00     0.038 A 
ATOM     84  C   UNL A   1      33.136  26.531  24.963  1.00  0.00     0.049 C 
ATOM     85  N   UNL A   1      30.369  25.944  24.255  1.00  0.00    -0.378 N 
ATOM     86  C   UNL A   1      33.687  27.230  26.185  1.00  0.00    -0.023 C 
ATOM     87  C   UNL A   1      32.178  27.611  24.434  1.00  0.00     0.031 C 
ATOM     88  C   UNL A   1      31.064  27.022  23.567  1.00  0.00     0.114 C 
ATOM     89  H   UNL A   1      29.386  25.883  24.221  1.00  0.00     0.161 HD
ATOM     90  C   UNL A   1      32.909  28.247  26.577  1.00  0.00    -0.030 C 
ATOM     91  C   UNL A   1      31.725  28.401  25.675  1.00  0.00     0.034 C 
BRANCH  88  92
ATOM     92  C   UNL A   1      30.105  28.091  23.063  1.00  0.00    -0.022 A 
ATOM     93  C   UNL A   1      28.733  27.956  23.319  1.00  0.00     0.026 A 
ATOM     94  C   UNL A   1      30.519  29.210  22.330  1.00  0.00     0.026 A 
ATOM     95  C   UNL A   1      27.859  28.925  22.852  1.00  0.00     0.111 A 
ATOM     96  C   UNL A   1      29.570  30.133  21.918  1.00  0.00     0.111 A 
ATOM     97  N   UNL A   1      28.249  30.017  22.164  1.00  0.00    -0.265 NA
ENDBRANCH  88  92
ENDBRANCH  75  78
ENDBRANCH  73  74
ENDBRANCH  72  73
ENDBRANCH  71  72
ENDBRANCH   1  71
TORSDOF 15
ENDMDL
MODEL 2
REMARK VINA RESULT:     -13.3      5.055      8.085
REMARK SMILES O=C(NCCCCNC(=O)c1ccc2c(c1)[C@@H]1C=CC[C@@H]1[C@H](c1ccncc1)N2)c1ccc(-c2c3nc(c(-c4cc(S(=O)(=O)[O-])ccc4F)c4ccc([nH]4)c(-c4cc(S(=O)(=O)[O-])ccc4F)c4nc(c(-c5cc(S(=O)(=O)[O-])ccc5F)c5ccc2[nH]5)C=C4)C=C3)cc1
REMARK SMILES IDX 4 1 3 2 1 3 2 4 30 6 31 7 92 8 32 9 91 10 33 11 34 12 35 13
REMARK SMILES IDX 85 14 36 15 90 16 84 17 86 18 37 19 89 20 83 21 82 22 38 24
REMARK SMILES IDX 70 25 50 26 69 27 51 28 54 29 68 30 87 31 52 32 53 33 67 35
REMARK SMILES IDX 88 36 55 37 39 38 40 39 48 40 41 41 47 42 49 43 46 44 42 45
REMARK SMILES IDX 43 46 44 47 45 48 71 49 72 50 80 51 73 52 79 53 81 54 78 55
REMARK SMILES IDX 74 56 75 57 76 58 77 59 56 60 57 61 65 62 58 63 64 64 66 65
REMARK SMILES IDX 63 66 59 67 60 68 61 69 62 70 5 71 6 72 7 73 8 74 9 75 10 77
REMARK SMILES IDX 11 78 12 79 16 80 13 81 15 82 14 83 17 84 29 85 18 86 21 87
REMARK SMILES IDX 22 88 19 90 20 91 23 92 24 93 28 94 25 95 27 96 26 97
REMARK H PARENT 3 5 86 23 54 34 8 76 29 89
REMARK Flexibility Score: inf
ROOT
ATOM      1  C   UNL A   1      32.643  29.449  25.868  1.00  0.00     0.116 C 
ENDROOT
BRANCH   1   2
ATOM      2  N   UNL A   1      32.343  30.840  26.170  1.00  0.00    -0.352 N 
ATOM      3  O   UNL A   1      32.517  32.813  27.250  1.00  0.00    -0.269 OA
ATOM      4  C   UNL A   1      32.986  31.699  27.031  1.00  0.00     0.251 C 
ATOM      5  H   UNL A   1      31.571  31.220  25.691  1.00  0.00     0.163 HD
BRANCH   4   6
ATOM      6  C   UNL A   1      34.227  31.266  27.709  1.00  0.00     0.039 A 
ATOM      7  C   UNL A   1      34.413  29.930  28.071  1.00  0.00     0.014 A 
ATOM      8  C   UNL A   1      35.212  32.215  28.000  1.00  0.00     0.014 A 
ATOM      9  C   UNL A   1      35.506  29.571  28.850  1.00  0.00     0.010 A 
ATOM     10  C   UNL A   1      36.354  31.834  28.712  1.00  0.00     0.010 A 
ATOM     11  C   UNL A   1      36.495  30.515  29.172  1.00  0.00    -0.014 A 
BRANCH  11  12
ATOM     12  C   UNL A   1      37.686  30.085  29.950  1.00  0.00     0.031 A 
ATOM     13  C   UNL A   1      38.725  29.183  29.344  1.00  0.00     0.074 A 
ATOM     14  C   UNL A   1      37.836  30.546  31.207  1.00  0.00     0.049 A 
ATOM     15  N   UNL A   1      39.828  28.721  29.878  1.00  0.00    -0.248 NA
ATOM     16  C   UNL A   1      38.494  28.733  27.963  1.00  0.00     0.031 C 
ATOM     17  C   UNL A   1      36.887  31.424  31.898  1.00  0.00     0.029 A 
ATOM     18  N   UNL A   1      38.841  30.363  32.120  1.00  0.00    -0.354 N 
ATOM     19  C   UNL A   1      40.416  27.915  28.908  1.00  0.00     0.074 A 
ATOM     20  C   UNL A   1      39.527  27.927  27.763  1.00  0.00     0.031 C 
ATOM     21  C   UNL A   1      37.376  31.735  33.106  1.00  0.00     0.029 A 
ATOM     22  C   UNL A   1      38.636  31.030  33.304  1.00  0.00     0.049 A 
ATOM     23  H   UNL A   1      39.634  29.806  31.945  1.00  0.00     0.167 HD
ATOM     24  C   UNL A   1      41.591  27.237  28.967  1.00  0.00     0.034 A 
ATOM     25  C   UNL A   1      39.368  31.059  34.434  1.00  0.00     0.034 A 
ATOM     26  C   UNL A   1      42.465  27.240  30.117  1.00  0.00     0.049 A 
ATOM     27  C   UNL A   1      40.648  30.270  34.484  1.00  0.00     0.074 A 
ATOM     28  C   UNL A   1      43.691  26.614  30.271  1.00  0.00     0.029 A 
ATOM     29  N   UNL A   1      42.205  27.895  31.315  1.00  0.00    -0.354 N 
ATOM     30  N   UNL A   1      41.194  29.523  33.553  1.00  0.00    -0.248 NA
ATOM     31  C   UNL A   1      41.410  30.331  35.737  1.00  0.00     0.031 C 
ATOM     32  C   UNL A   1      44.139  26.838  31.579  1.00  0.00     0.029 A 
ATOM     33  C   UNL A   1      43.229  27.662  32.222  1.00  0.00     0.049 A 
ATOM     34  H   UNL A   1      41.408  28.444  31.495  1.00  0.00     0.167 HD
ATOM     35  C   UNL A   1      42.374  29.036  34.105  1.00  0.00     0.074 A 
ATOM     36  C   UNL A   1      42.468  29.592  35.441  1.00  0.00     0.031 C 
ATOM     37  C   UNL A   1      43.296  28.204  33.558  1.00  0.00     0.034 A 
BRANCH  24  38
ATOM     38  C   UNL A   1      41.972  26.398  27.769  1.00  0.00     0.023 A 
ATOM     39  C   UNL A   1      41.580  25.053  27.649  1.00  0.00     0.031 A 
ATOM     40  C   UNL A   1      42.753  26.950  26.738  1.00  0.00     0.131 A 
ATOM     41  C   UNL A   1      42.023  24.288  26.558  1.00  0.00     0.055 A 
ATOM     42  C   UNL A   1      43.131  26.204  25.619  1.00  0.00     0.041 A 
ATOM     43  F   UNL A   1      43.174  28.222  26.805  1.00  0.00    -0.206 F 
ATOM     44  C   UNL A   1      42.776  24.861  25.530  1.00  0.00     0.022 A 
BRANCH  41  45
ATOM     45  S   UNL A   1      41.711  22.502  26.566  1.00  0.00     0.124 S 
ATOM     46  O   UNL A   1      42.442  22.068  25.376  1.00  0.00    -0.237 OA
ATOM     47  O   UNL A   1      42.271  22.089  27.846  1.00  0.00    -0.237 OA
ATOM     48  O   UNL A   1      40.256  22.407  26.460  1.00  0.00    -0.744 OA
ENDBRANCH  41  45
ENDBRANCH  24  38
BRANCH  25  49
ATOM     49  C   UNL A   1      38.890  31.829  35.613  1.00  0.00     0.023 A 
ATOM     50  C   UNL A   1      38.257  31.192  36.690  1.00  0.00     0.031 A 
ATOM     51  C   UNL A   1      39.050  33.226  35.671  1.00  0.00     0.131 A 
ATOM     52  C   UNL A   1      37.776  31.953  37.767  1.00  0.00     0.055 A 
ATOM     53  C   UNL A   1      38.615  33.973  36.767  1.00  0.00     0.041 A 
ATOM     54  F   UNL A   1      39.655  33.882  34.669  1.00  0.00    -0.206 F 
ATOM     55  C   UNL A   1      37.963  33.337  37.818  1.00  0.00     0.022 A 
BRANCH  52  56
ATOM     56  S   UNL A   1      36.840  31.115  39.075  1.00  0.00     0.124 S 
ATOM     57  O   UNL A   1      36.652  29.787  38.501  1.00  0.00    -0.237 OA
ATOM     58  O   UNL A   1      37.758  31.201  40.206  1.00  0.00    -0.237 OA
ATOM     59  O   UNL A   1      35.628  31.922  39.196  1.00  0.00    -0.744 OA
ENDBRANCH  52  56
ENDBRANCH  25  49
BRANCH  37  60
ATOM     60  C   UNL A   1      44.496  27.876  34.410  1.00  0.00     0.023 A 
ATOM     61  C   UNL A   1      44.498  26.779  35.288  1.00  0.00     0.031 A 
ATOM     62  C   UNL A   1      45.639  28.693  34.365  1.00  0.00     0.131 A 
ATOM     63  C   UNL A   1      45.600  26.561  36.130  1.00  0.00     0.055 A 
ATOM     64  C   UNL A   1      46.753  28.440  35.165  1.00  0.00     0.041 A 
ATOM     65  F   UNL A   1      45.688  29.756  33.546  1.00  0.00    -0.206 F 
ATOM     66  C   UNL A   1      46.732  27.377  36.063  1.00  0.00     0.022 A 
BRANCH  63  67
ATOM     67  S   UNL A   1      45.494  25.253  37.381  1.00  0.00     0.124 S 
ATOM     68  O   UNL A   1      44.923  25.965  38.519  1.00  0.00    -0.237 OA
ATOM     69  O   UNL A   1      44.621  24.275  36.738  1.00  0.00    -0.237 OA
ATOM     70  O   UNL A   1      46.881  24.826  37.549  1.00  0.00    -0.744 OA
ENDBRANCH  63  67
ENDBRANCH  37  60
ENDBRANCH  11  12
ENDBRANCH   4   6
ENDBRANCH   1   2
BRANCH   1  71
ATOM     71  C   UNL A   1      31.459  28.694  25.275  1.00  0.00     0.023 C 
BRANCH  71  72
ATOM     72  C   UNL A   1      30.743  29.397  24.126  1.00  0.00     0.023 C 
BRANCH  72  73
ATOM     73  C   UNL A   1      31.076  28.878  22.732  1.00  0.00     0.116 C 
BRANCH  73  74
ATOM     74  N   UNL A   1      32.478  29.045  22.379  1.00  0.00    -0.352 N 
ATOM     75  C   UNL A   1      33.481  28.107  22.347  1.00  0.00     0.251 C 
ATOM     76  H   UNL A   1      32.747  29.959  22.131  1.00  0.00     0.163 HD
ATOM     77  O   UNL A   1      34.645  28.432  22.136  1.00  0.00    -0.269 OA
BRANCH  75  78
ATOM     78  C   UNL A   1      33.157  26.689  22.595  1.00  0.00     0.040 A 
ATOM     79  C   UNL A   1      32.519  25.956  21.598  1.00  0.00     0.016 A 
ATOM     80  C   UNL A   1      33.527  26.075  23.792  1.00  0.00     0.020 A 
ATOM     81  C   UNL A   1      32.291  24.593  21.791  1.00  0.00     0.027 A 
ATOM     82  C   UNL A   1      33.375  24.690  23.953  1.00  0.00    -0.017 A 
ATOM     83  C   UNL A   1      32.697  23.950  22.970  1.00  0.00     0.038 A 
ATOM     84  C   UNL A   1      33.972  24.014  25.166  1.00  0.00     0.049 C 
ATOM     85  N   UNL A   1      32.506  22.578  23.094  1.00  0.00    -0.378 N 
ATOM     86  C   UNL A   1      35.458  24.264  25.293  1.00  0.00    -0.023 C 
ATOM     87  C   UNL A   1      33.956  22.478  25.088  1.00  0.00     0.031 C 
ATOM     88  C   UNL A   1      32.701  21.948  24.391  1.00  0.00     0.114 C 
ATOM     89  H   UNL A   1      32.243  22.039  22.313  1.00  0.00     0.161 HD
ATOM     90  C   UNL A   1      36.182  23.211  24.894  1.00  0.00    -0.030 C 
ATOM     91  C   UNL A   1      35.301  22.085  24.451  1.00  0.00     0.034 C 
BRANCH  88  92
ATOM     92  C   UNL A   1      32.697  20.429  24.296  1.00  0.00    -0.022 A 
ATOM     93  C   UNL A   1      32.898  19.670  25.458  1.00  0.00     0.026 A 
ATOM     94  C   UNL A   1      32.521  19.736  23.093  1.00  0.00     0.026 A 
ATOM     95  C   UNL A   1      32.905  18.287  25.370  1.00  0.00     0.111 A 
ATOM     96  C   UNL A   1      32.529  18.348  23.109  1.00  0.00     0.111 A 
ATOM     97  N   UNL A   1      32.715  17.608  24.221  1.00  0.00    -0.265 NA
ENDBRANCH  88  92
ENDBRANCH  75  78
ENDBRANCH  73  74
ENDBRANCH  72  73
ENDBRANCH  71  72
ENDBRANCH   1  71
TORSDOF 15
ENDMDL
MODEL 3
REMARK VINA RESULT:     -13.3      5.472      8.841
REMARK SMILES O=C(NCCCCNC(=O)c1ccc2c(c1)[C@@H]1C=CC[C@@H]1[C@H](c1ccncc1)N2)c1ccc(-c2c3nc(c(-c4cc(S(=O)(=O)[O-])ccc4F)c4ccc([nH]4)c(-c4cc(S(=O)(=O)[O-])ccc4F)c4nc(c(-c5cc(S(=O)(=O)[O-])ccc5F)c5ccc2[nH]5)C=C4)C=C3)cc1
REMARK SMILES IDX 4 1 3 2 1 3 2 4 30 6 31 7 92 8 32 9 91 10 33 11 34 12 35 13
REMARK SMILES IDX 85 14 36 15 90 16 84 17 86 18 37 19 89 20 83 21 82 22 38 24
REMARK SMILES IDX 70 25 50 26 69 27 51 28 54 29 68 30 87 31 52 32 53 33 67 35
REMARK SMILES IDX 88 36 55 37 39 38 40 39 48 40 41 41 47 42 49 43 46 44 42 45
REMARK SMILES IDX 43 46 44 47 45 48 71 49 72 50 80 51 73 52 79 53 81 54 78 55
REMARK SMILES IDX 74 56 75 57 76 58 77 59 56 60 57 61 65 62 58 63 64 64 66 65
REMARK SMILES IDX 63 66 59 67 60 68 61 69 62 70 5 71 6 72 7 73 8 74 9 75 10 77
REMARK SMILES IDX 11 78 12 79 16 80 13 81 15 82 14 83 17 84 29 85 18 86 21 87
REMARK SMILES IDX 22 88 19 90 20 91 23 92 24 93 28 94 25 95 27 96 26 97
REMARK H PARENT 3 5 86 23 54 34 8 76 29 89
REMARK Flexibility Score: inf
ROOT
ATOM      1  C   UNL A   1      33.007  32.233  27.090  1.00  0.00     0.116 C 
ENDROOT
BRANCH   1   2
ATOM      2  N   UNL A   1      32.731  33.604  27.492  1.00  0.00    -0.352 N 
ATOM      3  O   UNL A   1      32.843  35.449  28.785  1.00  0.00    -0.269 OA
ATOM      4  C   UNL A   1      33.287  34.335  28.515  1.00  0.00     0.251 C 
ATOM      5  H   UNL A   1      32.051  34.073  26.957  1.00  0.00     0.163 HD
BRANCH   4   6
ATOM      6  C   UNL A   1      34.401  33.766  29.305  1.00  0.00     0.039 A 
ATOM      7  C   UNL A   1      35.714  34.192  29.094  1.00  0.00     0.014 A 
ATOM      8  C   UNL A   1      34.127  32.781  30.260  1.00  0.00     0.014 A 
ATOM      9  C   UNL A   1      36.763  33.533  29.725  1.00  0.00     0.010 A 
ATOM     10  C   UNL A   1      35.179  32.178  30.955  1.00  0.00     0.010 A 
ATOM     11  C   UNL A   1      36.510  32.525  30.669  1.00  0.00    -0.014 A 
BRANCH  11  12
ATOM     12  C   UNL A   1      37.650  31.887  31.376  1.00  0.00     0.031 A 
ATOM     13  C   UNL A   1      38.496  30.842  30.701  1.00  0.00     0.074 A 
ATOM     14  C   UNL A   1      37.937  32.286  32.630  1.00  0.00     0.049 A 
ATOM     15  N   UNL A   1      39.533  30.193  31.169  1.00  0.00    -0.248 NA
ATOM     16  C   UNL A   1      38.125  30.470  29.328  1.00  0.00     0.031 C 
ATOM     17  C   UNL A   1      37.180  33.291  33.384  1.00  0.00     0.029 A 
ATOM     18  N   UNL A   1      38.941  31.918  33.486  1.00  0.00    -0.354 N 
ATOM     19  C   UNL A   1      39.931  29.326  30.156  1.00  0.00     0.074 A 
ATOM     20  C   UNL A   1      39.000  29.511  29.061  1.00  0.00     0.031 C 
ATOM     21  C   UNL A   1      37.774  33.488  34.570  1.00  0.00     0.029 A 
ATOM     22  C   UNL A   1      38.909  32.581  34.689  1.00  0.00     0.049 A 
ATOM     23  H   UNL A   1      39.622  31.244  33.260  1.00  0.00     0.167 HD
ATOM     24  C   UNL A   1      40.979  28.462  30.142  1.00  0.00     0.034 A 
ATOM     25  C   UNL A   1      39.691  32.462  35.779  1.00  0.00     0.034 A 
ATOM     26  C   UNL A   1      41.898  28.295  31.244  1.00  0.00     0.049 A 
ATOM     27  C   UNL A   1      40.824  31.474  35.749  1.00  0.00     0.074 A 
ATOM     28  C   UNL A   1      43.010  27.473  31.324  1.00  0.00     0.029 A 
ATOM     29  N   UNL A   1      41.809  28.953  32.465  1.00  0.00    -0.354 N 
ATOM     30  N   UNL A   1      41.193  30.670  34.779  1.00  0.00    -0.248 NA
ATOM     31  C   UNL A   1      41.646  31.379  36.961  1.00  0.00     0.031 C 
ATOM     32  C   UNL A   1      43.553  27.588  32.609  1.00  0.00     0.029 A 
ATOM     33  C   UNL A   1      42.824  28.534  33.312  1.00  0.00     0.049 A 
ATOM     34  H   UNL A   1      41.123  29.621  32.695  1.00  0.00     0.167 HD
ATOM     35  C   UNL A   1      42.302  29.983  35.260  1.00  0.00     0.074 A 
ATOM     36  C   UNL A   1      42.552  30.484  36.597  1.00  0.00     0.031 C 
ATOM     37  C   UNL A   1      43.045  29.024  34.652  1.00  0.00     0.034 A 
BRANCH  24  38
ATOM     38  C   UNL A   1      41.157  27.603  28.913  1.00  0.00     0.023 A 
ATOM     39  C   UNL A   1      42.167  27.857  27.967  1.00  0.00     0.031 A 
ATOM     40  C   UNL A   1      40.293  26.519  28.675  1.00  0.00     0.131 A 
ATOM     41  C   UNL A   1      42.246  27.082  26.800  1.00  0.00     0.055 A 
ATOM     42  C   UNL A   1      40.422  25.706  27.546  1.00  0.00     0.041 A 
ATOM     43  F   UNL A   1      39.298  26.238  29.531  1.00  0.00    -0.206 F 
ATOM     44  C   UNL A   1      41.395  25.993  26.594  1.00  0.00     0.022 A 
BRANCH  41  45
ATOM     45  S   UNL A   1      43.392  27.596  25.492  1.00  0.00     0.124 S 
ATOM     46  O   UNL A   1      42.475  27.889  24.392  1.00  0.00    -0.237 OA
ATOM     47  O   UNL A   1      44.061  28.745  26.090  1.00  0.00    -0.237 OA
ATOM     48  O   UNL A   1      44.235  26.418  25.291  1.00  0.00    -0.744 OA
ENDBRANCH  41  45
ENDBRANCH  24  38
BRANCH  25  49
ATOM     49  C   UNL A   1      39.405  33.271  36.995  1.00  0.00     0.023 A 
ATOM     50  C   UNL A   1      40.055  34.493  37.224  1.00  0.00     0.031 A 
ATOM     51  C   UNL A   1      38.480  32.822  37.956  1.00  0.00     0.131 A 
ATOM     52  C   UNL A   1      39.797  35.210  38.402  1.00  0.00     0.055 A 
ATOM     53  C   UNL A   1      38.189  33.563  39.102  1.00  0.00     0.041 A 
ATOM     54  F   UNL A   1      37.827  31.663  37.780  1.00  0.00    -0.206 F 
ATOM     55  C   UNL A   1      38.859  34.760  39.335  1.00  0.00     0.022 A 
BRANCH  52  56
ATOM     56  S   UNL A   1      40.756  36.713  38.733  1.00  0.00     0.124 S 
ATOM     57  O   UNL A   1      39.703  37.708  38.898  1.00  0.00    -0.237 OA
ATOM     58  O   UNL A   1      41.487  36.345  39.941  1.00  0.00    -0.237 OA
ATOM     59  O   UNL A   1      41.577  36.864  37.533  1.00  0.00    -0.744 OA
ENDBRANCH  52  56
ENDBRANCH  25  49
BRANCH  37  60
ATOM     60  C   UNL A   1      44.216  28.484  35.433  1.00  0.00     0.023 A 
ATOM     61  C   UNL A   1      44.064  27.434  36.356  1.00  0.00     0.031 A 
ATOM     62  C   UNL A   1      45.493  29.050  35.276  1.00  0.00     0.131 A 
ATOM     63  C   UNL A   1      45.159  27.021  37.130  1.00  0.00     0.055 A 
ATOM     64  C   UNL A   1      46.591  28.599  36.009  1.00  0.00     0.041 A 
ATOM     65  F   UNL A   1      45.692  30.058  34.411  1.00  0.00    -0.206 F 
ATOM     66  C   UNL A   1      46.424  27.588  36.951  1.00  0.00     0.022 A 
BRANCH  63  67
ATOM     67  S   UNL A   1      44.887  25.797  38.440  1.00  0.00     0.124 S 
ATOM     68  O   UNL A   1      46.251  25.408  38.781  1.00  0.00    -0.237 OA
ATOM     69  O   UNL A   1      44.173  26.573  39.449  1.00  0.00    -0.237 OA
ATOM     70  O   UNL A   1      44.094  24.761  37.781  1.00  0.00    -0.744 OA
ENDBRANCH  63  67
ENDBRANCH  37  60
ENDBRANCH  11  12
ENDBRANCH   4   6
ENDBRANCH   1   2
BRANCH   1  71
ATOM     71  C   UNL A   1      31.769  31.488  26.606  1.00  0.00     0.023 C 
BRANCH  71  72
ATOM     72  C   UNL A   1      31.850  29.966  26.676  1.00  0.00     0.023 C 
BRANCH  72  73
ATOM     73  C   UNL A   1      31.579  29.236  25.365  1.00  0.00     0.116 C 
BRANCH  73  74
ATOM     74  N   UNL A   1      32.602  29.471  24.357  1.00  0.00    -0.352 N 
ATOM     75  C   UNL A   1      33.322  28.558  23.626  1.00  0.00     0.251 C 
ATOM     76  H   UNL A   1      32.808  30.416  24.175  1.00  0.00     0.163 HD
ATOM     77  O   UNL A   1      34.236  28.918  22.890  1.00  0.00    -0.269 OA
BRANCH  75  78
ATOM     78  C   UNL A   1      33.009  27.121  23.746  1.00  0.00     0.040 A 
ATOM     79  C   UNL A   1      32.113  26.547  22.848  1.00  0.00     0.016 A 
ATOM     80  C   UNL A   1      33.636  26.336  24.713  1.00  0.00     0.020 A 
ATOM     81  C   UNL A   1      31.881  25.172  22.899  1.00  0.00     0.027 A 
ATOM     82  C   UNL A   1      33.469  24.944  24.711  1.00  0.00    -0.017 A 
ATOM     83  C   UNL A   1      32.538  24.360  23.836  1.00  0.00     0.038 A 
ATOM     84  C   UNL A   1      34.318  24.093  25.628  1.00  0.00     0.049 C 
ATOM     85  N   UNL A   1      32.324  22.986  23.810  1.00  0.00    -0.378 N 
ATOM     86  C   UNL A   1      35.799  24.311  25.411  1.00  0.00    -0.023 C 
ATOM     87  C   UNL A   1      34.216  22.585  25.341  1.00  0.00     0.031 C 
ATOM     88  C   UNL A   1      32.806  22.171  24.915  1.00  0.00     0.114 C 
ATOM     89  H   UNL A   1      31.853  22.570  23.052  1.00  0.00     0.161 HD
ATOM     90  C   UNL A   1      36.355  23.323  24.699  1.00  0.00    -0.030 C 
ATOM     91  C   UNL A   1      35.344  22.281  24.339  1.00  0.00     0.034 C 
BRANCH  88  92
ATOM     92  C   UNL A   1      32.714  20.683  24.612  1.00  0.00    -0.022 A 
ATOM     93  C   UNL A   1      32.354  20.268  23.321  1.00  0.00     0.026 A 
ATOM     94  C   UNL A   1      32.954  19.689  25.567  1.00  0.00     0.026 A 
ATOM     95  C   UNL A   1      32.260  18.913  23.048  1.00  0.00     0.111 A 
ATOM     96  C   UNL A   1      32.850  18.357  25.193  1.00  0.00     0.111 A 
ATOM     97  N   UNL A   1      32.510  17.946  23.954  1.00  0.00    -0.265 NA
ENDBRANCH  88  92
ENDBRANCH  75  78
ENDBRANCH  73  74
ENDBRANCH  72  73
ENDBRANCH  71  72
ENDBRANCH   1  71
TORSDOF 15
ENDMDL
