MODEL 1
REMARK VINA RESULT:     -11.9      0.000      0.000
REMARK SMILES CC[C@@](C)(Nc1cc([N+](=O)[O-])ccc1C)C(=O)NCCCCNC(=O)c1ccc(-c2c3nc(c(-c4cc(S(=O)(=O)[O-])ccc4F)c4ccc([nH]4)c(-c4cc(S(=O)(=O)[O-])ccc4F)c4nc(c(-c5cc(S(=O)(=O)[O-])ccc5F)c5ccc2[nH]5)C=C4)C=C3)cc1
REMARK SMILES IDX 20 1 19 2 18 3 16 4 17 5 3 7 4 8 2 9 1 10 5 11 6 13 7 14
REMARK SMILES IDX 14 15 8 16 13 17 15 18 12 19 9 20 10 21 11 22 21 23 22 24
REMARK SMILES IDX 23 25 24 26 25 28 26 29 27 30 88 31 28 32 87 33 29 34 30 35
REMARK SMILES IDX 31 36 81 37 32 38 86 39 80 40 82 41 33 42 85 43 79 44 78 45
REMARK SMILES IDX 34 47 66 48 46 49 65 50 47 51 50 52 64 53 83 54 48 55 49 56
REMARK SMILES IDX 63 58 84 59 51 60 35 61 36 62 44 63 37 64 43 65 45 66 42 67
REMARK SMILES IDX 38 68 39 69 40 70 41 71 67 72 68 73 76 74 69 75 75 76 77 77
REMARK SMILES IDX 74 78 70 79 71 80 72 81 73 82 52 83 53 84 61 85 54 86 60 87
REMARK SMILES IDX 62 88 59 89 55 90 56 91 57 92 58 93
REMARK H PARENT 18 6 5 12 23 27 82 46 50 57
REMARK Flexibility Score: inf
ROOT
ATOM      1  C   UNL A   1      38.088  21.173  25.661  1.00  0.00     0.023 C 
ENDROOT
BRANCH   1   2
ATOM      2  C   UNL A   1      37.044  22.322  25.678  1.00  0.00     0.116 C 
BRANCH   2   3
ATOM      3  N   UNL A   1      36.506  22.779  24.385  1.00  0.00    -0.354 N 
ATOM      4  C   UNL A   1      35.297  22.890  23.758  1.00  0.00     0.245 C 
ATOM      5  O   UNL A   1      35.375  23.418  22.632  1.00  0.00    -0.272 OA
ATOM      6  H   UNL A   1      37.231  23.098  23.801  1.00  0.00     0.163 HD
BRANCH   4   7
ATOM      7  C   UNL A   1      33.890  22.420  24.295  1.00  0.00     0.113 C 
ATOM      8  C   UNL A   1      32.765  22.525  23.258  1.00  0.00     0.045 C 
BRANCH   7   9
ATOM      9  C   UNL A   1      34.045  20.898  24.683  1.00  0.00     0.035 C 
ATOM     10  C   UNL A   1      32.747  20.096  24.796  1.00  0.00     0.007 C 
ENDBRANCH   7   9
BRANCH   7  11
ATOM     11  N   UNL A   1      33.380  23.084  25.566  1.00  0.00    -0.371 N 
ATOM     12  H   UNL A   1      33.775  22.731  26.397  1.00  0.00     0.161 HD
BRANCH  11  13
ATOM     13  C   UNL A   1      32.460  24.097  25.752  1.00  0.00     0.045 A 
ATOM     14  C   UNL A   1      32.861  25.386  26.117  1.00  0.00     0.111 A 
ATOM     15  C   UNL A   1      31.078  23.917  25.725  1.00  0.00    -0.027 A 
ATOM     16  C   UNL A   1      31.904  26.412  26.301  1.00  0.00     0.271 A 
ATOM     17  C   UNL A   1      30.149  24.968  25.642  1.00  0.00     0.012 A 
ATOM     18  C   UNL A   1      30.497  22.645  26.222  1.00  0.00     0.046 C 
ATOM     19  C   UNL A   1      30.564  26.239  25.952  1.00  0.00     0.086 A 
BRANCH  16  20
ATOM     20  N   UNL A   1      32.272  27.640  27.006  1.00  0.00     0.062 N 
ATOM     21  O   UNL A   1      31.644  27.934  28.032  1.00  0.00    -0.258 OA
ATOM     22  O   UNL A   1      33.178  28.337  26.518  1.00  0.00    -0.258 OA
ENDBRANCH  16  20
ENDBRANCH  11  13
ENDBRANCH   7  11
ENDBRANCH   4   7
ENDBRANCH   2   3
ENDBRANCH   1   2
BRANCH   1  23
ATOM     23  C   UNL A   1      39.529  21.499  26.083  1.00  0.00     0.023 C 
BRANCH  23  24
ATOM     24  C   UNL A   1      39.783  22.921  26.524  1.00  0.00     0.116 C 
BRANCH  24  25
ATOM     25  N   UNL A   1      41.174  23.309  26.744  1.00  0.00    -0.352 N 
ATOM     26  C   UNL A   1      41.652  24.621  26.799  1.00  0.00     0.251 C 
ATOM     27  H   UNL A   1      41.830  22.586  26.862  1.00  0.00     0.163 HD
ATOM     28  O   UNL A   1      42.816  24.921  26.915  1.00  0.00    -0.269 OA
BRANCH  26  29
ATOM     29  C   UNL A   1      40.596  25.670  26.834  1.00  0.00     0.039 A 
ATOM     30  C   UNL A   1      40.982  26.894  26.272  1.00  0.00     0.014 A 
ATOM     31  C   UNL A   1      39.642  25.605  27.848  1.00  0.00     0.014 A 
ATOM     32  C   UNL A   1      40.640  28.068  26.930  1.00  0.00     0.010 A 
ATOM     33  C   UNL A   1      39.381  26.771  28.554  1.00  0.00     0.010 A 
ATOM     34  C   UNL A   1      39.971  27.982  28.154  1.00  0.00    -0.014 A 
BRANCH  34  35
ATOM     35  C   UNL A   1      40.016  29.075  29.133  1.00  0.00     0.031 A 
ATOM     36  C   UNL A   1      38.977  30.125  29.096  1.00  0.00     0.074 A 
ATOM     37  C   UNL A   1      41.039  29.219  30.012  1.00  0.00     0.049 A 
ATOM     38  N   UNL A   1      39.170  31.351  29.456  1.00  0.00    -0.248 NA
ATOM     39  C   UNL A   1      37.660  29.895  28.519  1.00  0.00     0.031 C 
ATOM     40  C   UNL A   1      41.121  30.186  31.109  1.00  0.00     0.029 A 
ATOM     41  N   UNL A   1      42.333  28.703  29.936  1.00  0.00    -0.354 N 
ATOM     42  C   UNL A   1      37.951  31.985  29.440  1.00  0.00     0.074 A 
ATOM     43  C   UNL A   1      37.096  31.089  28.707  1.00  0.00     0.031 C 
ATOM     44  C   UNL A   1      42.413  30.452  31.348  1.00  0.00     0.029 A 
ATOM     45  C   UNL A   1      43.196  29.723  30.368  1.00  0.00     0.049 A 
ATOM     46  H   UNL A   1      42.590  27.802  29.635  1.00  0.00     0.167 HD
ATOM     47  C   UNL A   1      37.784  33.127  30.169  1.00  0.00     0.034 A 
ATOM     48  C   UNL A   1      44.239  30.218  29.646  1.00  0.00     0.034 A 
ATOM     49  C   UNL A   1      39.077  33.675  30.608  1.00  0.00     0.049 A 
ATOM     50  C   UNL A   1      44.183  31.719  29.456  1.00  0.00     0.074 A 
ATOM     51  C   UNL A   1      39.713  33.785  31.833  1.00  0.00     0.029 A 
ATOM     52  N   UNL A   1      40.025  34.033  29.649  1.00  0.00    -0.354 N 
ATOM     53  N   UNL A   1      43.153  32.460  29.755  1.00  0.00    -0.248 NA
ATOM     54  C   UNL A   1      45.263  32.488  28.847  1.00  0.00     0.031 C 
ATOM     55  C   UNL A   1      41.063  34.169  31.600  1.00  0.00     0.029 A 
ATOM     56  C   UNL A   1      41.245  34.319  30.235  1.00  0.00     0.049 A 
ATOM     57  H   UNL A   1      39.849  34.077  28.682  1.00  0.00     0.167 HD
ATOM     58  C   UNL A   1      43.373  33.751  29.332  1.00  0.00     0.074 A 
ATOM     59  C   UNL A   1      44.729  33.720  28.811  1.00  0.00     0.031 C 
ATOM     60  C   UNL A   1      42.395  34.709  29.417  1.00  0.00     0.034 A 
BRANCH  47  61
ATOM     61  C   UNL A   1      36.442  33.631  30.702  1.00  0.00     0.023 A 
ATOM     62  C   UNL A   1      35.515  34.197  29.794  1.00  0.00     0.031 A 
ATOM     63  C   UNL A   1      36.041  33.702  32.056  1.00  0.00     0.131 A 
ATOM     64  C   UNL A   1      34.332  34.832  30.235  1.00  0.00     0.055 A 
ATOM     65  C   UNL A   1      34.864  34.323  32.493  1.00  0.00     0.041 A 
ATOM     66  F   UNL A   1      36.753  33.188  33.058  1.00  0.00    -0.206 F 
ATOM     67  C   UNL A   1      34.006  34.904  31.584  1.00  0.00     0.022 A 
BRANCH  64  68
ATOM     68  S   UNL A   1      33.231  35.618  29.026  1.00  0.00     0.124 S 
ATOM     69  O   UNL A   1      34.158  36.439  28.254  1.00  0.00    -0.237 OA
ATOM     70  O   UNL A   1      32.655  34.468  28.340  1.00  0.00    -0.237 OA
ATOM     71  O   UNL A   1      32.293  36.370  29.861  1.00  0.00    -0.744 OA
ENDBRANCH  64  68
ENDBRANCH  47  61
BRANCH  48  72
ATOM     72  C   UNL A   1      44.831  29.257  28.679  1.00  0.00     0.023 A 
ATOM     73  C   UNL A   1      45.652  28.237  29.200  1.00  0.00     0.031 A 
ATOM     74  C   UNL A   1      44.318  29.100  27.385  1.00  0.00     0.131 A 
ATOM     75  C   UNL A   1      45.816  27.041  28.493  1.00  0.00     0.055 A 
ATOM     76  C   UNL A   1      44.526  27.920  26.662  1.00  0.00     0.041 A 
ATOM     77  F   UNL A   1      43.489  30.016  26.864  1.00  0.00    -0.206 F 
ATOM     78  C   UNL A   1      45.244  26.869  27.231  1.00  0.00     0.022 A 
BRANCH  75  79
ATOM     79  S   UNL A   1      46.602  25.608  29.292  1.00  0.00     0.124 S 
ATOM     80  O   UNL A   1      45.752  24.509  28.850  1.00  0.00    -0.237 OA
ATOM     81  O   UNL A   1      47.956  25.616  28.746  1.00  0.00    -0.237 OA
ATOM     82  O   UNL A   1      46.510  25.960  30.708  1.00  0.00    -0.744 OA
ENDBRANCH  75  79
ENDBRANCH  48  72
BRANCH  60  83
ATOM     83  C   UNL A   1      42.433  36.107  28.804  1.00  0.00     0.023 A 
ATOM     84  C   UNL A   1      42.963  37.240  29.441  1.00  0.00     0.031 A 
ATOM     85  C   UNL A   1      41.963  36.334  27.483  1.00  0.00     0.131 A 
ATOM     86  C   UNL A   1      42.950  38.511  28.830  1.00  0.00     0.055 A 
ATOM     87  C   UNL A   1      42.007  37.584  26.852  1.00  0.00     0.041 A 
ATOM     88  F   UNL A   1      41.449  35.348  26.735  1.00  0.00    -0.206 F 
ATOM     89  C   UNL A   1      42.490  38.690  27.531  1.00  0.00     0.022 A 
BRANCH  86  90
ATOM     90  S   UNL A   1      43.510  39.940  29.799  1.00  0.00     0.124 S 
ATOM     91  O   UNL A   1      44.698  40.359  29.060  1.00  0.00    -0.237 OA
ATOM     92  O   UNL A   1      42.364  40.841  29.717  1.00  0.00    -0.237 OA
ATOM     93  O   UNL A   1      43.768  39.381  31.124  1.00  0.00    -0.744 OA
ENDBRANCH  86  90
ENDBRANCH  60  83
ENDBRANCH  34  35
ENDBRANCH  26  29
ENDBRANCH  24  25
ENDBRANCH  23  24
ENDBRANCH   1  23
TORSDOF 18
ENDMDL
MODEL 2
REMARK VINA RESULT:     -11.9      4.156     10.774
REMARK SMILES CC[C@@](C)(Nc1cc([N+](=O)[O-])ccc1C)C(=O)NCCCCNC(=O)c1ccc(-c2c3nc(c(-c4cc(S(=O)(=O)[O-])ccc4F)c4ccc([nH]4)c(-c4cc(S(=O)(=O)[O-])ccc4F)c4nc(c(-c5cc(S(=O)(=O)[O-])ccc5F)c5ccc2[nH]5)C=C4)C=C3)cc1
REMARK SMILES IDX 20 1 19 2 18 3 16 4 17 5 3 7 4 8 2 9 1 10 5 11 6 13 7 14
REMARK SMILES IDX 14 15 8 16 13 17 15 18 12 19 9 20 10 21 11 22 21 23 22 24
REMARK SMILES IDX 23 25 24 26 25 28 26 29 27 30 88 31 28 32 87 33 29 34 30 35
REMARK SMILES IDX 31 36 81 37 32 38 86 39 80 40 82 41 33 42 85 43 79 44 78 45
REMARK SMILES IDX 34 47 66 48 46 49 65 50 47 51 50 52 64 53 83 54 48 55 49 56
REMARK SMILES IDX 63 58 84 59 51 60 35 61 36 62 44 63 37 64 43 65 45 66 42 67
REMARK SMILES IDX 38 68 39 69 40 70 41 71 67 72 68 73 76 74 69 75 75 76 77 77
REMARK SMILES IDX 74 78 70 79 71 80 72 81 73 82 52 83 53 84 61 85 54 86 60 87
REMARK SMILES IDX 62 88 59 89 55 90 56 91 57 92 58 93
REMARK H PARENT 18 6 5 12 23 27 82 46 50 57
REMARK Flexibility Score: inf
ROOT
ATOM      1  C   UNL A   1      32.685  30.286  27.198  1.00  0.00     0.023 C 
ENDROOT
BRANCH   1   2
ATOM      2  C   UNL A   1      32.171  30.136  25.741  1.00  0.00     0.116 C 
BRANCH   2   3
ATOM      3  N   UNL A   1      33.122  29.659  24.723  1.00  0.00    -0.354 N 
ATOM      4  C   UNL A   1      33.548  28.475  24.190  1.00  0.00     0.245 C 
ATOM      5  O   UNL A   1      34.370  28.620  23.267  1.00  0.00    -0.272 OA
ATOM      6  H   UNL A   1      33.588  30.417  24.302  1.00  0.00     0.163 HD
BRANCH   4   7
ATOM      7  C   UNL A   1      33.127  27.019  24.629  1.00  0.00     0.113 C 
ATOM      8  C   UNL A   1      33.356  26.731  26.117  1.00  0.00     0.045 C 
BRANCH   7   9
ATOM      9  C   UNL A   1      31.578  26.897  24.349  1.00  0.00     0.035 C 
ATOM     10  C   UNL A   1      30.732  26.319  25.484  1.00  0.00     0.007 C 
ENDBRANCH   7   9
BRANCH   7  11
ATOM     11  N   UNL A   1      33.743  25.861  23.856  1.00  0.00    -0.371 N 
ATOM     12  H   UNL A   1      33.978  26.073  22.924  1.00  0.00     0.161 HD
BRANCH  11  13
ATOM     13  C   UNL A   1      34.028  24.565  24.241  1.00  0.00     0.045 A 
ATOM     14  C   UNL A   1      35.327  24.177  24.581  1.00  0.00     0.111 A 
ATOM     15  C   UNL A   1      33.111  23.517  24.207  1.00  0.00    -0.027 A 
ATOM     16  C   UNL A   1      35.601  22.846  24.975  1.00  0.00     0.271 A 
ATOM     17  C   UNL A   1      33.307  22.279  24.842  1.00  0.00     0.012 A 
ATOM     18  C   UNL A   1      32.078  23.483  23.142  1.00  0.00     0.046 C 
ATOM     19  C   UNL A   1      34.579  21.927  25.220  1.00  0.00     0.086 A 
BRANCH  16  20
ATOM     20  N   UNL A   1      36.979  22.354  24.993  1.00  0.00     0.062 N 
ATOM     21  O   UNL A   1      37.376  21.700  24.019  1.00  0.00    -0.258 OA
ATOM     22  O   UNL A   1      37.665  22.597  25.999  1.00  0.00    -0.258 OA
ENDBRANCH  16  20
ENDBRANCH  11  13
ENDBRANCH   7  11
ENDBRANCH   4   7
ENDBRANCH   2   3
ENDBRANCH   1   2
BRANCH   1  23
ATOM     23  C   UNL A   1      34.015  31.023  27.424  1.00  0.00     0.023 C 
BRANCH  23  24
ATOM     24  C   UNL A   1      34.641  30.851  28.788  1.00  0.00     0.116 C 
BRANCH  24  25
ATOM     25  N   UNL A   1      35.740  31.751  29.131  1.00  0.00    -0.352 N 
ATOM     26  C   UNL A   1      37.060  31.364  29.380  1.00  0.00     0.251 C 
ATOM     27  H   UNL A   1      35.534  32.711  29.193  1.00  0.00     0.163 HD
ATOM     28  O   UNL A   1      37.939  32.114  29.727  1.00  0.00    -0.269 OA
BRANCH  26  29
ATOM     29  C   UNL A   1      37.364  29.941  29.061  1.00  0.00     0.039 A 
ATOM     30  C   UNL A   1      37.742  29.172  30.168  1.00  0.00     0.014 A 
ATOM     31  C   UNL A   1      37.819  29.641  27.778  1.00  0.00     0.014 A 
ATOM     32  C   UNL A   1      38.810  28.294  30.037  1.00  0.00     0.010 A 
ATOM     33  C   UNL A   1      38.943  28.834  27.672  1.00  0.00     0.010 A 
ATOM     34  C   UNL A   1      39.500  28.250  28.823  1.00  0.00    -0.014 A 
BRANCH  34  35
ATOM     35  C   UNL A   1      40.884  27.768  28.742  1.00  0.00     0.031 A 
ATOM     36  C   UNL A   1      41.141  26.355  28.396  1.00  0.00     0.074 A 
ATOM     37  C   UNL A   1      41.943  28.547  29.076  1.00  0.00     0.049 A 
ATOM     38  N   UNL A   1      42.158  25.677  28.814  1.00  0.00    -0.248 NA
ATOM     39  C   UNL A   1      40.184  25.553  27.644  1.00  0.00     0.031 C 
ATOM     40  C   UNL A   1      43.360  28.215  28.909  1.00  0.00     0.029 A 
ATOM     41  N   UNL A   1      41.968  29.686  29.880  1.00  0.00    -0.354 N 
ATOM     42  C   UNL A   1      42.149  24.468  28.162  1.00  0.00     0.074 A 
ATOM     43  C   UNL A   1      40.833  24.389  27.582  1.00  0.00     0.031 C 
ATOM     44  C   UNL A   1      44.065  28.873  29.841  1.00  0.00     0.029 A 
ATOM     45  C   UNL A   1      43.120  29.588  30.678  1.00  0.00     0.049 A 
ATOM     46  H   UNL A   1      41.307  30.415  29.889  1.00  0.00     0.167 HD
ATOM     47  C   UNL A   1      43.303  23.746  28.079  1.00  0.00     0.034 A 
ATOM     48  C   UNL A   1      43.130  29.636  32.039  1.00  0.00     0.034 A 
ATOM     49  C   UNL A   1      44.322  24.257  29.010  1.00  0.00     0.049 A 
ATOM     50  C   UNL A   1      43.800  28.439  32.680  1.00  0.00     0.074 A 
ATOM     51  C   UNL A   1      45.521  24.931  28.854  1.00  0.00     0.029 A 
ATOM     52  N   UNL A   1      44.044  24.277  30.378  1.00  0.00    -0.354 N 
ATOM     53  N   UNL A   1      44.150  27.360  32.037  1.00  0.00    -0.248 NA
ATOM     54  C   UNL A   1      44.061  28.342  34.112  1.00  0.00     0.031 C 
ATOM     55  C   UNL A   1      45.940  25.394  30.133  1.00  0.00     0.029 A 
ATOM     56  C   UNL A   1      45.010  24.981  31.073  1.00  0.00     0.049 A 
ATOM     57  H   UNL A   1      43.263  23.846  30.794  1.00  0.00     0.167 HD
ATOM     58  C   UNL A   1      44.600  26.414  32.930  1.00  0.00     0.074 A 
ATOM     59  C   UNL A   1      44.565  27.100  34.210  1.00  0.00     0.031 C 
ATOM     60  C   UNL A   1      44.918  25.143  32.526  1.00  0.00     0.034 A 
BRANCH  47  61
ATOM     61  C   UNL A   1      43.615  22.723  26.985  1.00  0.00     0.023 A 
ATOM     62  C   UNL A   1      42.926  21.487  26.988  1.00  0.00     0.031 A 
ATOM     63  C   UNL A   1      44.621  22.821  25.996  1.00  0.00     0.131 A 
ATOM     64  C   UNL A   1      43.278  20.434  26.114  1.00  0.00     0.055 A 
ATOM     65  C   UNL A   1      44.964  21.782  25.122  1.00  0.00     0.041 A 
ATOM     66  F   UNL A   1      45.351  23.918  25.801  1.00  0.00    -0.206 F 
ATOM     67  C   UNL A   1      44.301  20.574  25.184  1.00  0.00     0.022 A 
BRANCH  64  68
ATOM     68  S   UNL A   1      42.415  18.843  26.232  1.00  0.00     0.124 S 
ATOM     69  O   UNL A   1      42.572  18.512  27.644  1.00  0.00    -0.237 OA
ATOM     70  O   UNL A   1      41.069  19.188  25.790  1.00  0.00    -0.237 OA
ATOM     71  O   UNL A   1      43.163  17.984  25.313  1.00  0.00    -0.744 OA
ENDBRANCH  64  68
ENDBRANCH  47  61
BRANCH  48  72
ATOM     72  C   UNL A   1      42.012  30.410  32.638  1.00  0.00     0.023 A 
ATOM     73  C   UNL A   1      42.082  31.815  32.560  1.00  0.00     0.031 A 
ATOM     74  C   UNL A   1      40.770  29.822  32.914  1.00  0.00     0.131 A 
ATOM     75  C   UNL A   1      40.910  32.579  32.607  1.00  0.00     0.055 A 
ATOM     76  C   UNL A   1      39.608  30.594  33.009  1.00  0.00     0.041 A 
ATOM     77  F   UNL A   1      40.640  28.488  32.945  1.00  0.00    -0.206 F 
ATOM     78  C   UNL A   1      39.668  31.974  32.816  1.00  0.00     0.022 A 
BRANCH  75  79
ATOM     79  S   UNL A   1      40.955  34.348  32.189  1.00  0.00     0.124 S 
ATOM     80  O   UNL A   1      42.140  34.432  31.346  1.00  0.00    -0.237 OA
ATOM     81  O   UNL A   1      39.681  34.568  31.510  1.00  0.00    -0.237 OA
ATOM     82  O   UNL A   1      41.061  34.971  33.508  1.00  0.00    -0.744 OA
ENDBRANCH  75  79
ENDBRANCH  48  72
BRANCH  60  83
ATOM     83  C   UNL A   1      45.227  23.951  33.428  1.00  0.00     0.023 A 
ATOM     84  C   UNL A   1      46.477  23.704  34.020  1.00  0.00     0.031 A 
ATOM     85  C   UNL A   1      44.213  23.019  33.774  1.00  0.00     0.131 A 
ATOM     86  C   UNL A   1      46.706  22.572  34.829  1.00  0.00     0.055 A 
ATOM     87  C   UNL A   1      44.424  21.929  34.629  1.00  0.00     0.041 A 
ATOM     88  F   UNL A   1      42.961  23.129  33.309  1.00  0.00    -0.206 F 
ATOM     89  C   UNL A   1      45.683  21.689  35.152  1.00  0.00     0.022 A 
BRANCH  86  90
ATOM     90  S   UNL A   1      48.396  22.258  35.413  1.00  0.00     0.124 S 
ATOM     91  O   UNL A   1      49.097  23.459  34.969  1.00  0.00    -0.237 OA
ATOM     92  O   UNL A   1      48.208  22.131  36.855  1.00  0.00    -0.237 OA
ATOM     93  O   UNL A   1      48.777  21.026  34.725  1.00  0.00    -0.744 OA
ENDBRANCH  86  90
ENDBRANCH  60  83
ENDBRANCH  34  35
ENDBRANCH  26  29
ENDBRANCH  24  25
ENDBRANCH  23  24
ENDBRANCH   1  23
TORSDOF 18
ENDMDL
MODEL 3
REMARK VINA RESULT:     -11.3      4.370     10.727
REMARK SMILES CC[C@@](C)(Nc1cc([N+](=O)[O-])ccc1C)C(=O)NCCCCNC(=O)c1ccc(-c2c3nc(c(-c4cc(S(=O)(=O)[O-])ccc4F)c4ccc([nH]4)c(-c4cc(S(=O)(=O)[O-])ccc4F)c4nc(c(-c5cc(S(=O)(=O)[O-])ccc5F)c5ccc2[nH]5)C=C4)C=C3)cc1
REMARK SMILES IDX 20 1 19 2 18 3 16 4 17 5 3 7 4 8 2 9 1 10 5 11 6 13 7 14
REMARK SMILES IDX 14 15 8 16 13 17 15 18 12 19 9 20 10 21 11 22 21 23 22 24
REMARK SMILES IDX 23 25 24 26 25 28 26 29 27 30 88 31 28 32 87 33 29 34 30 35
REMARK SMILES IDX 31 36 81 37 32 38 86 39 80 40 82 41 33 42 85 43 79 44 78 45
REMARK SMILES IDX 34 47 66 48 46 49 65 50 47 51 50 52 64 53 83 54 48 55 49 56
REMARK SMILES IDX 63 58 84 59 51 60 35 61 36 62 44 63 37 64 43 65 45 66 42 67
REMARK SMILES IDX 38 68 39 69 40 70 41 71 67 72 68 73 76 74 69 75 75 76 77 77
REMARK SMILES IDX 74 78 70 79 71 80 72 81 73 82 52 83 53 84 61 85 54 86 60 87
REMARK SMILES IDX 62 88 59 89 55 90 56 91 57 92 58 93
REMARK H PARENT 18 6 5 12 23 27 82 46 50 57
REMARK Flexibility Score: inf
ROOT
ATOM      1  C   UNL A   1      32.186  30.844  26.903  1.00  0.00     0.023 C 
ENDROOT
BRANCH   1   2
ATOM      2  C   UNL A   1      31.574  30.142  25.662  1.00  0.00     0.116 C 
BRANCH   2   3
ATOM      3  N   UNL A   1      32.476  29.815  24.544  1.00  0.00    -0.354 N 
ATOM      4  C   UNL A   1      33.117  28.726  24.027  1.00  0.00     0.245 C 
ATOM      5  O   UNL A   1      33.749  28.977  22.983  1.00  0.00    -0.272 OA
ATOM      6  H   UNL A   1      32.675  30.620  24.013  1.00  0.00     0.163 HD
BRANCH   4   7
ATOM      7  C   UNL A   1      33.141  27.260  24.611  1.00  0.00     0.113 C 
ATOM      8  C   UNL A   1      33.685  27.173  26.042  1.00  0.00     0.045 C 
BRANCH   7   9
ATOM      9  C   UNL A   1      31.644  26.763  24.636  1.00  0.00     0.035 C 
ATOM     10  C   UNL A   1      30.818  27.046  23.380  1.00  0.00     0.007 C 
ENDBRANCH   7   9
BRANCH   7  11
ATOM     11  N   UNL A   1      33.876  26.205  23.796  1.00  0.00    -0.371 N 
ATOM     12  H   UNL A   1      34.646  26.547  23.286  1.00  0.00     0.161 HD
BRANCH  11  13
ATOM     13  C   UNL A   1      33.648  24.850  23.653  1.00  0.00     0.045 A 
ATOM     14  C   UNL A   1      34.280  23.915  24.477  1.00  0.00     0.111 A 
ATOM     15  C   UNL A   1      32.894  24.286  22.626  1.00  0.00    -0.027 A 
ATOM     16  C   UNL A   1      34.032  22.530  24.317  1.00  0.00     0.271 A 
ATOM     17  C   UNL A   1      32.435  22.958  22.625  1.00  0.00     0.012 A 
ATOM     18  C   UNL A   1      32.903  24.915  21.282  1.00  0.00     0.046 C 
ATOM     19  C   UNL A   1      33.026  22.056  23.475  1.00  0.00     0.086 A 
BRANCH  16  20
ATOM     20  N   UNL A   1      34.932  21.549  24.925  1.00  0.00     0.062 N 
ATOM     21  O   UNL A   1      36.076  21.916  25.224  1.00  0.00    -0.258 OA
ATOM     22  O   UNL A   1      34.505  20.393  25.080  1.00  0.00    -0.258 OA
ENDBRANCH  16  20
ENDBRANCH  11  13
ENDBRANCH   7  11
ENDBRANCH   4   7
ENDBRANCH   2   3
ENDBRANCH   1   2
BRANCH   1  23
ATOM     23  C   UNL A   1      33.408  30.196  27.573  1.00  0.00     0.023 C 
BRANCH  23  24
ATOM     24  C   UNL A   1      34.731  30.890  27.348  1.00  0.00     0.116 C 
BRANCH  24  25
ATOM     25  N   UNL A   1      35.315  31.591  28.490  1.00  0.00    -0.352 N 
ATOM     26  C   UNL A   1      36.313  31.086  29.328  1.00  0.00     0.251 C 
ATOM     27  H   UNL A   1      34.976  32.493  28.686  1.00  0.00     0.163 HD
ATOM     28  O   UNL A   1      36.736  31.653  30.306  1.00  0.00    -0.269 OA
BRANCH  26  29
ATOM     29  C   UNL A   1      36.939  29.818  28.861  1.00  0.00     0.039 A 
ATOM     30  C   UNL A   1      37.296  28.939  29.891  1.00  0.00     0.014 A 
ATOM     31  C   UNL A   1      37.629  29.837  27.649  1.00  0.00     0.014 A 
ATOM     32  C   UNL A   1      38.526  28.297  29.824  1.00  0.00     0.010 A 
ATOM     33  C   UNL A   1      38.895  29.268  27.628  1.00  0.00     0.010 A 
ATOM     34  C   UNL A   1      39.381  28.592  28.759  1.00  0.00    -0.014 A 
BRANCH  34  35
ATOM     35  C   UNL A   1      40.830  28.379  28.857  1.00  0.00     0.031 A 
ATOM     36  C   UNL A   1      41.423  27.155  28.279  1.00  0.00     0.074 A 
ATOM     37  C   UNL A   1      41.642  29.216  29.550  1.00  0.00     0.049 A 
ATOM     38  N   UNL A   1      42.480  26.572  28.740  1.00  0.00    -0.248 NA
ATOM     39  C   UNL A   1      40.782  26.414  27.201  1.00  0.00     0.031 C 
ATOM     40  C   UNL A   1      43.105  29.173  29.603  1.00  0.00     0.029 A 
ATOM     41  N   UNL A   1      41.306  30.113  30.564  1.00  0.00    -0.354 N 
ATOM     42  C   UNL A   1      42.823  25.574  27.860  1.00  0.00     0.074 A 
ATOM     43  C   UNL A   1      41.658  25.424  27.027  1.00  0.00     0.031 C 
ATOM     44  C   UNL A   1      43.505  29.691  30.774  1.00  0.00     0.029 A 
ATOM     45  C   UNL A   1      42.315  30.014  31.536  1.00  0.00     0.049 A 
ATOM     46  H   UNL A   1      40.516  30.699  30.594  1.00  0.00     0.167 HD
ATOM     47  C   UNL A   1      44.100  25.094  27.860  1.00  0.00     0.034 A 
ATOM     48  C   UNL A   1      42.102  29.730  32.851  1.00  0.00     0.034 A 
ATOM     49  C   UNL A   1      44.833  25.523  29.061  1.00  0.00     0.049 A 
ATOM     50  C   UNL A   1      42.896  28.540  33.347  1.00  0.00     0.074 A 
ATOM     51  C   UNL A   1      45.877  26.403  29.292  1.00  0.00     0.029 A 
ATOM     52  N   UNL A   1      44.348  25.163  30.319  1.00  0.00    -0.354 N 
ATOM     53  N   UNL A   1      43.557  27.723  32.575  1.00  0.00    -0.248 NA
ATOM     54  C   UNL A   1      42.945  28.141  34.750  1.00  0.00     0.031 C 
ATOM     55  C   UNL A   1      45.987  26.602  30.696  1.00  0.00     0.029 A 
ATOM     56  C   UNL A   1      45.028  25.826  31.325  1.00  0.00     0.049 A 
ATOM     57  H   UNL A   1      43.618  24.521  30.471  1.00  0.00     0.167 HD
ATOM     58  C   UNL A   1      44.047  26.675  33.321  1.00  0.00     0.074 A 
ATOM     59  C   UNL A   1      43.673  27.013  34.683  1.00  0.00     0.031 C 
ATOM     60  C   UNL A   1      44.680  25.611  32.730  1.00  0.00     0.034 A 
BRANCH  47  61
ATOM     61  C   UNL A   1      44.782  24.435  26.659  1.00  0.00     0.023 A 
ATOM     62  C   UNL A   1      44.416  23.114  26.306  1.00  0.00     0.031 A 
ATOM     63  C   UNL A   1      45.849  24.962  25.896  1.00  0.00     0.131 A 
ATOM     64  C   UNL A   1      45.117  22.384  25.319  1.00  0.00     0.055 A 
ATOM     65  C   UNL A   1      46.538  24.243  24.911  1.00  0.00     0.041 A 
ATOM     66  F   UNL A   1      46.312  26.203  26.045  1.00  0.00    -0.206 F 
ATOM     67  C   UNL A   1      46.183  22.942  24.625  1.00  0.00     0.022 A 
BRANCH  64  68
ATOM     68  S   UNL A   1      44.655  20.664  24.978  1.00  0.00     0.124 S 
ATOM     69  O   UNL A   1      44.557  20.654  23.522  1.00  0.00    -0.237 OA
ATOM     70  O   UNL A   1      45.768  19.924  25.560  1.00  0.00    -0.237 OA
ATOM     71  O   UNL A   1      43.380  20.510  25.680  1.00  0.00    -0.744 OA
ENDBRANCH  64  68
ENDBRANCH  47  61
BRANCH  48  72
ATOM     72  C   UNL A   1      40.769  30.139  33.365  1.00  0.00     0.023 A 
ATOM     73  C   UNL A   1      40.569  31.510  33.627  1.00  0.00     0.031 A 
ATOM     74  C   UNL A   1      39.642  29.318  33.233  1.00  0.00     0.131 A 
ATOM     75  C   UNL A   1      39.277  32.046  33.602  1.00  0.00     0.055 A 
ATOM     76  C   UNL A   1      38.349  29.852  33.258  1.00  0.00     0.041 A 
ATOM     77  F   UNL A   1      39.777  28.019  32.930  1.00  0.00    -0.206 F 
ATOM     78  C   UNL A   1      38.163  31.227  33.403  1.00  0.00     0.022 A 
BRANCH  75  79
ATOM     79  S   UNL A   1      39.036  33.849  33.620  1.00  0.00     0.124 S 
ATOM     80  O   UNL A   1      39.202  34.165  35.033  1.00  0.00    -0.237 OA
ATOM     81  O   UNL A   1      40.089  34.340  32.737  1.00  0.00    -0.237 OA
ATOM     82  O   UNL A   1      37.680  33.980  33.088  1.00  0.00    -0.744 OA
ENDBRANCH  75  79
ENDBRANCH  48  72
BRANCH  60  83
ATOM     83  C   UNL A   1      45.083  24.302  33.406  1.00  0.00     0.023 A 
ATOM     84  C   UNL A   1      46.282  24.108  34.110  1.00  0.00     0.031 A 
ATOM     85  C   UNL A   1      44.210  23.183  33.402  1.00  0.00     0.131 A 
ATOM     86  C   UNL A   1      46.608  22.867  34.696  1.00  0.00     0.055 A 
ATOM     87  C   UNL A   1      44.505  21.970  34.037  1.00  0.00     0.041 A 
ATOM     88  F   UNL A   1      43.016  23.217  32.792  1.00  0.00    -0.206 F 
ATOM     89  C   UNL A   1      45.720  21.799  34.679  1.00  0.00     0.022 A 
BRANCH  86  90
ATOM     90  S   UNL A   1      48.250  22.671  35.444  1.00  0.00     0.124 S 
ATOM     91  O   UNL A   1      48.624  24.056  35.717  1.00  0.00    -0.237 OA
ATOM     92  O   UNL A   1      47.963  21.850  36.616  1.00  0.00    -0.237 OA
ATOM     93  O   UNL A   1      49.031  22.012  34.399  1.00  0.00    -0.744 OA
ENDBRANCH  86  90
ENDBRANCH  60  83
ENDBRANCH  34  35
ENDBRANCH  26  29
ENDBRANCH  24  25
ENDBRANCH  23  24
ENDBRANCH   1  23
TORSDOF 18
ENDMDL
