MODEL 1
REMARK VINA RESULT:     -11.3      0.000      0.000
REMARK SMILES C[C@@H](CC(=O)NCCCCNC(=O)c1ccc(-c2c3nc(c(-c4cc(S(=O)(=O)[O-])ccc4F)c4ccc([nH]4)c(-c4cc(S(=O)(=O)[O-])ccc4F)c4nc(c(-c5cc(S(=O)(=O)[O-])ccc5F)c5ccc2[nH]5)C=C4)C=C3)cc1)NC(=O)/C=C/c1cccnc1
REMARK SMILES IDX 8 1 7 2 6 3 4 4 5 5 3 7 2 8 1 9 77 10 78 11 79 13 80 14
REMARK SMILES IDX 81 15 82 16 83 17 87 18 84 19 86 20 85 21 9 22 10 23 11 24
REMARK SMILES IDX 12 25 13 27 14 28 15 29 76 30 16 31 75 32 17 33 18 34 19 35
REMARK SMILES IDX 69 36 20 37 74 38 68 39 70 40 21 41 73 42 67 43 66 44 22 46
REMARK SMILES IDX 54 47 34 48 53 49 35 50 38 51 52 52 71 53 36 54 37 55 51 57
REMARK SMILES IDX 72 58 39 59 23 60 24 61 32 62 25 63 31 64 33 65 30 66 26 67
REMARK SMILES IDX 27 68 28 69 29 70 55 71 56 72 64 73 57 74 63 75 65 76 62 77
REMARK SMILES IDX 58 78 59 79 60 80 61 81 40 82 41 83 49 84 42 85 48 86 50 87
REMARK SMILES IDX 47 88 43 89 44 90 45 91 46 92
REMARK H PARENT 6 6 77 12 11 26 70 45 38 56
REMARK Flexibility Score: inf
ROOT
ATOM      1  C   UNL A   1      35.426  24.459  25.015  1.00  0.00     0.023 C 
ENDROOT
BRANCH   1   2
ATOM      2  C   UNL A   1      34.205  25.379  25.112  1.00  0.00     0.116 C 
BRANCH   2   3
ATOM      3  N   UNL A   1      33.991  26.066  23.853  1.00  0.00    -0.356 N 
ATOM      4  C   UNL A   1      33.514  25.591  22.671  1.00  0.00     0.222 C 
ATOM      5  O   UNL A   1      33.647  26.282  21.661  1.00  0.00    -0.275 OA
ATOM      6  H   UNL A   1      34.228  27.022  23.854  1.00  0.00     0.163 HD
BRANCH   4   7
ATOM      7  C   UNL A   1      32.806  24.256  22.600  1.00  0.00     0.124 C 
BRANCH   7   8
ATOM      8  C   UNL A   1      31.350  24.235  23.088  1.00  0.00     0.088 C 
ATOM      9  C   UNL A   1      30.638  25.570  22.896  1.00  0.00     0.031 C 
BRANCH   8  10
ATOM     10  N   UNL A   1      31.205  23.813  24.478  1.00  0.00    -0.350 N 
ATOM     11  C   UNL A   1      31.407  22.615  25.089  1.00  0.00     0.244 C 
ATOM     12  H   UNL A   1      30.906  24.527  25.085  1.00  0.00     0.164 HD
ATOM     13  O   UNL A   1      31.098  22.487  26.274  1.00  0.00    -0.270 OA
BRANCH  11  14
ATOM     14  C   UNL A   1      32.068  21.463  24.416  1.00  0.00     0.072 C 
ATOM     15  C   UNL A   1      32.423  20.287  24.948  1.00  0.00     0.015 C 
BRANCH  15  16
ATOM     16  C   UNL A   1      33.043  19.186  24.225  1.00  0.00    -0.007 A 
ATOM     17  C   UNL A   1      34.227  18.594  24.654  1.00  0.00     0.011 A 
ATOM     18  C   UNL A   1      32.371  18.604  23.152  1.00  0.00     0.119 A 
ATOM     19  C   UNL A   1      34.681  17.445  24.011  1.00  0.00     0.021 A 
ATOM     20  N   UNL A   1      32.792  17.494  22.506  1.00  0.00    -0.264 NA
ATOM     21  C   UNL A   1      33.935  16.936  22.958  1.00  0.00     0.111 A 
ENDBRANCH  15  16
ENDBRANCH  11  14
ENDBRANCH   8  10
ENDBRANCH   7   8
ENDBRANCH   4   7
ENDBRANCH   2   3
ENDBRANCH   1   2
BRANCH   1  22
ATOM     22  C   UNL A   1      35.152  23.000  25.341  1.00  0.00     0.023 C 
BRANCH  22  23
ATOM     23  C   UNL A   1      36.098  22.407  26.364  1.00  0.00     0.116 C 
BRANCH  23  24
ATOM     24  N   UNL A   1      37.013  21.417  25.799  1.00  0.00    -0.352 N 
ATOM     25  C   UNL A   1      38.387  21.454  25.810  1.00  0.00     0.251 C 
ATOM     26  H   UNL A   1      36.599  20.638  25.363  1.00  0.00     0.163 HD
ATOM     27  O   UNL A   1      39.049  20.621  25.229  1.00  0.00    -0.269 OA
BRANCH  25  28
ATOM     28  C   UNL A   1      39.019  22.585  26.524  1.00  0.00     0.039 A 
ATOM     29  C   UNL A   1      40.089  22.336  27.386  1.00  0.00     0.014 A 
ATOM     30  C   UNL A   1      38.657  23.892  26.181  1.00  0.00     0.014 A 
ATOM     31  C   UNL A   1      40.855  23.407  27.847  1.00  0.00     0.010 A 
ATOM     32  C   UNL A   1      39.475  24.941  26.569  1.00  0.00     0.010 A 
ATOM     33  C   UNL A   1      40.581  24.711  27.406  1.00  0.00    -0.014 A 
BRANCH  33  34
ATOM     34  C   UNL A   1      41.389  25.882  27.831  1.00  0.00     0.031 A 
ATOM     35  C   UNL A   1      40.714  26.962  28.632  1.00  0.00     0.074 A 
ATOM     36  C   UNL A   1      42.658  26.035  27.407  1.00  0.00     0.049 A 
ATOM     37  N   UNL A   1      41.117  28.175  28.897  1.00  0.00    -0.248 NA
ATOM     38  C   UNL A   1      39.374  26.641  29.147  1.00  0.00     0.031 C 
ATOM     39  C   UNL A   1      43.411  25.071  26.602  1.00  0.00     0.029 A 
ATOM     40  N   UNL A   1      43.534  27.078  27.577  1.00  0.00    -0.354 N 
ATOM     41  C   UNL A   1      40.056  28.781  29.564  1.00  0.00     0.074 A 
ATOM     42  C   UNL A   1      38.979  27.817  29.609  1.00  0.00     0.031 C 
ATOM     43  C   UNL A   1      44.637  25.563  26.359  1.00  0.00     0.029 A 
ATOM     44  C   UNL A   1      44.742  26.897  26.944  1.00  0.00     0.049 A 
ATOM     45  H   UNL A   1      43.318  27.882  28.103  1.00  0.00     0.167 HD
ATOM     46  C   UNL A   1      39.995  30.024  30.103  1.00  0.00     0.034 A 
ATOM     47  C   UNL A   1      45.801  27.724  26.829  1.00  0.00     0.034 A 
ATOM     48  C   UNL A   1      41.102  30.946  30.094  1.00  0.00     0.049 A 
ATOM     49  C   UNL A   1      45.729  29.089  27.467  1.00  0.00     0.074 A 
ATOM     50  C   UNL A   1      41.181  32.208  30.657  1.00  0.00     0.029 A 
ATOM     51  N   UNL A   1      42.333  30.696  29.500  1.00  0.00    -0.354 N 
ATOM     52  N   UNL A   1      44.724  29.650  28.102  1.00  0.00    -0.248 NA
ATOM     53  C   UNL A   1      46.929  29.932  27.378  1.00  0.00     0.031 C 
ATOM     54  C   UNL A   1      42.446  32.735  30.370  1.00  0.00     0.029 A 
ATOM     55  C   UNL A   1      43.174  31.780  29.678  1.00  0.00     0.049 A 
ATOM     56  H   UNL A   1      42.572  29.869  29.022  1.00  0.00     0.167 HD
ATOM     57  C   UNL A   1      45.187  30.893  28.521  1.00  0.00     0.074 A 
ATOM     58  C   UNL A   1      46.557  31.004  28.063  1.00  0.00     0.031 C 
ATOM     59  C   UNL A   1      44.542  31.854  29.228  1.00  0.00     0.034 A 
BRANCH  46  60
ATOM     60  C   UNL A   1      38.685  30.445  30.719  1.00  0.00     0.023 A 
ATOM     61  C   UNL A   1      37.704  31.123  29.974  1.00  0.00     0.031 A 
ATOM     62  C   UNL A   1      38.437  30.223  32.085  1.00  0.00     0.131 A 
ATOM     63  C   UNL A   1      36.572  31.642  30.617  1.00  0.00     0.055 A 
ATOM     64  C   UNL A   1      37.263  30.660  32.700  1.00  0.00     0.041 A 
ATOM     65  F   UNL A   1      39.345  29.599  32.853  1.00  0.00    -0.206 F 
ATOM     66  C   UNL A   1      36.331  31.393  31.971  1.00  0.00     0.022 A 
BRANCH  63  67
ATOM     67  S   UNL A   1      35.511  32.789  29.698  1.00  0.00     0.124 S 
ATOM     68  O   UNL A   1      34.815  33.477  30.784  1.00  0.00    -0.237 OA
ATOM     69  O   UNL A   1      36.477  33.586  28.952  1.00  0.00    -0.237 OA
ATOM     70  O   UNL A   1      34.671  31.906  28.890  1.00  0.00    -0.744 OA
ENDBRANCH  63  67
ENDBRANCH  46  60
BRANCH  47  71
ATOM     71  C   UNL A   1      47.017  27.300  26.078  1.00  0.00     0.023 A 
ATOM     72  C   UNL A   1      47.213  27.695  24.745  1.00  0.00     0.031 A 
ATOM     73  C   UNL A   1      47.982  26.467  26.668  1.00  0.00     0.131 A 
ATOM     74  C   UNL A   1      48.323  27.221  24.031  1.00  0.00     0.055 A 
ATOM     75  C   UNL A   1      49.110  26.033  25.967  1.00  0.00     0.041 A 
ATOM     76  F   UNL A   1      47.847  26.068  27.943  1.00  0.00    -0.206 F 
ATOM     77  C   UNL A   1      49.278  26.400  24.636  1.00  0.00     0.022 A 
BRANCH  74  78
ATOM     78  S   UNL A   1      48.463  27.634  22.269  1.00  0.00     0.124 S 
ATOM     79  O   UNL A   1      49.690  28.422  22.247  1.00  0.00    -0.237 OA
ATOM     80  O   UNL A   1      48.536  26.313  21.655  1.00  0.00    -0.237 OA
ATOM     81  O   UNL A   1      47.237  28.379  21.996  1.00  0.00    -0.744 OA
ENDBRANCH  74  78
ENDBRANCH  47  71
BRANCH  59  82
ATOM     82  C   UNL A   1      45.336  33.071  29.619  1.00  0.00     0.023 A 
ATOM     83  C   UNL A   1      45.349  34.234  28.832  1.00  0.00     0.031 A 
ATOM     84  C   UNL A   1      46.062  33.069  30.824  1.00  0.00     0.131 A 
ATOM     85  C   UNL A   1      46.099  35.344  29.247  1.00  0.00     0.055 A 
ATOM     86  C   UNL A   1      46.772  34.190  31.251  1.00  0.00     0.041 A 
ATOM     87  F   UNL A   1      46.076  31.981  31.610  1.00  0.00    -0.206 F 
ATOM     88  C   UNL A   1      46.798  35.334  30.458  1.00  0.00     0.022 A 
BRANCH  85  89
ATOM     89  S   UNL A   1      46.177  36.800  28.169  1.00  0.00     0.124 S 
ATOM     90  O   UNL A   1      47.470  37.374  28.529  1.00  0.00    -0.237 OA
ATOM     91  O   UNL A   1      46.091  36.210  26.837  1.00  0.00    -0.237 OA
ATOM     92  O   UNL A   1      45.014  37.588  28.572  1.00  0.00    -0.744 OA
ENDBRANCH  85  89
ENDBRANCH  59  82
ENDBRANCH  33  34
ENDBRANCH  25  28
ENDBRANCH  23  24
ENDBRANCH  22  23
ENDBRANCH   1  22
TORSDOF 18
ENDMDL
MODEL 2
REMARK VINA RESULT:     -11.3      5.427     10.528
REMARK SMILES C[C@@H](CC(=O)NCCCCNC(=O)c1ccc(-c2c3nc(c(-c4cc(S(=O)(=O)[O-])ccc4F)c4ccc([nH]4)c(-c4cc(S(=O)(=O)[O-])ccc4F)c4nc(c(-c5cc(S(=O)(=O)[O-])ccc5F)c5ccc2[nH]5)C=C4)C=C3)cc1)NC(=O)/C=C/c1cccnc1
REMARK SMILES IDX 8 1 7 2 6 3 4 4 5 5 3 7 2 8 1 9 77 10 78 11 79 13 80 14
REMARK SMILES IDX 81 15 82 16 83 17 87 18 84 19 86 20 85 21 9 22 10 23 11 24
REMARK SMILES IDX 12 25 13 27 14 28 15 29 76 30 16 31 75 32 17 33 18 34 19 35
REMARK SMILES IDX 69 36 20 37 74 38 68 39 70 40 21 41 73 42 67 43 66 44 22 46
REMARK SMILES IDX 54 47 34 48 53 49 35 50 38 51 52 52 71 53 36 54 37 55 51 57
REMARK SMILES IDX 72 58 39 59 23 60 24 61 32 62 25 63 31 64 33 65 30 66 26 67
REMARK SMILES IDX 27 68 28 69 29 70 55 71 56 72 64 73 57 74 63 75 65 76 62 77
REMARK SMILES IDX 58 78 59 79 60 80 61 81 40 82 41 83 49 84 42 85 48 86 50 87
REMARK SMILES IDX 47 88 43 89 44 90 45 91 46 92
REMARK H PARENT 6 6 77 12 11 26 70 45 38 56
REMARK Flexibility Score: inf
ROOT
ATOM      1  C   UNL A   1      31.879  27.981  27.570  1.00  0.00     0.023 C 
ENDROOT
BRANCH   1   2
ATOM      2  C   UNL A   1      32.303  26.951  26.518  1.00  0.00     0.116 C 
BRANCH   2   3
ATOM      3  N   UNL A   1      31.599  25.700  26.727  1.00  0.00    -0.356 N 
ATOM      4  C   UNL A   1      30.444  25.247  26.169  1.00  0.00     0.222 C 
ATOM      5  O   UNL A   1      29.891  24.268  26.671  1.00  0.00    -0.275 OA
ATOM      6  H   UNL A   1      32.021  25.086  27.370  1.00  0.00     0.163 HD
BRANCH   4   7
ATOM      7  C   UNL A   1      29.863  25.910  24.940  1.00  0.00     0.124 C 
BRANCH   7   8
ATOM      8  C   UNL A   1      30.483  25.505  23.595  1.00  0.00     0.088 C 
ATOM      9  C   UNL A   1      30.540  23.994  23.396  1.00  0.00     0.031 C 
BRANCH   8  10
ATOM     10  N   UNL A   1      31.812  26.066  23.371  1.00  0.00    -0.350 N 
ATOM     11  C   UNL A   1      32.220  27.249  22.840  1.00  0.00     0.244 C 
ATOM     12  H   UNL A   1      32.548  25.479  23.655  1.00  0.00     0.164 HD
ATOM     13  O   UNL A   1      33.422  27.439  22.653  1.00  0.00    -0.270 OA
BRANCH  11  14
ATOM     14  C   UNL A   1      31.287  28.373  22.552  1.00  0.00     0.072 C 
ATOM     15  C   UNL A   1      30.295  28.842  23.318  1.00  0.00     0.015 C 
BRANCH  15  16
ATOM     16  C   UNL A   1      29.433  29.968  22.989  1.00  0.00    -0.007 A 
ATOM     17  C   UNL A   1      29.334  31.088  23.809  1.00  0.00     0.011 A 
ATOM     18  C   UNL A   1      28.791  30.003  21.752  1.00  0.00     0.119 A 
ATOM     19  C   UNL A   1      28.619  32.194  23.359  1.00  0.00     0.021 A 
ATOM     20  N   UNL A   1      28.085  31.060  21.294  1.00  0.00    -0.264 NA
ATOM     21  C   UNL A   1      28.023  32.135  22.108  1.00  0.00     0.111 A 
ENDBRANCH  15  16
ENDBRANCH  11  14
ENDBRANCH   8  10
ENDBRANCH   7   8
ENDBRANCH   4   7
ENDBRANCH   2   3
ENDBRANCH   1   2
BRANCH   1  22
ATOM     22  C   UNL A   1      31.404  29.310  27.005  1.00  0.00     0.023 C 
BRANCH  22  23
ATOM     23  C   UNL A   1      32.523  30.246  26.600  1.00  0.00     0.116 C 
BRANCH  23  24
ATOM     24  N   UNL A   1      32.194  31.657  26.792  1.00  0.00    -0.352 N 
ATOM     25  C   UNL A   1      32.975  32.618  27.390  1.00  0.00     0.251 C 
ATOM     26  H   UNL A   1      31.317  31.951  26.457  1.00  0.00     0.163 HD
ATOM     27  O   UNL A   1      32.563  33.743  27.579  1.00  0.00    -0.269 OA
BRANCH  25  28
ATOM     28  C   UNL A   1      34.323  32.202  27.835  1.00  0.00     0.039 A 
ATOM     29  C   UNL A   1      35.331  33.161  27.946  1.00  0.00     0.014 A 
ATOM     30  C   UNL A   1      34.508  30.900  28.312  1.00  0.00     0.014 A 
ATOM     31  C   UNL A   1      36.512  32.833  28.613  1.00  0.00     0.010 A 
ATOM     32  C   UNL A   1      35.644  30.610  29.051  1.00  0.00     0.010 A 
ATOM     33  C   UNL A   1      36.657  31.571  29.209  1.00  0.00    -0.014 A 
BRANCH  33  34
ATOM     34  C   UNL A   1      37.874  31.183  29.968  1.00  0.00     0.031 A 
ATOM     35  C   UNL A   1      38.808  30.178  29.352  1.00  0.00     0.074 A 
ATOM     36  C   UNL A   1      38.073  31.625  31.225  1.00  0.00     0.049 A 
ATOM     37  N   UNL A   1      39.776  29.496  29.903  1.00  0.00    -0.248 NA
ATOM     38  C   UNL A   1      38.571  29.858  27.936  1.00  0.00     0.031 C 
ATOM     39  C   UNL A   1      37.222  32.577  31.939  1.00  0.00     0.029 A 
ATOM     40  N   UNL A   1      39.049  31.306  32.135  1.00  0.00    -0.354 N 
ATOM     41  C   UNL A   1      40.227  28.626  28.915  1.00  0.00     0.074 A 
ATOM     42  C   UNL A   1      39.387  28.833  27.755  1.00  0.00     0.031 C 
ATOM     43  C   UNL A   1      37.720  32.774  33.171  1.00  0.00     0.029 A 
ATOM     44  C   UNL A   1      38.893  31.924  33.355  1.00  0.00     0.049 A 
ATOM     45  H   UNL A   1      39.792  30.691  31.936  1.00  0.00     0.167 HD
ATOM     46  C   UNL A   1      41.259  27.747  28.967  1.00  0.00     0.034 A 
ATOM     47  C   UNL A   1      39.602  31.798  34.495  1.00  0.00     0.034 A 
ATOM     48  C   UNL A   1      42.115  27.600  30.116  1.00  0.00     0.049 A 
ATOM     49  C   UNL A   1      40.768  30.843  34.524  1.00  0.00     0.074 A 
ATOM     50  C   UNL A   1      43.225  26.788  30.269  1.00  0.00     0.029 A 
ATOM     51  N   UNL A   1      41.963  28.296  31.309  1.00  0.00    -0.354 N 
ATOM     52  N   UNL A   1      41.191  30.030  33.581  1.00  0.00    -0.248 NA
ATOM     53  C   UNL A   1      41.555  30.787  35.763  1.00  0.00     0.031 C 
ATOM     54  C   UNL A   1      43.720  26.964  31.566  1.00  0.00     0.029 A 
ATOM     55  C   UNL A   1      42.954  27.929  32.202  1.00  0.00     0.049 A 
ATOM     56  H   UNL A   1      41.254  28.954  31.492  1.00  0.00     0.167 HD
ATOM     57  C   UNL A   1      42.316  29.399  34.102  1.00  0.00     0.074 A 
ATOM     58  C   UNL A   1      42.503  29.918  35.441  1.00  0.00     0.031 C 
ATOM     59  C   UNL A   1      43.127  28.479  33.524  1.00  0.00     0.034 A 
BRANCH  46  60
ATOM     60  C   UNL A   1      41.486  26.878  27.756  1.00  0.00     0.023 A 
ATOM     61  C   UNL A   1      41.006  25.559  27.695  1.00  0.00     0.031 A 
ATOM     62  C   UNL A   1      42.248  27.351  26.674  1.00  0.00     0.131 A 
ATOM     63  C   UNL A   1      41.375  24.729  26.628  1.00  0.00     0.055 A 
ATOM     64  C   UNL A   1      42.534  26.549  25.568  1.00  0.00     0.041 A 
ATOM     65  F   UNL A   1      42.752  28.596  26.684  1.00  0.00    -0.206 F 
ATOM     66  C   UNL A   1      42.114  25.222  25.550  1.00  0.00     0.022 A 
BRANCH  63  67
ATOM     67  S   UNL A   1      41.020  22.955  26.755  1.00  0.00     0.124 S 
ATOM     68  O   UNL A   1      41.490  22.659  28.106  1.00  0.00    -0.237 OA
ATOM     69  O   UNL A   1      39.577  22.906  26.556  1.00  0.00    -0.237 OA
ATOM     70  O   UNL A   1      41.820  22.367  25.681  1.00  0.00    -0.744 OA
ENDBRANCH  63  67
ENDBRANCH  46  60
BRANCH  47  71
ATOM     71  C   UNL A   1      39.232  32.582  35.708  1.00  0.00     0.023 A 
ATOM     72  C   UNL A   1      39.676  33.904  35.873  1.00  0.00     0.031 A 
ATOM     73  C   UNL A   1      38.462  32.012  36.736  1.00  0.00     0.131 A 
ATOM     74  C   UNL A   1      39.385  34.598  37.056  1.00  0.00     0.055 A 
ATOM     75  C   UNL A   1      38.136  32.723  37.894  1.00  0.00     0.041 A 
ATOM     76  F   UNL A   1      38.005  30.755  36.625  1.00  0.00    -0.206 F 
ATOM     77  C   UNL A   1      38.609  34.020  38.064  1.00  0.00     0.022 A 
BRANCH  74  78
ATOM     78  S   UNL A   1      40.099  36.249  37.293  1.00  0.00     0.124 S 
ATOM     79  O   UNL A   1      39.246  36.794  38.342  1.00  0.00    -0.237 OA
ATOM     80  O   UNL A   1      41.470  35.933  37.679  1.00  0.00    -0.237 OA
ATOM     81  O   UNL A   1      39.952  36.875  35.981  1.00  0.00    -0.744 OA
ENDBRANCH  74  78
ENDBRANCH  47  71
BRANCH  59  82
ATOM     82  C   UNL A   1      44.335  28.038  34.305  1.00  0.00     0.023 A 
ATOM     83  C   UNL A   1      44.293  26.943  35.183  1.00  0.00     0.031 A 
ATOM     84  C   UNL A   1      45.558  28.711  34.132  1.00  0.00     0.131 A 
ATOM     85  C   UNL A   1      45.451  26.568  35.880  1.00  0.00     0.055 A 
ATOM     86  C   UNL A   1      46.715  28.308  34.797  1.00  0.00     0.041 A 
ATOM     87  F   UNL A   1      45.647  29.762  33.301  1.00  0.00    -0.206 F 
ATOM     88  C   UNL A   1      46.664  27.234  35.682  1.00  0.00     0.022 A 
BRANCH  85  89
ATOM     89  S   UNL A   1      45.349  25.211  37.079  1.00  0.00     0.124 S 
ATOM     90  O   UNL A   1      44.262  25.655  37.947  1.00  0.00    -0.237 OA
ATOM     91  O   UNL A   1      45.056  24.061  36.229  1.00  0.00    -0.237 OA
ATOM     92  O   UNL A   1      46.673  25.200  37.698  1.00  0.00    -0.744 OA
ENDBRANCH  85  89
ENDBRANCH  59  82
ENDBRANCH  33  34
ENDBRANCH  25  28
ENDBRANCH  23  24
ENDBRANCH  22  23
ENDBRANCH   1  22
TORSDOF 18
ENDMDL
MODEL 3
REMARK VINA RESULT:     -11.3      5.861     11.037
REMARK SMILES C[C@@H](CC(=O)NCCCCNC(=O)c1ccc(-c2c3nc(c(-c4cc(S(=O)(=O)[O-])ccc4F)c4ccc([nH]4)c(-c4cc(S(=O)(=O)[O-])ccc4F)c4nc(c(-c5cc(S(=O)(=O)[O-])ccc5F)c5ccc2[nH]5)C=C4)C=C3)cc1)NC(=O)/C=C/c1cccnc1
REMARK SMILES IDX 8 1 7 2 6 3 4 4 5 5 3 7 2 8 1 9 77 10 78 11 79 13 80 14
REMARK SMILES IDX 81 15 82 16 83 17 87 18 84 19 86 20 85 21 9 22 10 23 11 24
REMARK SMILES IDX 12 25 13 27 14 28 15 29 76 30 16 31 75 32 17 33 18 34 19 35
REMARK SMILES IDX 69 36 20 37 74 38 68 39 70 40 21 41 73 42 67 43 66 44 22 46
REMARK SMILES IDX 54 47 34 48 53 49 35 50 38 51 52 52 71 53 36 54 37 55 51 57
REMARK SMILES IDX 72 58 39 59 23 60 24 61 32 62 25 63 31 64 33 65 30 66 26 67
REMARK SMILES IDX 27 68 28 69 29 70 55 71 56 72 64 73 57 74 63 75 65 76 62 77
REMARK SMILES IDX 58 78 59 79 60 80 61 81 40 82 41 83 49 84 42 85 48 86 50 87
REMARK SMILES IDX 47 88 43 89 44 90 45 91 46 92
REMARK H PARENT 6 6 77 12 11 26 70 45 38 56
REMARK Flexibility Score: inf
ROOT
ATOM      1  C   UNL A   1      33.083  29.423  26.214  1.00  0.00     0.023 C 
ENDROOT
BRANCH   1   2
ATOM      2  C   UNL A   1      33.246  28.034  26.839  1.00  0.00     0.116 C 
BRANCH   2   3
ATOM      3  N   UNL A   1      31.954  27.394  26.989  1.00  0.00    -0.356 N 
ATOM      4  C   UNL A   1      31.464  26.270  26.400  1.00  0.00     0.222 C 
ATOM      5  O   UNL A   1      30.257  26.042  26.476  1.00  0.00    -0.275 OA
ATOM      6  H   UNL A   1      31.336  27.842  27.611  1.00  0.00     0.163 HD
BRANCH   4   7
ATOM      7  C   UNL A   1      32.385  25.301  25.692  1.00  0.00     0.124 C 
BRANCH   7   8
ATOM      8  C   UNL A   1      32.035  24.978  24.232  1.00  0.00     0.088 C 
ATOM      9  C   UNL A   1      32.115  23.488  23.917  1.00  0.00     0.031 C 
BRANCH   8  10
ATOM     10  N   UNL A   1      32.838  25.715  23.261  1.00  0.00    -0.350 N 
ATOM     11  C   UNL A   1      32.664  26.929  22.673  1.00  0.00     0.244 C 
ATOM     12  H   UNL A   1      33.656  25.247  22.980  1.00  0.00     0.164 HD
ATOM     13  O   UNL A   1      33.440  27.281  21.785  1.00  0.00    -0.270 OA
BRANCH  11  14
ATOM     14  C   UNL A   1      31.624  27.900  23.112  1.00  0.00     0.072 C 
ATOM     15  C   UNL A   1      30.544  28.315  22.439  1.00  0.00     0.015 C 
BRANCH  15  16
ATOM     16  C   UNL A   1      29.545  29.249  22.937  1.00  0.00    -0.007 A 
ATOM     17  C   UNL A   1      29.896  30.446  23.554  1.00  0.00     0.011 A 
ATOM     18  C   UNL A   1      28.197  29.019  22.671  1.00  0.00     0.119 A 
ATOM     19  C   UNL A   1      28.897  31.366  23.862  1.00  0.00     0.021 A 
ATOM     20  N   UNL A   1      27.207  29.891  22.966  1.00  0.00    -0.264 NA
ATOM     21  C   UNL A   1      27.583  31.049  23.548  1.00  0.00     0.111 A 
ENDBRANCH  15  16
ENDBRANCH  11  14
ENDBRANCH   8  10
ENDBRANCH   7   8
ENDBRANCH   4   7
ENDBRANCH   2   3
ENDBRANCH   1   2
BRANCH   1  22
ATOM     22  C   UNL A   1      32.578  30.495  27.166  1.00  0.00     0.023 C 
BRANCH  22  23
ATOM     23  C   UNL A   1      33.598  31.567  27.487  1.00  0.00     0.116 C 
BRANCH  23  24
ATOM     24  N   UNL A   1      33.031  32.914  27.518  1.00  0.00    -0.352 N 
ATOM     25  C   UNL A   1      33.377  33.941  28.364  1.00  0.00     0.251 C 
ATOM     26  H   UNL A   1      32.324  33.106  26.861  1.00  0.00     0.163 HD
ATOM     27  O   UNL A   1      32.774  34.993  28.364  1.00  0.00    -0.269 OA
BRANCH  25  28
ATOM     28  C   UNL A   1      34.486  33.684  29.309  1.00  0.00     0.039 A 
ATOM     29  C   UNL A   1      34.303  32.761  30.340  1.00  0.00     0.014 A 
ATOM     30  C   UNL A   1      35.747  34.226  29.039  1.00  0.00     0.014 A 
ATOM     31  C   UNL A   1      35.412  32.317  31.061  1.00  0.00     0.010 A 
ATOM     32  C   UNL A   1      36.854  33.714  29.697  1.00  0.00     0.010 A 
ATOM     33  C   UNL A   1      36.699  32.755  30.714  1.00  0.00    -0.014 A 
BRANCH  33  34
ATOM     34  C   UNL A   1      37.919  32.284  31.418  1.00  0.00     0.031 A 
ATOM     35  C   UNL A   1      38.745  31.206  30.771  1.00  0.00     0.074 A 
ATOM     36  C   UNL A   1      38.211  32.720  32.659  1.00  0.00     0.049 A 
ATOM     37  N   UNL A   1      39.684  30.458  31.284  1.00  0.00    -0.248 NA
ATOM     38  C   UNL A   1      38.416  30.893  29.372  1.00  0.00     0.031 C 
ATOM     39  C   UNL A   1      37.469  33.740  33.402  1.00  0.00     0.029 A 
ATOM     40  N   UNL A   1      39.203  32.336  33.526  1.00  0.00    -0.354 N 
ATOM     41  C   UNL A   1      40.021  29.548  30.286  1.00  0.00     0.074 A 
ATOM     42  C   UNL A   1      39.144  29.808  29.165  1.00  0.00     0.031 C 
ATOM     43  C   UNL A   1      38.039  33.910  34.606  1.00  0.00     0.029 A 
ATOM     44  C   UNL A   1      39.152  32.975  34.744  1.00  0.00     0.049 A 
ATOM     45  H   UNL A   1      39.887  31.666  33.299  1.00  0.00     0.167 HD
ATOM     46  C   UNL A   1      40.985  28.595  30.300  1.00  0.00     0.034 A 
ATOM     47  C   UNL A   1      39.904  32.806  35.851  1.00  0.00     0.034 A 
ATOM     48  C   UNL A   1      41.883  28.394  31.409  1.00  0.00     0.049 A 
ATOM     49  C   UNL A   1      40.996  31.766  35.835  1.00  0.00     0.074 A 
ATOM     50  C   UNL A   1      42.935  27.502  31.519  1.00  0.00     0.029 A 
ATOM     51  N   UNL A   1      41.841  29.109  32.599  1.00  0.00    -0.354 N 
ATOM     52  N   UNL A   1      41.311  30.916  34.884  1.00  0.00    -0.248 NA
ATOM     53  C   UNL A   1      41.836  31.662  37.037  1.00  0.00     0.031 C 
ATOM     54  C   UNL A   1      43.504  27.652  32.788  1.00  0.00     0.029 A 
ATOM     55  C   UNL A   1      42.844  28.677  33.448  1.00  0.00     0.049 A 
ATOM     56  H   UNL A   1      41.193  29.821  32.808  1.00  0.00     0.167 HD
ATOM     57  C   UNL A   1      42.410  30.207  35.358  1.00  0.00     0.074 A 
ATOM     58  C   UNL A   1      42.700  30.722  36.681  1.00  0.00     0.031 C 
ATOM     59  C   UNL A   1      43.121  29.223  34.753  1.00  0.00     0.034 A 
BRANCH  46  60
ATOM     60  C   UNL A   1      41.089  27.701  29.091  1.00  0.00     0.023 A 
ATOM     61  C   UNL A   1      42.102  27.872  28.132  1.00  0.00     0.031 A 
ATOM     62  C   UNL A   1      40.125  26.704  28.859  1.00  0.00     0.131 A 
ATOM     63  C   UNL A   1      42.070  27.132  26.942  1.00  0.00     0.055 A 
ATOM     64  C   UNL A   1      40.154  25.904  27.715  1.00  0.00     0.041 A 
ATOM     65  F   UNL A   1      39.121  26.507  29.729  1.00  0.00    -0.206 F 
ATOM     66  C   UNL A   1      41.118  26.130  26.737  1.00  0.00     0.022 A 
BRANCH  63  67
ATOM     67  S   UNL A   1      43.187  27.617  25.598  1.00  0.00     0.124 S 
ATOM     68  O   UNL A   1      43.848  26.349  25.296  1.00  0.00    -0.237 OA
ATOM     69  O   UNL A   1      42.265  28.113  24.584  1.00  0.00    -0.237 OA
ATOM     70  O   UNL A   1      44.044  28.629  26.212  1.00  0.00    -0.744 OA
ENDBRANCH  63  67
ENDBRANCH  46  60
BRANCH  47  71
ATOM     71  C   UNL A   1      39.654  33.626  37.070  1.00  0.00     0.023 A 
ATOM     72  C   UNL A   1      38.922  33.106  38.149  1.00  0.00     0.031 A 
ATOM     73  C   UNL A   1      40.110  34.952  37.161  1.00  0.00     0.131 A 
ATOM     74  C   UNL A   1      38.629  33.920  39.254  1.00  0.00     0.055 A 
ATOM     75  C   UNL A   1      39.854  35.745  38.283  1.00  0.00     0.041 A 
ATOM     76  F   UNL A   1      40.822  35.496  36.161  1.00  0.00    -0.206 F 
ATOM     77  C   UNL A   1      39.099  35.233  39.333  1.00  0.00     0.022 A 
BRANCH  74  78
ATOM     78  S   UNL A   1      37.557  33.258  40.560  1.00  0.00     0.124 S 
ATOM     79  O   UNL A   1      38.356  32.147  41.064  1.00  0.00    -0.237 OA
ATOM     80  O   UNL A   1      37.420  34.406  41.449  1.00  0.00    -0.237 OA
ATOM     81  O   UNL A   1      36.341  32.879  39.843  1.00  0.00    -0.744 OA
ENDBRANCH  74  78
ENDBRANCH  47  71
BRANCH  59  82
ATOM     82  C   UNL A   1      44.330  28.700  35.482  1.00  0.00     0.023 A 
ATOM     83  C   UNL A   1      44.231  27.696  36.458  1.00  0.00     0.031 A 
ATOM     84  C   UNL A   1      45.605  29.197  35.158  1.00  0.00     0.131 A 
ATOM     85  C   UNL A   1      45.390  27.237  37.101  1.00  0.00     0.055 A 
ATOM     86  C   UNL A   1      46.757  28.707  35.771  1.00  0.00     0.041 A 
ATOM     87  F   UNL A   1      45.748  30.155  34.229  1.00  0.00    -0.206 F 
ATOM     88  C   UNL A   1      46.653  27.726  36.753  1.00  0.00     0.022 A 
BRANCH  85  89
ATOM     89  S   UNL A   1      45.228  26.008  38.424  1.00  0.00     0.124 S 
ATOM     90  O   UNL A   1      44.021  26.458  39.110  1.00  0.00    -0.237 OA
ATOM     91  O   UNL A   1      45.110  24.758  37.680  1.00  0.00    -0.237 OA
ATOM     92  O   UNL A   1      46.467  26.158  39.186  1.00  0.00    -0.744 OA
ENDBRANCH  85  89
ENDBRANCH  59  82
ENDBRANCH  33  34
ENDBRANCH  25  28
ENDBRANCH  23  24
ENDBRANCH  22  23
ENDBRANCH   1  22
TORSDOF 18
ENDMDL
