MODEL 1
REMARK VINA RESULT:     -12.1      0.000      0.000
REMARK SMILES COc1cc(Cl)c2c(c1)C=C(C(=O)NCCCCNC(=O)c1ccc(-c3c4nc(c(-c5cc(S(=O)(=O)[O-])ccc5F)c5ccc([nH]5)c(-c5cc(S(=O)(=O)[O-])ccc5F)c5nc(c(-c6cc(S(=O)(=O)[O-])ccc6F)c6ccc3[nH]6)C=C5)C=C4)cc1)[C@@H](C(F)(F)F)O2
REMARK SMILES IDX 17 1 16 2 15 3 14 4 12 5 13 6 11 8 3 9 4 10 9 11 5 12 8 13
REMARK SMILES IDX 6 14 7 15 10 16 90 17 85 18 2 19 1 20 86 21 87 22 88 23
REMARK SMILES IDX 89 24 18 25 19 26 20 27 21 29 22 30 23 31 84 32 24 33 83 34
REMARK SMILES IDX 25 35 26 36 27 37 77 38 28 39 82 40 76 41 78 42 29 43 81 44
REMARK SMILES IDX 75 45 74 46 30 48 62 49 42 50 61 51 43 52 46 53 60 54 79 55
REMARK SMILES IDX 44 56 45 57 59 59 80 60 47 61 31 62 32 63 40 64 33 65 39 66
REMARK SMILES IDX 41 67 38 68 34 69 35 70 36 71 37 72 63 73 64 74 72 75 65 76
REMARK SMILES IDX 71 77 73 78 70 79 66 80 67 81 68 82 69 83 48 84 49 85 57 86
REMARK SMILES IDX 50 87 56 88 58 89 55 90 51 91 52 92 53 93 54 94
REMARK H PARENT 14 7 19 28 78 47 46 58
REMARK Flexibility Score: inf
ROOT
ATOM      1  C   UNL A   1      31.442  31.949  26.887  1.00  0.00     0.023 C 
ENDROOT
BRANCH   1   2
ATOM      2  C   UNL A   1      31.638  30.517  26.380  1.00  0.00     0.023 C 
BRANCH   2   3
ATOM      3  C   UNL A   1      33.099  30.119  26.193  1.00  0.00     0.116 C 
BRANCH   3   4
ATOM      4  N   UNL A   1      33.390  29.766  24.816  1.00  0.00    -0.352 N 
ATOM      5  C   UNL A   1      33.330  28.653  24.049  1.00  0.00     0.251 C 
ATOM      6  O   UNL A   1      33.688  28.800  22.875  1.00  0.00    -0.270 OA
ATOM      7  H   UNL A   1      33.718  30.540  24.305  1.00  0.00     0.163 HD
BRANCH   5   8
ATOM      8  C   UNL A   1      32.870  27.309  24.509  1.00  0.00     0.067 C 
ATOM      9  C   UNL A   1      33.759  22.563  24.690  1.00  0.00     0.121 A 
ATOM     10  C   UNL A   1      32.623  22.362  25.472  1.00  0.00     0.070 A 
ATOM     11  C   UNL A   1      34.146  23.856  24.336  1.00  0.00     0.058 A 
ATOM     12  C   UNL A   1      31.853  23.458  25.863  1.00  0.00     0.087 A 
ATOM     13  C   UNL A   1      33.367  24.953  24.712  1.00  0.00     0.022 A 
ATOM     14  Cl  UNL A   1      30.448  23.174  26.829  1.00  0.00    -0.080 Cl
ATOM     15  C   UNL A   1      32.211  24.752  25.469  1.00  0.00     0.146 A 
ATOM     16  C   UNL A   1      33.756  26.309  24.343  1.00  0.00     0.025 C 
ATOM     17  O   UNL A   1      31.439  25.804  25.881  1.00  0.00    -0.474 OA
ATOM     18  C   UNL A   1      31.510  27.015  25.075  1.00  0.00     0.314 C 
BRANCH   9  19
ATOM     19  O   UNL A   1      34.583  21.552  24.276  1.00  0.00    -0.497 OA
ATOM     20  C   UNL A   1      34.404  20.335  24.997  1.00  0.00     0.278 C 
ENDBRANCH   9  19
BRANCH  18  21
ATOM     21  C   UNL A   1      30.413  26.971  23.994  1.00  0.00     0.429 C 
ATOM     22  F   UNL A   1      30.004  28.225  23.679  1.00  0.00    -0.167 F 
ATOM     23  F   UNL A   1      30.839  26.405  22.841  1.00  0.00    -0.167 F 
ATOM     24  F   UNL A   1      29.321  26.279  24.393  1.00  0.00    -0.167 F 
ENDBRANCH  18  21
ENDBRANCH   5   8
ENDBRANCH   3   4
ENDBRANCH   2   3
ENDBRANCH   1   2
BRANCH   1  25
ATOM     25  C   UNL A   1      32.728  32.742  27.121  1.00  0.00     0.116 C 
BRANCH  25  26
ATOM     26  N   UNL A   1      32.497  34.056  27.711  1.00  0.00    -0.352 N 
ATOM     27  C   UNL A   1      33.186  34.645  28.740  1.00  0.00     0.251 C 
ATOM     28  H   UNL A   1      31.759  34.581  27.325  1.00  0.00     0.163 HD
ATOM     29  O   UNL A   1      32.837  35.728  29.196  1.00  0.00    -0.269 OA
BRANCH  27  30
ATOM     30  C   UNL A   1      34.342  33.928  29.305  1.00  0.00     0.039 A 
ATOM     31  C   UNL A   1      35.628  34.304  28.912  1.00  0.00     0.014 A 
ATOM     32  C   UNL A   1      34.142  32.947  30.282  1.00  0.00     0.014 A 
ATOM     33  C   UNL A   1      36.729  33.726  29.542  1.00  0.00     0.010 A 
ATOM     34  C   UNL A   1      35.241  32.402  30.935  1.00  0.00     0.010 A 
ATOM     35  C   UNL A   1      36.540  32.790  30.572  1.00  0.00    -0.014 A 
BRANCH  35  36
ATOM     36  C   UNL A   1      37.694  32.181  31.272  1.00  0.00     0.031 A 
ATOM     37  C   UNL A   1      38.409  31.024  30.643  1.00  0.00     0.074 A 
ATOM     38  C   UNL A   1      38.045  32.625  32.494  1.00  0.00     0.049 A 
ATOM     39  N   UNL A   1      39.381  30.298  31.125  1.00  0.00    -0.248 NA
ATOM     40  C   UNL A   1      37.956  30.614  29.302  1.00  0.00     0.031 C 
ATOM     41  C   UNL A   1      37.386  33.715  33.215  1.00  0.00     0.029 A 
ATOM     42  N   UNL A   1      39.024  32.199  33.356  1.00  0.00    -0.354 N 
ATOM     43  C   UNL A   1      39.655  29.345  30.153  1.00  0.00     0.074 A 
ATOM     44  C   UNL A   1      38.718  29.553  29.073  1.00  0.00     0.031 C 
ATOM     45  C   UNL A   1      37.976  33.867  34.412  1.00  0.00     0.029 A 
ATOM     46  C   UNL A   1      39.037  32.872  34.554  1.00  0.00     0.049 A 
ATOM     47  H   UNL A   1      39.658  31.479  33.135  1.00  0.00     0.167 HD
ATOM     48  C   UNL A   1      40.621  28.398  30.154  1.00  0.00     0.034 A 
ATOM     49  C   UNL A   1      39.811  32.700  35.646  1.00  0.00     0.034 A 
ATOM     50  C   UNL A   1      41.558  28.211  31.227  1.00  0.00     0.049 A 
ATOM     51  C   UNL A   1      40.895  31.653  35.613  1.00  0.00     0.074 A 
ATOM     52  C   UNL A   1      42.591  27.295  31.310  1.00  0.00     0.029 A 
ATOM     53  N   UNL A   1      41.588  28.960  32.394  1.00  0.00    -0.354 N 
ATOM     54  N   UNL A   1      41.191  30.808  34.654  1.00  0.00    -0.248 NA
ATOM     55  C   UNL A   1      41.763  31.543  36.795  1.00  0.00     0.031 C 
ATOM     56  C   UNL A   1      43.232  27.474  32.538  1.00  0.00     0.029 A 
ATOM     57  C   UNL A   1      42.622  28.527  33.203  1.00  0.00     0.049 A 
ATOM     58  H   UNL A   1      40.965  29.691  32.613  1.00  0.00     0.167 HD
ATOM     59  C   UNL A   1      42.292  30.086  35.105  1.00  0.00     0.074 A 
ATOM     60  C   UNL A   1      42.621  30.604  36.416  1.00  0.00     0.031 C 
ATOM     61  C   UNL A   1      42.963  29.082  34.490  1.00  0.00     0.034 A 
BRANCH  48  62
ATOM     62  C   UNL A   1      40.747  27.511  28.948  1.00  0.00     0.023 A 
ATOM     63  C   UNL A   1      41.685  27.806  27.943  1.00  0.00     0.031 A 
ATOM     64  C   UNL A   1      39.863  26.437  28.747  1.00  0.00     0.131 A 
ATOM     65  C   UNL A   1      41.698  27.049  26.766  1.00  0.00     0.055 A 
ATOM     66  C   UNL A   1      39.900  25.667  27.586  1.00  0.00     0.041 A 
ATOM     67  F   UNL A   1      38.957  26.117  29.686  1.00  0.00    -0.206 F 
ATOM     68  C   UNL A   1      40.816  25.976  26.585  1.00  0.00     0.022 A 
BRANCH  65  69
ATOM     69  S   UNL A   1      42.849  27.436  25.420  1.00  0.00     0.124 S 
ATOM     70  O   UNL A   1      44.056  27.816  26.151  1.00  0.00    -0.237 OA
ATOM     71  O   UNL A   1      42.924  26.163  24.710  1.00  0.00    -0.237 OA
ATOM     72  O   UNL A   1      42.195  28.526  24.704  1.00  0.00    -0.744 OA
ENDBRANCH  65  69
ENDBRANCH  48  62
BRANCH  49  73
ATOM     73  C   UNL A   1      39.607  33.582  36.830  1.00  0.00     0.023 A 
ATOM     74  C   UNL A   1      40.459  34.673  37.075  1.00  0.00     0.031 A 
ATOM     75  C   UNL A   1      38.609  33.294  37.777  1.00  0.00     0.131 A 
ATOM     76  C   UNL A   1      40.322  35.412  38.258  1.00  0.00     0.055 A 
ATOM     77  C   UNL A   1      38.442  34.066  38.928  1.00  0.00     0.041 A 
ATOM     78  F   UNL A   1      37.783  32.253  37.590  1.00  0.00    -0.206 F 
ATOM     79  C   UNL A   1      39.309  35.124  39.179  1.00  0.00     0.022 A 
BRANCH  76  80
ATOM     80  S   UNL A   1      41.513  36.710  38.691  1.00  0.00     0.124 S 
ATOM     81  O   UNL A   1      42.358  36.035  39.671  1.00  0.00    -0.237 OA
ATOM     82  O   UNL A   1      42.139  36.982  37.399  1.00  0.00    -0.237 OA
ATOM     83  O   UNL A   1      40.676  37.785  39.213  1.00  0.00    -0.744 OA
ENDBRANCH  76  80
ENDBRANCH  49  73
BRANCH  61  84
ATOM     84  C   UNL A   1      44.145  28.465  35.190  1.00  0.00     0.023 A 
ATOM     85  C   UNL A   1      43.936  27.478  36.171  1.00  0.00     0.031 A 
ATOM     86  C   UNL A   1      45.440  28.980  35.019  1.00  0.00     0.131 A 
ATOM     87  C   UNL A   1      45.004  27.067  36.978  1.00  0.00     0.055 A 
ATOM     88  C   UNL A   1      46.507  28.540  35.801  1.00  0.00     0.041 A 
ATOM     89  F   UNL A   1      45.678  29.931  34.102  1.00  0.00    -0.206 F 
ATOM     90  C   UNL A   1      46.290  27.589  36.794  1.00  0.00     0.022 A 
BRANCH  87  91
ATOM     91  S   UNL A   1      44.750  25.893  38.337  1.00  0.00     0.124 S 
ATOM     92  O   UNL A   1      43.983  26.692  39.290  1.00  0.00    -0.237 OA
ATOM     93  O   UNL A   1      44.007  24.821  37.680  1.00  0.00    -0.237 OA
ATOM     94  O   UNL A   1      46.103  25.552  38.765  1.00  0.00    -0.744 OA
ENDBRANCH  87  91
ENDBRANCH  61  84
ENDBRANCH  35  36
ENDBRANCH  27  30
ENDBRANCH  25  26
ENDBRANCH   1  25
TORSDOF 16
ENDMDL
MODEL 2
REMARK VINA RESULT:     -12.1      1.824      7.807
REMARK SMILES COc1cc(Cl)c2c(c1)C=C(C(=O)NCCCCNC(=O)c1ccc(-c3c4nc(c(-c5cc(S(=O)(=O)[O-])ccc5F)c5ccc([nH]5)c(-c5cc(S(=O)(=O)[O-])ccc5F)c5nc(c(-c6cc(S(=O)(=O)[O-])ccc6F)c6ccc3[nH]6)C=C5)C=C4)cc1)[C@@H](C(F)(F)F)O2
REMARK SMILES IDX 17 1 16 2 15 3 14 4 12 5 13 6 11 8 3 9 4 10 9 11 5 12 8 13
REMARK SMILES IDX 6 14 7 15 10 16 90 17 85 18 2 19 1 20 86 21 87 22 88 23
REMARK SMILES IDX 89 24 18 25 19 26 20 27 21 29 22 30 23 31 84 32 24 33 83 34
REMARK SMILES IDX 25 35 26 36 27 37 77 38 28 39 82 40 76 41 78 42 29 43 81 44
REMARK SMILES IDX 75 45 74 46 30 48 62 49 42 50 61 51 43 52 46 53 60 54 79 55
REMARK SMILES IDX 44 56 45 57 59 59 80 60 47 61 31 62 32 63 40 64 33 65 39 66
REMARK SMILES IDX 41 67 38 68 34 69 35 70 36 71 37 72 63 73 64 74 72 75 65 76
REMARK SMILES IDX 71 77 73 78 70 79 66 80 67 81 68 82 69 83 48 84 49 85 57 86
REMARK SMILES IDX 50 87 56 88 58 89 55 90 51 91 52 92 53 93 54 94
REMARK H PARENT 14 7 19 28 78 47 46 58
REMARK Flexibility Score: inf
ROOT
ATOM      1  C   UNL A   1      31.827  31.600  26.638  1.00  0.00     0.023 C 
ENDROOT
BRANCH   1   2
ATOM      2  C   UNL A   1      32.053  30.104  26.397  1.00  0.00     0.023 C 
BRANCH   2   3
ATOM      3  C   UNL A   1      32.609  29.777  25.014  1.00  0.00     0.116 C 
BRANCH   3   4
ATOM      4  N   UNL A   1      31.564  29.729  24.009  1.00  0.00    -0.352 N 
ATOM      5  C   UNL A   1      30.888  28.772  23.333  1.00  0.00     0.251 C 
ATOM      6  O   UNL A   1      30.043  29.186  22.532  1.00  0.00    -0.270 OA
ATOM      7  H   UNL A   1      31.268  30.631  23.751  1.00  0.00     0.163 HD
BRANCH   5   8
ATOM      8  C   UNL A   1      31.084  27.300  23.491  1.00  0.00     0.067 C 
ATOM      9  C   UNL A   1      30.519  23.415  26.309  1.00  0.00     0.121 A 
ATOM     10  C   UNL A   1      31.024  22.591  25.305  1.00  0.00     0.070 A 
ATOM     11  C   UNL A   1      30.327  24.776  26.068  1.00  0.00     0.058 A 
ATOM     12  C   UNL A   1      31.374  23.143  24.071  1.00  0.00     0.087 A 
ATOM     13  C   UNL A   1      30.694  25.334  24.840  1.00  0.00     0.022 A 
ATOM     14  Cl  UNL A   1      32.001  22.094  22.849  1.00  0.00    -0.080 Cl
ATOM     15  C   UNL A   1      31.229  24.516  23.843  1.00  0.00     0.146 A 
ATOM     16  C   UNL A   1      30.505  26.755  24.578  1.00  0.00     0.025 C 
ATOM     17  O   UNL A   1      31.572  25.021  22.618  1.00  0.00    -0.474 OA
ATOM     18  C   UNL A   1      31.900  26.439  22.570  1.00  0.00     0.314 C 
BRANCH   9  19
ATOM     19  O   UNL A   1      30.133  22.960  27.540  1.00  0.00    -0.497 OA
ATOM     20  C   UNL A   1      28.797  22.465  27.575  1.00  0.00     0.278 C 
ENDBRANCH   9  19
BRANCH  18  21
ATOM     21  C   UNL A   1      33.417  26.616  22.778  1.00  0.00     0.429 C 
ATOM     22  F   UNL A   1      33.866  27.701  22.098  1.00  0.00    -0.167 F 
ATOM     23  F   UNL A   1      33.746  26.814  24.076  1.00  0.00    -0.167 F 
ATOM     24  F   UNL A   1      34.126  25.548  22.349  1.00  0.00    -0.167 F 
ENDBRANCH  18  21
ENDBRANCH   5   8
ENDBRANCH   3   4
ENDBRANCH   2   3
ENDBRANCH   1   2
BRANCH   1  25
ATOM     25  C   UNL A   1      32.955  32.323  27.374  1.00  0.00     0.116 C 
BRANCH  25  26
ATOM     26  N   UNL A   1      32.646  33.715  27.680  1.00  0.00    -0.352 N 
ATOM     27  C   UNL A   1      33.252  34.523  28.608  1.00  0.00     0.251 C 
ATOM     28  H   UNL A   1      31.919  34.123  27.157  1.00  0.00     0.163 HD
ATOM     29  O   UNL A   1      32.841  35.658  28.821  1.00  0.00    -0.269 OA
BRANCH  27  30
ATOM     30  C   UNL A   1      34.392  33.980  29.367  1.00  0.00     0.039 A 
ATOM     31  C   UNL A   1      34.141  33.156  30.466  1.00  0.00     0.014 A 
ATOM     32  C   UNL A   1      35.697  34.226  28.930  1.00  0.00     0.014 A 
ATOM     33  C   UNL A   1      35.210  32.529  31.104  1.00  0.00     0.010 A 
ATOM     34  C   UNL A   1      36.756  33.568  29.543  1.00  0.00     0.010 A 
ATOM     35  C   UNL A   1      36.519  32.714  30.632  1.00  0.00    -0.014 A 
BRANCH  35  36
ATOM     36  C   UNL A   1      37.667  32.039  31.279  1.00  0.00     0.031 A 
ATOM     37  C   UNL A   1      38.181  32.556  32.589  1.00  0.00     0.074 A 
ATOM     38  C   UNL A   1      38.281  31.016  30.654  1.00  0.00     0.049 A 
ATOM     39  N   UNL A   1      39.221  32.165  33.275  1.00  0.00    -0.248 NA
ATOM     40  C   UNL A   1      37.440  33.674  33.197  1.00  0.00     0.031 C 
ATOM     41  C   UNL A   1      37.888  30.466  29.356  1.00  0.00     0.029 A 
ATOM     42  N   UNL A   1      39.378  30.274  31.014  1.00  0.00    -0.354 N 
ATOM     43  C   UNL A   1      39.264  32.989  34.393  1.00  0.00     0.074 A 
ATOM     44  C   UNL A   1      38.175  33.932  34.271  1.00  0.00     0.031 C 
ATOM     45  C   UNL A   1      38.736  29.478  29.026  1.00  0.00     0.029 A 
ATOM     46  C   UNL A   1      39.745  29.340  30.074  1.00  0.00     0.049 A 
ATOM     47  H   UNL A   1      39.855  30.399  31.865  1.00  0.00     0.167 HD
ATOM     48  C   UNL A   1      40.122  32.944  35.437  1.00  0.00     0.034 A 
ATOM     49  C   UNL A   1      40.783  28.478  30.057  1.00  0.00     0.034 A 
ATOM     50  C   UNL A   1      41.191  31.991  35.554  1.00  0.00     0.049 A 
ATOM     51  C   UNL A   1      41.711  28.431  31.244  1.00  0.00     0.074 A 
ATOM     52  C   UNL A   1      42.098  31.847  36.588  1.00  0.00     0.029 A 
ATOM     53  N   UNL A   1      41.487  31.012  34.618  1.00  0.00    -0.354 N 
ATOM     54  N   UNL A   1      41.693  29.168  32.329  1.00  0.00    -0.248 NA
ATOM     55  C   UNL A   1      42.788  27.430  31.219  1.00  0.00     0.031 C 
ATOM     56  C   UNL A   1      42.959  30.796  36.267  1.00  0.00     0.029 A 
ATOM     57  C   UNL A   1      42.564  30.260  35.050  1.00  0.00     0.049 A 
ATOM     58  H   UNL A   1      41.004  30.874  33.771  1.00  0.00     0.167 HD
ATOM     59  C   UNL A   1      42.735  28.704  33.126  1.00  0.00     0.074 A 
ATOM     60  C   UNL A   1      43.355  27.611  32.405  1.00  0.00     0.031 C 
ATOM     61  C   UNL A   1      43.144  29.148  34.339  1.00  0.00     0.034 A 
BRANCH  48  62
ATOM     62  C   UNL A   1      39.925  33.923  36.560  1.00  0.00     0.023 A 
ATOM     63  C   UNL A   1      39.386  33.499  37.787  1.00  0.00     0.031 A 
ATOM     64  C   UNL A   1      40.174  35.293  36.373  1.00  0.00     0.131 A 
ATOM     65  C   UNL A   1      39.085  34.445  38.773  1.00  0.00     0.055 A 
ATOM     66  C   UNL A   1      39.902  36.228  37.370  1.00  0.00     0.041 A 
ATOM     67  F   UNL A   1      40.697  35.739  35.219  1.00  0.00    -0.206 F 
ATOM     68  C   UNL A   1      39.347  35.806  38.575  1.00  0.00     0.022 A 
BRANCH  65  69
ATOM     69  S   UNL A   1      38.331  33.947  40.345  1.00  0.00     0.124 S 
ATOM     70  O   UNL A   1      38.184  35.228  41.033  1.00  0.00    -0.237 OA
ATOM     71  O   UNL A   1      37.085  33.330  39.900  1.00  0.00    -0.237 OA
ATOM     72  O   UNL A   1      39.313  33.042  40.931  1.00  0.00    -0.744 OA
ENDBRANCH  65  69
ENDBRANCH  48  62
BRANCH  49  73
ATOM     73  C   UNL A   1      40.951  27.562  28.893  1.00  0.00     0.023 A 
ATOM     74  C   UNL A   1      41.955  27.786  27.935  1.00  0.00     0.031 A 
ATOM     75  C   UNL A   1      40.056  26.500  28.681  1.00  0.00     0.131 A 
ATOM     76  C   UNL A   1      42.013  26.983  26.787  1.00  0.00     0.055 A 
ATOM     77  C   UNL A   1      40.151  25.669  27.563  1.00  0.00     0.041 A 
ATOM     78  F   UNL A   1      39.073  26.259  29.563  1.00  0.00    -0.206 F 
ATOM     79  C   UNL A   1      41.127  25.916  26.603  1.00  0.00     0.022 A 
BRANCH  76  80
ATOM     80  S   UNL A   1      43.179  27.353  25.448  1.00  0.00     0.124 S 
ATOM     81  O   UNL A   1      42.363  28.163  24.548  1.00  0.00    -0.237 OA
ATOM     82  O   UNL A   1      44.233  28.070  26.161  1.00  0.00    -0.237 OA
ATOM     83  O   UNL A   1      43.555  26.036  24.945  1.00  0.00    -0.744 OA
ENDBRANCH  76  80
ENDBRANCH  49  73
BRANCH  61  84
ATOM     84  C   UNL A   1      44.303  28.460  35.010  1.00  0.00     0.023 A 
ATOM     85  C   UNL A   1      44.059  27.486  35.996  1.00  0.00     0.031 A 
ATOM     86  C   UNL A   1      45.623  28.894  34.807  1.00  0.00     0.131 A 
ATOM     87  C   UNL A   1      45.120  27.009  36.777  1.00  0.00     0.055 A 
ATOM     88  C   UNL A   1      46.680  28.390  35.562  1.00  0.00     0.041 A 
ATOM     89  F   UNL A   1      45.896  29.831  33.884  1.00  0.00    -0.206 F 
ATOM     90  C   UNL A   1      46.430  27.453  36.561  1.00  0.00     0.022 A 
BRANCH  87  91
ATOM     91  S   UNL A   1      44.829  25.852  38.142  1.00  0.00     0.124 S 
ATOM     92  O   UNL A   1      46.112  25.876  38.841  1.00  0.00    -0.237 OA
ATOM     93  O   UNL A   1      43.721  26.486  38.849  1.00  0.00    -0.237 OA
ATOM     94  O   UNL A   1      44.514  24.593  37.475  1.00  0.00    -0.744 OA
ENDBRANCH  87  91
ENDBRANCH  61  84
ENDBRANCH  35  36
ENDBRANCH  27  30
ENDBRANCH  25  26
ENDBRANCH   1  25
TORSDOF 16
ENDMDL
MODEL 3
REMARK VINA RESULT:     -12.1      1.911      2.319
REMARK SMILES COc1cc(Cl)c2c(c1)C=C(C(=O)NCCCCNC(=O)c1ccc(-c3c4nc(c(-c5cc(S(=O)(=O)[O-])ccc5F)c5ccc([nH]5)c(-c5cc(S(=O)(=O)[O-])ccc5F)c5nc(c(-c6cc(S(=O)(=O)[O-])ccc6F)c6ccc3[nH]6)C=C5)C=C4)cc1)[C@@H](C(F)(F)F)O2
REMARK SMILES IDX 17 1 16 2 15 3 14 4 12 5 13 6 11 8 3 9 4 10 9 11 5 12 8 13
REMARK SMILES IDX 6 14 7 15 10 16 90 17 85 18 2 19 1 20 86 21 87 22 88 23
REMARK SMILES IDX 89 24 18 25 19 26 20 27 21 29 22 30 23 31 84 32 24 33 83 34
REMARK SMILES IDX 25 35 26 36 27 37 77 38 28 39 82 40 76 41 78 42 29 43 81 44
REMARK SMILES IDX 75 45 74 46 30 48 62 49 42 50 61 51 43 52 46 53 60 54 79 55
REMARK SMILES IDX 44 56 45 57 59 59 80 60 47 61 31 62 32 63 40 64 33 65 39 66
REMARK SMILES IDX 41 67 38 68 34 69 35 70 36 71 37 72 63 73 64 74 72 75 65 76
REMARK SMILES IDX 71 77 73 78 70 79 66 80 67 81 68 82 69 83 48 84 49 85 57 86
REMARK SMILES IDX 50 87 56 88 58 89 55 90 51 91 52 92 53 93 54 94
REMARK H PARENT 14 7 19 28 78 47 46 58
REMARK Flexibility Score: inf
ROOT
ATOM      1  C   UNL A   1      31.870  31.804  27.157  1.00  0.00     0.023 C 
ENDROOT
BRANCH   1   2
ATOM      2  C   UNL A   1      31.075  31.533  25.876  1.00  0.00     0.023 C 
BRANCH   2   3
ATOM      3  C   UNL A   1      31.317  30.152  25.275  1.00  0.00     0.116 C 
BRANCH   3   4
ATOM      4  N   UNL A   1      30.834  30.064  23.910  1.00  0.00    -0.352 N 
ATOM      5  C   UNL A   1      30.633  29.088  22.995  1.00  0.00     0.251 C 
ATOM      6  O   UNL A   1      30.188  29.467  21.906  1.00  0.00    -0.270 OA
ATOM      7  H   UNL A   1      30.588  30.948  23.555  1.00  0.00     0.163 HD
BRANCH   5   8
ATOM      8  C   UNL A   1      30.895  27.634  23.210  1.00  0.00     0.067 C 
ATOM      9  C   UNL A   1      30.515  23.844  26.184  1.00  0.00     0.121 A 
ATOM     10  C   UNL A   1      31.053  23.003  25.210  1.00  0.00     0.070 A 
ATOM     11  C   UNL A   1      30.260  25.184  25.890  1.00  0.00     0.058 A 
ATOM     12  C   UNL A   1      31.374  23.521  23.954  1.00  0.00     0.087 A 
ATOM     13  C   UNL A   1      30.598  25.708  24.639  1.00  0.00     0.022 A 
ATOM     14  Cl  UNL A   1      32.044  22.453  22.772  1.00  0.00    -0.080 Cl
ATOM     15  C   UNL A   1      31.166  24.875  23.673  1.00  0.00     0.146 A 
ATOM     16  C   UNL A   1      30.344  27.107  24.321  1.00  0.00     0.025 C 
ATOM     17  O   UNL A   1      31.482  25.346  22.427  1.00  0.00    -0.474 OA
ATOM     18  C   UNL A   1      31.746  26.774  22.321  1.00  0.00     0.314 C 
BRANCH   9  19
ATOM     19  O   UNL A   1      30.153  23.421  27.434  1.00  0.00    -0.497 OA
ATOM     20  C   UNL A   1      29.072  22.492  27.434  1.00  0.00     0.278 C 
ENDBRANCH   9  19
BRANCH  18  21
ATOM     21  C   UNL A   1      33.254  27.028  22.514  1.00  0.00     0.429 C 
ATOM     22  F   UNL A   1      33.642  28.131  21.826  1.00  0.00    -0.167 F 
ATOM     23  F   UNL A   1      33.585  27.245  23.808  1.00  0.00    -0.167 F 
ATOM     24  F   UNL A   1      34.012  25.995  22.081  1.00  0.00    -0.167 F 
ENDBRANCH  18  21
ENDBRANCH   5   8
ENDBRANCH   3   4
ENDBRANCH   2   3
ENDBRANCH   1   2
BRANCH   1  25
ATOM     25  C   UNL A   1      32.932  32.898  27.050  1.00  0.00     0.116 C 
BRANCH  25  26
ATOM     26  N   UNL A   1      32.581  34.116  27.772  1.00  0.00    -0.352 N 
ATOM     27  C   UNL A   1      33.175  34.622  28.899  1.00  0.00     0.251 C 
ATOM     28  H   UNL A   1      31.830  34.636  27.406  1.00  0.00     0.163 HD
ATOM     29  O   UNL A   1      32.730  35.620  29.455  1.00  0.00    -0.269 OA
BRANCH  27  30
ATOM     30  C   UNL A   1      34.348  33.917  29.445  1.00  0.00     0.039 A 
ATOM     31  C   UNL A   1      35.625  34.345  29.077  1.00  0.00     0.014 A 
ATOM     32  C   UNL A   1      34.170  32.894  30.382  1.00  0.00     0.014 A 
ATOM     33  C   UNL A   1      36.738  33.774  29.693  1.00  0.00     0.010 A 
ATOM     34  C   UNL A   1      35.279  32.356  31.022  1.00  0.00     0.010 A 
ATOM     35  C   UNL A   1      36.569  32.794  30.685  1.00  0.00    -0.014 A 
BRANCH  35  36
ATOM     36  C   UNL A   1      37.735  32.193  31.370  1.00  0.00     0.031 A 
ATOM     37  C   UNL A   1      38.449  31.039  30.732  1.00  0.00     0.074 A 
ATOM     38  C   UNL A   1      38.100  32.639  32.587  1.00  0.00     0.049 A 
ATOM     39  N   UNL A   1      39.432  30.319  31.202  1.00  0.00    -0.248 NA
ATOM     40  C   UNL A   1      37.981  30.627  29.397  1.00  0.00     0.031 C 
ATOM     41  C   UNL A   1      37.444  33.726  33.316  1.00  0.00     0.029 A 
ATOM     42  N   UNL A   1      39.093  32.219  33.436  1.00  0.00    -0.354 N 
ATOM     43  C   UNL A   1      39.698  29.367  30.226  1.00  0.00     0.074 A 
ATOM     44  C   UNL A   1      38.745  29.570  29.159  1.00  0.00     0.031 C 
ATOM     45  C   UNL A   1      38.049  33.882  34.505  1.00  0.00     0.029 A 
ATOM     46  C   UNL A   1      39.117  32.893  34.634  1.00  0.00     0.049 A 
ATOM     47  H   UNL A   1      39.727  31.502  33.207  1.00  0.00     0.167 HD
ATOM     48  C   UNL A   1      40.669  28.426  30.216  1.00  0.00     0.034 A 
ATOM     49  C   UNL A   1      39.906  32.726  35.716  1.00  0.00     0.034 A 
ATOM     50  C   UNL A   1      41.621  28.245  31.276  1.00  0.00     0.049 A 
ATOM     51  C   UNL A   1      40.996  31.685  35.669  1.00  0.00     0.074 A 
ATOM     52  C   UNL A   1      42.660  27.335  31.346  1.00  0.00     0.029 A 
ATOM     53  N   UNL A   1      41.662  28.995  32.442  1.00  0.00    -0.354 N 
ATOM     54  N   UNL A   1      41.284  30.841  34.707  1.00  0.00    -0.248 NA
ATOM     55  C   UNL A   1      41.880  31.580  36.840  1.00  0.00     0.031 C 
ATOM     56  C   UNL A   1      43.316  27.518  32.565  1.00  0.00     0.029 A 
ATOM     57  C   UNL A   1      42.709  28.568  33.238  1.00  0.00     0.049 A 
ATOM     58  H   UNL A   1      41.038  29.722  32.669  1.00  0.00     0.167 HD
ATOM     59  C   UNL A   1      42.395  30.125  35.143  1.00  0.00     0.074 A 
ATOM     60  C   UNL A   1      42.738  30.646  36.450  1.00  0.00     0.031 C 
ATOM     61  C   UNL A   1      43.063  29.125  34.520  1.00  0.00     0.034 A 
BRANCH  48  62
ATOM     62  C   UNL A   1      40.785  27.539  29.008  1.00  0.00     0.023 A 
ATOM     63  C   UNL A   1      41.702  27.843  27.987  1.00  0.00     0.031 A 
ATOM     64  C   UNL A   1      39.909  26.455  28.823  1.00  0.00     0.131 A 
ATOM     65  C   UNL A   1      41.703  27.085  26.811  1.00  0.00     0.055 A 
ATOM     66  C   UNL A   1      39.936  25.684  27.663  1.00  0.00     0.041 A 
ATOM     67  F   UNL A   1      39.023  26.126  29.777  1.00  0.00    -0.206 F 
ATOM     68  C   UNL A   1      40.831  26.003  26.646  1.00  0.00     0.022 A 
BRANCH  65  69
ATOM     69  S   UNL A   1      42.827  27.484  25.445  1.00  0.00     0.124 S 
ATOM     70  O   UNL A   1      44.055  27.839  26.154  1.00  0.00    -0.237 OA
ATOM     71  O   UNL A   1      42.872  26.222  24.712  1.00  0.00    -0.237 OA
ATOM     72  O   UNL A   1      42.168  28.592  24.763  1.00  0.00    -0.744 OA
ENDBRANCH  65  69
ENDBRANCH  48  62
BRANCH  49  73
ATOM     73  C   UNL A   1      39.713  33.607  36.902  1.00  0.00     0.023 A 
ATOM     74  C   UNL A   1      39.088  33.128  38.067  1.00  0.00     0.031 A 
ATOM     75  C   UNL A   1      40.077  34.963  36.855  1.00  0.00     0.131 A 
ATOM     76  C   UNL A   1      38.809  34.009  39.120  1.00  0.00     0.055 A 
ATOM     77  C   UNL A   1      39.847  35.825  37.929  1.00  0.00     0.041 A 
ATOM     78  F   UNL A   1      40.664  35.466  35.758  1.00  0.00    -0.206 F 
ATOM     79  C   UNL A   1      39.198  35.351  39.065  1.00  0.00     0.022 A 
BRANCH  76  80
ATOM     80  S   UNL A   1      37.847  33.467  40.559  1.00  0.00     0.124 S 
ATOM     81  O   UNL A   1      38.649  32.357  41.063  1.00  0.00    -0.237 OA
ATOM     82  O   UNL A   1      37.846  34.672  41.386  1.00  0.00    -0.237 OA
ATOM     83  O   UNL A   1      36.553  33.104  39.991  1.00  0.00    -0.744 OA
ENDBRANCH  76  80
ENDBRANCH  49  73
BRANCH  61  84
ATOM     84  C   UNL A   1      44.258  28.515  35.205  1.00  0.00     0.023 A 
ATOM     85  C   UNL A   1      44.067  27.530  36.192  1.00  0.00     0.031 A 
ATOM     86  C   UNL A   1      45.548  29.034  35.014  1.00  0.00     0.131 A 
ATOM     87  C   UNL A   1      45.149  27.125  36.984  1.00  0.00     0.055 A 
ATOM     88  C   UNL A   1      46.628  28.601  35.782  1.00  0.00     0.041 A 
ATOM     89  F   UNL A   1      45.769  29.985  34.091  1.00  0.00    -0.206 F 
ATOM     90  C   UNL A   1      46.429  27.652  36.781  1.00  0.00     0.022 A 
BRANCH  87  91
ATOM     91  S   UNL A   1      44.919  25.954  38.350  1.00  0.00     0.124 S 
ATOM     92  O   UNL A   1      44.625  24.712  37.639  1.00  0.00    -0.237 OA
ATOM     93  O   UNL A   1      46.218  26.001  39.014  1.00  0.00    -0.237 OA
ATOM     94  O   UNL A   1      43.803  26.511  39.107  1.00  0.00    -0.744 OA
ENDBRANCH  87  91
ENDBRANCH  61  84
ENDBRANCH  35  36
ENDBRANCH  27  30
ENDBRANCH  25  26
ENDBRANCH   1  25
TORSDOF 16
ENDMDL
