MODEL 1
REMARK VINA RESULT:     -11.8      0.000      0.000
REMARK SMILES CC[C@H](NC(=O)[C@H]1[C@@H](C(=O)NCCCCNC(=O)c2ccc(-c3c4nc(c(-c5cc(S(=O)(=O)[O-])ccc5F)c5ccc([nH]5)c(-c5cc(S(=O)(=O)[O-])ccc5F)c5nc(c(-c6cc(S(=O)(=O)[O-])ccc6F)c6ccc3[nH]6)C=C5)C=C4)cc2)[C@@H]2C=C[C@H]1C2)c1ccccc1
REMARK SMILES IDX 13 1 12 2 11 3 9 4 10 5 8 7 7 8 85 9 82 10 84 11 86 12 83 13
REMARK SMILES IDX 5 14 4 15 6 17 3 18 2 19 1 20 87 21 88 22 92 23 89 24 91 25
REMARK SMILES IDX 90 26 14 27 15 28 16 29 17 30 18 32 19 33 20 34 81 35 21 36
REMARK SMILES IDX 80 37 22 38 23 39 24 40 74 41 25 42 79 43 73 44 75 45 26 46
REMARK SMILES IDX 78 47 72 48 71 49 27 51 59 52 39 53 58 54 40 55 43 56 57 57
REMARK SMILES IDX 76 58 41 59 42 60 56 62 77 63 44 64 28 65 29 66 37 67 30 68
REMARK SMILES IDX 36 69 38 70 35 71 31 72 32 73 33 74 34 75 60 76 61 77 69 78
REMARK SMILES IDX 62 79 68 80 70 81 67 82 63 83 64 84 65 85 66 86 45 87 46 88
REMARK SMILES IDX 54 89 47 90 53 91 55 92 52 93 48 94 49 95 50 96 51 97
REMARK H PARENT 11 6 4 16 16 31 75 50 43 61
REMARK Flexibility Score: inf
ROOT
ATOM      1  C   UNL A   1      31.728  28.307  27.141  1.00  0.00     0.023 C 
ENDROOT
BRANCH   1   2
ATOM      2  C   UNL A   1      32.234  26.945  26.679  1.00  0.00     0.116 C 
BRANCH   2   3
ATOM      3  N   UNL A   1      31.247  25.881  26.653  1.00  0.00    -0.356 N 
ATOM      4  C   UNL A   1      31.496  24.539  26.597  1.00  0.00     0.224 C 
ATOM      5  O   UNL A   1      30.778  23.760  27.221  1.00  0.00    -0.275 OA
ATOM      6  H   UNL A   1      30.302  26.155  26.679  1.00  0.00     0.163 HD
BRANCH   4   7
ATOM      7  C   UNL A   1      32.659  24.037  25.779  1.00  0.00     0.098 C 
ATOM      8  C   UNL A   1      32.365  23.810  24.268  1.00  0.00     0.098 C 
ATOM      9  C   UNL A   1      32.621  22.297  24.079  1.00  0.00     0.025 C 
ATOM     10  C   UNL A   1      33.141  22.624  26.235  1.00  0.00     0.025 C 
ATOM     11  C   UNL A   1      34.125  22.090  24.226  1.00  0.00    -0.027 C 
ATOM     12  C   UNL A   1      32.220  21.711  25.430  1.00  0.00     0.017 C 
ATOM     13  C   UNL A   1      34.433  22.300  25.516  1.00  0.00    -0.027 C 
BRANCH   8  14
ATOM     14  C   UNL A   1      31.197  24.437  23.510  1.00  0.00     0.225 C 
ATOM     15  N   UNL A   1      30.898  25.690  23.157  1.00  0.00    -0.349 N 
ATOM     16  H   UNL A   1      29.991  25.676  22.776  1.00  0.00     0.164 HD
ATOM     17  O   UNL A   1      30.288  23.647  23.179  1.00  0.00    -0.275 OA
BRANCH  15  18
ATOM     18  C   UNL A   1      31.368  27.086  23.106  1.00  0.00     0.112 C 
BRANCH  18  19
ATOM     19  C   UNL A   1      32.705  27.352  22.403  1.00  0.00     0.026 C 
ATOM     20  C   UNL A   1      33.695  28.150  23.241  1.00  0.00     0.006 C 
ENDBRANCH  18  19
BRANCH  18  21
ATOM     21  C   UNL A   1      30.235  28.075  22.876  1.00  0.00    -0.026 A 
ATOM     22  C   UNL A   1      30.504  29.291  22.218  1.00  0.00     0.006 A 
ATOM     23  C   UNL A   1      28.909  27.824  23.252  1.00  0.00     0.006 A 
ATOM     24  C   UNL A   1      29.502  30.240  21.997  1.00  0.00     0.000 A 
ATOM     25  C   UNL A   1      27.907  28.780  23.044  1.00  0.00     0.000 A 
ATOM     26  C   UNL A   1      28.204  29.990  22.427  1.00  0.00     0.000 A 
ENDBRANCH  18  21
ENDBRANCH  15  18
ENDBRANCH   8  14
ENDBRANCH   4   7
ENDBRANCH   2   3
ENDBRANCH   1   2
BRANCH   1  27
ATOM     27  C   UNL A   1      31.432  29.355  26.068  1.00  0.00     0.023 C 
BRANCH  27  28
ATOM     28  C   UNL A   1      32.512  30.396  25.788  1.00  0.00     0.116 C 
BRANCH  28  29
ATOM     29  N   UNL A   1      32.152  31.730  26.233  1.00  0.00    -0.352 N 
ATOM     30  C   UNL A   1      32.706  32.547  27.188  1.00  0.00     0.251 C 
ATOM     31  H   UNL A   1      31.374  32.116  25.769  1.00  0.00     0.163 HD
ATOM     32  O   UNL A   1      32.139  33.611  27.436  1.00  0.00    -0.269 OA
BRANCH  30  33
ATOM     33  C   UNL A   1      33.931  32.176  27.941  1.00  0.00     0.039 A 
ATOM     34  C   UNL A   1      34.088  30.835  28.316  1.00  0.00     0.014 A 
ATOM     35  C   UNL A   1      34.891  33.111  28.341  1.00  0.00     0.014 A 
ATOM     36  C   UNL A   1      35.216  30.427  29.036  1.00  0.00     0.010 A 
ATOM     37  C   UNL A   1      36.050  32.690  29.006  1.00  0.00     0.010 A 
ATOM     38  C   UNL A   1      36.224  31.345  29.365  1.00  0.00    -0.014 A 
BRANCH  38  39
ATOM     39  C   UNL A   1      37.449  30.905  30.092  1.00  0.00     0.031 A 
ATOM     40  C   UNL A   1      38.388  29.902  29.474  1.00  0.00     0.074 A 
ATOM     41  C   UNL A   1      37.702  31.380  31.329  1.00  0.00     0.049 A 
ATOM     42  N   UNL A   1      39.478  29.370  29.969  1.00  0.00    -0.248 NA
ATOM     43  C   UNL A   1      38.041  29.416  28.131  1.00  0.00     0.031 C 
ATOM     44  C   UNL A   1      36.857  32.328  32.058  1.00  0.00     0.029 A 
ATOM     45  N   UNL A   1      38.739  31.129  32.194  1.00  0.00    -0.354 N 
ATOM     46  C   UNL A   1      39.940  28.477  29.007  1.00  0.00     0.074 A 
ATOM     47  C   UNL A   1      38.979  28.504  27.923  1.00  0.00     0.031 C 
ATOM     48  C   UNL A   1      37.419  32.592  33.248  1.00  0.00     0.029 A 
ATOM     49  C   UNL A   1      38.642  31.808  33.386  1.00  0.00     0.049 A 
ATOM     50  H   UNL A   1      39.482  30.520  31.981  1.00  0.00     0.167 HD
ATOM     51  C   UNL A   1      41.068  27.722  29.015  1.00  0.00     0.034 A 
ATOM     52  C   UNL A   1      39.443  31.799  34.471  1.00  0.00     0.034 A 
ATOM     53  C   UNL A   1      42.028  27.711  30.095  1.00  0.00     0.049 A 
ATOM     54  C   UNL A   1      40.691  30.954  34.457  1.00  0.00     0.074 A 
ATOM     55  C   UNL A   1      43.223  27.015  30.181  1.00  0.00     0.029 A 
ATOM     56  N   UNL A   1      41.904  28.427  31.278  1.00  0.00    -0.354 N 
ATOM     57  N   UNL A   1      41.133  30.148  33.521  1.00  0.00    -0.248 NA
ATOM     58  C   UNL A   1      41.556  31.033  35.642  1.00  0.00     0.031 C 
ATOM     59  C   UNL A   1      43.789  27.264  31.437  1.00  0.00     0.029 A 
ATOM     60  C   UNL A   1      42.987  28.172  32.108  1.00  0.00     0.049 A 
ATOM     61  H   UNL A   1      41.156  29.027  31.498  1.00  0.00     0.167 HD
ATOM     62  C   UNL A   1      42.345  29.650  33.992  1.00  0.00     0.074 A 
ATOM     63  C   UNL A   1      42.569  30.258  35.287  1.00  0.00     0.031 C 
ATOM     64  C   UNL A   1      43.199  28.773  33.404  1.00  0.00     0.034 A 
BRANCH  51  65
ATOM     65  C   UNL A   1      41.305  26.821  27.824  1.00  0.00     0.023 A 
ATOM     66  C   UNL A   1      40.902  25.473  27.827  1.00  0.00     0.031 A 
ATOM     67  C   UNL A   1      41.967  27.306  26.682  1.00  0.00     0.131 A 
ATOM     68  C   UNL A   1      41.237  24.640  26.748  1.00  0.00     0.055 A 
ATOM     69  C   UNL A   1      42.223  26.492  25.577  1.00  0.00     0.041 A 
ATOM     70  F   UNL A   1      42.390  28.579  26.626  1.00  0.00    -0.206 F 
ATOM     71  C   UNL A   1      41.872  25.145  25.613  1.00  0.00     0.022 A 
BRANCH  68  72
ATOM     72  S   UNL A   1      40.960  22.854  26.917  1.00  0.00     0.124 S 
ATOM     73  O   UNL A   1      41.657  22.337  25.740  1.00  0.00    -0.237 OA
ATOM     74  O   UNL A   1      41.571  22.560  28.204  1.00  0.00    -0.237 OA
ATOM     75  O   UNL A   1      39.503  22.729  26.871  1.00  0.00    -0.744 OA
ENDBRANCH  68  72
ENDBRANCH  51  65
BRANCH  52  76
ATOM     76  C   UNL A   1      39.095  32.613  35.671  1.00  0.00     0.023 A 
ATOM     77  C   UNL A   1      39.595  33.915  35.833  1.00  0.00     0.031 A 
ATOM     78  C   UNL A   1      38.292  32.081  36.695  1.00  0.00     0.131 A 
ATOM     79  C   UNL A   1      39.326  34.625  37.012  1.00  0.00     0.055 A 
ATOM     80  C   UNL A   1      37.986  32.810  37.845  1.00  0.00     0.041 A 
ATOM     81  F   UNL A   1      37.782  30.843  36.584  1.00  0.00    -0.206 F 
ATOM     82  C   UNL A   1      38.516  34.085  38.014  1.00  0.00     0.022 A 
BRANCH  79  83
ATOM     83  S   UNL A   1      40.117  36.239  37.254  1.00  0.00     0.124 S 
ATOM     84  O   UNL A   1      40.008  36.826  35.923  1.00  0.00    -0.237 OA
ATOM     85  O   UNL A   1      39.278  36.834  38.289  1.00  0.00    -0.237 OA
ATOM     86  O   UNL A   1      41.472  35.893  37.675  1.00  0.00    -0.744 OA
ENDBRANCH  79  83
ENDBRANCH  52  76
BRANCH  64  87
ATOM     87  C   UNL A   1      44.478  28.464  34.143  1.00  0.00     0.023 A 
ATOM     88  C   UNL A   1      44.565  27.407  35.067  1.00  0.00     0.031 A 
ATOM     89  C   UNL A   1      45.618  29.262  33.944  1.00  0.00     0.131 A 
ATOM     90  C   UNL A   1      45.745  27.216  35.803  1.00  0.00     0.055 A 
ATOM     91  C   UNL A   1      46.809  29.032  34.636  1.00  0.00     0.041 A 
ATOM     92  F   UNL A   1      45.593  30.286  33.076  1.00  0.00    -0.206 F 
ATOM     93  C   UNL A   1      46.871  28.013  35.583  1.00  0.00     0.022 A 
BRANCH  90  94
ATOM     94  S   UNL A   1      45.756  25.978  37.129  1.00  0.00     0.124 S 
ATOM     95  O   UNL A   1      44.369  26.006  37.584  1.00  0.00    -0.237 OA
ATOM     96  O   UNL A   1      46.170  24.770  36.423  1.00  0.00    -0.237 OA
ATOM     97  O   UNL A   1      46.731  26.503  38.083  1.00  0.00    -0.744 OA
ENDBRANCH  90  94
ENDBRANCH  64  87
ENDBRANCH  38  39
ENDBRANCH  30  33
ENDBRANCH  28  29
ENDBRANCH  27  28
ENDBRANCH   1  27
TORSDOF 18
ENDMDL
MODEL 2
REMARK VINA RESULT:     -11.8      2.006      7.866
REMARK SMILES CC[C@H](NC(=O)[C@H]1[C@@H](C(=O)NCCCCNC(=O)c2ccc(-c3c4nc(c(-c5cc(S(=O)(=O)[O-])ccc5F)c5ccc([nH]5)c(-c5cc(S(=O)(=O)[O-])ccc5F)c5nc(c(-c6cc(S(=O)(=O)[O-])ccc6F)c6ccc3[nH]6)C=C5)C=C4)cc2)[C@@H]2C=C[C@H]1C2)c1ccccc1
REMARK SMILES IDX 13 1 12 2 11 3 9 4 10 5 8 7 7 8 85 9 82 10 84 11 86 12 83 13
REMARK SMILES IDX 5 14 4 15 6 17 3 18 2 19 1 20 87 21 88 22 92 23 89 24 91 25
REMARK SMILES IDX 90 26 14 27 15 28 16 29 17 30 18 32 19 33 20 34 81 35 21 36
REMARK SMILES IDX 80 37 22 38 23 39 24 40 74 41 25 42 79 43 73 44 75 45 26 46
REMARK SMILES IDX 78 47 72 48 71 49 27 51 59 52 39 53 58 54 40 55 43 56 57 57
REMARK SMILES IDX 76 58 41 59 42 60 56 62 77 63 44 64 28 65 29 66 37 67 30 68
REMARK SMILES IDX 36 69 38 70 35 71 31 72 32 73 33 74 34 75 60 76 61 77 69 78
REMARK SMILES IDX 62 79 68 80 70 81 67 82 63 83 64 84 65 85 66 86 45 87 46 88
REMARK SMILES IDX 54 89 47 90 53 91 55 92 52 93 48 94 49 95 50 96 51 97
REMARK H PARENT 11 6 4 16 16 31 75 50 43 61
REMARK Flexibility Score: inf
ROOT
ATOM      1  C   UNL A   1      31.533  27.706  26.591  1.00  0.00     0.023 C 
ENDROOT
BRANCH   1   2
ATOM      2  C   UNL A   1      32.293  26.384  26.562  1.00  0.00     0.116 C 
BRANCH   2   3
ATOM      3  N   UNL A   1      31.475  25.186  26.562  1.00  0.00    -0.356 N 
ATOM      4  C   UNL A   1      31.915  23.897  26.675  1.00  0.00     0.224 C 
ATOM      5  O   UNL A   1      31.253  23.081  27.312  1.00  0.00    -0.275 OA
ATOM      6  H   UNL A   1      30.503  25.315  26.473  1.00  0.00     0.163 HD
BRANCH   4   7
ATOM      7  C   UNL A   1      33.217  23.503  26.026  1.00  0.00     0.098 C 
ATOM      8  C   UNL A   1      33.115  23.063  24.536  1.00  0.00     0.098 C 
ATOM      9  C   UNL A   1      33.614  21.600  24.562  1.00  0.00     0.025 C 
ATOM     10  C   UNL A   1      33.858  22.246  26.694  1.00  0.00     0.025 C 
ATOM     11  C   UNL A   1      35.110  21.657  24.856  1.00  0.00    -0.027 C 
ATOM     12  C   UNL A   1      33.172  21.112  25.938  1.00  0.00     0.017 C 
ATOM     13  C   UNL A   1      35.251  22.057  26.131  1.00  0.00    -0.027 C 
BRANCH   8  14
ATOM     14  C   UNL A   1      31.948  23.404  23.612  1.00  0.00     0.225 C 
ATOM     15  N   UNL A   1      31.475  24.550  23.114  1.00  0.00    -0.349 N 
ATOM     16  H   UNL A   1      30.634  24.339  22.649  1.00  0.00     0.164 HD
ATOM     17  O   UNL A   1      31.236  22.437  23.270  1.00  0.00    -0.275 OA
BRANCH  15  18
ATOM     18  C   UNL A   1      31.695  26.001  22.977  1.00  0.00     0.112 C 
BRANCH  18  19
ATOM     19  C   UNL A   1      32.715  26.462  21.928  1.00  0.00     0.026 C 
ATOM     20  C   UNL A   1      32.790  25.560  20.704  1.00  0.00     0.006 C 
ENDBRANCH  18  19
BRANCH  18  21
ATOM     21  C   UNL A   1      30.408  26.801  23.117  1.00  0.00    -0.026 A 
ATOM     22  C   UNL A   1      29.322  26.242  23.819  1.00  0.00     0.006 A 
ATOM     23  C   UNL A   1      30.253  28.099  22.614  1.00  0.00     0.006 A 
ATOM     24  C   UNL A   1      28.113  26.929  23.962  1.00  0.00     0.000 A 
ATOM     25  C   UNL A   1      29.038  28.781  22.744  1.00  0.00     0.000 A 
ATOM     26  C   UNL A   1      27.965  28.195  23.407  1.00  0.00     0.000 A 
ENDBRANCH  18  21
ENDBRANCH  15  18
ENDBRANCH   8  14
ENDBRANCH   4   7
ENDBRANCH   2   3
ENDBRANCH   1   2
BRANCH   1  27
ATOM     27  C   UNL A   1      32.106  28.833  27.450  1.00  0.00     0.023 C 
BRANCH  27  28
ATOM     28  C   UNL A   1      33.342  29.557  26.923  1.00  0.00     0.116 C 
BRANCH  28  29
ATOM     29  N   UNL A   1      33.351  30.975  27.232  1.00  0.00    -0.352 N 
ATOM     30  C   UNL A   1      34.258  31.748  27.915  1.00  0.00     0.251 C 
ATOM     31  H   UNL A   1      32.571  31.469  26.892  1.00  0.00     0.163 HD
ATOM     32  O   UNL A   1      33.973  32.928  28.119  1.00  0.00    -0.269 OA
BRANCH  30  33
ATOM     33  C   UNL A   1      35.538  31.202  28.437  1.00  0.00     0.039 A 
ATOM     34  C   UNL A   1      35.477  30.081  29.275  1.00  0.00     0.014 A 
ATOM     35  C   UNL A   1      36.778  31.793  28.181  1.00  0.00     0.014 A 
ATOM     36  C   UNL A   1      36.647  29.527  29.806  1.00  0.00     0.010 A 
ATOM     37  C   UNL A   1      37.953  31.202  28.662  1.00  0.00     0.010 A 
ATOM     38  C   UNL A   1      37.902  30.065  29.483  1.00  0.00    -0.014 A 
BRANCH  38  39
ATOM     39  C   UNL A   1      39.153  29.450  30.009  1.00  0.00     0.031 A 
ATOM     40  C   UNL A   1      39.814  29.997  31.248  1.00  0.00     0.074 A 
ATOM     41  C   UNL A   1      39.720  28.417  29.353  1.00  0.00     0.049 A 
ATOM     42  N   UNL A   1      40.925  29.622  31.830  1.00  0.00    -0.248 NA
ATOM     43  C   UNL A   1      39.149  31.133  31.901  1.00  0.00     0.031 C 
ATOM     44  C   UNL A   1      39.204  27.813  28.123  1.00  0.00     0.029 A 
ATOM     45  N   UNL A   1      40.856  27.694  29.624  1.00  0.00    -0.354 N 
ATOM     46  C   UNL A   1      41.101  30.482  32.911  1.00  0.00     0.074 A 
ATOM     47  C   UNL A   1      40.007  31.430  32.866  1.00  0.00     0.031 C 
ATOM     48  C   UNL A   1      40.009  26.802  27.759  1.00  0.00     0.029 A 
ATOM     49  C   UNL A   1      41.117  26.706  28.704  1.00  0.00     0.049 A 
ATOM     50  H   UNL A   1      41.431  27.867  30.405  1.00  0.00     0.167 HD
ATOM     51  C   UNL A   1      42.070  30.470  33.862  1.00  0.00     0.034 A 
ATOM     52  C   UNL A   1      42.134  25.824  28.623  1.00  0.00     0.034 A 
ATOM     53  C   UNL A   1      43.150  29.513  33.907  1.00  0.00     0.049 A 
ATOM     54  C   UNL A   1      43.197  25.829  29.692  1.00  0.00     0.074 A 
ATOM     55  C   UNL A   1      44.156  29.389  34.852  1.00  0.00     0.029 A 
ATOM     56  N   UNL A   1      43.369  28.515  32.966  1.00  0.00    -0.354 N 
ATOM     57  N   UNL A   1      43.324  26.623  30.729  1.00  0.00    -0.248 NA
ATOM     58  C   UNL A   1      44.245  24.805  29.586  1.00  0.00     0.031 C 
ATOM     59  C   UNL A   1      45.013  28.357  34.451  1.00  0.00     0.029 A 
ATOM     60  C   UNL A   1      44.505  27.788  33.296  1.00  0.00     0.049 A 
ATOM     61  H   UNL A   1      42.803  28.347  32.179  1.00  0.00     0.167 HD
ATOM     62  C   UNL A   1      44.448  26.172  31.416  1.00  0.00     0.074 A 
ATOM     63  C   UNL A   1      44.952  25.029  30.683  1.00  0.00     0.031 C 
ATOM     64  C   UNL A   1      45.009  26.655  32.554  1.00  0.00     0.034 A 
BRANCH  51  65
ATOM     65  C   UNL A   1      42.014  31.552  34.917  1.00  0.00     0.023 A 
ATOM     66  C   UNL A   1      41.033  31.552  35.924  1.00  0.00     0.031 A 
ATOM     67  C   UNL A   1      42.937  32.613  34.900  1.00  0.00     0.131 A 
ATOM     68  C   UNL A   1      40.946  32.631  36.818  1.00  0.00     0.055 A 
ATOM     69  C   UNL A   1      42.897  33.641  35.845  1.00  0.00     0.041 A 
ATOM     70  F   UNL A   1      43.888  32.677  33.955  1.00  0.00    -0.206 F 
ATOM     71  C   UNL A   1      41.886  33.662  36.802  1.00  0.00     0.022 A 
BRANCH  68  72
ATOM     72  S   UNL A   1      39.498  32.737  37.906  1.00  0.00     0.124 S 
ATOM     73  O   UNL A   1      38.681  31.625  37.417  1.00  0.00    -0.237 OA
ATOM     74  O   UNL A   1      40.082  32.569  39.228  1.00  0.00    -0.237 OA
ATOM     75  O   UNL A   1      38.955  34.066  37.624  1.00  0.00    -0.744 OA
ENDBRANCH  68  72
ENDBRANCH  51  65
BRANCH  52  76
ATOM     76  C   UNL A   1      42.207  24.859  27.490  1.00  0.00     0.023 A 
ATOM     77  C   UNL A   1      41.446  23.679  27.493  1.00  0.00     0.031 A 
ATOM     78  C   UNL A   1      43.073  25.083  26.406  1.00  0.00     0.131 A 
ATOM     79  C   UNL A   1      41.601  22.745  26.458  1.00  0.00     0.055 A 
ATOM     80  C   UNL A   1      43.187  24.174  25.353  1.00  0.00     0.041 A 
ATOM     81  F   UNL A   1      43.817  26.201  26.351  1.00  0.00    -0.206 F 
ATOM     82  C   UNL A   1      42.458  22.990  25.383  1.00  0.00     0.022 A 
BRANCH  79  83
ATOM     83  S   UNL A   1      40.721  21.163  26.577  1.00  0.00     0.124 S 
ATOM     84  O   UNL A   1      40.720  20.931  28.017  1.00  0.00    -0.237 OA
ATOM     85  O   UNL A   1      39.431  21.489  25.978  1.00  0.00    -0.237 OA
ATOM     86  O   UNL A   1      41.555  20.251  25.798  1.00  0.00    -0.744 OA
ENDBRANCH  79  83
ENDBRANCH  52  76
BRANCH  64  87
ATOM     87  C   UNL A   1      46.205  25.911  33.097  1.00  0.00     0.023 A 
ATOM     88  C   UNL A   1      46.066  24.739  33.861  1.00  0.00     0.031 A 
ATOM     89  C   UNL A   1      47.503  26.404  32.873  1.00  0.00     0.131 A 
ATOM     90  C   UNL A   1      47.199  24.133  34.427  1.00  0.00     0.055 A 
ATOM     91  C   UNL A   1      48.632  25.765  33.390  1.00  0.00     0.041 A 
ATOM     92  F   UNL A   1      47.696  27.520  32.153  1.00  0.00    -0.206 F 
ATOM     93  C   UNL A   1      48.482  24.632  34.184  1.00  0.00     0.022 A 
BRANCH  90  94
ATOM     94  S   UNL A   1      46.968  22.746  35.572  1.00  0.00     0.124 S 
ATOM     95  O   UNL A   1      48.238  22.729  36.291  1.00  0.00    -0.237 OA
ATOM     96  O   UNL A   1      45.805  23.171  36.344  1.00  0.00    -0.237 OA
ATOM     97  O   UNL A   1      46.741  21.604  34.688  1.00  0.00    -0.744 OA
ENDBRANCH  90  94
ENDBRANCH  64  87
ENDBRANCH  38  39
ENDBRANCH  30  33
ENDBRANCH  28  29
ENDBRANCH  27  28
ENDBRANCH   1  27
TORSDOF 18
ENDMDL
MODEL 3
REMARK VINA RESULT:     -11.8      2.362      8.465
REMARK SMILES CC[C@H](NC(=O)[C@H]1[C@@H](C(=O)NCCCCNC(=O)c2ccc(-c3c4nc(c(-c5cc(S(=O)(=O)[O-])ccc5F)c5ccc([nH]5)c(-c5cc(S(=O)(=O)[O-])ccc5F)c5nc(c(-c6cc(S(=O)(=O)[O-])ccc6F)c6ccc3[nH]6)C=C5)C=C4)cc2)[C@@H]2C=C[C@H]1C2)c1ccccc1
REMARK SMILES IDX 13 1 12 2 11 3 9 4 10 5 8 7 7 8 85 9 82 10 84 11 86 12 83 13
REMARK SMILES IDX 5 14 4 15 6 17 3 18 2 19 1 20 87 21 88 22 92 23 89 24 91 25
REMARK SMILES IDX 90 26 14 27 15 28 16 29 17 30 18 32 19 33 20 34 81 35 21 36
REMARK SMILES IDX 80 37 22 38 23 39 24 40 74 41 25 42 79 43 73 44 75 45 26 46
REMARK SMILES IDX 78 47 72 48 71 49 27 51 59 52 39 53 58 54 40 55 43 56 57 57
REMARK SMILES IDX 76 58 41 59 42 60 56 62 77 63 44 64 28 65 29 66 37 67 30 68
REMARK SMILES IDX 36 69 38 70 35 71 31 72 32 73 33 74 34 75 60 76 61 77 69 78
REMARK SMILES IDX 62 79 68 80 70 81 67 82 63 83 64 84 65 85 66 86 45 87 46 88
REMARK SMILES IDX 54 89 47 90 53 91 55 92 52 93 48 94 49 95 50 96 51 97
REMARK H PARENT 11 6 4 16 16 31 75 50 43 61
REMARK Flexibility Score: inf
ROOT
ATOM      1  C   UNL A   1      34.134  28.793  23.713  1.00  0.00     0.023 C 
ENDROOT
BRANCH   1   2
ATOM      2  C   UNL A   1      33.529  28.326  22.393  1.00  0.00     0.116 C 
BRANCH   2   3
ATOM      3  N   UNL A   1      33.536  26.893  22.168  1.00  0.00    -0.356 N 
ATOM      4  C   UNL A   1      32.529  26.016  22.459  1.00  0.00     0.224 C 
ATOM      5  O   UNL A   1      32.306  25.073  21.702  1.00  0.00    -0.275 OA
ATOM      6  H   UNL A   1      34.350  26.513  21.765  1.00  0.00     0.163 HD
BRANCH   4   7
ATOM      7  C   UNL A   1      31.697  26.231  23.698  1.00  0.00     0.098 C 
ATOM      8  C   UNL A   1      32.320  25.697  25.020  1.00  0.00     0.098 C 
ATOM      9  C   UNL A   1      31.296  24.640  25.494  1.00  0.00     0.025 C 
ATOM     10  C   UNL A   1      30.338  25.464  23.643  1.00  0.00     0.025 C 
ATOM     11  C   UNL A   1      30.048  25.406  25.923  1.00  0.00    -0.027 C 
ATOM     12  C   UNL A   1      30.737  24.094  24.184  1.00  0.00     0.017 C 
ATOM     13  C   UNL A   1      29.486  25.909  24.812  1.00  0.00    -0.027 C 
BRANCH   8  14
ATOM     14  C   UNL A   1      33.803  25.394  25.218  1.00  0.00     0.225 C 
ATOM     15  N   UNL A   1      34.628  24.473  24.711  1.00  0.00    -0.349 N 
ATOM     16  H   UNL A   1      35.484  24.555  25.190  1.00  0.00     0.164 HD
ATOM     17  O   UNL A   1      34.387  26.105  26.062  1.00  0.00    -0.275 OA
BRANCH  15  18
ATOM     18  C   UNL A   1      34.782  23.384  23.730  1.00  0.00     0.112 C 
BRANCH  18  19
ATOM     19  C   UNL A   1      36.189  23.136  23.170  1.00  0.00     0.026 C 
ATOM     20  C   UNL A   1      37.096  22.351  24.107  1.00  0.00     0.006 C 
ENDBRANCH  18  19
BRANCH  18  21
ATOM     21  C   UNL A   1      33.926  22.172  24.065  1.00  0.00    -0.026 A 
ATOM     22  C   UNL A   1      33.042  21.663  23.093  1.00  0.00     0.006 A 
ATOM     23  C   UNL A   1      33.997  21.498  25.290  1.00  0.00     0.006 A 
ATOM     24  C   UNL A   1      32.222  20.562  23.357  1.00  0.00     0.000 A 
ATOM     25  C   UNL A   1      33.166  20.404  25.561  1.00  0.00     0.000 A 
ATOM     26  C   UNL A   1      32.272  19.942  24.600  1.00  0.00     0.000 A 
ENDBRANCH  18  21
ENDBRANCH  15  18
ENDBRANCH   8  14
ENDBRANCH   4   7
ENDBRANCH   2   3
ENDBRANCH   1   2
BRANCH   1  27
ATOM     27  C   UNL A   1      33.175  29.293  24.794  1.00  0.00     0.023 C 
BRANCH  27  28
ATOM     28  C   UNL A   1      33.721  29.408  26.215  1.00  0.00     0.116 C 
BRANCH  28  29
ATOM     29  N   UNL A   1      33.543  30.728  26.792  1.00  0.00    -0.352 N 
ATOM     30  C   UNL A   1      34.300  31.431  27.696  1.00  0.00     0.251 C 
ATOM     31  H   UNL A   1      32.738  31.202  26.481  1.00  0.00     0.163 HD
ATOM     32  O   UNL A   1      33.867  32.511  28.096  1.00  0.00    -0.269 OA
BRANCH  30  33
ATOM     33  C   UNL A   1      35.592  30.919  28.224  1.00  0.00     0.039 A 
ATOM     34  C   UNL A   1      35.560  29.776  29.035  1.00  0.00     0.014 A 
ATOM     35  C   UNL A   1      36.814  31.559  27.999  1.00  0.00     0.014 A 
ATOM     36  C   UNL A   1      36.742  29.252  29.569  1.00  0.00     0.010 A 
ATOM     37  C   UNL A   1      38.003  30.998  28.482  1.00  0.00     0.010 A 
ATOM     38  C   UNL A   1      37.981  29.842  29.276  1.00  0.00    -0.014 A 
BRANCH  38  39
ATOM     39  C   UNL A   1      39.247  29.259  29.807  1.00  0.00     0.031 A 
ATOM     40  C   UNL A   1      39.920  29.859  31.014  1.00  0.00     0.074 A 
ATOM     41  C   UNL A   1      39.815  28.208  29.181  1.00  0.00     0.049 A 
ATOM     42  N   UNL A   1      41.043  29.516  31.593  1.00  0.00    -0.248 NA
ATOM     43  C   UNL A   1      39.252  31.011  31.634  1.00  0.00     0.031 C 
ATOM     44  C   UNL A   1      39.286  27.553  27.982  1.00  0.00     0.029 A 
ATOM     45  N   UNL A   1      40.962  27.507  29.461  1.00  0.00    -0.354 N 
ATOM     46  C   UNL A   1      41.226  30.418  32.638  1.00  0.00     0.074 A 
ATOM     47  C   UNL A   1      40.121  31.353  32.574  1.00  0.00     0.031 C 
ATOM     48  C   UNL A   1      40.097  26.538  27.643  1.00  0.00     0.029 A 
ATOM     49  C   UNL A   1      41.219  26.488  28.574  1.00  0.00     0.049 A 
ATOM     50  H   UNL A   1      41.546  27.715  30.226  1.00  0.00     0.167 HD
ATOM     51  C   UNL A   1      42.208  30.452  33.574  1.00  0.00     0.034 A 
ATOM     52  C   UNL A   1      42.245  25.614  28.511  1.00  0.00     0.034 A 
ATOM     53  C   UNL A   1      43.299  29.507  33.638  1.00  0.00     0.049 A 
ATOM     54  C   UNL A   1      43.323  25.669  29.562  1.00  0.00     0.074 A 
ATOM     55  C   UNL A   1      44.320  29.428  34.571  1.00  0.00     0.029 A 
ATOM     56  N   UNL A   1      43.515  28.477  32.732  1.00  0.00    -0.354 N 
ATOM     57  N   UNL A   1      43.457  26.502  30.568  1.00  0.00    -0.248 NA
ATOM     58  C   UNL A   1      44.380  24.652  29.478  1.00  0.00     0.031 C 
ATOM     59  C   UNL A   1      45.183  28.391  34.196  1.00  0.00     0.029 A 
ATOM     60  C   UNL A   1      44.664  27.774  33.071  1.00  0.00     0.049 A 
ATOM     61  H   UNL A   1      42.939  28.275  31.960  1.00  0.00     0.167 HD
ATOM     62  C   UNL A   1      44.595  26.088  31.253  1.00  0.00     0.074 A 
ATOM     63  C   UNL A   1      45.100  24.925  30.556  1.00  0.00     0.031 C 
ATOM     64  C   UNL A   1      45.168  26.620  32.364  1.00  0.00     0.034 A 
BRANCH  51  65
ATOM     65  C   UNL A   1      42.157  31.571  34.589  1.00  0.00     0.023 A 
ATOM     66  C   UNL A   1      41.233  31.566  35.649  1.00  0.00     0.031 A 
ATOM     67  C   UNL A   1      43.024  32.673  34.480  1.00  0.00     0.131 A 
ATOM     68  C   UNL A   1      41.142  32.674  36.505  1.00  0.00     0.055 A 
ATOM     69  C   UNL A   1      42.985  33.735  35.386  1.00  0.00     0.041 A 
ATOM     70  F   UNL A   1      43.918  32.744  33.480  1.00  0.00    -0.206 F 
ATOM     71  C   UNL A   1      42.027  33.748  36.397  1.00  0.00     0.022 A 
BRANCH  68  72
ATOM     72  S   UNL A   1      39.752  32.756  37.668  1.00  0.00     0.124 S 
ATOM     73  O   UNL A   1      40.433  32.585  38.952  1.00  0.00    -0.237 OA
ATOM     74  O   UNL A   1      39.198  34.076  37.408  1.00  0.00    -0.237 OA
ATOM     75  O   UNL A   1      38.906  31.630  37.269  1.00  0.00    -0.744 OA
ENDBRANCH  68  72
ENDBRANCH  51  65
BRANCH  52  76
ATOM     76  C   UNL A   1      42.310  24.608  27.413  1.00  0.00     0.023 A 
ATOM     77  C   UNL A   1      41.595  23.402  27.491  1.00  0.00     0.031 A 
ATOM     78  C   UNL A   1      43.127  24.820  26.289  1.00  0.00     0.131 A 
ATOM     79  C   UNL A   1      41.745  22.434  26.487  1.00  0.00     0.055 A 
ATOM     80  C   UNL A   1      43.235  23.875  25.268  1.00  0.00     0.041 A 
ATOM     81  F   UNL A   1      43.826  25.961  26.163  1.00  0.00    -0.206 F 
ATOM     82  C   UNL A   1      42.552  22.667  25.371  1.00  0.00     0.022 A 
BRANCH  79  83
ATOM     83  S   UNL A   1      40.930  20.828  26.700  1.00  0.00     0.124 S 
ATOM     84  O   UNL A   1      39.655  21.050  26.029  1.00  0.00    -0.237 OA
ATOM     85  O   UNL A   1      41.860  19.927  26.029  1.00  0.00    -0.237 OA
ATOM     86  O   UNL A   1      40.855  20.675  28.151  1.00  0.00    -0.744 OA
ENDBRANCH  79  83
ENDBRANCH  52  76
BRANCH  64  87
ATOM     87  C   UNL A   1      46.380  25.908  32.916  1.00  0.00     0.023 A 
ATOM     88  C   UNL A   1      46.265  24.839  33.822  1.00  0.00     0.031 A 
ATOM     89  C   UNL A   1      47.671  26.332  32.555  1.00  0.00     0.131 A 
ATOM     90  C   UNL A   1      47.418  24.270  34.383  1.00  0.00     0.055 A 
ATOM     91  C   UNL A   1      48.817  25.724  33.072  1.00  0.00     0.041 A 
ATOM     92  F   UNL A   1      47.842  27.349  31.696  1.00  0.00    -0.206 F 
ATOM     93  C   UNL A   1      48.693  24.697  34.004  1.00  0.00     0.022 A 
BRANCH  90  94
ATOM     94  S   UNL A   1      47.230  23.034  35.698  1.00  0.00     0.124 S 
ATOM     95  O   UNL A   1      47.714  23.759  36.870  1.00  0.00    -0.237 OA
ATOM     96  O   UNL A   1      45.798  22.760  35.665  1.00  0.00    -0.237 OA
ATOM     97  O   UNL A   1      48.083  21.931  35.258  1.00  0.00    -0.744 OA
ENDBRANCH  90  94
ENDBRANCH  64  87
ENDBRANCH  38  39
ENDBRANCH  30  33
ENDBRANCH  28  29
ENDBRANCH  27  28
ENDBRANCH   1  27
TORSDOF 18
ENDMDL
