MODEL 1
REMARK VINA RESULT:     -13.6      0.000      0.000
REMARK SMILES Cc1ccc(C(=O)N2C[C@@H](C(=O)NCCCCNC(=O)c3ccc(-c4c5nc(c(-c6cc(S(=O)(=O)[O-])ccc6F)c6ccc([nH]6)c(-c6cc(S(=O)(=O)[O-])ccc6F)c6nc(c(-c7cc(S(=O)(=O)[O-])ccc7F)c7ccc4[nH]7)C=C6)C=C5)cc3)C[C@H](C(=O)N3CCOCC3)C2)cc1F
REMARK SMILES IDX 16 1 15 2 14 3 13 4 11 5 12 6 10 8 8 9 9 10 94 11 85 12
REMARK SMILES IDX 84 13 6 14 7 15 5 16 1 17 2 18 3 19 96 20 4 21 95 22 97 23
REMARK SMILES IDX 86 24 87 25 88 26 89 27 93 28 90 29 92 30 91 31 17 32 18 33
REMARK SMILES IDX 19 34 20 36 21 37 22 38 83 39 23 40 82 41 24 42 25 43 26 44
REMARK SMILES IDX 76 45 27 46 81 47 75 48 77 49 28 50 80 51 74 52 73 53 29 55
REMARK SMILES IDX 61 56 41 57 60 58 42 59 45 60 59 61 78 62 43 63 44 64 58 66
REMARK SMILES IDX 79 67 46 68 30 69 31 70 39 71 32 72 38 73 40 74 37 75 33 76
REMARK SMILES IDX 34 77 35 78 36 79 62 80 63 81 71 82 64 83 70 84 72 85 69 86
REMARK SMILES IDX 65 87 66 88 67 89 68 90 47 91 48 92 56 93 49 94 55 95 57 96
REMARK SMILES IDX 54 97 50 98 51 99 52 100 53 101
REMARK H PARENT 13 7 18 35 77 54 45 65
REMARK Flexibility Score: inf
ROOT
ATOM      1  C   UNL A   1      33.382  28.779  27.161  1.00  0.00     0.023 C 
ENDROOT
BRANCH   1   2
ATOM      2  C   UNL A   1      32.608  29.915  26.487  1.00  0.00     0.023 C 
BRANCH   2   3
ATOM      3  C   UNL A   1      31.653  29.451  25.388  1.00  0.00     0.116 C 
BRANCH   3   4
ATOM      4  N   UNL A   1      32.268  29.617  24.088  1.00  0.00    -0.356 N 
ATOM      5  C   UNL A   1      32.888  28.697  23.310  1.00  0.00     0.224 C 
ATOM      6  O   UNL A   1      33.596  29.081  22.378  1.00  0.00    -0.275 OA
ATOM      7  H   UNL A   1      32.228  30.528  23.715  1.00  0.00     0.163 HD
BRANCH   5   8
ATOM      8  C   UNL A   1      32.699  27.219  23.568  1.00  0.00     0.099 C 
ATOM      9  N   UNL A   1      33.974  25.113  23.958  1.00  0.00    -0.337 N 
ATOM     10  C   UNL A   1      34.025  26.566  23.919  1.00  0.00     0.133 C 
ATOM     11  C   UNL A   1      33.316  24.436  22.845  1.00  0.00     0.133 C 
ATOM     12  C   UNL A   1      31.908  24.985  22.548  1.00  0.00     0.099 C 
ATOM     13  C   UNL A   1      31.843  26.507  22.517  1.00  0.00     0.030 C 
BRANCH   9  14
ATOM     14  C   UNL A   1      34.748  24.501  24.938  1.00  0.00     0.254 C 
ATOM     15  O   UNL A   1      34.911  24.992  26.055  1.00  0.00    -0.269 OA
BRANCH  14  16
ATOM     16  C   UNL A   1      35.509  23.268  24.643  1.00  0.00     0.042 A 
ATOM     17  C   UNL A   1      37.739  19.615  25.003  1.00  0.00     0.047 C 
ATOM     18  C   UNL A   1      36.978  20.886  24.777  1.00  0.00    -0.015 A 
ATOM     19  C   UNL A   1      37.638  22.112  24.625  1.00  0.00     0.007 A 
ATOM     20  C   UNL A   1      35.580  20.870  24.804  1.00  0.00     0.126 A 
ATOM     21  C   UNL A   1      36.908  23.303  24.564  1.00  0.00     0.014 A 
ATOM     22  C   UNL A   1      34.842  22.045  24.746  1.00  0.00     0.053 A 
ATOM     23  F   UNL A   1      34.931  19.706  24.954  1.00  0.00    -0.207 F 
ENDBRANCH  14  16
ENDBRANCH   9  14
BRANCH  12  24
ATOM     24  C   UNL A   1      30.860  24.192  23.337  1.00  0.00     0.227 C 
ATOM     25  O   UNL A   1      30.280  23.267  22.752  1.00  0.00    -0.275 OA
ATOM     26  N   UNL A   1      30.755  24.310  24.699  1.00  0.00    -0.338 N 
ATOM     27  C   UNL A   1      30.604  25.519  25.511  1.00  0.00     0.148 C 
ATOM     28  C   UNL A   1      30.653  23.095  25.499  1.00  0.00     0.148 C 
ATOM     29  C   UNL A   1      31.637  25.520  26.648  1.00  0.00     0.181 C 
ATOM     30  C   UNL A   1      31.712  23.154  26.607  1.00  0.00     0.181 C 
ATOM     31  O   UNL A   1      31.519  24.317  27.432  1.00  0.00    -0.378 OA
ENDBRANCH  12  24
ENDBRANCH   5   8
ENDBRANCH   3   4
ENDBRANCH   2   3
ENDBRANCH   1   2
BRANCH   1  32
ATOM     32  C   UNL A   1      34.873  28.897  26.945  1.00  0.00     0.116 C 
BRANCH  32  33
ATOM     33  N   UNL A   1      35.297  30.290  27.043  1.00  0.00    -0.352 N 
ATOM     34  C   UNL A   1      36.384  30.769  27.725  1.00  0.00     0.251 C 
ATOM     35  H   UNL A   1      34.744  30.954  26.570  1.00  0.00     0.163 HD
ATOM     36  O   UNL A   1      36.541  31.977  27.893  1.00  0.00    -0.269 OA
BRANCH  34  37
ATOM     37  C   UNL A   1      37.387  29.779  28.089  1.00  0.00     0.039 A 
ATOM     38  C   UNL A   1      37.280  28.945  29.200  1.00  0.00     0.014 A 
ATOM     39  C   UNL A   1      38.445  29.685  27.186  1.00  0.00     0.014 A 
ATOM     40  C   UNL A   1      38.309  28.046  29.449  1.00  0.00     0.010 A 
ATOM     41  C   UNL A   1      39.325  28.665  27.313  1.00  0.00     0.010 A 
ATOM     42  C   UNL A   1      39.338  27.950  28.512  1.00  0.00    -0.014 A 
BRANCH  42  43
ATOM     43  C   UNL A   1      40.575  27.222  28.697  1.00  0.00     0.031 A 
ATOM     44  C   UNL A   1      40.582  25.765  28.546  1.00  0.00     0.074 A 
ATOM     45  C   UNL A   1      41.674  28.010  28.804  1.00  0.00     0.049 A 
ATOM     46  N   UNL A   1      41.456  24.990  29.076  1.00  0.00    -0.248 NA
ATOM     47  C   UNL A   1      39.554  25.045  27.790  1.00  0.00     0.031 C 
ATOM     48  C   UNL A   1      43.076  27.693  28.627  1.00  0.00     0.029 A 
ATOM     49  N   UNL A   1      41.707  29.367  29.177  1.00  0.00    -0.354 N 
ATOM     50  C   UNL A   1      41.352  23.783  28.413  1.00  0.00     0.074 A 
ATOM     51  C   UNL A   1      40.049  23.802  27.793  1.00  0.00     0.031 C 
ATOM     52  C   UNL A   1      43.811  28.671  29.196  1.00  0.00     0.029 A 
ATOM     53  C   UNL A   1      42.882  29.546  29.902  1.00  0.00     0.049 A 
ATOM     54  H   UNL A   1      41.033  30.053  28.966  1.00  0.00     0.167 HD
ATOM     55  C   UNL A   1      42.482  23.035  28.253  1.00  0.00     0.034 A 
ATOM     56  C   UNL A   1      42.857  29.772  31.254  1.00  0.00     0.034 A 
ATOM     57  C   UNL A   1      43.606  23.695  28.935  1.00  0.00     0.049 A 
ATOM     58  C   UNL A   1      43.533  28.633  31.982  1.00  0.00     0.074 A 
ATOM     59  C   UNL A   1      44.614  24.513  28.453  1.00  0.00     0.029 A 
ATOM     60  N   UNL A   1      43.571  23.886  30.314  1.00  0.00    -0.354 N 
ATOM     61  N   UNL A   1      43.584  27.414  31.516  1.00  0.00    -0.248 NA
ATOM     62  C   UNL A   1      44.242  28.779  33.248  1.00  0.00     0.031 C 
ATOM     63  C   UNL A   1      45.126  25.265  29.545  1.00  0.00     0.029 A 
ATOM     64  C   UNL A   1      44.441  24.898  30.691  1.00  0.00     0.049 A 
ATOM     65  H   UNL A   1      43.006  23.373  30.935  1.00  0.00     0.167 HD
ATOM     66  C   UNL A   1      44.328  26.631  32.352  1.00  0.00     0.074 A 
ATOM     67  C   UNL A   1      44.720  27.534  33.421  1.00  0.00     0.031 C 
ATOM     68  C   UNL A   1      44.568  25.310  32.091  1.00  0.00     0.034 A 
BRANCH  55  69
ATOM     69  C   UNL A   1      42.656  21.937  27.213  1.00  0.00     0.023 A 
ATOM     70  C   UNL A   1      43.685  21.896  26.244  1.00  0.00     0.031 A 
ATOM     71  C   UNL A   1      41.782  20.826  27.198  1.00  0.00     0.131 A 
ATOM     72  C   UNL A   1      43.857  20.789  25.386  1.00  0.00     0.055 A 
ATOM     73  C   UNL A   1      41.936  19.737  26.328  1.00  0.00     0.041 A 
ATOM     74  F   UNL A   1      40.752  20.728  28.049  1.00  0.00    -0.206 F 
ATOM     75  C   UNL A   1      42.985  19.706  25.424  1.00  0.00     0.022 A 
BRANCH  72  76
ATOM     76  S   UNL A   1      45.254  20.699  24.224  1.00  0.00     0.124 S 
ATOM     77  O   UNL A   1      44.809  19.678  23.277  1.00  0.00    -0.237 OA
ATOM     78  O   UNL A   1      45.306  22.058  23.691  1.00  0.00    -0.237 OA
ATOM     79  O   UNL A   1      46.384  20.309  25.062  1.00  0.00    -0.744 OA
ENDBRANCH  72  76
ENDBRANCH  55  69
BRANCH  56  80
ATOM     80  C   UNL A   1      41.617  30.478  31.721  1.00  0.00     0.023 A 
ATOM     81  C   UNL A   1      40.595  29.799  32.408  1.00  0.00     0.031 A 
ATOM     82  C   UNL A   1      41.285  31.698  31.088  1.00  0.00     0.131 A 
ATOM     83  C   UNL A   1      39.267  30.267  32.317  1.00  0.00     0.055 A 
ATOM     84  C   UNL A   1      39.961  32.120  30.950  1.00  0.00     0.041 A 
ATOM     85  F   UNL A   1      42.235  32.413  30.462  1.00  0.00    -0.206 F 
ATOM     86  C   UNL A   1      38.939  31.378  31.529  1.00  0.00     0.022 A 
BRANCH  83  87
ATOM     87  S   UNL A   1      37.924  29.365  33.150  1.00  0.00     0.124 S 
ATOM     88  O   UNL A   1      36.753  29.886  32.456  1.00  0.00    -0.237 OA
ATOM     89  O   UNL A   1      38.231  27.963  32.875  1.00  0.00    -0.237 OA
ATOM     90  O   UNL A   1      38.075  29.761  34.545  1.00  0.00    -0.744 OA
ENDBRANCH  83  87
ENDBRANCH  56  80
BRANCH  68  91
ATOM     91  C   UNL A   1      45.057  24.293  33.097  1.00  0.00     0.023 A 
ATOM     92  C   UNL A   1      46.384  24.402  33.581  1.00  0.00     0.031 A 
ATOM     93  C   UNL A   1      44.357  23.138  33.483  1.00  0.00     0.131 A 
ATOM     94  C   UNL A   1      46.954  23.409  34.382  1.00  0.00     0.055 A 
ATOM     95  C   UNL A   1      44.893  22.198  34.370  1.00  0.00     0.041 A 
ATOM     96  F   UNL A   1      43.159  22.826  32.973  1.00  0.00    -0.206 F 
ATOM     97  C   UNL A   1      46.201  22.323  34.813  1.00  0.00     0.022 A 
BRANCH  94  98
ATOM     98  S   UNL A   1      48.731  23.418  34.747  1.00  0.00     0.124 S 
ATOM     99  O   UNL A   1      49.162  22.156  34.153  1.00  0.00    -0.237 OA
ATOM    100  O   UNL A   1      49.179  24.623  34.051  1.00  0.00    -0.237 OA
ATOM    101  O   UNL A   1      48.788  23.488  36.201  1.00  0.00    -0.744 OA
ENDBRANCH  94  98
ENDBRANCH  68  91
ENDBRANCH  42  43
ENDBRANCH  34  37
ENDBRANCH  32  33
ENDBRANCH   1  32
TORSDOF 17
ENDMDL
MODEL 2
REMARK VINA RESULT:     -13.4      1.782      2.166
REMARK SMILES Cc1ccc(C(=O)N2C[C@@H](C(=O)NCCCCNC(=O)c3ccc(-c4c5nc(c(-c6cc(S(=O)(=O)[O-])ccc6F)c6ccc([nH]6)c(-c6cc(S(=O)(=O)[O-])ccc6F)c6nc(c(-c7cc(S(=O)(=O)[O-])ccc7F)c7ccc4[nH]7)C=C6)C=C5)cc3)C[C@H](C(=O)N3CCOCC3)C2)cc1F
REMARK SMILES IDX 16 1 15 2 14 3 13 4 11 5 12 6 10 8 8 9 9 10 94 11 85 12
REMARK SMILES IDX 84 13 6 14 7 15 5 16 1 17 2 18 3 19 96 20 4 21 95 22 97 23
REMARK SMILES IDX 86 24 87 25 88 26 89 27 93 28 90 29 92 30 91 31 17 32 18 33
REMARK SMILES IDX 19 34 20 36 21 37 22 38 83 39 23 40 82 41 24 42 25 43 26 44
REMARK SMILES IDX 76 45 27 46 81 47 75 48 77 49 28 50 80 51 74 52 73 53 29 55
REMARK SMILES IDX 61 56 41 57 60 58 42 59 45 60 59 61 78 62 43 63 44 64 58 66
REMARK SMILES IDX 79 67 46 68 30 69 31 70 39 71 32 72 38 73 40 74 37 75 33 76
REMARK SMILES IDX 34 77 35 78 36 79 62 80 63 81 71 82 64 83 70 84 72 85 69 86
REMARK SMILES IDX 65 87 66 88 67 89 68 90 47 91 48 92 56 93 49 94 55 95 57 96
REMARK SMILES IDX 54 97 50 98 51 99 52 100 53 101
REMARK H PARENT 13 7 18 35 77 54 45 65
REMARK Flexibility Score: inf
ROOT
ATOM      1  C   UNL A   1      33.176  28.557  26.945  1.00  0.00     0.023 C 
ENDROOT
BRANCH   1   2
ATOM      2  C   UNL A   1      32.336  29.550  26.138  1.00  0.00     0.023 C 
BRANCH   2   3
ATOM      3  C   UNL A   1      31.443  28.897  25.083  1.00  0.00     0.116 C 
BRANCH   3   4
ATOM      4  N   UNL A   1      32.036  29.039  23.769  1.00  0.00    -0.356 N 
ATOM      5  C   UNL A   1      32.785  28.156  23.068  1.00  0.00     0.224 C 
ATOM      6  O   UNL A   1      33.437  28.557  22.103  1.00  0.00    -0.275 OA
ATOM      7  H   UNL A   1      31.869  29.901  23.322  1.00  0.00     0.163 HD
BRANCH   5   8
ATOM      8  C   UNL A   1      32.807  26.692  23.450  1.00  0.00     0.099 C 
ATOM      9  N   UNL A   1      34.320  24.909  24.312  1.00  0.00    -0.337 N 
ATOM     10  C   UNL A   1      34.124  26.337  24.120  1.00  0.00     0.133 C 
ATOM     11  C   UNL A   1      34.038  24.035  23.177  1.00  0.00     0.133 C 
ATOM     12  C   UNL A   1      32.649  24.277  22.556  1.00  0.00     0.099 C 
ATOM     13  C   UNL A   1      32.327  25.751  22.342  1.00  0.00     0.030 C 
BRANCH   9  14
ATOM     14  C   UNL A   1      34.966  24.533  25.485  1.00  0.00     0.254 C 
ATOM     15  O   UNL A   1      35.104  25.298  26.438  1.00  0.00    -0.269 OA
BRANCH  14  16
ATOM     16  C   UNL A   1      35.623  23.213  25.600  1.00  0.00     0.042 A 
ATOM     17  C   UNL A   1      37.759  19.584  24.755  1.00  0.00     0.047 C 
ATOM     18  C   UNL A   1      36.994  20.813  25.143  1.00  0.00    -0.015 A 
ATOM     19  C   UNL A   1      35.594  20.843  25.096  1.00  0.00     0.007 A 
ATOM     20  C   UNL A   1      37.684  21.983  25.474  1.00  0.00     0.126 A 
ATOM     21  C   UNL A   1      34.908  22.041  25.319  1.00  0.00     0.014 A 
ATOM     22  C   UNL A   1      37.015  23.179  25.695  1.00  0.00     0.053 A 
ATOM     23  F   UNL A   1      39.025  21.974  25.517  1.00  0.00    -0.207 F 
ENDBRANCH  14  16
ENDBRANCH   9  14
BRANCH  12  24
ATOM     24  C   UNL A   1      31.614  23.357  23.214  1.00  0.00     0.227 C 
ATOM     25  O   UNL A   1      31.400  22.261  22.681  1.00  0.00    -0.275 OA
ATOM     26  N   UNL A   1      31.142  23.607  24.478  1.00  0.00    -0.338 N 
ATOM     27  C   UNL A   1      30.550  24.832  25.016  1.00  0.00     0.148 C 
ATOM     28  C   UNL A   1      31.083  22.504  25.430  1.00  0.00     0.148 C 
ATOM     29  C   UNL A   1      31.236  25.210  26.338  1.00  0.00     0.181 C 
ATOM     30  C   UNL A   1      31.789  22.940  26.720  1.00  0.00     0.181 C 
ATOM     31  O   UNL A   1      31.164  24.113  27.270  1.00  0.00    -0.378 OA
ENDBRANCH  12  24
ENDBRANCH   5   8
ENDBRANCH   3   4
ENDBRANCH   2   3
ENDBRANCH   1   2
BRANCH   1  32
ATOM     32  C   UNL A   1      34.642  28.921  26.949  1.00  0.00     0.116 C 
BRANCH  32  33
ATOM     33  N   UNL A   1      34.815  30.350  27.190  1.00  0.00    -0.352 N 
ATOM     34  C   UNL A   1      35.792  30.941  27.948  1.00  0.00     0.251 C 
ATOM     35  H   UNL A   1      34.162  30.952  26.766  1.00  0.00     0.163 HD
ATOM     36  O   UNL A   1      35.733  32.135  28.233  1.00  0.00    -0.269 OA
BRANCH  34  37
ATOM     37  C   UNL A   1      36.948  30.107  28.247  1.00  0.00     0.039 A 
ATOM     38  C   UNL A   1      37.065  29.337  29.403  1.00  0.00     0.014 A 
ATOM     39  C   UNL A   1      37.911  30.091  27.240  1.00  0.00     0.014 A 
ATOM     40  C   UNL A   1      38.223  28.590  29.581  1.00  0.00     0.010 A 
ATOM     41  C   UNL A   1      38.926  29.197  27.319  1.00  0.00     0.010 A 
ATOM     42  C   UNL A   1      39.154  28.566  28.543  1.00  0.00    -0.014 A 
BRANCH  42  43
ATOM     43  C   UNL A   1      40.487  28.010  28.627  1.00  0.00     0.031 A 
ATOM     44  C   UNL A   1      40.678  26.567  28.466  1.00  0.00     0.074 A 
ATOM     45  C   UNL A   1      41.476  28.939  28.655  1.00  0.00     0.049 A 
ATOM     46  N   UNL A   1      41.686  25.917  28.920  1.00  0.00    -0.248 NA
ATOM     47  C   UNL A   1      39.701  25.714  27.786  1.00  0.00     0.031 C 
ATOM     48  C   UNL A   1      42.890  28.812  28.368  1.00  0.00     0.029 A 
ATOM     49  N   UNL A   1      41.356  30.289  29.033  1.00  0.00    -0.354 N 
ATOM     50  C   UNL A   1      41.693  24.706  28.259  1.00  0.00     0.074 A 
ATOM     51  C   UNL A   1      40.356  24.548  27.741  1.00  0.00     0.031 C 
ATOM     52  C   UNL A   1      43.529  29.882  28.886  1.00  0.00     0.029 A 
ATOM     53  C   UNL A   1      42.549  30.627  29.667  1.00  0.00     0.049 A 
ATOM     54  H   UNL A   1      40.583  30.879  28.880  1.00  0.00     0.167 HD
ATOM     55  C   UNL A   1      42.898  24.115  28.007  1.00  0.00     0.034 A 
ATOM     56  C   UNL A   1      42.599  30.851  31.019  1.00  0.00     0.034 A 
ATOM     57  C   UNL A   1      43.973  24.922  28.605  1.00  0.00     0.049 A 
ATOM     58  C   UNL A   1      43.475  29.815  31.684  1.00  0.00     0.074 A 
ATOM     59  C   UNL A   1      44.822  25.866  28.053  1.00  0.00     0.029 A 
ATOM     60  N   UNL A   1      44.019  25.111  29.984  1.00  0.00    -0.354 N 
ATOM     61  N   UNL A   1      43.653  28.613  31.208  1.00  0.00    -0.248 NA
ATOM     62  C   UNL A   1      44.254  30.058  32.894  1.00  0.00     0.031 C 
ATOM     63  C   UNL A   1      45.312  26.683  29.107  1.00  0.00     0.029 A 
ATOM     64  C   UNL A   1      44.772  26.231  30.301  1.00  0.00     0.049 A 
ATOM     65  H   UNL A   1      43.577  24.529  30.643  1.00  0.00     0.167 HD
ATOM     66  C   UNL A   1      44.557  27.938  31.977  1.00  0.00     0.074 A 
ATOM     67  C   UNL A   1      44.906  28.889  33.020  1.00  0.00     0.031 C 
ATOM     68  C   UNL A   1      44.951  26.661  31.689  1.00  0.00     0.034 A 
BRANCH  55  69
ATOM     69  C   UNL A   1      43.136  23.047  26.948  1.00  0.00     0.023 A 
ATOM     70  C   UNL A   1      42.806  21.680  27.090  1.00  0.00     0.031 A 
ATOM     71  C   UNL A   1      43.681  23.398  25.692  1.00  0.00     0.131 A 
ATOM     72  C   UNL A   1      42.946  20.765  26.025  1.00  0.00     0.055 A 
ATOM     73  C   UNL A   1      43.844  22.485  24.642  1.00  0.00     0.041 A 
ATOM     74  F   UNL A   1      44.053  24.655  25.412  1.00  0.00    -0.206 F 
ATOM     75  C   UNL A   1      43.464  21.162  24.798  1.00  0.00     0.022 A 
BRANCH  72  76
ATOM     76  S   UNL A   1      42.408  19.034  26.187  1.00  0.00     0.124 S 
ATOM     77  O   UNL A   1      41.038  19.083  25.680  1.00  0.00    -0.237 OA
ATOM     78  O   UNL A   1      43.361  18.329  25.333  1.00  0.00    -0.237 OA
ATOM     79  O   UNL A   1      42.525  18.762  27.616  1.00  0.00    -0.744 OA
ENDBRANCH  72  76
ENDBRANCH  55  69
BRANCH  56  80
ATOM     80  C   UNL A   1      41.315  31.386  31.586  1.00  0.00     0.023 A 
ATOM     81  C   UNL A   1      40.445  30.576  32.337  1.00  0.00     0.031 A 
ATOM     82  C   UNL A   1      40.780  32.554  30.995  1.00  0.00     0.131 A 
ATOM     83  C   UNL A   1      39.064  30.866  32.350  1.00  0.00     0.055 A 
ATOM     84  C   UNL A   1      39.405  32.799  30.960  1.00  0.00     0.041 A 
ATOM     85  F   UNL A   1      41.579  33.390  30.310  1.00  0.00    -0.206 F 
ATOM     86  C   UNL A   1      38.536  31.926  31.603  1.00  0.00     0.022 A 
BRANCH  83  87
ATOM     87  S   UNL A   1      37.917  29.791  33.267  1.00  0.00     0.124 S 
ATOM     88  O   UNL A   1      38.066  30.303  34.624  1.00  0.00    -0.237 OA
ATOM     89  O   UNL A   1      36.623  30.061  32.644  1.00  0.00    -0.237 OA
ATOM     90  O   UNL A   1      38.448  28.456  33.021  1.00  0.00    -0.744 OA
ENDBRANCH  83  87
ENDBRANCH  56  80
BRANCH  68  91
ATOM     91  C   UNL A   1      45.647  25.722  32.648  1.00  0.00     0.023 A 
ATOM     92  C   UNL A   1      44.855  24.926  33.511  1.00  0.00     0.031 A 
ATOM     93  C   UNL A   1      47.033  25.680  32.876  1.00  0.00     0.131 A 
ATOM     94  C   UNL A   1      45.428  24.160  34.531  1.00  0.00     0.055 A 
ATOM     95  C   UNL A   1      47.611  24.834  33.827  1.00  0.00     0.041 A 
ATOM     96  F   UNL A   1      47.884  26.500  32.245  1.00  0.00    -0.206 F 
ATOM     97  C   UNL A   1      46.809  24.079  34.669  1.00  0.00     0.022 A 
BRANCH  94  98
ATOM     98  S   UNL A   1      44.392  23.386  35.803  1.00  0.00     0.124 S 
ATOM     99  O   UNL A   1      44.288  24.455  36.792  1.00  0.00    -0.237 OA
ATOM    100  O   UNL A   1      43.165  23.096  35.062  1.00  0.00    -0.237 OA
ATOM    101  O   UNL A   1      45.157  22.215  36.211  1.00  0.00    -0.744 OA
ENDBRANCH  94  98
ENDBRANCH  68  91
ENDBRANCH  42  43
ENDBRANCH  34  37
ENDBRANCH  32  33
ENDBRANCH   1  32
TORSDOF 17
ENDMDL
MODEL 3
REMARK VINA RESULT:     -12.9      1.900      2.597
REMARK SMILES Cc1ccc(C(=O)N2C[C@@H](C(=O)NCCCCNC(=O)c3ccc(-c4c5nc(c(-c6cc(S(=O)(=O)[O-])ccc6F)c6ccc([nH]6)c(-c6cc(S(=O)(=O)[O-])ccc6F)c6nc(c(-c7cc(S(=O)(=O)[O-])ccc7F)c7ccc4[nH]7)C=C6)C=C5)cc3)C[C@H](C(=O)N3CCOCC3)C2)cc1F
REMARK SMILES IDX 16 1 15 2 14 3 13 4 11 5 12 6 10 8 8 9 9 10 94 11 85 12
REMARK SMILES IDX 84 13 6 14 7 15 5 16 1 17 2 18 3 19 96 20 4 21 95 22 97 23
REMARK SMILES IDX 86 24 87 25 88 26 89 27 93 28 90 29 92 30 91 31 17 32 18 33
REMARK SMILES IDX 19 34 20 36 21 37 22 38 83 39 23 40 82 41 24 42 25 43 26 44
REMARK SMILES IDX 76 45 27 46 81 47 75 48 77 49 28 50 80 51 74 52 73 53 29 55
REMARK SMILES IDX 61 56 41 57 60 58 42 59 45 60 59 61 78 62 43 63 44 64 58 66
REMARK SMILES IDX 79 67 46 68 30 69 31 70 39 71 32 72 38 73 40 74 37 75 33 76
REMARK SMILES IDX 34 77 35 78 36 79 62 80 63 81 71 82 64 83 70 84 72 85 69 86
REMARK SMILES IDX 65 87 66 88 67 89 68 90 47 91 48 92 56 93 49 94 55 95 57 96
REMARK SMILES IDX 54 97 50 98 51 99 52 100 53 101
REMARK H PARENT 13 7 18 35 77 54 45 65
REMARK Flexibility Score: inf
ROOT
ATOM      1  C   UNL A   1      33.148  28.830  26.838  1.00  0.00     0.023 C 
ENDROOT
BRANCH   1   2
ATOM      2  C   UNL A   1      32.672  28.833  25.383  1.00  0.00     0.023 C 
BRANCH   2   3
ATOM      3  C   UNL A   1      31.160  28.680  25.223  1.00  0.00     0.116 C 
BRANCH   3   4
ATOM      4  N   UNL A   1      30.830  28.389  23.843  1.00  0.00    -0.356 N 
ATOM      5  C   UNL A   1      31.073  27.268  23.122  1.00  0.00     0.224 C 
ATOM      6  O   UNL A   1      30.979  27.314  21.895  1.00  0.00    -0.275 OA
ATOM      7  H   UNL A   1      30.361  29.109  23.361  1.00  0.00     0.163 HD
BRANCH   5   8
ATOM      8  C   UNL A   1      31.434  25.972  23.814  1.00  0.00     0.099 C 
ATOM      9  N   UNL A   1      31.659  23.524  23.406  1.00  0.00    -0.337 N 
ATOM     10  C   UNL A   1      31.541  24.842  22.804  1.00  0.00     0.133 C 
ATOM     11  C   UNL A   1      30.735  23.196  24.489  1.00  0.00     0.133 C 
ATOM     12  C   UNL A   1      30.703  24.261  25.601  1.00  0.00     0.099 C 
ATOM     13  C   UNL A   1      30.613  25.688  25.075  1.00  0.00     0.030 C 
BRANCH   9  14
ATOM     14  C   UNL A   1      32.491  22.624  22.749  1.00  0.00     0.254 C 
ATOM     15  O   UNL A   1      33.290  22.974  21.881  1.00  0.00    -0.269 OA
BRANCH  14  16
ATOM     16  C   UNL A   1      32.376  21.170  22.989  1.00  0.00     0.042 A 
ATOM     17  C   UNL A   1      33.195  16.965  23.300  1.00  0.00     0.047 C 
ATOM     18  C   UNL A   1      32.812  18.411  23.215  1.00  0.00    -0.015 A 
ATOM     19  C   UNL A   1      32.197  18.934  22.070  1.00  0.00     0.007 A 
ATOM     20  C   UNL A   1      33.151  19.280  24.257  1.00  0.00     0.126 A 
ATOM     21  C   UNL A   1      31.982  20.311  21.953  1.00  0.00     0.014 A 
ATOM     22  C   UNL A   1      32.945  20.649  24.152  1.00  0.00     0.053 A 
ATOM     23  F   UNL A   1      33.746  18.798  25.358  1.00  0.00    -0.207 F 
ENDBRANCH  14  16
ENDBRANCH   9  14
BRANCH  12  24
ATOM     24  C   UNL A   1      31.724  23.912  26.690  1.00  0.00     0.227 C 
ATOM     25  O   UNL A   1      31.330  23.240  27.652  1.00  0.00    -0.275 OA
ATOM     26  N   UNL A   1      33.068  24.093  26.488  1.00  0.00    -0.338 N 
ATOM     27  C   UNL A   1      33.782  25.297  26.058  1.00  0.00     0.148 C 
ATOM     28  C   UNL A   1      33.980  23.014  26.851  1.00  0.00     0.148 C 
ATOM     29  C   UNL A   1      34.726  24.959  24.893  1.00  0.00     0.181 C 
ATOM     30  C   UNL A   1      34.885  22.721  25.648  1.00  0.00     0.181 C 
ATOM     31  O   UNL A   1      35.623  23.896  25.269  1.00  0.00    -0.378 OA
ENDBRANCH  12  24
ENDBRANCH   5   8
ENDBRANCH   3   4
ENDBRANCH   2   3
ENDBRANCH   1   2
BRANCH   1  32
ATOM     32  C   UNL A   1      34.628  29.113  26.954  1.00  0.00     0.116 C 
BRANCH  32  33
ATOM     33  N   UNL A   1      34.861  30.529  27.219  1.00  0.00    -0.352 N 
ATOM     34  C   UNL A   1      35.857  31.065  27.992  1.00  0.00     0.251 C 
ATOM     35  H   UNL A   1      34.237  31.165  26.799  1.00  0.00     0.163 HD
ATOM     36  O   UNL A   1      35.847  32.257  28.296  1.00  0.00    -0.269 OA
BRANCH  34  37
ATOM     37  C   UNL A   1      36.974  30.178  28.286  1.00  0.00     0.039 A 
ATOM     38  C   UNL A   1      37.078  29.433  29.460  1.00  0.00     0.014 A 
ATOM     39  C   UNL A   1      37.908  30.083  27.257  1.00  0.00     0.014 A 
ATOM     40  C   UNL A   1      38.198  28.629  29.630  1.00  0.00     0.010 A 
ATOM     41  C   UNL A   1      38.875  29.138  27.337  1.00  0.00     0.010 A 
ATOM     42  C   UNL A   1      39.100  28.527  28.572  1.00  0.00    -0.014 A 
BRANCH  42  43
ATOM     43  C   UNL A   1      40.403  27.902  28.639  1.00  0.00     0.031 A 
ATOM     44  C   UNL A   1      40.504  26.442  28.601  1.00  0.00     0.074 A 
ATOM     45  C   UNL A   1      41.442  28.769  28.532  1.00  0.00     0.049 A 
ATOM     46  N   UNL A   1      41.498  25.775  29.062  1.00  0.00    -0.248 NA
ATOM     47  C   UNL A   1      39.445  25.592  28.052  1.00  0.00     0.031 C 
ATOM     48  C   UNL A   1      42.828  28.532  28.187  1.00  0.00     0.029 A 
ATOM     49  N   UNL A   1      41.418  30.152  28.791  1.00  0.00    -0.354 N 
ATOM     50  C   UNL A   1      41.402  24.512  28.515  1.00  0.00     0.074 A 
ATOM     51  C   UNL A   1      40.031  24.390  28.081  1.00  0.00     0.031 C 
ATOM     52  C   UNL A   1      43.554  29.603  28.572  1.00  0.00     0.029 A 
ATOM     53  C   UNL A   1      42.661  30.472  29.331  1.00  0.00     0.049 A 
ATOM     54  H   UNL A   1      40.671  30.771  28.623  1.00  0.00     0.167 HD
ATOM     55  C   UNL A   1      42.557  23.830  28.257  1.00  0.00     0.034 A 
ATOM     56  C   UNL A   1      42.798  30.812  30.651  1.00  0.00     0.034 A 
ATOM     57  C   UNL A   1      43.706  24.620  28.724  1.00  0.00     0.049 A 
ATOM     58  C   UNL A   1      43.651  29.787  31.364  1.00  0.00     0.074 A 
ATOM     59  C   UNL A   1      44.574  25.459  28.046  1.00  0.00     0.029 A 
ATOM     60  N   UNL A   1      43.839  24.927  30.076  1.00  0.00    -0.354 N 
ATOM     61  N   UNL A   1      43.735  28.540  30.991  1.00  0.00    -0.248 NA
ATOM     62  C   UNL A   1      44.508  30.090  32.505  1.00  0.00     0.031 C 
ATOM     63  C   UNL A   1      45.166  26.335  28.995  1.00  0.00     0.029 A 
ATOM     64  C   UNL A   1      44.669  26.024  30.250  1.00  0.00     0.049 A 
ATOM     65  H   UNL A   1      43.403  24.433  30.807  1.00  0.00     0.167 HD
ATOM     66  C   UNL A   1      44.643  27.883  31.773  1.00  0.00     0.074 A 
ATOM     67  C   UNL A   1      45.101  28.899  32.705  1.00  0.00     0.031 C 
ATOM     68  C   UNL A   1      44.949  26.563  31.583  1.00  0.00     0.034 A 
BRANCH  55  69
ATOM     69  C   UNL A   1      42.676  22.660  27.290  1.00  0.00     0.023 A 
ATOM     70  C   UNL A   1      43.607  22.579  26.230  1.00  0.00     0.031 A 
ATOM     71  C   UNL A   1      41.854  21.521  27.446  1.00  0.00     0.131 A 
ATOM     72  C   UNL A   1      43.743  21.414  25.444  1.00  0.00     0.055 A 
ATOM     73  C   UNL A   1      41.970  20.373  26.649  1.00  0.00     0.041 A 
ATOM     74  F   UNL A   1      40.916  21.454  28.400  1.00  0.00    -0.206 F 
ATOM     75  C   UNL A   1      42.927  20.308  25.650  1.00  0.00     0.022 A 
BRANCH  72  76
ATOM     76  S   UNL A   1      45.024  21.283  24.159  1.00  0.00     0.124 S 
ATOM     77  O   UNL A   1      44.739  19.978  23.565  1.00  0.00    -0.237 OA
ATOM     78  O   UNL A   1      44.729  22.431  23.305  1.00  0.00    -0.237 OA
ATOM     79  O   UNL A   1      46.277  21.359  24.903  1.00  0.00    -0.744 OA
ENDBRANCH  72  76
ENDBRANCH  55  69
BRANCH  56  80
ATOM     80  C   UNL A   1      41.579  31.470  31.231  1.00  0.00     0.023 A 
ATOM     81  C   UNL A   1      40.726  30.794  32.121  1.00  0.00     0.031 A 
ATOM     82  C   UNL A   1      41.058  32.592  30.545  1.00  0.00     0.131 A 
ATOM     83  C   UNL A   1      39.363  31.154  32.184  1.00  0.00     0.055 A 
ATOM     84  C   UNL A   1      39.696  32.901  30.566  1.00  0.00     0.041 A 
ATOM     85  F   UNL A   1      41.846  33.306  29.722  1.00  0.00    -0.206 F 
ATOM     86  C   UNL A   1      38.834  32.150  31.355  1.00  0.00     0.022 A 
BRANCH  83  87
ATOM     87  S   UNL A   1      38.233  30.247  33.285  1.00  0.00     0.124 S 
ATOM     88  O   UNL A   1      38.718  28.880  33.134  1.00  0.00    -0.237 OA
ATOM     89  O   UNL A   1      38.476  30.846  34.596  1.00  0.00    -0.237 OA
ATOM     90  O   UNL A   1      36.921  30.531  32.717  1.00  0.00    -0.744 OA
ENDBRANCH  83  87
ENDBRANCH  56  80
BRANCH  68  91
ATOM     91  C   UNL A   1      45.644  25.672  32.587  1.00  0.00     0.023 A 
ATOM     92  C   UNL A   1      44.858  24.785  33.363  1.00  0.00     0.031 A 
ATOM     93  C   UNL A   1      47.001  25.758  32.940  1.00  0.00     0.131 A 
ATOM     94  C   UNL A   1      45.410  24.054  34.420  1.00  0.00     0.055 A 
ATOM     95  C   UNL A   1      47.571  24.948  33.928  1.00  0.00     0.041 A 
ATOM     96  F   UNL A   1      47.822  26.669  32.402  1.00  0.00    -0.206 F 
ATOM     97  C   UNL A   1      46.774  24.101  34.682  1.00  0.00     0.022 A 
BRANCH  94  98
ATOM     98  S   UNL A   1      44.344  23.155  35.580  1.00  0.00     0.124 S 
ATOM     99  O   UNL A   1      44.840  21.789  35.440  1.00  0.00    -0.237 OA
ATOM    100  O   UNL A   1      44.658  23.807  36.851  1.00  0.00    -0.237 OA
ATOM    101  O   UNL A   1      42.998  23.397  35.078  1.00  0.00    -0.744 OA
ENDBRANCH  94  98
ENDBRANCH  68  91
ENDBRANCH  42  43
ENDBRANCH  34  37
ENDBRANCH  32  33
ENDBRANCH   1  32
TORSDOF 17
ENDMDL
