MODEL 1
REMARK VINA RESULT:     -12.4      0.000      0.000
REMARK SMILES O=C(NCCCCNC(=O)[C@H](Cc1cccc(O)c1)Cc1cccc(F)c1)c1ccc(-c2c3nc(c(-c4cc(S(=O)(=O)[O-])ccc4F)c4ccc([nH]4)c(-c4cc(S(=O)(=O)[O-])ccc4F)c4nc(c(-c5cc(S(=O)(=O)[O-])ccc5F)c5ccc2[nH]5)C=C4)C=C3)cc1
REMARK SMILES IDX 5 1 4 2 3 3 1 4 2 5 28 7 29 8 90 9 30 10 89 11 31 12 32 13
REMARK SMILES IDX 33 14 83 15 34 16 88 17 82 18 84 19 35 20 87 21 81 22 80 23
REMARK SMILES IDX 36 25 68 26 48 27 67 28 49 29 52 30 66 31 85 32 50 33 51 34
REMARK SMILES IDX 65 36 86 37 53 38 37 39 38 40 46 41 39 42 45 43 47 44 44 45
REMARK SMILES IDX 40 46 41 47 42 48 43 49 69 50 70 51 78 52 71 53 77 54 79 55
REMARK SMILES IDX 76 56 72 57 73 58 74 59 75 60 54 61 55 62 63 63 56 64 62 65
REMARK SMILES IDX 64 66 61 67 57 68 58 69 59 70 60 71 6 72 7 73 8 74 9 75
REMARK SMILES IDX 10 77 11 78 20 79 21 80 22 81 27 82 23 83 25 84 24 85 26 86
REMARK SMILES IDX 12 87 13 88 14 89 19 90 15 91 17 92 16 93 18 94
REMARK H PARENT 3 6 84 24 52 35 8 76 18 95
REMARK Flexibility Score: inf
ROOT
ATOM      1  C   UNL A   1      31.775  29.100  25.916  1.00  0.00     0.023 C 
ENDROOT
BRANCH   1   2
ATOM      2  C   UNL A   1      32.852  30.172  25.878  1.00  0.00     0.116 C 
BRANCH   2   3
ATOM      3  N   UNL A   1      32.494  31.412  26.560  1.00  0.00    -0.352 N 
ATOM      4  O   UNL A   1      32.799  33.132  28.005  1.00  0.00    -0.269 OA
ATOM      5  C   UNL A   1      33.251  32.131  27.460  1.00  0.00     0.251 C 
ATOM      6  H   UNL A   1      31.604  31.779  26.353  1.00  0.00     0.163 HD
BRANCH   5   7
ATOM      7  C   UNL A   1      34.600  31.629  27.796  1.00  0.00     0.039 A 
ATOM      8  C   UNL A   1      34.777  30.282  28.112  1.00  0.00     0.014 A 
ATOM      9  C   UNL A   1      35.653  32.536  27.933  1.00  0.00     0.014 A 
ATOM     10  C   UNL A   1      35.937  29.886  28.763  1.00  0.00     0.010 A 
ATOM     11  C   UNL A   1      36.858  32.110  28.497  1.00  0.00     0.010 A 
ATOM     12  C   UNL A   1      36.986  30.797  28.978  1.00  0.00    -0.014 A 
BRANCH  12  13
ATOM     13  C   UNL A   1      38.182  30.346  29.737  1.00  0.00     0.031 A 
ATOM     14  C   UNL A   1      38.362  30.718  31.187  1.00  0.00     0.074 A 
ATOM     15  C   UNL A   1      39.056  29.514  29.139  1.00  0.00     0.049 A 
ATOM     16  N   UNL A   1      39.330  30.390  32.005  1.00  0.00    -0.248 NA
ATOM     17  C   UNL A   1      37.330  31.571  31.799  1.00  0.00     0.031 C 
ATOM     18  C   UNL A   1      38.970  29.065  27.746  1.00  0.00     0.029 A 
ATOM     19  N   UNL A   1      40.153  28.857  29.630  1.00  0.00    -0.354 N 
ATOM     20  C   UNL A   1      39.045  31.021  33.211  1.00  0.00     0.074 A 
ATOM     21  C   UNL A   1      37.817  31.762  33.018  1.00  0.00     0.031 C 
ATOM     22  C   UNL A   1      39.918  28.144  27.522  1.00  0.00     0.029 A 
ATOM     23  C   UNL A   1      40.727  27.995  28.725  1.00  0.00     0.049 A 
ATOM     24  H   UNL A   1      40.498  28.990  30.543  1.00  0.00     0.167 HD
ATOM     25  C   UNL A   1      39.743  30.982  34.373  1.00  0.00     0.034 A 
ATOM     26  C   UNL A   1      41.794  27.182  28.843  1.00  0.00     0.034 A 
ATOM     27  C   UNL A   1      40.940  30.204  34.568  1.00  0.00     0.049 A 
ATOM     28  C   UNL A   1      42.559  27.171  30.134  1.00  0.00     0.074 A 
ATOM     29  C   UNL A   1      41.706  30.077  35.714  1.00  0.00     0.029 A 
ATOM     30  N   UNL A   1      41.541  29.415  33.599  1.00  0.00    -0.354 N 
ATOM     31  N   UNL A   1      42.306  27.826  31.242  1.00  0.00    -0.248 NA
ATOM     32  C   UNL A   1      43.767  26.338  30.181  1.00  0.00     0.031 C 
ATOM     33  C   UNL A   1      42.794  29.246  35.425  1.00  0.00     0.029 A 
ATOM     34  C   UNL A   1      42.680  28.817  34.113  1.00  0.00     0.049 A 
ATOM     35  H   UNL A   1      41.207  29.297  32.680  1.00  0.00     0.167 HD
ATOM     36  C   UNL A   1      43.332  27.493  32.117  1.00  0.00     0.074 A 
ATOM     37  C   UNL A   1      44.196  26.563  31.417  1.00  0.00     0.031 C 
ATOM     38  C   UNL A   1      43.544  27.923  33.385  1.00  0.00     0.034 A 
BRANCH  25  39
ATOM     39  C   UNL A   1      39.258  31.838  35.512  1.00  0.00     0.023 A 
ATOM     40  C   UNL A   1      38.523  31.303  36.583  1.00  0.00     0.031 A 
ATOM     41  C   UNL A   1      39.567  33.210  35.538  1.00  0.00     0.131 A 
ATOM     42  C   UNL A   1      38.090  32.145  37.619  1.00  0.00     0.055 A 
ATOM     43  C   UNL A   1      39.180  34.031  36.598  1.00  0.00     0.041 A 
ATOM     44  F   UNL A   1      40.254  33.773  34.531  1.00  0.00    -0.206 F 
ATOM     45  C   UNL A   1      38.432  33.500  37.645  1.00  0.00     0.022 A 
BRANCH  42  46
ATOM     46  S   UNL A   1      37.020  31.460  38.912  1.00  0.00     0.124 S 
ATOM     47  O   UNL A   1      36.803  30.101  38.423  1.00  0.00    -0.237 OA
ATOM     48  O   UNL A   1      37.846  31.584  40.108  1.00  0.00    -0.237 OA
ATOM     49  O   UNL A   1      35.843  32.326  38.878  1.00  0.00    -0.744 OA
ENDBRANCH  42  46
ENDBRANCH  25  39
BRANCH  26  50
ATOM     50  C   UNL A   1      42.222  26.358  27.682  1.00  0.00     0.023 A 
ATOM     51  C   UNL A   1      41.858  25.008  27.580  1.00  0.00     0.031 A 
ATOM     52  C   UNL A   1      42.980  26.925  26.643  1.00  0.00     0.131 A 
ATOM     53  C   UNL A   1      42.261  24.263  26.461  1.00  0.00     0.055 A 
ATOM     54  C   UNL A   1      43.348  26.192  25.516  1.00  0.00     0.041 A 
ATOM     55  F   UNL A   1      43.340  28.218  26.695  1.00  0.00    -0.206 F 
ATOM     56  C   UNL A   1      42.991  24.850  25.423  1.00  0.00     0.022 A 
BRANCH  53  57
ATOM     57  S   UNL A   1      41.822  22.506  26.377  1.00  0.00     0.124 S 
ATOM     58  O   UNL A   1      42.602  22.061  25.227  1.00  0.00    -0.237 OA
ATOM     59  O   UNL A   1      42.263  22.017  27.679  1.00  0.00    -0.237 OA
ATOM     60  O   UNL A   1      40.374  22.526  26.181  1.00  0.00    -0.744 OA
ENDBRANCH  53  57
ENDBRANCH  26  50
BRANCH  38  61
ATOM     61  C   UNL A   1      44.762  27.397  34.086  1.00  0.00     0.023 A 
ATOM     62  C   UNL A   1      44.709  26.208  34.833  1.00  0.00     0.031 A 
ATOM     63  C   UNL A   1      45.988  28.074  33.987  1.00  0.00     0.131 A 
ATOM     64  C   UNL A   1      45.863  25.743  35.479  1.00  0.00     0.055 A 
ATOM     65  C   UNL A   1      47.142  27.588  34.602  1.00  0.00     0.041 A 
ATOM     66  F   UNL A   1      46.083  29.213  33.282  1.00  0.00    -0.206 F 
ATOM     67  C   UNL A   1      47.081  26.418  35.355  1.00  0.00     0.022 A 
BRANCH  64  68
ATOM     68  S   UNL A   1      45.754  24.246  36.494  1.00  0.00     0.124 S 
ATOM     69  O   UNL A   1      44.503  24.462  37.214  1.00  0.00    -0.237 OA
ATOM     70  O   UNL A   1      45.738  23.181  35.496  1.00  0.00    -0.237 OA
ATOM     71  O   UNL A   1      46.962  24.302  37.317  1.00  0.00    -0.744 OA
ENDBRANCH  64  68
ENDBRANCH  38  61
ENDBRANCH  12  13
ENDBRANCH   5   7
ENDBRANCH   2   3
ENDBRANCH   1   2
BRANCH   1  72
ATOM     72  C   UNL A   1      31.983  28.026  26.976  1.00  0.00     0.023 C 
BRANCH  72  73
ATOM     73  C   UNL A   1      32.297  26.630  26.450  1.00  0.00     0.116 C 
BRANCH  73  74
ATOM     74  N   UNL A   1      31.177  25.738  26.661  1.00  0.00    -0.356 N 
ATOM     75  C   UNL A   1      30.159  25.395  25.825  1.00  0.00     0.223 C 
ATOM     76  H   UNL A   1      31.146  25.313  27.548  1.00  0.00     0.163 HD
ATOM     77  O   UNL A   1      29.267  24.686  26.296  1.00  0.00    -0.275 OA
BRANCH  75  78
ATOM     78  C   UNL A   1      30.130  25.861  24.359  1.00  0.00     0.087 C 
BRANCH  78  79
ATOM     79  C   UNL A   1      30.383  24.591  23.499  1.00  0.00     0.049 C 
BRANCH  79  80
ATOM     80  C   UNL A   1      31.783  24.024  23.547  1.00  0.00    -0.044 A 
ATOM     81  C   UNL A   1      32.860  24.802  23.086  1.00  0.00     0.004 A 
ATOM     82  C   UNL A   1      32.038  22.738  24.034  1.00  0.00     0.043 A 
ATOM     83  C   UNL A   1      34.167  24.314  23.128  1.00  0.00     0.003 A 
ATOM     84  C   UNL A   1      33.346  22.261  24.070  1.00  0.00     0.123 A 
ATOM     85  C   UNL A   1      34.411  23.037  23.624  1.00  0.00     0.039 A 
ATOM     86  F   UNL A   1      33.584  21.029  24.542  1.00  0.00    -0.207 F 
ENDBRANCH  79  80
ENDBRANCH  78  79
BRANCH  78  87
ATOM     87  C   UNL A   1      28.762  26.503  24.011  1.00  0.00     0.049 C 
BRANCH  87  88
ATOM     88  C   UNL A   1      28.754  27.846  23.302  1.00  0.00    -0.044 A 
ATOM     89  C   UNL A   1      27.603  28.628  23.134  1.00  0.00     0.004 A 
ATOM     90  C   UNL A   1      29.975  28.356  22.822  1.00  0.00     0.049 A 
ATOM     91  C   UNL A   1      27.653  29.828  22.412  1.00  0.00     0.004 A 
ATOM     92  C   UNL A   1      30.016  29.550  22.109  1.00  0.00     0.115 A 
ATOM     93  C   UNL A   1      28.860  30.285  21.885  1.00  0.00     0.046 A 
BRANCH  92  94
ATOM     94  O   UNL A   1      31.224  29.957  21.626  1.00  0.00    -0.508 OA
ATOM     95  H   UNL A   1      31.937  29.351  21.576  1.00  0.00     0.293 HD
ENDBRANCH  92  94
ENDBRANCH  87  88
ENDBRANCH  78  87
ENDBRANCH  75  78
ENDBRANCH  73  74
ENDBRANCH  72  73
ENDBRANCH   1  72
TORSDOF 19
ENDMDL
MODEL 2
REMARK VINA RESULT:     -12.3      5.107     10.127
REMARK SMILES O=C(NCCCCNC(=O)[C@H](Cc1cccc(O)c1)Cc1cccc(F)c1)c1ccc(-c2c3nc(c(-c4cc(S(=O)(=O)[O-])ccc4F)c4ccc([nH]4)c(-c4cc(S(=O)(=O)[O-])ccc4F)c4nc(c(-c5cc(S(=O)(=O)[O-])ccc5F)c5ccc2[nH]5)C=C4)C=C3)cc1
REMARK SMILES IDX 5 1 4 2 3 3 1 4 2 5 28 7 29 8 90 9 30 10 89 11 31 12 32 13
REMARK SMILES IDX 33 14 83 15 34 16 88 17 82 18 84 19 35 20 87 21 81 22 80 23
REMARK SMILES IDX 36 25 68 26 48 27 67 28 49 29 52 30 66 31 85 32 50 33 51 34
REMARK SMILES IDX 65 36 86 37 53 38 37 39 38 40 46 41 39 42 45 43 47 44 44 45
REMARK SMILES IDX 40 46 41 47 42 48 43 49 69 50 70 51 78 52 71 53 77 54 79 55
REMARK SMILES IDX 76 56 72 57 73 58 74 59 75 60 54 61 55 62 63 63 56 64 62 65
REMARK SMILES IDX 64 66 61 67 57 68 58 69 59 70 60 71 6 72 7 73 8 74 9 75
REMARK SMILES IDX 10 77 11 78 20 79 21 80 22 81 27 82 23 83 25 84 24 85 26 86
REMARK SMILES IDX 12 87 13 88 14 89 19 90 15 91 17 92 16 93 18 94
REMARK H PARENT 3 6 84 24 52 35 8 76 18 95
REMARK Flexibility Score: inf
ROOT
ATOM      1  C   UNL A   1      35.388  21.828  24.534  1.00  0.00     0.023 C 
ENDROOT
BRANCH   1   2
ATOM      2  C   UNL A   1      36.597  22.094  25.415  1.00  0.00     0.116 C 
BRANCH   2   3
ATOM      3  N   UNL A   1      37.635  21.069  25.342  1.00  0.00    -0.352 N 
ATOM      4  O   UNL A   1      39.712  20.214  25.646  1.00  0.00    -0.269 OA
ATOM      5  C   UNL A   1      38.922  21.133  25.830  1.00  0.00     0.251 C 
ATOM      6  H   UNL A   1      37.385  20.231  24.889  1.00  0.00     0.163 HD
BRANCH   5   7
ATOM      7  C   UNL A   1      39.344  22.366  26.529  1.00  0.00     0.039 A 
ATOM      8  C   UNL A   1      38.814  23.596  26.141  1.00  0.00     0.014 A 
ATOM      9  C   UNL A   1      40.373  22.299  27.471  1.00  0.00     0.014 A 
ATOM     10  C   UNL A   1      39.455  24.763  26.533  1.00  0.00     0.010 A 
ATOM     11  C   UNL A   1      40.949  23.482  27.942  1.00  0.00     0.010 A 
ATOM     12  C   UNL A   1      40.539  24.721  27.426  1.00  0.00    -0.014 A 
BRANCH  12  13
ATOM     13  C   UNL A   1      41.236  25.989  27.766  1.00  0.00     0.031 A 
ATOM     14  C   UNL A   1      42.582  26.315  27.170  1.00  0.00     0.074 A 
ATOM     15  C   UNL A   1      40.601  26.892  28.539  1.00  0.00     0.049 A 
ATOM     16  N   UNL A   1      43.317  27.386  27.339  1.00  0.00    -0.248 NA
ATOM     17  C   UNL A   1      43.185  25.314  26.276  1.00  0.00     0.031 C 
ATOM     18  C   UNL A   1      39.284  26.695  29.152  1.00  0.00     0.029 A 
ATOM     19  N   UNL A   1      40.947  28.168  28.901  1.00  0.00    -0.354 N 
ATOM     20  C   UNL A   1      44.479  27.174  26.605  1.00  0.00     0.074 A 
ATOM     21  C   UNL A   1      44.358  25.867  25.995  1.00  0.00     0.031 C 
ATOM     22  C   UNL A   1      38.898  27.838  29.738  1.00  0.00     0.029 A 
ATOM     23  C   UNL A   1      39.968  28.819  29.614  1.00  0.00     0.049 A 
ATOM     24  H   UNL A   1      41.812  28.578  28.672  1.00  0.00     0.167 HD
ATOM     25  C   UNL A   1      45.546  27.996  26.452  1.00  0.00     0.034 A 
ATOM     26  C   UNL A   1      39.936  30.065  30.124  1.00  0.00     0.034 A 
ATOM     27  C   UNL A   1      45.636  29.315  27.026  1.00  0.00     0.049 A 
ATOM     28  C   UNL A   1      41.138  30.949  29.955  1.00  0.00     0.074 A 
ATOM     29  C   UNL A   1      46.662  30.236  26.908  1.00  0.00     0.029 A 
ATOM     30  N   UNL A   1      44.662  29.904  27.818  1.00  0.00    -0.354 N 
ATOM     31  N   UNL A   1      42.252  30.703  29.309  1.00  0.00    -0.248 NA
ATOM     32  C   UNL A   1      41.090  32.263  30.607  1.00  0.00     0.031 C 
ATOM     33  C   UNL A   1      46.328  31.365  27.665  1.00  0.00     0.029 A 
ATOM     34  C   UNL A   1      45.072  31.166  28.215  1.00  0.00     0.049 A 
ATOM     35  H   UNL A   1      43.804  29.487  28.062  1.00  0.00     0.167 HD
ATOM     36  C   UNL A   1      43.046  31.828  29.487  1.00  0.00     0.074 A 
ATOM     37  C   UNL A   1      42.276  32.763  30.283  1.00  0.00     0.031 C 
ATOM     38  C   UNL A   1      44.303  32.065  29.038  1.00  0.00     0.034 A 
BRANCH  25  39
ATOM     39  C   UNL A   1      46.723  27.481  25.669  1.00  0.00     0.023 A 
ATOM     40  C   UNL A   1      46.958  27.866  24.339  1.00  0.00     0.031 A 
ATOM     41  C   UNL A   1      47.644  26.611  26.281  1.00  0.00     0.131 A 
ATOM     42  C   UNL A   1      48.068  27.353  23.651  1.00  0.00     0.055 A 
ATOM     43  C   UNL A   1      48.776  26.146  25.609  1.00  0.00     0.041 A 
ATOM     44  F   UNL A   1      47.457  26.200  27.545  1.00  0.00    -0.206 F 
ATOM     45  C   UNL A   1      48.990  26.513  24.284  1.00  0.00     0.022 A 
BRANCH  42  46
ATOM     46  S   UNL A   1      48.267  27.749  21.893  1.00  0.00     0.124 S 
ATOM     47  O   UNL A   1      46.979  28.365  21.584  1.00  0.00    -0.237 OA
ATOM     48  O   UNL A   1      49.419  28.644  21.896  1.00  0.00    -0.237 OA
ATOM     49  O   UNL A   1      48.495  26.446  21.271  1.00  0.00    -0.744 OA
ENDBRANCH  42  46
ENDBRANCH  25  39
BRANCH  26  50
ATOM     50  C   UNL A   1      38.743  30.519  30.885  1.00  0.00     0.023 A 
ATOM     51  C   UNL A   1      37.707  31.221  30.255  1.00  0.00     0.031 A 
ATOM     52  C   UNL A   1      38.613  30.224  32.254  1.00  0.00     0.131 A 
ATOM     53  C   UNL A   1      36.584  31.616  30.997  1.00  0.00     0.055 A 
ATOM     54  C   UNL A   1      37.480  30.588  32.981  1.00  0.00     0.041 A 
ATOM     55  F   UNL A   1      39.577  29.543  32.894  1.00  0.00    -0.206 F 
ATOM     56  C   UNL A   1      36.458  31.292  32.352  1.00  0.00     0.022 A 
BRANCH  53  57
ATOM     57  S   UNL A   1      35.281  32.570  30.172  1.00  0.00     0.124 S 
ATOM     58  O   UNL A   1      36.027  33.719  29.671  1.00  0.00    -0.237 OA
ATOM     59  O   UNL A   1      34.802  31.627  29.166  1.00  0.00    -0.237 OA
ATOM     60  O   UNL A   1      34.336  32.858  31.249  1.00  0.00    -0.744 OA
ENDBRANCH  53  57
ENDBRANCH  26  50
BRANCH  38  61
ATOM     61  C   UNL A   1      44.920  33.382  29.407  1.00  0.00     0.023 A 
ATOM     62  C   UNL A   1      44.757  34.511  28.588  1.00  0.00     0.031 A 
ATOM     63  C   UNL A   1      45.654  33.515  30.597  1.00  0.00     0.131 A 
ATOM     64  C   UNL A   1      45.348  35.727  28.958  1.00  0.00     0.055 A 
ATOM     65  C   UNL A   1      46.210  34.735  30.979  1.00  0.00     0.041 A 
ATOM     66  F   UNL A   1      45.832  32.460  31.409  1.00  0.00    -0.206 F 
ATOM     67  C   UNL A   1      46.060  35.849  30.155  1.00  0.00     0.022 A 
BRANCH  64  68
ATOM     68  S   UNL A   1      45.183  37.153  27.851  1.00  0.00     0.124 S 
ATOM     69  O   UNL A   1      43.803  37.563  28.094  1.00  0.00    -0.237 OA
ATOM     70  O   UNL A   1      46.213  38.062  28.344  1.00  0.00    -0.237 OA
ATOM     71  O   UNL A   1      45.441  36.590  26.527  1.00  0.00    -0.744 OA
ENDBRANCH  64  68
ENDBRANCH  38  61
ENDBRANCH  12  13
ENDBRANCH   5   7
ENDBRANCH   2   3
ENDBRANCH   1   2
BRANCH   1  72
ATOM     72  C   UNL A   1      34.292  20.999  25.190  1.00  0.00     0.023 C 
BRANCH  72  73
ATOM     73  C   UNL A   1      32.864  21.471  24.936  1.00  0.00     0.116 C 
BRANCH  73  74
ATOM     74  N   UNL A   1      32.256  21.949  26.159  1.00  0.00    -0.356 N 
ATOM     75  C   UNL A   1      31.846  23.200  26.504  1.00  0.00     0.223 C 
ATOM     76  H   UNL A   1      32.119  21.263  26.850  1.00  0.00     0.163 HD
ATOM     77  O   UNL A   1      31.450  23.357  27.661  1.00  0.00    -0.275 OA
BRANCH  75  78
ATOM     78  C   UNL A   1      31.862  24.359  25.493  1.00  0.00     0.087 C 
BRANCH  78  79
ATOM     79  C   UNL A   1      30.919  25.450  26.073  1.00  0.00     0.049 C 
BRANCH  79  80
ATOM     80  C   UNL A   1      30.633  26.630  25.173  1.00  0.00    -0.044 A 
ATOM     81  C   UNL A   1      29.952  26.425  23.960  1.00  0.00     0.004 A 
ATOM     82  C   UNL A   1      31.033  27.926  25.512  1.00  0.00     0.043 A 
ATOM     83  C   UNL A   1      29.660  27.493  23.112  1.00  0.00     0.003 A 
ATOM     84  C   UNL A   1      30.737  28.985  24.657  1.00  0.00     0.123 A 
ATOM     85  C   UNL A   1      30.054  28.781  23.463  1.00  0.00     0.039 A 
ATOM     86  F   UNL A   1      31.120  30.226  24.989  1.00  0.00    -0.207 F 
ENDBRANCH  79  80
ENDBRANCH  78  79
BRANCH  78  87
ATOM     87  C   UNL A   1      33.299  24.910  25.307  1.00  0.00     0.049 C 
BRANCH  87  88
ATOM     88  C   UNL A   1      33.536  25.964  24.239  1.00  0.00    -0.044 A 
ATOM     89  C   UNL A   1      33.984  27.264  24.518  1.00  0.00     0.004 A 
ATOM     90  C   UNL A   1      33.336  25.608  22.893  1.00  0.00     0.049 A 
ATOM     91  C   UNL A   1      34.118  28.208  23.491  1.00  0.00     0.004 A 
ATOM     92  C   UNL A   1      33.476  26.552  21.879  1.00  0.00     0.115 A 
ATOM     93  C   UNL A   1      33.851  27.857  22.168  1.00  0.00     0.046 A 
BRANCH  92  94
ATOM     94  O   UNL A   1      33.213  26.153  20.603  1.00  0.00    -0.508 OA
ATOM     95  H   UNL A   1      33.874  25.714  20.104  1.00  0.00     0.293 HD
ENDBRANCH  92  94
ENDBRANCH  87  88
ENDBRANCH  78  87
ENDBRANCH  75  78
ENDBRANCH  73  74
ENDBRANCH  72  73
ENDBRANCH   1  72
TORSDOF 19
ENDMDL
MODEL 3
REMARK VINA RESULT:     -12.3      5.087      7.564
REMARK SMILES O=C(NCCCCNC(=O)[C@H](Cc1cccc(O)c1)Cc1cccc(F)c1)c1ccc(-c2c3nc(c(-c4cc(S(=O)(=O)[O-])ccc4F)c4ccc([nH]4)c(-c4cc(S(=O)(=O)[O-])ccc4F)c4nc(c(-c5cc(S(=O)(=O)[O-])ccc5F)c5ccc2[nH]5)C=C4)C=C3)cc1
REMARK SMILES IDX 5 1 4 2 3 3 1 4 2 5 28 7 29 8 90 9 30 10 89 11 31 12 32 13
REMARK SMILES IDX 33 14 83 15 34 16 88 17 82 18 84 19 35 20 87 21 81 22 80 23
REMARK SMILES IDX 36 25 68 26 48 27 67 28 49 29 52 30 66 31 85 32 50 33 51 34
REMARK SMILES IDX 65 36 86 37 53 38 37 39 38 40 46 41 39 42 45 43 47 44 44 45
REMARK SMILES IDX 40 46 41 47 42 48 43 49 69 50 70 51 78 52 71 53 77 54 79 55
REMARK SMILES IDX 76 56 72 57 73 58 74 59 75 60 54 61 55 62 63 63 56 64 62 65
REMARK SMILES IDX 64 66 61 67 57 68 58 69 59 70 60 71 6 72 7 73 8 74 9 75
REMARK SMILES IDX 10 77 11 78 20 79 21 80 22 81 27 82 23 83 25 84 24 85 26 86
REMARK SMILES IDX 12 87 13 88 14 89 19 90 15 91 17 92 16 93 18 94
REMARK H PARENT 3 6 84 24 52 35 8 76 18 95
REMARK Flexibility Score: inf
ROOT
ATOM      1  C   UNL A   1      35.353  22.043  24.671  1.00  0.00     0.023 C 
ENDROOT
BRANCH   1   2
ATOM      2  C   UNL A   1      36.286  21.814  25.848  1.00  0.00     0.116 C 
BRANCH   2   3
ATOM      3  N   UNL A   1      37.365  20.865  25.588  1.00  0.00    -0.352 N 
ATOM      4  O   UNL A   1      39.518  20.161  25.518  1.00  0.00    -0.269 OA
ATOM      5  C   UNL A   1      38.710  21.023  25.845  1.00  0.00     0.251 C 
ATOM      6  H   UNL A   1      37.100  20.010  25.178  1.00  0.00     0.163 HD
BRANCH   5   7
ATOM      7  C   UNL A   1      39.159  22.285  26.470  1.00  0.00     0.039 A 
ATOM      8  C   UNL A   1      38.543  23.486  26.121  1.00  0.00     0.014 A 
ATOM      9  C   UNL A   1      40.286  22.276  27.294  1.00  0.00     0.014 A 
ATOM     10  C   UNL A   1      39.179  24.684  26.418  1.00  0.00     0.010 A 
ATOM     11  C   UNL A   1      40.866  23.488  27.677  1.00  0.00     0.010 A 
ATOM     12  C   UNL A   1      40.355  24.700  27.187  1.00  0.00    -0.014 A 
BRANCH  12  13
ATOM     13  C   UNL A   1      41.037  26.000  27.425  1.00  0.00     0.031 A 
ATOM     14  C   UNL A   1      40.415  27.047  28.313  1.00  0.00     0.074 A 
ATOM     15  C   UNL A   1      42.269  26.190  26.914  1.00  0.00     0.049 A 
ATOM     16  N   UNL A   1      40.884  28.223  28.648  1.00  0.00    -0.248 NA
ATOM     17  C   UNL A   1      39.099  26.743  28.898  1.00  0.00     0.031 C 
ATOM     18  C   UNL A   1      42.981  25.235  26.059  1.00  0.00     0.029 A 
ATOM     19  N   UNL A   1      43.161  27.218  27.075  1.00  0.00    -0.354 N 
ATOM     20  C   UNL A   1      39.911  28.810  29.449  1.00  0.00     0.074 A 
ATOM     21  C   UNL A   1      38.818  27.866  29.544  1.00  0.00     0.031 C 
ATOM     22  C   UNL A   1      44.226  25.683  25.844  1.00  0.00     0.029 A 
ATOM     23  C   UNL A   1      44.377  26.988  26.476  1.00  0.00     0.049 A 
ATOM     24  H   UNL A   1      42.951  28.041  27.573  1.00  0.00     0.167 HD
ATOM     25  C   UNL A   1      39.930  30.025  30.052  1.00  0.00     0.034 A 
ATOM     26  C   UNL A   1      45.488  27.747  26.426  1.00  0.00     0.034 A 
ATOM     27  C   UNL A   1      41.043  30.938  29.989  1.00  0.00     0.049 A 
ATOM     28  C   UNL A   1      45.477  29.094  27.087  1.00  0.00     0.074 A 
ATOM     29  C   UNL A   1      41.171  32.181  30.586  1.00  0.00     0.029 A 
ATOM     30  N   UNL A   1      42.222  30.707  29.296  1.00  0.00    -0.354 N 
ATOM     31  N   UNL A   1      44.520  29.656  27.788  1.00  0.00    -0.248 NA
ATOM     32  C   UNL A   1      46.680  29.920  26.928  1.00  0.00     0.031 C 
ATOM     33  C   UNL A   1      42.409  32.719  30.218  1.00  0.00     0.029 A 
ATOM     34  C   UNL A   1      43.072  31.792  29.431  1.00  0.00     0.049 A 
ATOM     35  H   UNL A   1      42.424  29.891  28.783  1.00  0.00     0.167 HD
ATOM     36  C   UNL A   1      45.001  30.909  28.142  1.00  0.00     0.074 A 
ATOM     37  C   UNL A   1      46.340  31.014  27.598  1.00  0.00     0.031 C 
ATOM     38  C   UNL A   1      44.387  31.889  28.850  1.00  0.00     0.034 A 
BRANCH  25  39
ATOM     39  C   UNL A   1      38.696  30.459  30.796  1.00  0.00     0.023 A 
ATOM     40  C   UNL A   1      37.659  31.167  30.168  1.00  0.00     0.031 A 
ATOM     41  C   UNL A   1      38.546  30.128  32.156  1.00  0.00     0.131 A 
ATOM     42  C   UNL A   1      36.531  31.552  30.908  1.00  0.00     0.055 A 
ATOM     43  C   UNL A   1      37.398  30.468  32.873  1.00  0.00     0.041 A 
ATOM     44  F   UNL A   1      39.516  29.467  32.807  1.00  0.00    -0.206 F 
ATOM     45  C   UNL A   1      36.384  31.189  32.250  1.00  0.00     0.022 A 
BRANCH  42  46
ATOM     46  S   UNL A   1      35.275  32.589  30.111  1.00  0.00     0.124 S 
ATOM     47  O   UNL A   1      34.349  32.827  31.215  1.00  0.00    -0.237 OA
ATOM     48  O   UNL A   1      36.049  33.744  29.667  1.00  0.00    -0.237 OA
ATOM     49  O   UNL A   1      34.757  31.740  29.041  1.00  0.00    -0.744 OA
ENDBRANCH  42  46
ENDBRANCH  25  39
BRANCH  26  50
ATOM     50  C   UNL A   1      46.677  27.262  25.678  1.00  0.00     0.023 A 
ATOM     51  C   UNL A   1      46.920  27.673  24.360  1.00  0.00     0.031 A 
ATOM     52  C   UNL A   1      47.604  26.400  26.290  1.00  0.00     0.131 A 
ATOM     53  C   UNL A   1      48.064  27.214  23.690  1.00  0.00     0.055 A 
ATOM     54  C   UNL A   1      48.758  25.973  25.632  1.00  0.00     0.041 A 
ATOM     55  F   UNL A   1      47.416  25.990  27.555  1.00  0.00    -0.206 F 
ATOM     56  C   UNL A   1      48.990  26.378  24.322  1.00  0.00     0.022 A 
BRANCH  53  57
ATOM     57  S   UNL A   1      48.329  27.718  21.968  1.00  0.00     0.124 S 
ATOM     58  O   UNL A   1      47.079  28.406  21.665  1.00  0.00    -0.237 OA
ATOM     59  O   UNL A   1      49.516  28.561  22.075  1.00  0.00    -0.237 OA
ATOM     60  O   UNL A   1      48.532  26.451  21.270  1.00  0.00    -0.744 OA
ENDBRANCH  53  57
ENDBRANCH  26  50
BRANCH  38  61
ATOM     61  C   UNL A   1      45.159  33.158  29.064  1.00  0.00     0.023 A 
ATOM     62  C   UNL A   1      45.043  34.233  28.168  1.00  0.00     0.031 A 
ATOM     63  C   UNL A   1      45.996  33.301  30.182  1.00  0.00     0.131 A 
ATOM     64  C   UNL A   1      45.778  35.405  28.393  1.00  0.00     0.055 A 
ATOM     65  C   UNL A   1      46.698  34.483  30.421  1.00  0.00     0.041 A 
ATOM     66  F   UNL A   1      46.134  32.298  31.063  1.00  0.00    -0.206 F 
ATOM     67  C   UNL A   1      46.593  35.541  29.522  1.00  0.00     0.022 A 
BRANCH  64  68
ATOM     68  S   UNL A   1      45.667  36.754  27.187  1.00  0.00     0.124 S 
ATOM     69  O   UNL A   1      46.167  36.113  25.975  1.00  0.00    -0.237 OA
ATOM     70  O   UNL A   1      44.243  37.076  27.197  1.00  0.00    -0.237 OA
ATOM     71  O   UNL A   1      46.536  37.787  27.748  1.00  0.00    -0.744 OA
ENDBRANCH  64  68
ENDBRANCH  38  61
ENDBRANCH  12  13
ENDBRANCH   5   7
ENDBRANCH   2   3
ENDBRANCH   1   2
BRANCH   1  72
ATOM     72  C   UNL A   1      34.720  23.427  24.620  1.00  0.00     0.023 C 
BRANCH  72  73
ATOM     73  C   UNL A   1      33.420  23.532  23.829  1.00  0.00     0.116 C 
BRANCH  73  74
ATOM     74  N   UNL A   1      33.625  24.265  22.598  1.00  0.00    -0.356 N 
ATOM     75  C   UNL A   1      33.187  25.500  22.230  1.00  0.00     0.223 C 
ATOM     76  H   UNL A   1      34.165  23.798  21.922  1.00  0.00     0.163 HD
ATOM     77  O   UNL A   1      33.420  25.850  21.071  1.00  0.00    -0.275 OA
BRANCH  75  78
ATOM     78  C   UNL A   1      32.449  26.419  23.218  1.00  0.00     0.087 C 
BRANCH  78  79
ATOM     79  C   UNL A   1      33.519  26.915  24.229  1.00  0.00     0.049 C 
BRANCH  79  80
ATOM     80  C   UNL A   1      33.042  27.892  25.279  1.00  0.00    -0.044 A 
ATOM     81  C   UNL A   1      33.534  29.209  25.271  1.00  0.00     0.004 A 
ATOM     82  C   UNL A   1      32.122  27.520  26.264  1.00  0.00     0.043 A 
ATOM     83  C   UNL A   1      33.104  30.141  26.217  1.00  0.00     0.003 A 
ATOM     84  C   UNL A   1      31.701  28.457  27.204  1.00  0.00     0.123 A 
ATOM     85  C   UNL A   1      32.181  29.763  27.188  1.00  0.00     0.039 A 
ATOM     86  F   UNL A   1      30.817  28.096  28.144  1.00  0.00    -0.207 F 
ENDBRANCH  79  80
ENDBRANCH  78  79
BRANCH  78  87
ATOM     87  C   UNL A   1      31.793  27.613  22.476  1.00  0.00     0.049 C 
BRANCH  87  88
ATOM     88  C   UNL A   1      30.323  27.900  22.728  1.00  0.00    -0.044 A 
ATOM     89  C   UNL A   1      29.690  29.094  22.352  1.00  0.00     0.004 A 
ATOM     90  C   UNL A   1      29.541  26.900  23.335  1.00  0.00     0.049 A 
ATOM     91  C   UNL A   1      28.346  29.322  22.674  1.00  0.00     0.004 A 
ATOM     92  C   UNL A   1      28.205  27.134  23.648  1.00  0.00     0.115 A 
ATOM     93  C   UNL A   1      27.602  28.345  23.337  1.00  0.00     0.046 A 
BRANCH  92  94
ATOM     94  O   UNL A   1      27.522  26.142  24.285  1.00  0.00    -0.508 OA
ATOM     95  H   UNL A   1      27.718  25.244  24.101  1.00  0.00     0.293 HD
ENDBRANCH  92  94
ENDBRANCH  87  88
ENDBRANCH  78  87
ENDBRANCH  75  78
ENDBRANCH  73  74
ENDBRANCH  72  73
ENDBRANCH   1  72
TORSDOF 19
ENDMDL
