MODEL 1
REMARK VINA RESULT:     -11.1      0.000      0.000
REMARK SMILES CC[C@@H](C)CN(C)c1cccc(Cl)c1/C=C/C(=O)NCCCCNC(=O)c1ccc(-c2c3nc(c(-c4cc(S(=O)(=O)[O-])ccc4F)c4ccc([nH]4)c(-c4cc(S(=O)(=O)[O-])ccc4F)c4nc(c(-c5cc(S(=O)(=O)[O-])ccc5F)c5ccc2[nH]5)C=C4)C=C3)cc1
REMARK SMILES IDX 20 1 19 2 17 3 18 4 16 6 15 7 14 8 8 9 9 10 10 11 12 12
REMARK SMILES IDX 11 13 13 14 6 15 7 16 5 17 3 18 4 19 2 20 1 21 21 22 22 23
REMARK SMILES IDX 23 24 24 25 25 26 26 28 27 29 28 30 89 31 29 32 88 33 30 34
REMARK SMILES IDX 31 35 32 36 82 37 33 38 87 39 81 40 83 41 34 42 86 43 80 44
REMARK SMILES IDX 79 45 35 47 67 48 47 49 66 50 48 51 51 52 65 53 84 54 49 55
REMARK SMILES IDX 50 56 64 58 85 59 52 60 36 61 37 62 45 63 38 64 44 65 46 66
REMARK SMILES IDX 43 67 39 68 40 69 41 70 42 71 68 72 69 73 77 74 70 75 76 76
REMARK SMILES IDX 78 77 75 78 71 79 72 80 73 81 74 82 53 83 54 84 62 85 55 86
REMARK SMILES IDX 61 87 63 88 60 89 56 90 57 91 58 92 59 93
REMARK H PARENT 19 5 24 27 83 46 51 57
REMARK Flexibility Score: inf
ROOT
ATOM      1  C   UNL A   1      33.162  27.924  24.223  1.00  0.00     0.116 C 
ENDROOT
BRANCH   1   2
ATOM      2  N   UNL A   1      33.360  27.404  22.882  1.00  0.00    -0.353 N 
ATOM      3  C   UNL A   1      33.623  26.126  22.485  1.00  0.00     0.244 C 
ATOM      4  O   UNL A   1      33.602  25.826  21.295  1.00  0.00    -0.270 OA
ATOM      5  H   UNL A   1      33.295  28.066  22.157  1.00  0.00     0.163 HD
BRANCH   3   6
ATOM      6  C   UNL A   1      33.904  25.079  23.494  1.00  0.00     0.072 C 
ATOM      7  C   UNL A   1      34.324  23.865  23.114  1.00  0.00     0.017 C 
BRANCH   7   8
ATOM      8  C   UNL A   1      34.518  22.696  23.987  1.00  0.00     0.017 A 
ATOM      9  C   UNL A   1      33.526  21.695  24.104  1.00  0.00     0.045 A 
ATOM     10  C   UNL A   1      33.884  20.480  24.713  1.00  0.00     0.026 A 
ATOM     11  C   UNL A   1      35.126  20.287  25.314  1.00  0.00     0.004 A 
ATOM     12  C   UNL A   1      35.770  22.497  24.611  1.00  0.00     0.050 A 
ATOM     13  C   UNL A   1      36.059  21.312  25.292  1.00  0.00     0.021 A 
ATOM     14  Cl  UNL A   1      37.020  23.698  24.581  1.00  0.00    -0.084 Cl
BRANCH   9  15
ATOM     15  N   UNL A   1      32.208  21.851  23.689  1.00  0.00    -0.374 N 
ATOM     16  C   UNL A   1      31.778  21.271  22.427  1.00  0.00     0.143 C 
BRANCH  15  17
ATOM     17  C   UNL A   1      31.348  22.813  24.394  1.00  0.00     0.119 C 
BRANCH  17  18
ATOM     18  C   UNL A   1      31.424  22.621  25.930  1.00  0.00     0.005 C 
ATOM     19  C   UNL A   1      30.018  22.614  26.543  1.00  0.00     0.009 C 
BRANCH  18  20
ATOM     20  C   UNL A   1      32.266  23.727  26.608  1.00  0.00     0.002 C 
ATOM     21  C   UNL A   1      31.648  25.110  26.442  1.00  0.00     0.004 C 
ENDBRANCH  18  20
ENDBRANCH  17  18
ENDBRANCH  15  17
ENDBRANCH   9  15
ENDBRANCH   7   8
ENDBRANCH   3   6
ENDBRANCH   1   2
BRANCH   1  22
ATOM     22  C   UNL A   1      31.687  28.187  24.524  1.00  0.00     0.023 C 
BRANCH  22  23
ATOM     23  C   UNL A   1      31.424  29.375  25.452  1.00  0.00     0.023 C 
BRANCH  23  24
ATOM     24  C   UNL A   1      32.671  30.084  25.970  1.00  0.00     0.116 C 
BRANCH  24  25
ATOM     25  N   UNL A   1      32.425  31.451  26.402  1.00  0.00    -0.352 N 
ATOM     26  C   UNL A   1      33.164  32.213  27.277  1.00  0.00     0.251 C 
ATOM     27  H   UNL A   1      31.629  31.886  26.021  1.00  0.00     0.163 HD
ATOM     28  O   UNL A   1      32.761  33.320  27.621  1.00  0.00    -0.269 OA
BRANCH  26  29
ATOM     29  C   UNL A   1      34.417  31.662  27.831  1.00  0.00     0.039 A 
ATOM     30  C   UNL A   1      35.507  32.515  28.007  1.00  0.00     0.014 A 
ATOM     31  C   UNL A   1      34.499  30.321  28.217  1.00  0.00     0.014 A 
ATOM     32  C   UNL A   1      36.660  32.039  28.633  1.00  0.00     0.010 A 
ATOM     33  C   UNL A   1      35.622  29.866  28.902  1.00  0.00     0.010 A 
ATOM     34  C   UNL A   1      36.713  30.722  29.118  1.00  0.00    -0.014 A 
BRANCH  34  35
ATOM     35  C   UNL A   1      37.904  30.224  29.851  1.00  0.00     0.031 A 
ATOM     36  C   UNL A   1      38.167  30.681  31.259  1.00  0.00     0.074 A 
ATOM     37  C   UNL A   1      38.776  29.407  29.226  1.00  0.00     0.049 A 
ATOM     38  N   UNL A   1      39.173  30.399  32.047  1.00  0.00    -0.248 NA
ATOM     39  C   UNL A   1      37.182  31.602  31.846  1.00  0.00     0.031 C 
ATOM     40  C   UNL A   1      38.653  28.940  27.843  1.00  0.00     0.029 A 
ATOM     41  N   UNL A   1      39.939  28.829  29.668  1.00  0.00    -0.354 N 
ATOM     42  C   UNL A   1      38.948  31.115  33.218  1.00  0.00     0.074 A 
ATOM     43  C   UNL A   1      37.747  31.895  33.007  1.00  0.00     0.031 C 
ATOM     44  C   UNL A   1      39.684  28.127  27.560  1.00  0.00     0.029 A 
ATOM     45  C   UNL A   1      40.561  28.045  28.723  1.00  0.00     0.049 A 
ATOM     46  H   UNL A   1      40.297  28.964  30.575  1.00  0.00     0.167 HD
ATOM     47  C   UNL A   1      39.664  31.103  34.370  1.00  0.00     0.034 A 
ATOM     48  C   UNL A   1      41.709  27.343  28.788  1.00  0.00     0.034 A 
ATOM     49  C   UNL A   1      40.852  30.310  34.565  1.00  0.00     0.049 A 
ATOM     50  C   UNL A   1      42.492  27.351  30.076  1.00  0.00     0.074 A 
ATOM     51  C   UNL A   1      41.623  30.175  35.706  1.00  0.00     0.029 A 
ATOM     52  N   UNL A   1      41.450  29.520  33.590  1.00  0.00    -0.354 N 
ATOM     53  N   UNL A   1      42.234  27.986  31.196  1.00  0.00    -0.248 NA
ATOM     54  C   UNL A   1      43.713  26.537  30.112  1.00  0.00     0.031 C 
ATOM     55  C   UNL A   1      42.718  29.356  35.404  1.00  0.00     0.029 A 
ATOM     56  C   UNL A   1      42.593  28.920  34.094  1.00  0.00     0.049 A 
ATOM     57  H   UNL A   1      41.111  29.404  32.672  1.00  0.00     0.167 HD
ATOM     58  C   UNL A   1      43.248  27.624  32.079  1.00  0.00     0.074 A 
ATOM     59  C   UNL A   1      44.108  26.702  31.366  1.00  0.00     0.031 C 
ATOM     60  C   UNL A   1      43.448  28.015  33.364  1.00  0.00     0.034 A 
BRANCH  47  61
ATOM     61  C   UNL A   1      39.184  31.994  35.492  1.00  0.00     0.023 A 
ATOM     62  C   UNL A   1      39.606  33.330  35.606  1.00  0.00     0.031 A 
ATOM     63  C   UNL A   1      38.321  31.492  36.481  1.00  0.00     0.131 A 
ATOM     64  C   UNL A   1      39.235  34.091  36.725  1.00  0.00     0.055 A 
ATOM     65  C   UNL A   1      37.885  32.281  37.549  1.00  0.00     0.041 A 
ATOM     66  F   UNL A   1      37.897  30.219  36.439  1.00  0.00    -0.206 F 
ATOM     67  C   UNL A   1      38.356  33.584  37.685  1.00  0.00     0.022 A 
BRANCH  64  68
ATOM     68  S   UNL A   1      40.036  35.697  36.984  1.00  0.00     0.124 S 
ATOM     69  O   UNL A   1      39.392  36.154  38.213  1.00  0.00    -0.237 OA
ATOM     70  O   UNL A   1      41.444  35.332  37.097  1.00  0.00    -0.237 OA
ATOM     71  O   UNL A   1      39.683  36.455  35.785  1.00  0.00    -0.744 OA
ENDBRANCH  64  68
ENDBRANCH  47  61
BRANCH  48  72
ATOM     72  C   UNL A   1      42.195  26.576  27.605  1.00  0.00     0.023 A 
ATOM     73  C   UNL A   1      41.907  25.210  27.461  1.00  0.00     0.031 A 
ATOM     74  C   UNL A   1      42.990  27.190  26.620  1.00  0.00     0.131 A 
ATOM     75  C   UNL A   1      42.448  24.489  26.386  1.00  0.00     0.055 A 
ATOM     76  C   UNL A   1      43.484  26.480  25.524  1.00  0.00     0.041 A 
ATOM     77  F   UNL A   1      43.289  28.495  26.705  1.00  0.00    -0.206 F 
ATOM     78  C   UNL A   1      43.225  25.117  25.410  1.00  0.00     0.022 A 
BRANCH  75  79
ATOM     79  S   UNL A   1      42.189  22.695  26.324  1.00  0.00     0.124 S 
ATOM     80  O   UNL A   1      40.742  22.599  26.483  1.00  0.00    -0.237 OA
ATOM     81  O   UNL A   1      42.713  22.359  25.004  1.00  0.00    -0.237 OA
ATOM     82  O   UNL A   1      42.976  22.198  27.450  1.00  0.00    -0.744 OA
ENDBRANCH  75  79
ENDBRANCH  48  72
BRANCH  60  83
ATOM     83  C   UNL A   1      44.630  27.410  34.082  1.00  0.00     0.023 A 
ATOM     84  C   UNL A   1      44.593  26.101  34.593  1.00  0.00     0.031 A 
ATOM     85  C   UNL A   1      45.802  28.163  34.274  1.00  0.00     0.131 A 
ATOM     86  C   UNL A   1      45.685  25.604  35.322  1.00  0.00     0.055 A 
ATOM     87  C   UNL A   1      46.907  27.642  34.947  1.00  0.00     0.041 A 
ATOM     88  F   UNL A   1      45.891  29.419  33.809  1.00  0.00    -0.206 F 
ATOM     89  C   UNL A   1      46.847  26.361  35.488  1.00  0.00     0.022 A 
BRANCH  86  90
ATOM     90  S   UNL A   1      45.526  23.990  36.134  1.00  0.00     0.124 S 
ATOM     91  O   UNL A   1      44.617  23.286  35.236  1.00  0.00    -0.237 OA
ATOM     92  O   UNL A   1      46.905  23.512  36.150  1.00  0.00    -0.237 OA
ATOM     93  O   UNL A   1      44.970  24.320  37.446  1.00  0.00    -0.744 OA
ENDBRANCH  86  90
ENDBRANCH  60  83
ENDBRANCH  34  35
ENDBRANCH  26  29
ENDBRANCH  24  25
ENDBRANCH  23  24
ENDBRANCH  22  23
ENDBRANCH   1  22
TORSDOF 19
ENDMDL
MODEL 2
REMARK VINA RESULT:     -10.9      4.883      9.996
REMARK SMILES CC[C@@H](C)CN(C)c1cccc(Cl)c1/C=C/C(=O)NCCCCNC(=O)c1ccc(-c2c3nc(c(-c4cc(S(=O)(=O)[O-])ccc4F)c4ccc([nH]4)c(-c4cc(S(=O)(=O)[O-])ccc4F)c4nc(c(-c5cc(S(=O)(=O)[O-])ccc5F)c5ccc2[nH]5)C=C4)C=C3)cc1
REMARK SMILES IDX 20 1 19 2 17 3 18 4 16 6 15 7 14 8 8 9 9 10 10 11 12 12
REMARK SMILES IDX 11 13 13 14 6 15 7 16 5 17 3 18 4 19 2 20 1 21 21 22 22 23
REMARK SMILES IDX 23 24 24 25 25 26 26 28 27 29 28 30 89 31 29 32 88 33 30 34
REMARK SMILES IDX 31 35 32 36 82 37 33 38 87 39 81 40 83 41 34 42 86 43 80 44
REMARK SMILES IDX 79 45 35 47 67 48 47 49 66 50 48 51 51 52 65 53 84 54 49 55
REMARK SMILES IDX 50 56 64 58 85 59 52 60 36 61 37 62 45 63 38 64 44 65 46 66
REMARK SMILES IDX 43 67 39 68 40 69 41 70 42 71 68 72 69 73 77 74 70 75 76 76
REMARK SMILES IDX 78 77 75 78 71 79 72 80 73 81 74 82 53 83 54 84 62 85 55 86
REMARK SMILES IDX 61 87 63 88 60 89 56 90 57 91 58 92 59 93
REMARK H PARENT 19 5 24 27 83 46 51 57
REMARK Flexibility Score: inf
ROOT
ATOM      1  C   UNL A   1      33.655  23.561  26.914  1.00  0.00     0.116 C 
ENDROOT
BRANCH   1   2
ATOM      2  N   UNL A   1      32.382  22.881  26.748  1.00  0.00    -0.353 N 
ATOM      3  C   UNL A   1      31.218  23.352  26.215  1.00  0.00     0.244 C 
ATOM      4  O   UNL A   1      30.278  22.592  26.001  1.00  0.00    -0.270 OA
ATOM      5  H   UNL A   1      32.355  21.950  27.065  1.00  0.00     0.163 HD
BRANCH   3   6
ATOM      6  C   UNL A   1      31.092  24.782  25.856  1.00  0.00     0.072 C 
ATOM      7  C   UNL A   1      30.672  25.142  24.636  1.00  0.00     0.017 C 
BRANCH   7   8
ATOM      8  C   UNL A   1      30.619  26.512  24.100  1.00  0.00     0.017 A 
ATOM      9  C   UNL A   1      31.801  27.222  23.785  1.00  0.00     0.045 A 
ATOM     10  C   UNL A   1      31.681  28.392  23.015  1.00  0.00     0.026 A 
ATOM     11  C   UNL A   1      30.444  28.936  22.676  1.00  0.00     0.004 A 
ATOM     12  C   UNL A   1      29.368  27.078  23.765  1.00  0.00     0.050 A 
ATOM     13  C   UNL A   1      29.284  28.294  23.082  1.00  0.00     0.021 A 
ATOM     14  Cl  UNL A   1      27.868  26.314  24.175  1.00  0.00    -0.084 Cl
BRANCH   9  15
ATOM     15  N   UNL A   1      33.070  26.856  24.218  1.00  0.00    -0.374 N 
ATOM     16  C   UNL A   1      33.908  26.023  23.371  1.00  0.00     0.143 C 
BRANCH  15  17
ATOM     17  C   UNL A   1      33.439  27.093  25.622  1.00  0.00     0.119 C 
BRANCH  17  18
ATOM     18  C   UNL A   1      33.443  28.605  25.960  1.00  0.00     0.005 C 
ATOM     19  C   UNL A   1      34.540  28.926  26.982  1.00  0.00     0.009 C 
BRANCH  18  20
ATOM     20  C   UNL A   1      32.079  29.075  26.515  1.00  0.00     0.002 C 
ATOM     21  C   UNL A   1      31.562  28.169  27.627  1.00  0.00     0.004 C 
ENDBRANCH  18  20
ENDBRANCH  17  18
ENDBRANCH  15  17
ENDBRANCH   9  15
ENDBRANCH   7   8
ENDBRANCH   3   6
ENDBRANCH   1   2
BRANCH   1  22
ATOM     22  C   UNL A   1      34.526  23.459  25.662  1.00  0.00     0.023 C 
BRANCH  22  23
ATOM     23  C   UNL A   1      35.625  22.395  25.731  1.00  0.00     0.023 C 
BRANCH  23  24
ATOM     24  C   UNL A   1      37.035  22.897  25.435  1.00  0.00     0.116 C 
BRANCH  24  25
ATOM     25  N   UNL A   1      38.080  22.008  25.917  1.00  0.00    -0.352 N 
ATOM     26  C   UNL A   1      39.244  22.339  26.570  1.00  0.00     0.251 C 
ATOM     27  H   UNL A   1      37.937  21.048  25.755  1.00  0.00     0.163 HD
ATOM     28  O   UNL A   1      40.079  21.473  26.818  1.00  0.00    -0.269 OA
BRANCH  26  29
ATOM     29  C   UNL A   1      39.496  23.751  26.923  1.00  0.00     0.039 A 
ATOM     30  C   UNL A   1      39.333  24.152  28.250  1.00  0.00     0.014 A 
ATOM     31  C   UNL A   1      39.936  24.661  25.957  1.00  0.00     0.014 A 
ATOM     32  C   UNL A   1      39.675  25.453  28.622  1.00  0.00     0.010 A 
ATOM     33  C   UNL A   1      40.341  25.935  26.343  1.00  0.00     0.010 A 
ATOM     34  C   UNL A   1      40.216  26.343  27.680  1.00  0.00    -0.014 A 
BRANCH  34  35
ATOM     35  C   UNL A   1      40.652  27.705  28.077  1.00  0.00     0.031 A 
ATOM     36  C   UNL A   1      42.106  28.083  27.997  1.00  0.00     0.074 A 
ATOM     37  C   UNL A   1      39.747  28.579  28.562  1.00  0.00     0.049 A 
ATOM     38  N   UNL A   1      42.691  29.202  28.341  1.00  0.00    -0.248 NA
ATOM     39  C   UNL A   1      43.026  27.054  27.492  1.00  0.00     0.031 C 
ATOM     40  C   UNL A   1      38.319  28.305  28.735  1.00  0.00     0.029 A 
ATOM     41  N   UNL A   1      39.893  29.869  29.004  1.00  0.00    -0.354 N 
ATOM     42  C   UNL A   1      44.047  29.008  28.105  1.00  0.00     0.074 A 
ATOM     43  C   UNL A   1      44.202  27.641  27.653  1.00  0.00     0.031 C 
ATOM     44  C   UNL A   1      37.716  29.403  29.220  1.00  0.00     0.029 A 
ATOM     45  C   UNL A   1      38.717  30.444  29.429  1.00  0.00     0.049 A 
ATOM     46  H   UNL A   1      40.757  30.340  29.016  1.00  0.00     0.167 HD
ATOM     47  C   UNL A   1      45.066  29.895  28.229  1.00  0.00     0.034 A 
ATOM     48  C   UNL A   1      38.476  31.670  29.934  1.00  0.00     0.034 A 
ATOM     49  C   UNL A   1      44.890  31.257  28.670  1.00  0.00     0.049 A 
ATOM     50  C   UNL A   1      39.624  32.637  30.071  1.00  0.00     0.074 A 
ATOM     51  C   UNL A   1      45.839  32.259  28.777  1.00  0.00     0.029 A 
ATOM     52  N   UNL A   1      43.684  31.809  29.085  1.00  0.00    -0.354 N 
ATOM     53  N   UNL A   1      40.894  32.459  29.785  1.00  0.00    -0.248 NA
ATOM     54  C   UNL A   1      39.305  33.974  30.584  1.00  0.00     0.031 C 
ATOM     55  C   UNL A   1      45.220  33.394  29.315  1.00  0.00     0.029 A 
ATOM     56  C   UNL A   1      43.870  33.126  29.477  1.00  0.00     0.049 A 
ATOM     57  H   UNL A   1      42.821  31.333  29.100  1.00  0.00     0.167 HD
ATOM     58  C   UNL A   1      41.518  33.672  30.060  1.00  0.00     0.074 A 
ATOM     59  C   UNL A   1      40.482  34.577  30.514  1.00  0.00     0.031 C 
ATOM     60  C   UNL A   1      42.828  34.009  29.943  1.00  0.00     0.034 A 
BRANCH  47  61
ATOM     61  C   UNL A   1      46.456  29.403  27.902  1.00  0.00     0.023 A 
ATOM     62  C   UNL A   1      46.812  29.011  26.599  1.00  0.00     0.031 A 
ATOM     63  C   UNL A   1      47.428  29.287  28.910  1.00  0.00     0.131 A 
ATOM     64  C   UNL A   1      48.074  28.448  26.356  1.00  0.00     0.055 A 
ATOM     65  C   UNL A   1      48.712  28.804  28.645  1.00  0.00     0.041 A 
ATOM     66  F   UNL A   1      47.144  29.626  30.178  1.00  0.00    -0.206 F 
ATOM     67  C   UNL A   1      49.036  28.365  27.364  1.00  0.00     0.022 A 
BRANCH  64  68
ATOM     68  S   UNL A   1      48.384  27.687  24.738  1.00  0.00     0.124 S 
ATOM     69  O   UNL A   1      48.255  26.266  25.051  1.00  0.00    -0.237 OA
ATOM     70  O   UNL A   1      47.326  28.259  23.913  1.00  0.00    -0.237 OA
ATOM     71  O   UNL A   1      49.739  28.125  24.407  1.00  0.00    -0.744 OA
ENDBRANCH  64  68
ENDBRANCH  47  61
BRANCH  48  72
ATOM     72  C   UNL A   1      37.098  32.059  30.352  1.00  0.00     0.023 A 
ATOM     73  C   UNL A   1      36.219  32.682  29.452  1.00  0.00     0.031 A 
ATOM     74  C   UNL A   1      36.654  31.849  31.669  1.00  0.00     0.131 A 
ATOM     75  C   UNL A   1      34.960  33.118  29.891  1.00  0.00     0.055 A 
ATOM     76  C   UNL A   1      35.381  32.239  32.089  1.00  0.00     0.041 A 
ATOM     77  F   UNL A   1      37.452  31.250  32.567  1.00  0.00    -0.206 F 
ATOM     78  C   UNL A   1      34.530  32.890  31.200  1.00  0.00     0.022 A 
BRANCH  75  79
ATOM     79  S   UNL A   1      33.919  34.063  28.745  1.00  0.00     0.124 S 
ATOM     80  O   UNL A   1      34.875  35.017  28.193  1.00  0.00    -0.237 OA
ATOM     81  O   UNL A   1      33.450  33.024  27.835  1.00  0.00    -0.237 OA
ATOM     82  O   UNL A   1      32.893  34.638  29.613  1.00  0.00    -0.744 OA
ENDBRANCH  75  79
ENDBRANCH  48  72
BRANCH  60  83
ATOM     83  C   UNL A   1      43.196  35.433  30.282  1.00  0.00     0.023 A 
ATOM     84  C   UNL A   1      43.145  36.459  29.322  1.00  0.00     0.031 A 
ATOM     85  C   UNL A   1      43.622  35.763  31.582  1.00  0.00     0.131 A 
ATOM     86  C   UNL A   1      43.570  37.753  29.660  1.00  0.00     0.055 A 
ATOM     87  C   UNL A   1      43.985  37.065  31.927  1.00  0.00     0.041 A 
ATOM     88  F   UNL A   1      43.691  34.822  32.537  1.00  0.00    -0.206 F 
ATOM     89  C   UNL A   1      43.974  38.065  30.960  1.00  0.00     0.022 A 
BRANCH  86  90
ATOM     90  S   UNL A   1      43.679  39.002  28.349  1.00  0.00     0.124 S 
ATOM     91  O   UNL A   1      45.075  38.891  27.938  1.00  0.00    -0.237 OA
ATOM     92  O   UNL A   1      42.691  38.530  27.385  1.00  0.00    -0.237 OA
ATOM     93  O   UNL A   1      43.332  40.247  29.033  1.00  0.00    -0.744 OA
ENDBRANCH  86  90
ENDBRANCH  60  83
ENDBRANCH  34  35
ENDBRANCH  26  29
ENDBRANCH  24  25
ENDBRANCH  23  24
ENDBRANCH  22  23
ENDBRANCH   1  22
TORSDOF 19
ENDMDL
MODEL 3
REMARK VINA RESULT:     -10.9      4.917      8.293
REMARK SMILES CC[C@@H](C)CN(C)c1cccc(Cl)c1/C=C/C(=O)NCCCCNC(=O)c1ccc(-c2c3nc(c(-c4cc(S(=O)(=O)[O-])ccc4F)c4ccc([nH]4)c(-c4cc(S(=O)(=O)[O-])ccc4F)c4nc(c(-c5cc(S(=O)(=O)[O-])ccc5F)c5ccc2[nH]5)C=C4)C=C3)cc1
REMARK SMILES IDX 20 1 19 2 17 3 18 4 16 6 15 7 14 8 8 9 9 10 10 11 12 12
REMARK SMILES IDX 11 13 13 14 6 15 7 16 5 17 3 18 4 19 2 20 1 21 21 22 22 23
REMARK SMILES IDX 23 24 24 25 25 26 26 28 27 29 28 30 89 31 29 32 88 33 30 34
REMARK SMILES IDX 31 35 32 36 82 37 33 38 87 39 81 40 83 41 34 42 86 43 80 44
REMARK SMILES IDX 79 45 35 47 67 48 47 49 66 50 48 51 51 52 65 53 84 54 49 55
REMARK SMILES IDX 50 56 64 58 85 59 52 60 36 61 37 62 45 63 38 64 44 65 46 66
REMARK SMILES IDX 43 67 39 68 40 69 41 70 42 71 68 72 69 73 77 74 70 75 76 76
REMARK SMILES IDX 78 77 75 78 71 79 72 80 73 81 74 82 53 83 54 84 62 85 55 86
REMARK SMILES IDX 61 87 63 88 60 89 56 90 57 91 58 92 59 93
REMARK H PARENT 19 5 24 27 83 46 51 57
REMARK Flexibility Score: inf
ROOT
ATOM      1  C   UNL A   1      36.870  22.812  25.372  1.00  0.00     0.116 C 
ENDROOT
BRANCH   1   2
ATOM      2  N   UNL A   1      35.935  22.605  26.464  1.00  0.00    -0.353 N 
ATOM      3  C   UNL A   1      34.712  23.171  26.668  1.00  0.00     0.244 C 
ATOM      4  O   UNL A   1      33.977  22.762  27.564  1.00  0.00    -0.270 OA
ATOM      5  H   UNL A   1      36.226  21.966  27.154  1.00  0.00     0.163 HD
BRANCH   3   6
ATOM      6  C   UNL A   1      34.243  24.263  25.786  1.00  0.00     0.072 C 
ATOM      7  C   UNL A   1      33.046  24.831  25.985  1.00  0.00     0.017 C 
BRANCH   7   8
ATOM      8  C   UNL A   1      32.399  25.831  25.119  1.00  0.00     0.017 A 
ATOM      9  C   UNL A   1      31.919  25.487  23.834  1.00  0.00     0.045 A 
ATOM     10  C   UNL A   1      31.064  26.395  23.186  1.00  0.00     0.026 A 
ATOM     11  C   UNL A   1      30.791  27.659  23.704  1.00  0.00     0.004 A 
ATOM     12  C   UNL A   1      32.130  27.120  25.631  1.00  0.00     0.050 A 
ATOM     13  C   UNL A   1      31.354  28.035  24.914  1.00  0.00     0.021 A 
ATOM     14  Cl  UNL A   1      32.739  27.653  27.164  1.00  0.00    -0.084 Cl
BRANCH   9  15
ATOM     15  N   UNL A   1      32.267  24.324  23.157  1.00  0.00    -0.374 N 
ATOM     16  C   UNL A   1      33.232  24.386  22.070  1.00  0.00     0.143 C 
BRANCH  15  17
ATOM     17  C   UNL A   1      31.468  23.109  23.370  1.00  0.00     0.119 C 
BRANCH  17  18
ATOM     18  C   UNL A   1      32.354  21.838  23.358  1.00  0.00     0.005 C 
ATOM     19  C   UNL A   1      31.944  20.905  22.213  1.00  0.00     0.009 C 
BRANCH  18  20
ATOM     20  C   UNL A   1      32.273  21.066  24.696  1.00  0.00     0.002 C 
ATOM     21  C   UNL A   1      33.457  20.128  24.896  1.00  0.00     0.004 C 
ENDBRANCH  18  20
ENDBRANCH  17  18
ENDBRANCH  15  17
ENDBRANCH   9  15
ENDBRANCH   7   8
ENDBRANCH   3   6
ENDBRANCH   1   2
BRANCH   1  22
ATOM     22  C   UNL A   1      36.910  21.618  24.418  1.00  0.00     0.023 C 
BRANCH  22  23
ATOM     23  C   UNL A   1      37.659  20.395  24.953  1.00  0.00     0.023 C 
BRANCH  23  24
ATOM     24  C   UNL A   1      38.863  20.706  25.837  1.00  0.00     0.116 C 
BRANCH  24  25
ATOM     25  N   UNL A   1      39.823  19.616  25.913  1.00  0.00    -0.352 N 
ATOM     26  C   UNL A   1      41.175  19.689  26.152  1.00  0.00     0.251 C 
ATOM     27  H   UNL A   1      39.460  18.712  25.776  1.00  0.00     0.163 HD
ATOM     28  O   UNL A   1      41.870  18.679  26.079  1.00  0.00    -0.269 OA
BRANCH  26  29
ATOM     29  C   UNL A   1      41.785  21.002  26.447  1.00  0.00     0.039 A 
ATOM     30  C   UNL A   1      42.055  21.872  25.389  1.00  0.00     0.014 A 
ATOM     31  C   UNL A   1      42.046  21.389  27.765  1.00  0.00     0.014 A 
ATOM     32  C   UNL A   1      42.526  23.157  25.658  1.00  0.00     0.010 A 
ATOM     33  C   UNL A   1      42.448  22.693  28.035  1.00  0.00     0.010 A 
ATOM     34  C   UNL A   1      42.691  23.591  26.984  1.00  0.00    -0.014 A 
BRANCH  34  35
ATOM     35  C   UNL A   1      43.120  24.979  27.287  1.00  0.00     0.031 A 
ATOM     36  C   UNL A   1      42.171  25.931  27.962  1.00  0.00     0.074 A 
ATOM     37  C   UNL A   1      44.344  25.396  26.903  1.00  0.00     0.049 A 
ATOM     38  N   UNL A   1      42.340  27.191  28.267  1.00  0.00    -0.248 NA
ATOM     39  C   UNL A   1      40.845  25.399  28.310  1.00  0.00     0.031 C 
ATOM     40  C   UNL A   1      45.330  24.578  26.194  1.00  0.00     0.029 A 
ATOM     41  N   UNL A   1      44.964  26.611  27.047  1.00  0.00    -0.354 N 
ATOM     42  C   UNL A   1      41.139  27.608  28.833  1.00  0.00     0.074 A 
ATOM     43  C   UNL A   1      40.232  26.482  28.765  1.00  0.00     0.031 C 
ATOM     44  C   UNL A   1      46.440  25.306  25.990  1.00  0.00     0.029 A 
ATOM     45  C   UNL A   1      46.233  26.650  26.517  1.00  0.00     0.049 A 
ATOM     46  H   UNL A   1      44.541  27.383  27.489  1.00  0.00     0.167 HD
ATOM     47  C   UNL A   1      40.832  28.809  29.381  1.00  0.00     0.034 A 
ATOM     48  C   UNL A   1      47.126  27.658  26.459  1.00  0.00     0.034 A 
ATOM     49  C   UNL A   1      41.753  29.916  29.451  1.00  0.00     0.049 A 
ATOM     50  C   UNL A   1      46.759  28.988  27.068  1.00  0.00     0.074 A 
ATOM     51  C   UNL A   1      41.570  31.157  30.035  1.00  0.00     0.029 A 
ATOM     52  N   UNL A   1      43.034  29.919  28.911  1.00  0.00    -0.354 N 
ATOM     53  N   UNL A   1      45.640  29.348  27.655  1.00  0.00    -0.248 NA
ATOM     54  C   UNL A   1      47.779  30.041  27.019  1.00  0.00     0.031 C 
ATOM     55  C   UNL A   1      42.713  31.930  29.793  1.00  0.00     0.029 A 
ATOM     56  C   UNL A   1      43.640  31.148  29.122  1.00  0.00     0.049 A 
ATOM     57  H   UNL A   1      43.452  29.158  28.445  1.00  0.00     0.167 HD
ATOM     58  C   UNL A   1      45.836  30.662  28.069  1.00  0.00     0.074 A 
ATOM     59  C   UNL A   1      47.184  31.022  27.681  1.00  0.00     0.031 C 
ATOM     60  C   UNL A   1      44.980  31.495  28.715  1.00  0.00     0.034 A 
BRANCH  47  61
ATOM     61  C   UNL A   1      39.433  28.983  29.926  1.00  0.00     0.023 A 
ATOM     62  C   UNL A   1      38.417  29.594  29.169  1.00  0.00     0.031 A 
ATOM     63  C   UNL A   1      39.118  28.568  31.231  1.00  0.00     0.131 A 
ATOM     64  C   UNL A   1      37.165  29.846  29.748  1.00  0.00     0.055 A 
ATOM     65  C   UNL A   1      37.843  28.745  31.774  1.00  0.00     0.041 A 
ATOM     66  F   UNL A   1      40.050  27.997  32.011  1.00  0.00    -0.206 F 
ATOM     67  C   UNL A   1      36.862  29.403  31.038  1.00  0.00     0.022 A 
BRANCH  64  68
ATOM     68  S   UNL A   1      35.989  30.894  28.848  1.00  0.00     0.124 S 
ATOM     69  O   UNL A   1      36.888  31.770  28.100  1.00  0.00    -0.237 OA
ATOM     70  O   UNL A   1      35.241  29.922  28.058  1.00  0.00    -0.237 OA
ATOM     71  O   UNL A   1      35.231  31.550  29.911  1.00  0.00    -0.744 OA
ENDBRANCH  64  68
ENDBRANCH  47  61
BRANCH  48  72
ATOM     72  C   UNL A   1      48.449  27.460  25.801  1.00  0.00     0.023 A 
ATOM     73  C   UNL A   1      48.594  27.606  24.412  1.00  0.00     0.031 A 
ATOM     74  C   UNL A   1      49.579  27.082  26.546  1.00  0.00     0.131 A 
ATOM     75  C   UNL A   1      49.829  27.329  23.804  1.00  0.00     0.055 A 
ATOM     76  C   UNL A   1      50.818  26.856  25.943  1.00  0.00     0.041 A 
ATOM     77  F   UNL A   1      49.497  26.935  27.878  1.00  0.00    -0.206 F 
ATOM     78  C   UNL A   1      50.945  26.967  24.561  1.00  0.00     0.022 A 
BRANCH  75  79
ATOM     79  S   UNL A   1      49.935  27.371  21.994  1.00  0.00     0.124 S 
ATOM     80  O   UNL A   1      48.785  26.559  21.611  1.00  0.00    -0.237 OA
ATOM     81  O   UNL A   1      49.832  28.800  21.718  1.00  0.00    -0.237 OA
ATOM     82  O   UNL A   1      51.241  26.776  21.716  1.00  0.00    -0.744 OA
ENDBRANCH  75  79
ENDBRANCH  48  72
BRANCH  60  83
ATOM     83  C   UNL A   1      45.504  32.866  29.069  1.00  0.00     0.023 A 
ATOM     84  C   UNL A   1      46.095  33.132  30.316  1.00  0.00     0.031 A 
ATOM     85  C   UNL A   1      45.390  33.925  28.150  1.00  0.00     0.131 A 
ATOM     86  C   UNL A   1      46.498  34.438  30.634  1.00  0.00     0.055 A 
ATOM     87  C   UNL A   1      45.848  35.209  28.450  1.00  0.00     0.041 A 
ATOM     88  F   UNL A   1      44.832  33.728  26.946  1.00  0.00    -0.206 F 
ATOM     89  C   UNL A   1      46.393  35.474  29.702  1.00  0.00     0.022 A 
BRANCH  86  90
ATOM     90  S   UNL A   1      47.072  34.785  32.319  1.00  0.00     0.124 S 
ATOM     91  O   UNL A   1      46.562  36.134  32.542  1.00  0.00    -0.237 OA
ATOM     92  O   UNL A   1      46.432  33.726  33.091  1.00  0.00    -0.237 OA
ATOM     93  O   UNL A   1      48.527  34.682  32.213  1.00  0.00    -0.744 OA
ENDBRANCH  86  90
ENDBRANCH  60  83
ENDBRANCH  34  35
ENDBRANCH  26  29
ENDBRANCH  24  25
ENDBRANCH  23  24
ENDBRANCH  22  23
ENDBRANCH   1  22
TORSDOF 19
ENDMDL
