MODEL 1
REMARK VINA RESULT:     -12.4      0.000      0.000
REMARK SMILES Cc1cc2cc(-c3ccc([C@@H](C)C(=O)NCCCCNC(=O)c4ccc(-c5c6nc(c(-c7cc(S(=O)(=O)[O-])ccc7F)c7ccc([nH]7)c(-c7cc(S(=O)(=O)[O-])ccc7F)c7nc(c(-c8cc(S(=O)(=O)[O-])ccc8F)c8ccc5[nH]8)C=C7)C=C6)cc4)cc3)ccc2[nH]1
REMARK SMILES IDX 18 1 17 2 16 3 15 4 13 5 14 6 11 8 12 9 10 10 7 11 8 12
REMARK SMILES IDX 87 13 9 14 86 15 6 16 1 17 2 18 3 19 91 20 4 21 90 22 5 24
REMARK SMILES IDX 89 25 88 26 19 27 20 28 21 29 22 31 23 32 24 33 85 34 25 35
REMARK SMILES IDX 84 36 26 37 27 38 28 39 78 40 29 41 83 42 77 43 79 44 30 45
REMARK SMILES IDX 82 46 76 47 75 48 31 50 63 51 43 52 62 53 44 54 47 55 61 56
REMARK SMILES IDX 80 57 45 58 46 59 60 61 81 62 48 63 32 64 33 65 41 66 34 67
REMARK SMILES IDX 40 68 42 69 39 70 35 71 36 72 37 73 38 74 64 75 65 76 73 77
REMARK SMILES IDX 66 78 72 79 74 80 71 81 67 82 68 83 69 84 70 85 49 86 50 87
REMARK SMILES IDX 58 88 51 89 57 90 59 91 56 92 52 93 53 94 54 95 55 96
REMARK H PARENT 15 7 91 23 20 30 79 49 47 60
REMARK Flexibility Score: inf
ROOT
ATOM      1  C   UNL A   1      35.840  22.771  25.449  1.00  0.00     0.023 C 
ENDROOT
BRANCH   1   2
ATOM      2  C   UNL A   1      35.618  21.350  25.963  1.00  0.00     0.023 C 
BRANCH   2   3
ATOM      3  C   UNL A   1      35.238  20.325  24.893  1.00  0.00     0.116 C 
BRANCH   3   4
ATOM      4  N   UNL A   1      34.283  19.349  25.375  1.00  0.00    -0.356 N 
ATOM      5  C   UNL A   1      32.980  19.122  25.049  1.00  0.00     0.227 C 
ATOM      6  O   UNL A   1      32.396  18.233  25.682  1.00  0.00    -0.274 OA
ATOM      7  H   UNL A   1      34.639  18.741  26.064  1.00  0.00     0.163 HD
BRANCH   5   8
ATOM      8  C   UNL A   1      32.228  19.888  23.949  1.00  0.00     0.105 C 
ATOM      9  C   UNL A   1      32.385  19.279  22.555  1.00  0.00     0.023 C 
BRANCH   8  10
ATOM     10  C   UNL A   1      32.391  21.396  24.045  1.00  0.00    -0.036 A 
ATOM     11  C   UNL A   1      32.834  24.204  24.372  1.00  0.00    -0.018 A 
ATOM     12  C   UNL A   1      33.170  23.530  23.184  1.00  0.00     0.009 A 
ATOM     13  C   UNL A   1      32.241  23.437  25.384  1.00  0.00     0.009 A 
ATOM     14  C   UNL A   1      32.920  22.166  23.009  1.00  0.00     0.005 A 
ATOM     15  C   UNL A   1      32.041  22.056  25.232  1.00  0.00     0.005 A 
BRANCH  11  16
ATOM     16  C   UNL A   1      33.123  25.650  24.528  1.00  0.00    -0.018 A 
ATOM     17  C   UNL A   1      33.931  30.982  27.454  1.00  0.00     0.064 C 
ATOM     18  C   UNL A   1      33.776  29.720  26.693  1.00  0.00     0.013 A 
ATOM     19  C   UNL A   1      33.669  28.417  27.130  1.00  0.00     0.031 A 
ATOM     20  N   UNL A   1      33.701  29.697  25.320  1.00  0.00    -0.359 N 
ATOM     21  C   UNL A   1      33.507  27.586  25.989  1.00  0.00     0.000 A 
ATOM     22  C   UNL A   1      33.526  28.408  24.869  1.00  0.00     0.046 A 
ATOM     23  H   UNL A   1      33.764  30.491  24.741  1.00  0.00     0.166 HD
ATOM     24  C   UNL A   1      33.328  26.201  25.811  1.00  0.00     0.019 A 
ATOM     25  C   UNL A   1      33.372  27.908  23.574  1.00  0.00     0.027 A 
ATOM     26  C   UNL A   1      33.160  26.527  23.430  1.00  0.00     0.011 A 
ENDBRANCH  11  16
ENDBRANCH   8  10
ENDBRANCH   5   8
ENDBRANCH   3   4
ENDBRANCH   2   3
ENDBRANCH   1   2
BRANCH   1  27
ATOM     27  C   UNL A   1      37.270  23.105  25.041  1.00  0.00     0.116 C 
BRANCH  27  28
ATOM     28  N   UNL A   1      38.276  22.229  25.629  1.00  0.00    -0.352 N 
ATOM     29  C   UNL A   1      39.330  22.577  26.445  1.00  0.00     0.251 C 
ATOM     30  H   UNL A   1      38.191  21.271  25.416  1.00  0.00     0.163 HD
ATOM     31  O   UNL A   1      40.140  21.734  26.804  1.00  0.00    -0.269 OA
BRANCH  29  32
ATOM     32  C   UNL A   1      39.492  23.996  26.832  1.00  0.00     0.039 A 
ATOM     33  C   UNL A   1      39.128  24.391  28.123  1.00  0.00     0.014 A 
ATOM     34  C   UNL A   1      40.078  24.907  25.952  1.00  0.00     0.014 A 
ATOM     35  C   UNL A   1      39.439  25.680  28.560  1.00  0.00     0.010 A 
ATOM     36  C   UNL A   1      40.450  26.165  26.413  1.00  0.00     0.010 A 
ATOM     37  C   UNL A   1      40.146  26.561  27.725  1.00  0.00    -0.014 A 
BRANCH  37  38
ATOM     38  C   UNL A   1      40.586  27.900  28.195  1.00  0.00     0.031 A 
ATOM     39  C   UNL A   1      42.054  28.190  28.345  1.00  0.00     0.074 A 
ATOM     40  C   UNL A   1      39.671  28.812  28.578  1.00  0.00     0.049 A 
ATOM     41  N   UNL A   1      42.645  29.228  28.876  1.00  0.00    -0.248 NA
ATOM     42  C   UNL A   1      42.976  27.150  27.866  1.00  0.00     0.031 C 
ATOM     43  C   UNL A   1      38.218  28.632  28.519  1.00  0.00     0.029 A 
ATOM     44  N   UNL A   1      39.826  30.068  29.111  1.00  0.00    -0.354 N 
ATOM     45  C   UNL A   1      44.008  28.957  28.818  1.00  0.00     0.074 A 
ATOM     46  C   UNL A   1      44.147  27.632  28.253  1.00  0.00     0.031 C 
ATOM     47  C   UNL A   1      37.618  29.740  28.982  1.00  0.00     0.029 A 
ATOM     48  C   UNL A   1      38.637  30.691  29.413  1.00  0.00     0.049 A 
ATOM     49  H   UNL A   1      40.705  30.483  29.262  1.00  0.00     0.167 HD
ATOM     50  C   UNL A   1      45.047  29.750  29.182  1.00  0.00     0.034 A 
ATOM     51  C   UNL A   1      38.397  31.885  29.989  1.00  0.00     0.034 A 
ATOM     52  C   UNL A   1      44.890  31.078  29.723  1.00  0.00     0.049 A 
ATOM     53  C   UNL A   1      39.567  32.748  30.392  1.00  0.00     0.074 A 
ATOM     54  C   UNL A   1      45.870  31.988  30.077  1.00  0.00     0.029 A 
ATOM     55  N   UNL A   1      43.670  31.686  29.989  1.00  0.00    -0.354 N 
ATOM     56  N   UNL A   1      40.851  32.493  30.298  1.00  0.00    -0.248 NA
ATOM     57  C   UNL A   1      39.253  34.062  30.970  1.00  0.00     0.031 C 
ATOM     58  C   UNL A   1      45.245  33.125  30.603  1.00  0.00     0.029 A 
ATOM     59  C   UNL A   1      43.873  32.950  30.521  1.00  0.00     0.049 A 
ATOM     60  H   UNL A   1      42.789  31.279  29.825  1.00  0.00     0.167 HD
ATOM     61  C   UNL A   1      41.498  33.628  30.776  1.00  0.00     0.074 A 
ATOM     62  C   UNL A   1      40.464  34.570  31.152  1.00  0.00     0.031 C 
ATOM     63  C   UNL A   1      42.828  33.874  30.892  1.00  0.00     0.034 A 
BRANCH  50  64
ATOM     64  C   UNL A   1      46.436  29.182  29.022  1.00  0.00     0.023 A 
ATOM     65  C   UNL A   1      47.072  29.138  27.769  1.00  0.00     0.031 A 
ATOM     66  C   UNL A   1      47.114  28.633  30.124  1.00  0.00     0.131 A 
ATOM     67  C   UNL A   1      48.304  28.480  27.631  1.00  0.00     0.055 A 
ATOM     68  C   UNL A   1      48.381  28.057  29.996  1.00  0.00     0.041 A 
ATOM     69  F   UNL A   1      46.550  28.629  31.342  1.00  0.00    -0.206 F 
ATOM     70  C   UNL A   1      48.975  27.961  28.740  1.00  0.00     0.022 A 
BRANCH  67  71
ATOM     71  S   UNL A   1      48.939  28.179  25.959  1.00  0.00     0.124 S 
ATOM     72  O   UNL A   1      49.304  26.767  26.035  1.00  0.00    -0.237 OA
ATOM     73  O   UNL A   1      47.789  28.498  25.122  1.00  0.00    -0.237 OA
ATOM     74  O   UNL A   1      50.068  29.102  25.850  1.00  0.00    -0.744 OA
ENDBRANCH  67  71
ENDBRANCH  50  64
BRANCH  51  75
ATOM     75  C   UNL A   1      36.999  32.342  30.234  1.00  0.00     0.023 A 
ATOM     76  C   UNL A   1      36.309  33.095  29.272  1.00  0.00     0.031 A 
ATOM     77  C   UNL A   1      36.349  32.065  31.449  1.00  0.00     0.131 A 
ATOM     78  C   UNL A   1      35.026  33.587  29.557  1.00  0.00     0.055 A 
ATOM     79  C   UNL A   1      35.054  32.517  31.710  1.00  0.00     0.041 A 
ATOM     80  F   UNL A   1      36.962  31.342  32.399  1.00  0.00    -0.206 F 
ATOM     81  C   UNL A   1      34.389  33.294  30.766  1.00  0.00     0.022 A 
BRANCH  78  82
ATOM     82  S   UNL A   1      34.228  34.684  28.353  1.00  0.00     0.124 S 
ATOM     83  O   UNL A   1      35.026  34.440  27.155  1.00  0.00    -0.237 OA
ATOM     84  O   UNL A   1      32.863  34.167  28.331  1.00  0.00    -0.237 OA
ATOM     85  O   UNL A   1      34.380  36.010  28.946  1.00  0.00    -0.744 OA
ENDBRANCH  78  82
ENDBRANCH  51  75
BRANCH  63  86
ATOM     86  C   UNL A   1      43.230  35.237  31.392  1.00  0.00     0.023 A 
ATOM     87  C   UNL A   1      43.474  36.305  30.513  1.00  0.00     0.031 A 
ATOM     88  C   UNL A   1      43.372  35.465  32.772  1.00  0.00     0.131 A 
ATOM     89  C   UNL A   1      43.893  37.544  31.021  1.00  0.00     0.055 A 
ATOM     90  C   UNL A   1      43.740  36.713  33.274  1.00  0.00     0.041 A 
ATOM     91  F   UNL A   1      43.150  34.477  33.654  1.00  0.00    -0.206 F 
ATOM     92  C   UNL A   1      44.013  37.759  32.397  1.00  0.00     0.022 A 
BRANCH  89  93
ATOM     93  S   UNL A   1      44.343  38.858  29.855  1.00  0.00     0.124 S 
ATOM     94  O   UNL A   1      45.647  39.276  30.357  1.00  0.00    -0.237 OA
ATOM     95  O   UNL A   1      44.347  38.154  28.576  1.00  0.00    -0.237 OA
ATOM     96  O   UNL A   1      43.273  39.841  30.016  1.00  0.00    -0.744 OA
ENDBRANCH  89  93
ENDBRANCH  63  86
ENDBRANCH  37  38
ENDBRANCH  29  32
ENDBRANCH  27  28
ENDBRANCH   1  27
TORSDOF 16
ENDMDL
MODEL 2
REMARK VINA RESULT:     -12.2      3.227      8.449
REMARK SMILES Cc1cc2cc(-c3ccc([C@@H](C)C(=O)NCCCCNC(=O)c4ccc(-c5c6nc(c(-c7cc(S(=O)(=O)[O-])ccc7F)c7ccc([nH]7)c(-c7cc(S(=O)(=O)[O-])ccc7F)c7nc(c(-c8cc(S(=O)(=O)[O-])ccc8F)c8ccc5[nH]8)C=C7)C=C6)cc4)cc3)ccc2[nH]1
REMARK SMILES IDX 18 1 17 2 16 3 15 4 13 5 14 6 11 8 12 9 10 10 7 11 8 12
REMARK SMILES IDX 87 13 9 14 86 15 6 16 1 17 2 18 3 19 91 20 4 21 90 22 5 24
REMARK SMILES IDX 89 25 88 26 19 27 20 28 21 29 22 31 23 32 24 33 85 34 25 35
REMARK SMILES IDX 84 36 26 37 27 38 28 39 78 40 29 41 83 42 77 43 79 44 30 45
REMARK SMILES IDX 82 46 76 47 75 48 31 50 63 51 43 52 62 53 44 54 47 55 61 56
REMARK SMILES IDX 80 57 45 58 46 59 60 61 81 62 48 63 32 64 33 65 41 66 34 67
REMARK SMILES IDX 40 68 42 69 39 70 35 71 36 72 37 73 38 74 64 75 65 76 73 77
REMARK SMILES IDX 66 78 72 79 74 80 71 81 67 82 68 83 69 84 70 85 49 86 50 87
REMARK SMILES IDX 58 88 51 89 57 90 59 91 56 92 52 93 53 94 54 95 55 96
REMARK H PARENT 15 7 91 23 20 30 79 49 47 60
REMARK Flexibility Score: inf
ROOT
ATOM      1  C   UNL A   1      37.950  21.319  25.000  1.00  0.00     0.023 C 
ENDROOT
BRANCH   1   2
ATOM      2  C   UNL A   1      36.876  20.233  25.026  1.00  0.00     0.023 C 
BRANCH   2   3
ATOM      3  C   UNL A   1      35.436  20.745  24.984  1.00  0.00     0.116 C 
BRANCH   3   4
ATOM      4  N   UNL A   1      34.481  19.746  25.419  1.00  0.00    -0.356 N 
ATOM      5  C   UNL A   1      33.129  19.664  25.272  1.00  0.00     0.227 C 
ATOM      6  O   UNL A   1      32.571  18.698  25.808  1.00  0.00    -0.274 OA
ATOM      7  H   UNL A   1      34.881  18.991  25.908  1.00  0.00     0.163 HD
BRANCH   5   8
ATOM      8  C   UNL A   1      32.292  20.680  24.480  1.00  0.00     0.105 C 
ATOM      9  C   UNL A   1      32.352  20.481  22.964  1.00  0.00     0.023 C 
BRANCH   8  10
ATOM     10  C   UNL A   1      32.447  22.108  24.976  1.00  0.00    -0.036 A 
ATOM     11  C   UNL A   1      32.580  24.846  25.794  1.00  0.00    -0.018 A 
ATOM     12  C   UNL A   1      32.259  23.815  26.694  1.00  0.00     0.009 A 
ATOM     13  C   UNL A   1      32.863  24.465  24.474  1.00  0.00     0.009 A 
ATOM     14  C   UNL A   1      32.230  22.473  26.305  1.00  0.00     0.005 A 
ATOM     15  C   UNL A   1      32.779  23.124  24.068  1.00  0.00     0.005 A 
BRANCH  11  16
ATOM     16  C   UNL A   1      32.592  26.261  26.237  1.00  0.00    -0.018 A 
ATOM     17  C   UNL A   1      34.987  31.678  27.838  1.00  0.00     0.064 C 
ATOM     18  C   UNL A   1      34.347  30.405  27.435  1.00  0.00     0.013 A 
ATOM     19  C   UNL A   1      34.881  29.281  26.840  1.00  0.00     0.031 A 
ATOM     20  N   UNL A   1      33.009  30.161  27.639  1.00  0.00    -0.359 N 
ATOM     21  C   UNL A   1      33.839  28.326  26.696  1.00  0.00     0.000 A 
ATOM     22  C   UNL A   1      32.679  28.896  27.206  1.00  0.00     0.046 A 
ATOM     23  H   UNL A   1      32.376  30.801  28.038  1.00  0.00     0.166 HD
ATOM     24  C   UNL A   1      33.784  27.014  26.191  1.00  0.00     0.019 A 
ATOM     25  C   UNL A   1      31.462  28.211  27.236  1.00  0.00     0.027 A 
ATOM     26  C   UNL A   1      31.447  26.891  26.756  1.00  0.00     0.011 A 
ENDBRANCH  11  16
ENDBRANCH   8  10
ENDBRANCH   5   8
ENDBRANCH   3   4
ENDBRANCH   2   3
ENDBRANCH   1   2
BRANCH   1  27
ATOM     27  C   UNL A   1      39.048  21.180  26.049  1.00  0.00     0.116 C 
BRANCH  27  28
ATOM     28  N   UNL A   1      39.841  19.965  25.924  1.00  0.00    -0.352 N 
ATOM     29  C   UNL A   1      41.209  19.831  26.020  1.00  0.00     0.251 C 
ATOM     30  H   UNL A   1      39.336  19.137  25.749  1.00  0.00     0.163 HD
ATOM     31  O   UNL A   1      41.741  18.748  25.818  1.00  0.00    -0.269 OA
BRANCH  29  32
ATOM     32  C   UNL A   1      42.022  21.031  26.318  1.00  0.00     0.039 A 
ATOM     33  C   UNL A   1      42.357  21.897  25.273  1.00  0.00     0.014 A 
ATOM     34  C   UNL A   1      42.375  21.338  27.633  1.00  0.00     0.014 A 
ATOM     35  C   UNL A   1      42.968  23.119  25.562  1.00  0.00     0.010 A 
ATOM     36  C   UNL A   1      42.918  22.584  27.925  1.00  0.00     0.010 A 
ATOM     37  C   UNL A   1      43.209  23.493  26.895  1.00  0.00    -0.014 A 
BRANCH  37  38
ATOM     38  C   UNL A   1      43.758  24.829  27.245  1.00  0.00     0.031 A 
ATOM     39  C   UNL A   1      42.850  25.879  27.820  1.00  0.00     0.074 A 
ATOM     40  C   UNL A   1      45.040  25.125  26.954  1.00  0.00     0.049 A 
ATOM     41  N   UNL A   1      43.085  27.144  28.054  1.00  0.00    -0.248 NA
ATOM     42  C   UNL A   1      41.479  25.452  28.139  1.00  0.00     0.031 C 
ATOM     43  C   UNL A   1      46.009  24.203  26.355  1.00  0.00     0.029 A 
ATOM     44  N   UNL A   1      45.747  26.292  27.105  1.00  0.00    -0.354 N 
ATOM     45  C   UNL A   1      41.887  27.670  28.523  1.00  0.00     0.074 A 
ATOM     46  C   UNL A   1      40.915  26.599  28.485  1.00  0.00     0.031 C 
ATOM     47  C   UNL A   1      47.184  24.835  26.205  1.00  0.00     0.029 A 
ATOM     48  C   UNL A   1      47.044  26.217  26.651  1.00  0.00     0.049 A 
ATOM     49  H   UNL A   1      45.362  27.106  27.501  1.00  0.00     0.167 HD
ATOM     50  C   UNL A   1      41.629  28.927  28.967  1.00  0.00     0.034 A 
ATOM     51  C   UNL A   1      48.004  27.160  26.587  1.00  0.00     0.034 A 
ATOM     52  C   UNL A   1      42.616  29.977  29.018  1.00  0.00     0.049 A 
ATOM     53  C   UNL A   1      47.693  28.551  27.079  1.00  0.00     0.074 A 
ATOM     54  C   UNL A   1      42.479  31.268  29.496  1.00  0.00     0.029 A 
ATOM     55  N   UNL A   1      43.927  29.854  28.577  1.00  0.00    -0.354 N 
ATOM     56  N   UNL A   1      46.565  29.026  27.554  1.00  0.00    -0.248 NA
ATOM     57  C   UNL A   1      48.787  29.531  27.033  1.00  0.00     0.031 C 
ATOM     58  C   UNL A   1      43.690  31.941  29.296  1.00  0.00     0.029 A 
ATOM     59  C   UNL A   1      44.602  31.052  28.751  1.00  0.00     0.049 A 
ATOM     60  H   UNL A   1      44.319  29.037  28.193  1.00  0.00     0.167 HD
ATOM     61  C   UNL A   1      46.824  30.350  27.892  1.00  0.00     0.074 A 
ATOM     62  C   UNL A   1      48.215  30.597  27.574  1.00  0.00     0.031 C 
ATOM     63  C   UNL A   1      45.990  31.279  28.424  1.00  0.00     0.034 A 
BRANCH  50  64
ATOM     64  C   UNL A   1      40.216  29.225  29.405  1.00  0.00     0.023 A 
ATOM     65  C   UNL A   1      39.838  29.167  30.759  1.00  0.00     0.031 A 
ATOM     66  C   UNL A   1      39.221  29.523  28.457  1.00  0.00     0.131 A 
ATOM     67  C   UNL A   1      38.491  29.315  31.117  1.00  0.00     0.055 A 
ATOM     68  C   UNL A   1      37.895  29.755  28.831  1.00  0.00     0.041 A 
ATOM     69  F   UNL A   1      39.517  29.572  27.149  1.00  0.00    -0.206 F 
ATOM     70  C   UNL A   1      37.519  29.634  30.166  1.00  0.00     0.022 A 
BRANCH  67  71
ATOM     71  S   UNL A   1      38.004  28.933  32.822  1.00  0.00     0.124 S 
ATOM     72  O   UNL A   1      39.056  29.602  33.584  1.00  0.00    -0.237 OA
ATOM     73  O   UNL A   1      36.675  29.525  32.912  1.00  0.00    -0.237 OA
ATOM     74  O   UNL A   1      38.043  27.472  32.870  1.00  0.00    -0.744 OA
ENDBRANCH  67  71
ENDBRANCH  50  64
BRANCH  51  75
ATOM     75  C   UNL A   1      49.348  26.836  26.028  1.00  0.00     0.023 A 
ATOM     76  C   UNL A   1      49.750  27.339  24.782  1.00  0.00     0.031 A 
ATOM     77  C   UNL A   1      50.232  25.987  26.716  1.00  0.00     0.131 A 
ATOM     78  C   UNL A   1      50.984  26.953  24.237  1.00  0.00     0.055 A 
ATOM     79  C   UNL A   1      51.479  25.642  26.191  1.00  0.00     0.041 A 
ATOM     80  F   UNL A   1      49.898  25.484  27.915  1.00  0.00    -0.206 F 
ATOM     81  C   UNL A   1      51.857  26.116  24.937  1.00  0.00     0.022 A 
BRANCH  78  82
ATOM     82  S   UNL A   1      51.402  27.499  22.559  1.00  0.00     0.124 S 
ATOM     83  O   UNL A   1      52.836  27.237  22.509  1.00  0.00    -0.237 OA
ATOM     84  O   UNL A   1      50.562  26.631  21.740  1.00  0.00    -0.237 OA
ATOM     85  O   UNL A   1      51.025  28.911  22.556  1.00  0.00    -0.744 OA
ENDBRANCH  78  82
ENDBRANCH  51  75
BRANCH  63  86
ATOM     86  C   UNL A   1      46.583  32.627  28.744  1.00  0.00     0.023 A 
ATOM     87  C   UNL A   1      46.633  33.658  27.791  1.00  0.00     0.031 A 
ATOM     88  C   UNL A   1      47.107  32.878  30.024  1.00  0.00     0.131 A 
ATOM     89  C   UNL A   1      47.237  34.881  28.119  1.00  0.00     0.055 A 
ATOM     90  C   UNL A   1      47.661  34.113  30.360  1.00  0.00     0.041 A 
ATOM     91  F   UNL A   1      47.083  31.926  30.971  1.00  0.00    -0.206 F 
ATOM     92  C   UNL A   1      47.738  35.120  29.401  1.00  0.00     0.022 A 
BRANCH  89  93
ATOM     93  S   UNL A   1      47.420  36.139  26.825  1.00  0.00     0.124 S 
ATOM     94  O   UNL A   1      46.206  36.929  26.995  1.00  0.00    -0.237 OA
ATOM     95  O   UNL A   1      48.667  36.797  27.202  1.00  0.00    -0.237 OA
ATOM     96  O   UNL A   1      47.483  35.356  25.592  1.00  0.00    -0.744 OA
ENDBRANCH  89  93
ENDBRANCH  63  86
ENDBRANCH  37  38
ENDBRANCH  29  32
ENDBRANCH  27  28
ENDBRANCH   1  27
TORSDOF 16
ENDMDL
MODEL 3
REMARK VINA RESULT:     -12.1      2.195      7.628
REMARK SMILES Cc1cc2cc(-c3ccc([C@@H](C)C(=O)NCCCCNC(=O)c4ccc(-c5c6nc(c(-c7cc(S(=O)(=O)[O-])ccc7F)c7ccc([nH]7)c(-c7cc(S(=O)(=O)[O-])ccc7F)c7nc(c(-c8cc(S(=O)(=O)[O-])ccc8F)c8ccc5[nH]8)C=C7)C=C6)cc4)cc3)ccc2[nH]1
REMARK SMILES IDX 18 1 17 2 16 3 15 4 13 5 14 6 11 8 12 9 10 10 7 11 8 12
REMARK SMILES IDX 87 13 9 14 86 15 6 16 1 17 2 18 3 19 91 20 4 21 90 22 5 24
REMARK SMILES IDX 89 25 88 26 19 27 20 28 21 29 22 31 23 32 24 33 85 34 25 35
REMARK SMILES IDX 84 36 26 37 27 38 28 39 78 40 29 41 83 42 77 43 79 44 30 45
REMARK SMILES IDX 82 46 76 47 75 48 31 50 63 51 43 52 62 53 44 54 47 55 61 56
REMARK SMILES IDX 80 57 45 58 46 59 60 61 81 62 48 63 32 64 33 65 41 66 34 67
REMARK SMILES IDX 40 68 42 69 39 70 35 71 36 72 37 73 38 74 64 75 65 76 73 77
REMARK SMILES IDX 66 78 72 79 74 80 71 81 67 82 68 83 69 84 70 85 49 86 50 87
REMARK SMILES IDX 58 88 51 89 57 90 59 91 56 92 52 93 53 94 54 95 55 96
REMARK H PARENT 15 7 91 23 20 30 79 49 47 60
REMARK Flexibility Score: inf
ROOT
ATOM      1  C   UNL A   1      36.102  21.820  24.566  1.00  0.00     0.023 C 
ENDROOT
BRANCH   1   2
ATOM      2  C   UNL A   1      35.454  20.724  25.411  1.00  0.00     0.023 C 
BRANCH   2   3
ATOM      3  C   UNL A   1      35.188  19.411  24.674  1.00  0.00     0.116 C 
BRANCH   3   4
ATOM      4  N   UNL A   1      34.101  18.656  25.265  1.00  0.00    -0.356 N 
ATOM      5  C   UNL A   1      32.769  18.619  24.984  1.00  0.00     0.227 C 
ATOM      6  O   UNL A   1      32.069  17.903  25.710  1.00  0.00    -0.274 OA
ATOM      7  H   UNL A   1      34.375  18.064  26.003  1.00  0.00     0.163 HD
BRANCH   5   8
ATOM      8  C   UNL A   1      32.118  19.394  23.827  1.00  0.00     0.105 C 
ATOM      9  C   UNL A   1      32.356  18.767  22.452  1.00  0.00     0.023 C 
BRANCH   8  10
ATOM     10  C   UNL A   1      32.314  20.898  23.922  1.00  0.00    -0.036 A 
ATOM     11  C   UNL A   1      32.836  23.694  24.229  1.00  0.00    -0.018 A 
ATOM     12  C   UNL A   1      33.024  23.032  23.003  1.00  0.00     0.009 A 
ATOM     13  C   UNL A   1      32.350  22.922  25.294  1.00  0.00     0.009 A 
ATOM     14  C   UNL A   1      32.733  21.675  22.841  1.00  0.00     0.005 A 
ATOM     15  C   UNL A   1      32.112  21.546  25.149  1.00  0.00     0.005 A 
BRANCH  11  16
ATOM     16  C   UNL A   1      33.164  25.133  24.370  1.00  0.00    -0.018 A 
ATOM     17  C   UNL A   1      33.727  30.572  27.154  1.00  0.00     0.064 C 
ATOM     18  C   UNL A   1      33.641  29.280  26.434  1.00  0.00     0.013 A 
ATOM     19  C   UNL A   1      33.400  28.006  26.903  1.00  0.00     0.031 A 
ATOM     20  N   UNL A   1      33.795  29.190  25.070  1.00  0.00    -0.359 N 
ATOM     21  C   UNL A   1      33.391  27.125  25.789  1.00  0.00     0.000 A 
ATOM     22  C   UNL A   1      33.636  27.888  24.653  1.00  0.00     0.046 A 
ATOM     23  H   UNL A   1      33.992  29.950  24.476  1.00  0.00     0.166 HD
ATOM     24  C   UNL A   1      33.178  25.741  25.643  1.00  0.00     0.019 A 
ATOM     25  C   UNL A   1      33.676  27.329  23.373  1.00  0.00     0.027 A 
ATOM     26  C   UNL A   1      33.426  25.951  23.257  1.00  0.00     0.011 A 
ENDBRANCH  11  16
ENDBRANCH   8  10
ENDBRANCH   5   8
ENDBRANCH   3   4
ENDBRANCH   2   3
ENDBRANCH   1   2
BRANCH   1  27
ATOM     27  C   UNL A   1      37.552  22.143  24.911  1.00  0.00     0.116 C 
BRANCH  27  28
ATOM     28  N   UNL A   1      38.324  20.996  25.369  1.00  0.00    -0.352 N 
ATOM     29  C   UNL A   1      39.428  20.992  26.194  1.00  0.00     0.251 C 
ATOM     30  H   UNL A   1      38.019  20.115  25.050  1.00  0.00     0.163 HD
ATOM     31  O   UNL A   1      40.019  19.948  26.434  1.00  0.00    -0.269 OA
BRANCH  29  32
ATOM     32  C   UNL A   1      39.914  22.279  26.738  1.00  0.00     0.039 A 
ATOM     33  C   UNL A   1      40.911  22.266  27.717  1.00  0.00     0.014 A 
ATOM     34  C   UNL A   1      39.446  23.488  26.219  1.00  0.00     0.014 A 
ATOM     35  C   UNL A   1      41.504  23.468  28.111  1.00  0.00     0.010 A 
ATOM     36  C   UNL A   1      40.087  24.675  26.560  1.00  0.00     0.010 A 
ATOM     37  C   UNL A   1      41.130  24.676  27.499  1.00  0.00    -0.014 A 
BRANCH  37  38
ATOM     38  C   UNL A   1      41.815  25.957  27.815  1.00  0.00     0.031 A 
ATOM     39  C   UNL A   1      41.081  27.022  28.582  1.00  0.00     0.074 A 
ATOM     40  C   UNL A   1      43.049  26.196  27.331  1.00  0.00     0.049 A 
ATOM     41  N   UNL A   1      41.434  28.257  28.832  1.00  0.00    -0.248 NA
ATOM     42  C   UNL A   1      39.756  26.656  29.102  1.00  0.00     0.031 C 
ATOM     43  C   UNL A   1      43.846  25.257  26.538  1.00  0.00     0.029 A 
ATOM     44  N   UNL A   1      43.845  27.312  27.418  1.00  0.00    -0.354 N 
ATOM     45  C   UNL A   1      40.364  28.822  29.518  1.00  0.00     0.074 A 
ATOM     46  C   UNL A   1      39.331  27.811  29.590  1.00  0.00     0.031 C 
ATOM     47  C   UNL A   1      45.020  25.829  26.225  1.00  0.00     0.029 A 
ATOM     48  C   UNL A   1      45.044  27.189  26.753  1.00  0.00     0.049 A 
ATOM     49  H   UNL A   1      43.583  28.122  27.910  1.00  0.00     0.167 HD
ATOM     50  C   UNL A   1      40.263  30.064  30.056  1.00  0.00     0.034 A 
ATOM     51  C   UNL A   1      46.040  28.079  26.575  1.00  0.00     0.034 A 
ATOM     52  C   UNL A   1      41.311  31.052  29.993  1.00  0.00     0.049 A 
ATOM     53  C   UNL A   1      45.904  29.455  27.176  1.00  0.00     0.074 A 
ATOM     54  C   UNL A   1      41.338  32.320  30.546  1.00  0.00     0.029 A 
ATOM     55  N   UNL A   1      42.523  30.881  29.335  1.00  0.00    -0.354 N 
ATOM     56  N   UNL A   1      44.901  29.964  27.853  1.00  0.00    -0.248 NA
ATOM     57  C   UNL A   1      47.037  30.372  26.996  1.00  0.00     0.031 C 
ATOM     58  C   UNL A   1      42.542  32.934  30.181  1.00  0.00     0.029 A 
ATOM     59  C   UNL A   1      43.294  32.027  29.452  1.00  0.00     0.049 A 
ATOM     60  H   UNL A   1      42.794  30.066  28.854  1.00  0.00     0.167 HD
ATOM     61  C   UNL A   1      45.297  31.251  28.205  1.00  0.00     0.074 A 
ATOM     62  C   UNL A   1      46.631  31.437  27.673  1.00  0.00     0.031 C 
ATOM     63  C   UNL A   1      44.622  32.194  28.910  1.00  0.00     0.034 A 
BRANCH  50  64
ATOM     64  C   UNL A   1      38.962  30.415  30.735  1.00  0.00     0.023 A 
ATOM     65  C   UNL A   1      37.982  31.191  30.091  1.00  0.00     0.031 A 
ATOM     66  C   UNL A   1      38.715  30.012  32.059  1.00  0.00     0.131 A 
ATOM     67  C   UNL A   1      36.847  31.614  30.797  1.00  0.00     0.055 A 
ATOM     68  C   UNL A   1      37.541  30.364  32.729  1.00  0.00     0.041 A 
ATOM     69  F   UNL A   1      39.621  29.286  32.733  1.00  0.00    -0.206 F 
ATOM     70  C   UNL A   1      36.606  31.185  32.104  1.00  0.00     0.022 A 
BRANCH  67  71
ATOM     71  S   UNL A   1      35.768  32.857  30.033  1.00  0.00     0.124 S 
ATOM     72  O   UNL A   1      36.142  32.742  28.625  1.00  0.00    -0.237 OA
ATOM     73  O   UNL A   1      34.437  32.377  30.382  1.00  0.00    -0.237 OA
ATOM     74  O   UNL A   1      36.173  34.104  30.678  1.00  0.00    -0.744 OA
ENDBRANCH  67  71
ENDBRANCH  50  64
BRANCH  51  75
ATOM     75  C   UNL A   1      47.252  27.712  25.788  1.00  0.00     0.023 A 
ATOM     76  C   UNL A   1      47.317  27.961  24.408  1.00  0.00     0.031 A 
ATOM     77  C   UNL A   1      48.344  27.071  26.397  1.00  0.00     0.131 A 
ATOM     78  C   UNL A   1      48.431  27.531  23.672  1.00  0.00     0.055 A 
ATOM     79  C   UNL A   1      49.471  26.686  25.668  1.00  0.00     0.041 A 
ATOM     80  F   UNL A   1      48.335  26.815  27.715  1.00  0.00    -0.206 F 
ATOM     81  C   UNL A   1      49.514  26.904  24.294  1.00  0.00     0.022 A 
BRANCH  78  82
ATOM     82  S   UNL A   1      48.412  27.733  21.870  1.00  0.00     0.124 S 
ATOM     83  O   UNL A   1      48.625  26.363  21.414  1.00  0.00    -0.237 OA
ATOM     84  O   UNL A   1      47.080  28.285  21.642  1.00  0.00    -0.237 OA
ATOM     85  O   UNL A   1      49.517  28.654  21.618  1.00  0.00    -0.744 OA
ENDBRANCH  78  82
ENDBRANCH  51  75
BRANCH  63  86
ATOM     86  C   UNL A   1      45.345  33.486  29.191  1.00  0.00     0.023 A 
ATOM     87  C   UNL A   1      45.263  34.584  28.318  1.00  0.00     0.031 A 
ATOM     88  C   UNL A   1      46.129  33.615  30.351  1.00  0.00     0.131 A 
ATOM     89  C   UNL A   1      45.991  35.750  28.596  1.00  0.00     0.055 A 
ATOM     90  C   UNL A   1      46.811  34.794  30.647  1.00  0.00     0.041 A 
ATOM     91  F   UNL A   1      46.241  32.594  31.217  1.00  0.00    -0.206 F 
ATOM     92  C   UNL A   1      46.753  35.868  29.762  1.00  0.00     0.022 A 
BRANCH  89  93
ATOM     93  S   UNL A   1      45.983  37.094  27.378  1.00  0.00     0.124 S 
ATOM     94  O   UNL A   1      44.558  37.369  27.237  1.00  0.00    -0.237 OA
ATOM     95  O   UNL A   1      46.768  38.128  28.048  1.00  0.00    -0.237 OA
ATOM     96  O   UNL A   1      46.619  36.498  26.205  1.00  0.00    -0.744 OA
ENDBRANCH  89  93
ENDBRANCH  63  86
ENDBRANCH  37  38
ENDBRANCH  29  32
ENDBRANCH  27  28
ENDBRANCH   1  27
TORSDOF 16
ENDMDL
