MODEL 1
REMARK VINA RESULT:     -12.4      0.000      0.000
REMARK SMILES COc1cccc(CC2(CO)CCN(c3nc(C)ccc3C(=O)NCCCCNC(=O)c3ccc(-c4c5nc(c(-c6cc(S(=O)(=O)[O-])ccc6F)c6ccc([nH]6)c(-c6cc(S(=O)(=O)[O-])ccc6F)c6nc(c(-c7cc(S(=O)(=O)[O-])ccc7F)c7ccc4[nH]7)C=C6)C=C5)cc3)CC2)c1
REMARK SMILES IDX 26 1 25 2 24 3 22 4 23 5 21 7 15 8 16 9 17 10 20 11 18 12
REMARK SMILES IDX 19 13 14 14 9 15 12 16 96 17 13 18 95 19 8 20 7 21 3 22 4 23
REMARK SMILES IDX 97 24 5 25 6 26 2 27 1 28 10 29 11 30 27 32 28 33 29 34
REMARK SMILES IDX 30 35 31 37 32 38 33 39 94 40 34 41 93 42 35 43 36 44 37 45
REMARK SMILES IDX 87 46 38 47 92 48 86 49 88 50 39 51 91 52 85 53 84 54 40 56
REMARK SMILES IDX 72 57 52 58 71 59 53 60 56 61 70 62 89 63 54 64 55 65 69 67
REMARK SMILES IDX 90 68 57 69 41 70 42 71 50 72 43 73 49 74 51 75 48 76 44 77
REMARK SMILES IDX 45 78 46 79 47 80 73 81 74 82 82 83 75 84 81 85 83 86 80 87
REMARK SMILES IDX 76 88 77 89 78 90 79 91 58 92 59 93 67 94 60 95 66 96 68 97
REMARK SMILES IDX 65 98 61 99 62 100 63 101 64 102
REMARK H PARENT 24 6 11 31 29 36 88 55 56 66
REMARK Flexibility Score: inf
ROOT
ATOM      1  C   UNL A   1      32.008  29.888  26.614  1.00  0.00     0.023 C 
ENDROOT
BRANCH   1   2
ATOM      2  C   UNL A   1      33.474  29.471  26.493  1.00  0.00     0.116 C 
BRANCH   2   3
ATOM      3  N   UNL A   1      33.815  29.189  25.115  1.00  0.00    -0.352 N 
ATOM      4  C   UNL A   1      33.116  28.874  23.973  1.00  0.00     0.255 C 
ATOM      5  O   UNL A   1      33.836  28.784  22.981  1.00  0.00    -0.269 OA
ATOM      6  H   UNL A   1      34.784  29.232  24.956  1.00  0.00     0.163 HD
BRANCH   4   7
ATOM      7  C   UNL A   1      31.624  28.715  23.879  1.00  0.00     0.082 A 
ATOM      8  C   UNL A   1      31.004  27.458  24.052  1.00  0.00     0.141 A 
ATOM      9  N   UNL A   1      29.686  27.261  23.758  1.00  0.00    -0.235 NA
ATOM     10  C   UNL A   1      28.918  28.304  23.387  1.00  0.00     0.040 A 
ATOM     11  C   UNL A   1      30.769  29.788  23.600  1.00  0.00     0.019 A 
ATOM     12  C   UNL A   1      27.478  28.010  23.103  1.00  0.00     0.067 C 
ATOM     13  C   UNL A   1      29.413  29.590  23.347  1.00  0.00     0.024 A 
BRANCH   8  14
ATOM     14  N   UNL A   1      31.557  26.361  24.666  1.00  0.00    -0.356 N 
ATOM     15  C   UNL A   1      32.143  23.772  25.826  1.00  0.00     0.001 C 
ATOM     16  C   UNL A   1      32.463  24.134  24.341  1.00  0.00     0.031 C 
ATOM     17  C   UNL A   1      31.175  24.806  26.465  1.00  0.00     0.031 C 
ATOM     18  C   UNL A   1      32.615  25.625  24.015  1.00  0.00     0.119 C 
ATOM     19  C   UNL A   1      31.467  26.261  26.109  1.00  0.00     0.119 C 
BRANCH  15  20
ATOM     20  C   UNL A   1      33.430  23.538  26.687  1.00  0.00     0.045 C 
BRANCH  20  21
ATOM     21  C   UNL A   1      34.712  23.119  26.015  1.00  0.00    -0.044 A 
ATOM     22  C   UNL A   1      36.182  21.380  25.159  1.00  0.00     0.119 A 
ATOM     23  C   UNL A   1      37.135  22.342  24.835  1.00  0.00     0.046 A 
ATOM     24  C   UNL A   1      34.977  21.763  25.752  1.00  0.00     0.050 A 
ATOM     25  C   UNL A   1      36.865  23.692  25.050  1.00  0.00     0.004 A 
ATOM     26  C   UNL A   1      35.654  24.078  25.623  1.00  0.00     0.004 A 
BRANCH  22  27
ATOM     27  O   UNL A   1      36.542  20.078  24.935  1.00  0.00    -0.497 OA
ATOM     28  C   UNL A   1      37.949  19.862  24.929  1.00  0.00     0.278 C 
ENDBRANCH  22  27
ENDBRANCH  20  21
ENDBRANCH  15  20
BRANCH  15  29
ATOM     29  C   UNL A   1      31.374  22.411  25.826  1.00  0.00     0.163 C 
BRANCH  29  30
ATOM     30  O   UNL A   1      30.062  22.522  26.365  1.00  0.00    -0.396 OA
ATOM     31  H   UNL A   1      29.473  22.917  25.703  1.00  0.00     0.210 HD
ENDBRANCH  29  30
ENDBRANCH  15  29
ENDBRANCH   8  14
ENDBRANCH   4   7
ENDBRANCH   2   3
ENDBRANCH   1   2
BRANCH   1  32
ATOM     32  C   UNL A   1      31.792  31.404  26.737  1.00  0.00     0.023 C 
BRANCH  32  33
ATOM     33  C   UNL A   1      32.963  32.188  27.327  1.00  0.00     0.116 C 
BRANCH  33  34
ATOM     34  N   UNL A   1      32.638  33.576  27.611  1.00  0.00    -0.352 N 
ATOM     35  C   UNL A   1      33.222  34.429  28.519  1.00  0.00     0.251 C 
ATOM     36  H   UNL A   1      31.900  33.958  27.082  1.00  0.00     0.163 HD
ATOM     37  O   UNL A   1      32.746  35.541  28.703  1.00  0.00    -0.269 OA
BRANCH  35  38
ATOM     38  C   UNL A   1      34.393  33.970  29.296  1.00  0.00     0.039 A 
ATOM     39  C   UNL A   1      34.177  33.205  30.445  1.00  0.00     0.014 A 
ATOM     40  C   UNL A   1      35.693  34.271  28.882  1.00  0.00     0.014 A 
ATOM     41  C   UNL A   1      35.269  32.682  31.142  1.00  0.00     0.010 A 
ATOM     42  C   UNL A   1      36.778  33.701  29.544  1.00  0.00     0.010 A 
ATOM     43  C   UNL A   1      36.576  32.894  30.675  1.00  0.00    -0.014 A 
BRANCH  43  44
ATOM     44  C   UNL A   1      37.744  32.269  31.349  1.00  0.00     0.031 A 
ATOM     45  C   UNL A   1      38.483  31.141  30.684  1.00  0.00     0.074 A 
ATOM     46  C   UNL A   1      38.085  32.669  32.591  1.00  0.00     0.049 A 
ATOM     47  N   UNL A   1      39.465  30.410  31.145  1.00  0.00    -0.248 NA
ATOM     48  C   UNL A   1      38.037  30.764  29.333  1.00  0.00     0.031 C 
ATOM     49  C   UNL A   1      37.407  33.719  33.356  1.00  0.00     0.029 A 
ATOM     50  N   UNL A   1      39.073  32.230  33.437  1.00  0.00    -0.354 N 
ATOM     51  C   UNL A   1      39.741  29.475  30.154  1.00  0.00     0.074 A 
ATOM     52  C   UNL A   1      38.792  29.704  29.085  1.00  0.00     0.031 C 
ATOM     53  C   UNL A   1      38.005  33.848  34.552  1.00  0.00     0.029 A 
ATOM     54  C   UNL A   1      39.079  32.866  34.658  1.00  0.00     0.049 A 
ATOM     55  H   UNL A   1      39.717  31.526  33.194  1.00  0.00     0.167 HD
ATOM     56  C   UNL A   1      40.708  28.524  30.133  1.00  0.00     0.034 A 
ATOM     57  C   UNL A   1      39.852  32.669  35.746  1.00  0.00     0.034 A 
ATOM     58  C   UNL A   1      41.663  28.329  31.196  1.00  0.00     0.049 A 
ATOM     59  C   UNL A   1      40.929  31.613  35.689  1.00  0.00     0.074 A 
ATOM     60  C   UNL A   1      42.733  27.451  31.240  1.00  0.00     0.029 A 
ATOM     61  N   UNL A   1      41.662  29.015  32.403  1.00  0.00    -0.354 N 
ATOM     62  N   UNL A   1      41.223  30.786  34.713  1.00  0.00    -0.248 NA
ATOM     63  C   UNL A   1      41.787  31.477  36.872  1.00  0.00     0.031 C 
ATOM     64  C   UNL A   1      43.338  27.561  32.497  1.00  0.00     0.029 A 
ATOM     65  C   UNL A   1      42.693  28.558  33.210  1.00  0.00     0.049 A 
ATOM     66  H   UNL A   1      41.023  29.721  32.651  1.00  0.00     0.167 HD
ATOM     67  C   UNL A   1      42.320  30.053  35.156  1.00  0.00     0.074 A 
ATOM     68  C   UNL A   1      42.645  30.548  36.477  1.00  0.00     0.031 C 
ATOM     69  C   UNL A   1      43.002  29.061  34.527  1.00  0.00     0.034 A 
BRANCH  56  70
ATOM     70  C   UNL A   1      40.763  27.607  28.936  1.00  0.00     0.023 A 
ATOM     71  C   UNL A   1      41.733  27.760  27.930  1.00  0.00     0.031 A 
ATOM     72  C   UNL A   1      39.831  26.563  28.800  1.00  0.00     0.131 A 
ATOM     73  C   UNL A   1      41.711  26.923  26.804  1.00  0.00     0.055 A 
ATOM     74  C   UNL A   1      39.861  25.686  27.714  1.00  0.00     0.041 A 
ATOM     75  F   UNL A   1      38.871  26.381  29.719  1.00  0.00    -0.206 F 
ATOM     76  C   UNL A   1      40.797  25.870  26.701  1.00  0.00     0.022 A 
BRANCH  73  77
ATOM     77  S   UNL A   1      42.823  27.298  25.422  1.00  0.00     0.124 S 
ATOM     78  O   UNL A   1      44.049  27.672  26.124  1.00  0.00    -0.237 OA
ATOM     79  O   UNL A   1      42.863  26.035  24.696  1.00  0.00    -0.237 OA
ATOM     80  O   UNL A   1      42.152  28.395  24.729  1.00  0.00    -0.744 OA
ENDBRANCH  73  77
ENDBRANCH  56  70
BRANCH  57  81
ATOM     81  C   UNL A   1      39.634  33.465  36.988  1.00  0.00     0.023 A 
ATOM     82  C   UNL A   1      38.876  32.954  38.053  1.00  0.00     0.031 A 
ATOM     83  C   UNL A   1      40.130  34.776  37.103  1.00  0.00     0.131 A 
ATOM     84  C   UNL A   1      38.587  33.766  39.160  1.00  0.00     0.055 A 
ATOM     85  C   UNL A   1      39.887  35.560  38.232  1.00  0.00     0.041 A 
ATOM     86  F   UNL A   1      40.866  35.313  36.116  1.00  0.00    -0.206 F 
ATOM     87  C   UNL A   1      39.096  35.062  39.262  1.00  0.00     0.022 A 
BRANCH  84  88
ATOM     88  S   UNL A   1      37.443  33.139  40.421  1.00  0.00     0.124 S 
ATOM     89  O   UNL A   1      36.258  32.840  39.626  1.00  0.00    -0.237 OA
ATOM     90  O   UNL A   1      38.172  31.987  40.944  1.00  0.00    -0.237 OA
ATOM     91  O   UNL A   1      37.308  34.262  41.347  1.00  0.00    -0.744 OA
ENDBRANCH  84  88
ENDBRANCH  57  81
BRANCH  69  92
ATOM     92  C   UNL A   1      44.195  28.487  35.248  1.00  0.00     0.023 A 
ATOM     93  C   UNL A   1      44.057  27.508  36.248  1.00  0.00     0.031 A 
ATOM     94  C   UNL A   1      45.491  28.937  34.935  1.00  0.00     0.131 A 
ATOM     95  C   UNL A   1      45.190  27.050  36.936  1.00  0.00     0.055 A 
ATOM     96  C   UNL A   1      46.619  28.433  35.582  1.00  0.00     0.041 A 
ATOM     97  F   UNL A   1      45.680  29.871  33.989  1.00  0.00    -0.206 F 
ATOM     98  C   UNL A   1      46.472  27.494  36.599  1.00  0.00     0.022 A 
BRANCH  95  99
ATOM     99  S   UNL A   1      44.960  25.926  38.341  1.00  0.00     0.124 S 
ATOM    100  O   UNL A   1      46.335  25.681  38.764  1.00  0.00    -0.237 OA
ATOM    101  O   UNL A   1      44.145  26.725  39.250  1.00  0.00    -0.237 OA
ATOM    102  O   UNL A   1      44.278  24.775  37.750  1.00  0.00    -0.744 OA
ENDBRANCH  95  99
ENDBRANCH  69  92
ENDBRANCH  43  44
ENDBRANCH  35  38
ENDBRANCH  33  34
ENDBRANCH  32  33
ENDBRANCH   1  32
TORSDOF 20
ENDMDL
MODEL 2
REMARK VINA RESULT:     -12.0      3.510      8.416
REMARK SMILES COc1cccc(CC2(CO)CCN(c3nc(C)ccc3C(=O)NCCCCNC(=O)c3ccc(-c4c5nc(c(-c6cc(S(=O)(=O)[O-])ccc6F)c6ccc([nH]6)c(-c6cc(S(=O)(=O)[O-])ccc6F)c6nc(c(-c7cc(S(=O)(=O)[O-])ccc7F)c7ccc4[nH]7)C=C6)C=C5)cc3)CC2)c1
REMARK SMILES IDX 26 1 25 2 24 3 22 4 23 5 21 7 15 8 16 9 17 10 20 11 18 12
REMARK SMILES IDX 19 13 14 14 9 15 12 16 96 17 13 18 95 19 8 20 7 21 3 22 4 23
REMARK SMILES IDX 97 24 5 25 6 26 2 27 1 28 10 29 11 30 27 32 28 33 29 34
REMARK SMILES IDX 30 35 31 37 32 38 33 39 94 40 34 41 93 42 35 43 36 44 37 45
REMARK SMILES IDX 87 46 38 47 92 48 86 49 88 50 39 51 91 52 85 53 84 54 40 56
REMARK SMILES IDX 72 57 52 58 71 59 53 60 56 61 70 62 89 63 54 64 55 65 69 67
REMARK SMILES IDX 90 68 57 69 41 70 42 71 50 72 43 73 49 74 51 75 48 76 44 77
REMARK SMILES IDX 45 78 46 79 47 80 73 81 74 82 82 83 75 84 81 85 83 86 80 87
REMARK SMILES IDX 76 88 77 89 78 90 79 91 58 92 59 93 67 94 60 95 66 96 68 97
REMARK SMILES IDX 65 98 61 99 62 100 63 101 64 102
REMARK H PARENT 24 6 11 31 29 36 88 55 56 66
REMARK Flexibility Score: inf
ROOT
ATOM      1  C   UNL A   1      33.425  28.671  24.392  1.00  0.00     0.023 C 
ENDROOT
BRANCH   1   2
ATOM      2  C   UNL A   1      34.186  28.872  23.081  1.00  0.00     0.116 C 
BRANCH   2   3
ATOM      3  N   UNL A   1      33.981  27.749  22.191  1.00  0.00    -0.352 N 
ATOM      4  C   UNL A   1      32.954  26.870  21.937  1.00  0.00     0.255 C 
ATOM      5  O   UNL A   1      33.205  26.093  21.018  1.00  0.00    -0.269 OA
ATOM      6  H   UNL A   1      34.770  27.570  21.632  1.00  0.00     0.163 HD
BRANCH   4   7
ATOM      7  C   UNL A   1      31.620  26.862  22.630  1.00  0.00     0.082 A 
ATOM      8  C   UNL A   1      31.155  25.720  23.319  1.00  0.00     0.141 A 
ATOM      9  N   UNL A   1      29.868  25.626  23.764  1.00  0.00    -0.235 NA
ATOM     10  C   UNL A   1      29.035  26.678  23.638  1.00  0.00     0.040 A 
ATOM     11  C   UNL A   1      30.760  27.967  22.621  1.00  0.00     0.019 A 
ATOM     12  C   UNL A   1      27.647  26.503  24.170  1.00  0.00     0.067 C 
ATOM     13  C   UNL A   1      29.461  27.882  23.118  1.00  0.00     0.024 A 
BRANCH   8  14
ATOM     14  N   UNL A   1      31.926  24.676  23.768  1.00  0.00    -0.356 N 
ATOM     15  C   UNL A   1      33.997  22.723  24.301  1.00  0.00     0.001 C 
ATOM     16  C   UNL A   1      33.837  24.042  25.121  1.00  0.00     0.031 C 
ATOM     17  C   UNL A   1      33.172  22.770  22.984  1.00  0.00     0.031 C 
ATOM     18  C   UNL A   1      32.447  24.690  25.114  1.00  0.00     0.119 C 
ATOM     19  C   UNL A   1      31.783  23.386  23.123  1.00  0.00     0.119 C 
BRANCH  15  20
ATOM     20  C   UNL A   1      33.707  21.439  25.149  1.00  0.00     0.045 C 
BRANCH  20  21
ATOM     21  C   UNL A   1      33.461  20.124  24.454  1.00  0.00    -0.044 A 
ATOM     22  C   UNL A   1      34.095  17.821  23.999  1.00  0.00     0.119 A 
ATOM     23  C   UNL A   1      33.040  17.706  23.099  1.00  0.00     0.046 A 
ATOM     24  C   UNL A   1      34.311  19.025  24.672  1.00  0.00     0.050 A 
ATOM     25  C   UNL A   1      32.164  18.773  22.909  1.00  0.00     0.004 A 
ATOM     26  C   UNL A   1      32.366  19.971  23.594  1.00  0.00     0.004 A 
BRANCH  22  27
ATOM     27  O   UNL A   1      34.917  16.730  24.104  1.00  0.00    -0.497 OA
ATOM     28  C   UNL A   1      34.763  16.008  25.321  1.00  0.00     0.278 C 
ENDBRANCH  22  27
ENDBRANCH  20  21
ENDBRANCH  15  20
BRANCH  15  29
ATOM     29  C   UNL A   1      35.493  22.617  23.862  1.00  0.00     0.163 C 
BRANCH  29  30
ATOM     30  O   UNL A   1      36.368  23.351  24.712  1.00  0.00    -0.396 OA
ATOM     31  H   UNL A   1      35.857  24.004  25.215  1.00  0.00     0.210 HD
ENDBRANCH  29  30
ENDBRANCH  15  29
ENDBRANCH   8  14
ENDBRANCH   4   7
ENDBRANCH   2   3
ENDBRANCH   1   2
BRANCH   1  32
ATOM     32  C   UNL A   1      34.283  28.124  25.541  1.00  0.00     0.023 C 
BRANCH  32  33
ATOM     33  C   UNL A   1      33.828  28.516  26.945  1.00  0.00     0.116 C 
BRANCH  33  34
ATOM     34  N   UNL A   1      33.575  29.940  27.090  1.00  0.00    -0.352 N 
ATOM     35  C   UNL A   1      34.337  30.889  27.729  1.00  0.00     0.251 C 
ATOM     36  H   UNL A   1      32.745  30.269  26.673  1.00  0.00     0.163 HD
ATOM     37  O   UNL A   1      33.914  32.032  27.847  1.00  0.00    -0.269 OA
BRANCH  35  38
ATOM     38  C   UNL A   1      35.641  30.504  28.309  1.00  0.00     0.039 A 
ATOM     39  C   UNL A   1      35.655  29.750  29.487  1.00  0.00     0.014 A 
ATOM     40  C   UNL A   1      36.839  30.861  27.686  1.00  0.00     0.014 A 
ATOM     41  C   UNL A   1      36.871  29.295  30.000  1.00  0.00     0.010 A 
ATOM     42  C   UNL A   1      38.045  30.357  28.167  1.00  0.00     0.010 A 
ATOM     43  C   UNL A   1      38.072  29.562  29.324  1.00  0.00    -0.014 A 
BRANCH  43  44
ATOM     44  C   UNL A   1      39.365  29.008  29.804  1.00  0.00     0.031 A 
ATOM     45  C   UNL A   1      40.113  29.693  30.914  1.00  0.00     0.074 A 
ATOM     46  C   UNL A   1      39.897  27.934  29.185  1.00  0.00     0.049 A 
ATOM     47  N   UNL A   1      41.291  29.418  31.410  1.00  0.00    -0.248 NA
ATOM     48  C   UNL A   1      39.462  30.863  31.526  1.00  0.00     0.031 C 
ATOM     49  C   UNL A   1      39.286  27.218  28.062  1.00  0.00     0.029 A 
ATOM     50  N   UNL A   1      41.078  27.269  29.397  1.00  0.00    -0.354 N 
ATOM     51  C   UNL A   1      41.535  30.390  32.375  1.00  0.00     0.074 A 
ATOM     52  C   UNL A   1      40.399  31.287  32.362  1.00  0.00     0.031 C 
ATOM     53  C   UNL A   1      40.091  26.210  27.691  1.00  0.00     0.029 A 
ATOM     54  C   UNL A   1      41.293  26.230  28.520  1.00  0.00     0.049 A 
ATOM     55  H   UNL A   1      41.712  27.510  30.110  1.00  0.00     0.167 HD
ATOM     56  C   UNL A   1      42.600  30.510  33.204  1.00  0.00     0.034 A 
ATOM     57  C   UNL A   1      42.347  25.398  28.386  1.00  0.00     0.034 A 
ATOM     58  C   UNL A   1      43.711  29.590  33.222  1.00  0.00     0.049 A 
ATOM     59  C   UNL A   1      43.513  25.547  29.332  1.00  0.00     0.074 A 
ATOM     60  C   UNL A   1      44.800  29.573  34.076  1.00  0.00     0.029 A 
ATOM     61  N   UNL A   1      43.879  28.529  32.343  1.00  0.00    -0.354 N 
ATOM     62  N   UNL A   1      43.692  26.428  30.289  1.00  0.00    -0.248 NA
ATOM     63  C   UNL A   1      44.609  24.580  29.191  1.00  0.00     0.031 C 
ATOM     64  C   UNL A   1      45.657  28.543  33.673  1.00  0.00     0.029 A 
ATOM     65  C   UNL A   1      45.069  27.870  32.615  1.00  0.00     0.049 A 
ATOM     66  H   UNL A   1      43.248  28.280  31.630  1.00  0.00     0.167 HD
ATOM     67  C   UNL A   1      44.908  26.100  30.882  1.00  0.00     0.074 A 
ATOM     68  C   UNL A   1      45.408  24.932  30.187  1.00  0.00     0.031 C 
ATOM     69  C   UNL A   1      45.554  26.708  31.910  1.00  0.00     0.034 A 
BRANCH  56  70
ATOM     70  C   UNL A   1      42.628  31.693  34.141  1.00  0.00     0.023 A 
ATOM     71  C   UNL A   1      42.236  31.581  35.486  1.00  0.00     0.031 A 
ATOM     72  C   UNL A   1      43.056  32.951  33.681  1.00  0.00     0.131 A 
ATOM     73  C   UNL A   1      42.221  32.718  36.308  1.00  0.00     0.055 A 
ATOM     74  C   UNL A   1      43.108  34.063  34.524  1.00  0.00     0.041 A 
ATOM     75  F   UNL A   1      43.423  33.122  32.402  1.00  0.00    -0.206 F 
ATOM     76  C   UNL A   1      42.678  33.954  35.843  1.00  0.00     0.022 A 
BRANCH  73  77
ATOM     77  S   UNL A   1      41.488  32.586  37.961  1.00  0.00     0.124 S 
ATOM     78  O   UNL A   1      40.099  32.262  37.642  1.00  0.00    -0.237 OA
ATOM     79  O   UNL A   1      42.270  31.517  38.569  1.00  0.00    -0.237 OA
ATOM     80  O   UNL A   1      41.695  33.914  38.535  1.00  0.00    -0.744 OA
ENDBRANCH  73  77
ENDBRANCH  56  70
BRANCH  57  81
ATOM     81  C   UNL A   1      42.368  24.364  27.311  1.00  0.00     0.023 A 
ATOM     82  C   UNL A   1      41.572  23.212  27.397  1.00  0.00     0.031 A 
ATOM     83  C   UNL A   1      43.235  24.484  26.210  1.00  0.00     0.131 A 
ATOM     84  C   UNL A   1      41.698  22.199  26.433  1.00  0.00     0.055 A 
ATOM     85  C   UNL A   1      43.315  23.500  25.223  1.00  0.00     0.041 A 
ATOM     86  F   UNL A   1      44.015  25.569  26.075  1.00  0.00    -0.206 F 
ATOM     87  C   UNL A   1      42.556  22.341  25.341  1.00  0.00     0.022 A 
BRANCH  84  88
ATOM     88  S   UNL A   1      40.799  20.644  26.686  1.00  0.00     0.124 S 
ATOM     89  O   UNL A   1      39.467  20.987  26.202  1.00  0.00    -0.237 OA
ATOM     90  O   UNL A   1      41.564  19.716  25.858  1.00  0.00    -0.237 OA
ATOM     91  O   UNL A   1      40.903  20.421  28.127  1.00  0.00    -0.744 OA
ENDBRANCH  84  88
ENDBRANCH  57  81
BRANCH  69  92
ATOM     92  C   UNL A   1      46.846  26.081  32.372  1.00  0.00     0.023 A 
ATOM     93  C   UNL A   1      48.064  26.323  31.713  1.00  0.00     0.031 A 
ATOM     94  C   UNL A   1      46.853  25.221  33.485  1.00  0.00     0.131 A 
ATOM     95  C   UNL A   1      49.229  25.668  32.139  1.00  0.00     0.055 A 
ATOM     96  C   UNL A   1      48.026  24.620  33.940  1.00  0.00     0.041 A 
ATOM     97  F   UNL A   1      45.718  24.955  34.151  1.00  0.00    -0.206 F 
ATOM     98  C   UNL A   1      49.222  24.832  33.258  1.00  0.00     0.022 A 
BRANCH  95  99
ATOM     99  S   UNL A   1      50.742  25.859  31.158  1.00  0.00     0.124 S 
ATOM    100  O   UNL A   1      51.177  27.203  31.527  1.00  0.00    -0.237 OA
ATOM    101  O   UNL A   1      51.573  24.763  31.648  1.00  0.00    -0.237 OA
ATOM    102  O   UNL A   1      50.278  25.714  29.780  1.00  0.00    -0.744 OA
ENDBRANCH  95  99
ENDBRANCH  69  92
ENDBRANCH  43  44
ENDBRANCH  35  38
ENDBRANCH  33  34
ENDBRANCH  32  33
ENDBRANCH   1  32
TORSDOF 20
ENDMDL
MODEL 3
REMARK VINA RESULT:     -11.8      3.367      8.081
REMARK SMILES COc1cccc(CC2(CO)CCN(c3nc(C)ccc3C(=O)NCCCCNC(=O)c3ccc(-c4c5nc(c(-c6cc(S(=O)(=O)[O-])ccc6F)c6ccc([nH]6)c(-c6cc(S(=O)(=O)[O-])ccc6F)c6nc(c(-c7cc(S(=O)(=O)[O-])ccc7F)c7ccc4[nH]7)C=C6)C=C5)cc3)CC2)c1
REMARK SMILES IDX 26 1 25 2 24 3 22 4 23 5 21 7 15 8 16 9 17 10 20 11 18 12
REMARK SMILES IDX 19 13 14 14 9 15 12 16 96 17 13 18 95 19 8 20 7 21 3 22 4 23
REMARK SMILES IDX 97 24 5 25 6 26 2 27 1 28 10 29 11 30 27 32 28 33 29 34
REMARK SMILES IDX 30 35 31 37 32 38 33 39 94 40 34 41 93 42 35 43 36 44 37 45
REMARK SMILES IDX 87 46 38 47 92 48 86 49 88 50 39 51 91 52 85 53 84 54 40 56
REMARK SMILES IDX 72 57 52 58 71 59 53 60 56 61 70 62 89 63 54 64 55 65 69 67
REMARK SMILES IDX 90 68 57 69 41 70 42 71 50 72 43 73 49 74 51 75 48 76 44 77
REMARK SMILES IDX 45 78 46 79 47 80 73 81 74 82 82 83 75 84 81 85 83 86 80 87
REMARK SMILES IDX 76 88 77 89 78 90 79 91 58 92 59 93 67 94 60 95 66 96 68 97
REMARK SMILES IDX 65 98 61 99 62 100 63 101 64 102
REMARK H PARENT 24 6 11 31 29 36 88 55 56 66
REMARK Flexibility Score: inf
ROOT
ATOM      1  C   UNL A   1      33.494  28.729  24.525  1.00  0.00     0.023 C 
ENDROOT
BRANCH   1   2
ATOM      2  C   UNL A   1      34.188  28.978  23.185  1.00  0.00     0.116 C 
BRANCH   2   3
ATOM      3  N   UNL A   1      34.028  27.840  22.305  1.00  0.00    -0.352 N 
ATOM      4  C   UNL A   1      33.027  26.937  22.037  1.00  0.00     0.255 C 
ATOM      5  O   UNL A   1      33.317  26.154  21.134  1.00  0.00    -0.269 OA
ATOM      6  H   UNL A   1      34.834  27.671  21.767  1.00  0.00     0.163 HD
BRANCH   4   7
ATOM      7  C   UNL A   1      31.676  26.909  22.698  1.00  0.00     0.082 A 
ATOM      8  C   UNL A   1      31.326  25.894  23.615  1.00  0.00     0.141 A 
ATOM      9  N   UNL A   1      30.044  25.735  24.053  1.00  0.00    -0.235 NA
ATOM     10  C   UNL A   1      29.095  26.619  23.689  1.00  0.00     0.040 A 
ATOM     11  C   UNL A   1      30.690  27.866  22.434  1.00  0.00     0.019 A 
ATOM     12  C   UNL A   1      27.718  26.387  24.228  1.00  0.00     0.067 C 
ATOM     13  C   UNL A   1      29.392  27.725  22.922  1.00  0.00     0.024 A 
BRANCH   8  14
ATOM     14  N   UNL A   1      32.200  25.079  24.293  1.00  0.00    -0.356 N 
ATOM     15  C   UNL A   1      34.496  23.674  25.363  1.00  0.00     0.001 C 
ATOM     16  C   UNL A   1      33.919  24.977  26.002  1.00  0.00     0.031 C 
ATOM     17  C   UNL A   1      33.934  23.448  23.931  1.00  0.00     0.031 C 
ATOM     18  C   UNL A   1      32.451  25.299  25.698  1.00  0.00     0.119 C 
ATOM     19  C   UNL A   1      32.447  23.749  23.772  1.00  0.00     0.119 C 
BRANCH  15  20
ATOM     20  C   UNL A   1      34.325  22.418  26.282  1.00  0.00     0.045 C 
BRANCH  20  21
ATOM     21  C   UNL A   1      34.327  21.039  25.672  1.00  0.00    -0.044 A 
ATOM     22  C   UNL A   1      33.166  18.984  25.086  1.00  0.00     0.119 A 
ATOM     23  C   UNL A   1      34.356  18.446  24.605  1.00  0.00     0.046 A 
ATOM     24  C   UNL A   1      33.149  20.273  25.622  1.00  0.00     0.050 A 
ATOM     25  C   UNL A   1      35.520  19.212  24.609  1.00  0.00     0.004 A 
ATOM     26  C   UNL A   1      35.502  20.507  25.126  1.00  0.00     0.004 A 
BRANCH  22  27
ATOM     27  O   UNL A   1      32.078  18.152  25.064  1.00  0.00    -0.497 OA
ATOM     28  C   UNL A   1      32.375  16.807  25.422  1.00  0.00     0.278 C 
ENDBRANCH  22  27
ENDBRANCH  20  21
ENDBRANCH  15  20
BRANCH  15  29
ATOM     29  C   UNL A   1      36.036  23.872  25.191  1.00  0.00     0.163 C 
BRANCH  29  30
ATOM     30  O   UNL A   1      36.766  23.549  26.369  1.00  0.00    -0.396 OA
ATOM     31  H   UNL A   1      36.858  22.586  26.438  1.00  0.00     0.210 HD
ENDBRANCH  29  30
ENDBRANCH  15  29
ENDBRANCH   8  14
ENDBRANCH   4   7
ENDBRANCH   2   3
ENDBRANCH   1   2
BRANCH   1  32
ATOM     32  C   UNL A   1      34.453  28.607  25.717  1.00  0.00     0.023 C 
BRANCH  32  33
ATOM     33  C   UNL A   1      33.941  29.186  27.035  1.00  0.00     0.116 C 
BRANCH  33  34
ATOM     34  N   UNL A   1      33.917  30.639  27.052  1.00  0.00    -0.352 N 
ATOM     35  C   UNL A   1      34.792  31.507  27.662  1.00  0.00     0.251 C 
ATOM     36  H   UNL A   1      33.174  31.059  26.559  1.00  0.00     0.163 HD
ATOM     37  O   UNL A   1      34.556  32.709  27.664  1.00  0.00    -0.269 OA
BRANCH  35  38
ATOM     38  C   UNL A   1      35.985  30.971  28.351  1.00  0.00     0.039 A 
ATOM     39  C   UNL A   1      35.865  29.778  29.069  1.00  0.00     0.014 A 
ATOM     40  C   UNL A   1      37.216  31.626  28.271  1.00  0.00     0.014 A 
ATOM     41  C   UNL A   1      36.999  29.204  29.648  1.00  0.00     0.010 A 
ATOM     42  C   UNL A   1      38.355  31.022  28.799  1.00  0.00     0.010 A 
ATOM     43  C   UNL A   1      38.259  29.802  29.485  1.00  0.00    -0.014 A 
BRANCH  43  44
ATOM     44  C   UNL A   1      39.490  29.158  30.014  1.00  0.00     0.031 A 
ATOM     45  C   UNL A   1      40.148  29.695  31.255  1.00  0.00     0.074 A 
ATOM     46  C   UNL A   1      40.053  28.141  29.330  1.00  0.00     0.049 A 
ATOM     47  N   UNL A   1      41.269  29.330  31.820  1.00  0.00    -0.248 NA
ATOM     48  C   UNL A   1      39.469  30.811  31.932  1.00  0.00     0.031 C 
ATOM     49  C   UNL A   1      39.532  27.570  28.085  1.00  0.00     0.029 A 
ATOM     50  N   UNL A   1      41.194  27.419  29.572  1.00  0.00    -0.354 N 
ATOM     51  C   UNL A   1      41.443  30.183  32.905  1.00  0.00     0.074 A 
ATOM     52  C   UNL A   1      40.333  31.112  32.890  1.00  0.00     0.031 C 
ATOM     53  C   UNL A   1      40.346  26.582  27.678  1.00  0.00     0.029 A 
ATOM     54  C   UNL A   1      41.467  26.474  28.607  1.00  0.00     0.049 A 
ATOM     55  H   UNL A   1      41.765  27.561  30.360  1.00  0.00     0.167 HD
ATOM     56  C   UNL A   1      42.431  30.180  33.834  1.00  0.00     0.034 A 
ATOM     57  C   UNL A   1      42.510  25.629  28.477  1.00  0.00     0.034 A 
ATOM     58  C   UNL A   1      43.515  29.228  33.849  1.00  0.00     0.049 A 
ATOM     59  C   UNL A   1      43.587  25.638  29.534  1.00  0.00     0.074 A 
ATOM     60  C   UNL A   1      44.520  29.084  34.789  1.00  0.00     0.029 A 
ATOM     61  N   UNL A   1      43.740  28.263  32.876  1.00  0.00    -0.354 N 
ATOM     62  N   UNL A   1      43.697  26.404  30.595  1.00  0.00    -0.248 NA
ATOM     63  C   UNL A   1      44.670  24.657  29.386  1.00  0.00     0.031 C 
ATOM     64  C   UNL A   1      45.387  28.076  34.354  1.00  0.00     0.029 A 
ATOM     65  C   UNL A   1      44.885  27.541  33.179  1.00  0.00     0.049 A 
ATOM     66  H   UNL A   1      43.171  28.113  32.087  1.00  0.00     0.167 HD
ATOM     67  C   UNL A   1      44.846  25.975  31.254  1.00  0.00     0.074 A 
ATOM     68  C   UNL A   1      45.381  24.874  30.482  1.00  0.00     0.031 C 
ATOM     69  C   UNL A   1      45.407  26.447  32.396  1.00  0.00     0.034 A 
BRANCH  56  70
ATOM     70  C   UNL A   1      42.398  31.252  34.895  1.00  0.00     0.023 A 
ATOM     71  C   UNL A   1      43.039  32.490  34.717  1.00  0.00     0.031 A 
ATOM     72  C   UNL A   1      41.714  31.032  36.103  1.00  0.00     0.131 A 
ATOM     73  C   UNL A   1      43.034  33.436  35.753  1.00  0.00     0.055 A 
ATOM     74  C   UNL A   1      41.650  32.007  37.101  1.00  0.00     0.041 A 
ATOM     75  F   UNL A   1      41.100  29.862  36.337  1.00  0.00    -0.206 F 
ATOM     76  C   UNL A   1      42.323  33.213  36.935  1.00  0.00     0.022 A 
BRANCH  73  77
ATOM     77  S   UNL A   1      44.065  34.919  35.580  1.00  0.00     0.124 S 
ATOM     78  O   UNL A   1      44.096  35.416  36.954  1.00  0.00    -0.237 OA
ATOM     79  O   UNL A   1      45.317  34.376  35.069  1.00  0.00    -0.237 OA
ATOM     80  O   UNL A   1      43.315  35.751  34.642  1.00  0.00    -0.744 OA
ENDBRANCH  73  77
ENDBRANCH  56  70
BRANCH  57  81
ATOM     81  C   UNL A   1      42.607  24.717  27.301  1.00  0.00     0.023 A 
ATOM     82  C   UNL A   1      42.043  23.432  27.330  1.00  0.00     0.031 A 
ATOM     83  C   UNL A   1      43.322  25.095  26.151  1.00  0.00     0.131 A 
ATOM     84  C   UNL A   1      42.251  22.551  26.258  1.00  0.00     0.055 A 
ATOM     85  C   UNL A   1      43.478  24.235  25.062  1.00  0.00     0.041 A 
ATOM     86  F   UNL A   1      43.878  26.315  26.066  1.00  0.00    -0.206 F 
ATOM     87  C   UNL A   1      42.954  22.948  25.119  1.00  0.00     0.022 A 
BRANCH  84  88
ATOM     88  S   UNL A   1      41.676  20.838  26.418  1.00  0.00     0.124 S 
ATOM     89  O   UNL A   1      42.490  20.155  25.419  1.00  0.00    -0.237 OA
ATOM     90  O   UNL A   1      41.992  20.544  27.813  1.00  0.00    -0.237 OA
ATOM     91  O   UNL A   1      40.250  20.927  26.109  1.00  0.00    -0.744 OA
ENDBRANCH  84  88
ENDBRANCH  57  81
BRANCH  69  92
ATOM     92  C   UNL A   1      46.636  25.733  32.899  1.00  0.00     0.023 A 
ATOM     93  C   UNL A   1      46.552  24.654  33.797  1.00  0.00     0.031 A 
ATOM     94  C   UNL A   1      47.913  26.148  32.479  1.00  0.00     0.131 A 
ATOM     95  C   UNL A   1      47.725  24.062  34.288  1.00  0.00     0.055 A 
ATOM     96  C   UNL A   1      49.074  25.516  32.925  1.00  0.00     0.041 A 
ATOM     97  F   UNL A   1      48.051  27.173  31.624  1.00  0.00    -0.206 F 
ATOM     98  C   UNL A   1      48.985  24.475  33.845  1.00  0.00     0.022 A 
BRANCH  95  99
ATOM     99  S   UNL A   1      47.586  22.798  35.580  1.00  0.00     0.124 S 
ATOM    100  O   UNL A   1      46.220  22.996  36.054  1.00  0.00    -0.237 OA
ATOM    101  O   UNL A   1      47.832  21.565  34.839  1.00  0.00    -0.237 OA
ATOM    102  O   UNL A   1      48.633  23.165  36.533  1.00  0.00    -0.744 OA
ENDBRANCH  95  99
ENDBRANCH  69  92
ENDBRANCH  43  44
ENDBRANCH  35  38
ENDBRANCH  33  34
ENDBRANCH  32  33
ENDBRANCH   1  32
TORSDOF 20
ENDMDL
