MODEL 1
REMARK VINA RESULT:     -13.7      0.000      0.000
REMARK SMILES Cc1ccc(S(=O)(=O)N2c3ccc(C(=O)NCCCCNC(=O)c4ccc(-c5c6nc(c(-c7cc(S(=O)(=O)[O-])ccc7F)c7ccc([nH]7)c(-c7cc(S(=O)(=O)[O-])ccc7F)c7nc(c(-c8cc(S(=O)(=O)[O-])ccc8F)c8ccc5[nH]8)C=C7)C=C6)cc4)cc3C[C@H]2C)cc1
REMARK SMILES IDX 19 1 18 2 17 3 16 4 14 5 15 6 13 8 9 9 10 10 90 11 11 12
REMARK SMILES IDX 88 13 89 14 91 15 12 16 87 17 6 18 7 19 8 20 5 21 1 22 2 23
REMARK SMILES IDX 3 24 93 25 4 26 92 27 20 28 21 29 22 30 23 32 24 33 25 34
REMARK SMILES IDX 86 35 26 36 85 37 27 38 28 39 29 40 79 41 30 42 84 43 78 44
REMARK SMILES IDX 80 45 31 46 83 47 77 48 76 49 32 51 64 52 44 53 63 54 45 55
REMARK SMILES IDX 48 56 62 57 81 58 46 59 47 60 61 62 82 63 49 64 33 65 34 66
REMARK SMILES IDX 42 67 35 68 41 69 43 70 40 71 36 72 37 73 38 74 39 75 65 76
REMARK SMILES IDX 66 77 74 78 67 79 73 80 75 81 72 82 68 83 69 84 70 85 71 86
REMARK SMILES IDX 50 87 51 88 59 89 52 90 58 91 60 92 57 93 53 94 54 95 55 96
REMARK SMILES IDX 56 97
REMARK H PARENT 16 7 21 31 80 50 48 61
REMARK Flexibility Score: inf
ROOT
ATOM      1  C   UNL A   1      33.111  30.698  27.262  1.00  0.00     0.023 C 
ENDROOT
BRANCH   1   2
ATOM      2  C   UNL A   1      32.212  29.720  26.527  1.00  0.00     0.023 C 
BRANCH   2   3
ATOM      3  C   UNL A   1      32.467  29.576  25.030  1.00  0.00     0.116 C 
BRANCH   3   4
ATOM      4  N   UNL A   1      31.253  29.413  24.226  1.00  0.00    -0.352 N 
ATOM      5  C   UNL A   1      30.624  28.281  23.754  1.00  0.00     0.251 C 
ATOM      6  O   UNL A   1      29.644  28.402  23.019  1.00  0.00    -0.269 OA
ATOM      7  H   UNL A   1      30.812  30.258  23.980  1.00  0.00     0.163 HD
BRANCH   5   8
ATOM      8  C   UNL A   1      31.156  26.923  24.038  1.00  0.00     0.040 A 
ATOM      9  N   UNL A   1      33.347  23.398  24.754  1.00  0.00    -0.263 N 
ATOM     10  C   UNL A   1      32.503  24.570  24.634  1.00  0.00     0.055 A 
ATOM     11  C   UNL A   1      33.958  23.233  23.378  1.00  0.00     0.101 C 
ATOM     12  C   UNL A   1      31.773  25.189  25.628  1.00  0.00     0.028 A 
ATOM     13  C   UNL A   1      32.476  25.056  23.328  1.00  0.00    -0.021 A 
ATOM     14  C   UNL A   1      33.128  24.089  22.401  1.00  0.00     0.063 C 
ATOM     15  C   UNL A   1      35.404  23.749  23.430  1.00  0.00     0.032 C 
ATOM     16  C   UNL A   1      31.022  26.314  25.294  1.00  0.00     0.016 A 
ATOM     17  C   UNL A   1      31.831  26.244  23.014  1.00  0.00     0.019 A 
BRANCH   9  18
ATOM     18  S   UNL A   1      32.481  22.073  25.421  1.00  0.00     0.264 S 
ATOM     19  O   UNL A   1      31.081  22.263  25.111  1.00  0.00    -0.201 OA
ATOM     20  O   UNL A   1      32.926  21.885  26.792  1.00  0.00    -0.201 OA
BRANCH  18  21
ATOM     21  C   UNL A   1      32.946  20.556  24.608  1.00  0.00     0.088 A 
ATOM     22  C   UNL A   1      34.029  16.578  23.389  1.00  0.00     0.044 C 
ATOM     23  C   UNL A   1      33.680  17.987  23.759  1.00  0.00    -0.051 A 
ATOM     24  C   UNL A   1      34.518  18.707  24.615  1.00  0.00     0.005 A 
ATOM     25  C   UNL A   1      32.519  18.597  23.268  1.00  0.00     0.005 A 
ATOM     26  C   UNL A   1      34.152  19.982  25.038  1.00  0.00     0.022 A 
ATOM     27  C   UNL A   1      32.159  19.884  23.680  1.00  0.00     0.022 A 
ENDBRANCH  18  21
ENDBRANCH   9  18
ENDBRANCH   5   8
ENDBRANCH   3   4
ENDBRANCH   2   3
ENDBRANCH   1   2
BRANCH   1  28
ATOM     28  C   UNL A   1      34.551  30.246  27.400  1.00  0.00     0.116 C 
BRANCH  28  29
ATOM     29  N   UNL A   1      35.499  31.240  27.871  1.00  0.00    -0.352 N 
ATOM     30  C   UNL A   1      36.681  31.050  28.572  1.00  0.00     0.251 C 
ATOM     31  H   UNL A   1      35.273  32.175  27.664  1.00  0.00     0.163 HD
ATOM     32  O   UNL A   1      37.223  31.992  29.147  1.00  0.00    -0.269 OA
BRANCH  30  33
ATOM     33  C   UNL A   1      37.414  29.756  28.461  1.00  0.00     0.039 A 
ATOM     34  C   UNL A   1      37.448  28.948  29.611  1.00  0.00     0.014 A 
ATOM     35  C   UNL A   1      38.326  29.528  27.441  1.00  0.00     0.014 A 
ATOM     36  C   UNL A   1      38.564  28.159  29.859  1.00  0.00     0.010 A 
ATOM     37  C   UNL A   1      39.506  28.918  27.755  1.00  0.00     0.010 A 
ATOM     38  C   UNL A   1      39.631  28.275  28.981  1.00  0.00    -0.014 A 
BRANCH  38  39
ATOM     39  C   UNL A   1      40.940  27.702  29.174  1.00  0.00     0.031 A 
ATOM     40  C   UNL A   1      41.125  26.324  28.709  1.00  0.00     0.074 A 
ATOM     41  C   UNL A   1      41.936  28.536  29.538  1.00  0.00     0.049 A 
ATOM     42  N   UNL A   1      42.040  25.534  29.127  1.00  0.00    -0.248 NA
ATOM     43  C   UNL A   1      40.235  25.699  27.728  1.00  0.00     0.031 C 
ATOM     44  C   UNL A   1      43.374  28.317  29.512  1.00  0.00     0.029 A 
ATOM     45  N   UNL A   1      41.785  29.730  30.240  1.00  0.00    -0.354 N 
ATOM     46  C   UNL A   1      42.088  24.475  28.248  1.00  0.00     0.074 A 
ATOM     47  C   UNL A   1      40.876  24.556  27.475  1.00  0.00     0.031 C 
ATOM     48  C   UNL A   1      43.950  29.139  30.409  1.00  0.00     0.029 A 
ATOM     49  C   UNL A   1      42.877  29.812  31.125  1.00  0.00     0.049 A 
ATOM     50  H   UNL A   1      41.059  30.387  30.138  1.00  0.00     0.167 HD
ATOM     51  C   UNL A   1      43.248  23.769  28.158  1.00  0.00     0.034 A 
ATOM     52  C   UNL A   1      42.638  29.718  32.468  1.00  0.00     0.034 A 
ATOM     53  C   UNL A   1      44.227  24.309  29.099  1.00  0.00     0.049 A 
ATOM     54  C   UNL A   1      43.215  28.434  33.038  1.00  0.00     0.074 A 
ATOM     55  C   UNL A   1      45.269  25.209  28.947  1.00  0.00     0.029 A 
ATOM     56  N   UNL A   1      43.950  24.250  30.458  1.00  0.00    -0.354 N 
ATOM     57  N   UNL A   1      43.464  27.362  32.330  1.00  0.00    -0.248 NA
ATOM     58  C   UNL A   1      43.646  28.294  34.425  1.00  0.00     0.031 C 
ATOM     59  C   UNL A   1      45.557  25.755  30.229  1.00  0.00     0.029 A 
ATOM     60  C   UNL A   1      44.711  25.167  31.153  1.00  0.00     0.049 A 
ATOM     61  H   UNL A   1      43.299  23.637  30.869  1.00  0.00     0.167 HD
ATOM     62  C   UNL A   1      44.130  26.439  33.100  1.00  0.00     0.074 A 
ATOM     63  C   UNL A   1      44.206  27.071  34.408  1.00  0.00     0.031 C 
ATOM     64  C   UNL A   1      44.597  25.251  32.599  1.00  0.00     0.034 A 
BRANCH  51  65
ATOM     65  C   UNL A   1      43.605  22.835  27.033  1.00  0.00     0.023 A 
ATOM     66  C   UNL A   1      43.023  21.552  27.025  1.00  0.00     0.031 A 
ATOM     67  C   UNL A   1      44.487  23.108  25.971  1.00  0.00     0.131 A 
ATOM     68  C   UNL A   1      43.364  20.592  26.060  1.00  0.00     0.055 A 
ATOM     69  C   UNL A   1      44.861  22.139  25.027  1.00  0.00     0.041 A 
ATOM     70  F   UNL A   1      44.990  24.333  25.766  1.00  0.00    -0.206 F 
ATOM     71  C   UNL A   1      44.301  20.869  25.071  1.00  0.00     0.022 A 
BRANCH  68  72
ATOM     72  S   UNL A   1      42.542  18.979  26.117  1.00  0.00     0.124 S 
ATOM     73  O   UNL A   1      43.339  18.193  25.182  1.00  0.00    -0.237 OA
ATOM     74  O   UNL A   1      42.661  18.622  27.527  1.00  0.00    -0.237 OA
ATOM     75  O   UNL A   1      41.182  19.277  25.672  1.00  0.00    -0.744 OA
ENDBRANCH  68  72
ENDBRANCH  51  65
BRANCH  52  76
ATOM     76  C   UNL A   1      41.355  30.414  32.838  1.00  0.00     0.023 A 
ATOM     77  C   UNL A   1      41.331  31.817  32.615  1.00  0.00     0.031 A 
ATOM     78  C   UNL A   1      40.124  29.746  32.868  1.00  0.00     0.131 A 
ATOM     79  C   UNL A   1      40.155  32.447  32.176  1.00  0.00     0.055 A 
ATOM     80  C   UNL A   1      38.931  30.413  32.543  1.00  0.00     0.041 A 
ATOM     81  F   UNL A   1      40.067  28.421  33.059  1.00  0.00    -0.206 F 
ATOM     82  C   UNL A   1      38.950  31.749  32.130  1.00  0.00     0.022 A 
BRANCH  79  83
ATOM     83  S   UNL A   1      40.299  34.073  31.359  1.00  0.00     0.124 S 
ATOM     84  O   UNL A   1      41.439  34.663  32.051  1.00  0.00    -0.237 OA
ATOM     85  O   UNL A   1      40.516  33.714  29.957  1.00  0.00    -0.237 OA
ATOM     86  O   UNL A   1      39.008  34.717  31.605  1.00  0.00    -0.744 OA
ENDBRANCH  79  83
ENDBRANCH  52  76
BRANCH  64  87
ATOM     87  C   UNL A   1      45.072  24.055  33.405  1.00  0.00     0.023 A 
ATOM     88  C   UNL A   1      46.357  23.959  33.943  1.00  0.00     0.031 A 
ATOM     89  C   UNL A   1      44.190  22.993  33.749  1.00  0.00     0.131 A 
ATOM     90  C   UNL A   1      46.750  22.839  34.695  1.00  0.00     0.055 A 
ATOM     91  C   UNL A   1      44.547  21.939  34.593  1.00  0.00     0.041 A 
ATOM     92  F   UNL A   1      42.930  22.928  33.293  1.00  0.00    -0.206 F 
ATOM     93  C   UNL A   1      45.845  21.846  35.058  1.00  0.00     0.022 A 
BRANCH  90  94
ATOM     94  S   UNL A   1      48.503  22.670  35.099  1.00  0.00     0.124 S 
ATOM     95  O   UNL A   1      48.681  21.222  35.043  1.00  0.00    -0.237 OA
ATOM     96  O   UNL A   1      49.146  23.428  34.030  1.00  0.00    -0.237 OA
ATOM     97  O   UNL A   1      48.608  23.259  36.432  1.00  0.00    -0.744 OA
ENDBRANCH  90  94
ENDBRANCH  64  87
ENDBRANCH  38  39
ENDBRANCH  30  33
ENDBRANCH  28  29
ENDBRANCH   1  28
TORSDOF 16
ENDMDL
MODEL 2
REMARK VINA RESULT:     -13.7      2.263      3.074
REMARK SMILES Cc1ccc(S(=O)(=O)N2c3ccc(C(=O)NCCCCNC(=O)c4ccc(-c5c6nc(c(-c7cc(S(=O)(=O)[O-])ccc7F)c7ccc([nH]7)c(-c7cc(S(=O)(=O)[O-])ccc7F)c7nc(c(-c8cc(S(=O)(=O)[O-])ccc8F)c8ccc5[nH]8)C=C7)C=C6)cc4)cc3C[C@H]2C)cc1
REMARK SMILES IDX 19 1 18 2 17 3 16 4 14 5 15 6 13 8 9 9 10 10 90 11 11 12
REMARK SMILES IDX 88 13 89 14 91 15 12 16 87 17 6 18 7 19 8 20 5 21 1 22 2 23
REMARK SMILES IDX 3 24 93 25 4 26 92 27 20 28 21 29 22 30 23 32 24 33 25 34
REMARK SMILES IDX 86 35 26 36 85 37 27 38 28 39 29 40 79 41 30 42 84 43 78 44
REMARK SMILES IDX 80 45 31 46 83 47 77 48 76 49 32 51 64 52 44 53 63 54 45 55
REMARK SMILES IDX 48 56 62 57 81 58 46 59 47 60 61 62 82 63 49 64 33 65 34 66
REMARK SMILES IDX 42 67 35 68 41 69 43 70 40 71 36 72 37 73 38 74 39 75 65 76
REMARK SMILES IDX 66 77 74 78 67 79 73 80 75 81 72 82 68 83 69 84 70 85 71 86
REMARK SMILES IDX 50 87 51 88 59 89 52 90 58 91 60 92 57 93 53 94 54 95 55 96
REMARK SMILES IDX 56 97
REMARK H PARENT 16 7 21 31 80 50 48 61
REMARK Flexibility Score: inf
ROOT
ATOM      1  C   UNL A   1      33.146  30.276  26.137  1.00  0.00     0.023 C 
ENDROOT
BRANCH   1   2
ATOM      2  C   UNL A   1      33.711  29.027  25.485  1.00  0.00     0.023 C 
BRANCH   2   3
ATOM      3  C   UNL A   1      33.397  28.848  24.003  1.00  0.00     0.116 C 
BRANCH   3   4
ATOM      4  N   UNL A   1      31.989  29.056  23.657  1.00  0.00    -0.352 N 
ATOM      5  C   UNL A   1      30.935  28.172  23.581  1.00  0.00     0.251 C 
ATOM      6  O   UNL A   1      29.841  28.575  23.185  1.00  0.00    -0.269 OA
ATOM      7  H   UNL A   1      31.756  29.989  23.441  1.00  0.00     0.163 HD
BRANCH   5   8
ATOM      8  C   UNL A   1      31.110  26.727  23.880  1.00  0.00     0.040 A 
ATOM      9  N   UNL A   1      30.938  22.696  25.087  1.00  0.00    -0.263 N 
ATOM     10  C   UNL A   1      31.043  24.028  24.528  1.00  0.00     0.055 A 
ATOM     11  C   UNL A   1      31.039  22.908  26.584  1.00  0.00     0.101 C 
ATOM     12  C   UNL A   1      30.940  24.397  23.202  1.00  0.00     0.028 A 
ATOM     13  C   UNL A   1      31.286  24.984  25.513  1.00  0.00    -0.021 A 
ATOM     14  C   UNL A   1      31.603  24.325  26.810  1.00  0.00     0.063 C 
ATOM     15  C   UNL A   1      29.628  22.803  27.180  1.00  0.00     0.032 C 
ATOM     16  C   UNL A   1      31.074  25.745  22.879  1.00  0.00     0.016 A 
ATOM     17  C   UNL A   1      31.297  26.339  25.214  1.00  0.00     0.019 A 
BRANCH   9  18
ATOM     18  S   UNL A   1      32.051  21.619  24.344  1.00  0.00     0.264 S 
ATOM     19  O   UNL A   1      31.933  21.786  22.912  1.00  0.00    -0.201 OA
ATOM     20  O   UNL A   1      31.896  20.312  24.960  1.00  0.00    -0.201 OA
BRANCH  18  21
ATOM     21  C   UNL A   1      33.725  22.084  24.741  1.00  0.00     0.088 A 
ATOM     22  C   UNL A   1      37.470  23.958  25.713  1.00  0.00     0.044 C 
ATOM     23  C   UNL A   1      36.198  23.254  25.352  1.00  0.00    -0.051 A 
ATOM     24  C   UNL A   1      35.578  23.525  24.129  1.00  0.00     0.005 A 
ATOM     25  C   UNL A   1      35.611  22.329  26.224  1.00  0.00     0.005 A 
ATOM     26  C   UNL A   1      34.349  22.946  23.828  1.00  0.00     0.022 A 
ATOM     27  C   UNL A   1      34.384  21.734  25.914  1.00  0.00     0.022 A 
ENDBRANCH  18  21
ENDBRANCH   9  18
ENDBRANCH   5   8
ENDBRANCH   3   4
ENDBRANCH   2   3
ENDBRANCH   1   2
BRANCH   1  28
ATOM     28  C   UNL A   1      33.348  30.349  27.637  1.00  0.00     0.116 C 
BRANCH  28  29
ATOM     29  N   UNL A   1      34.183  31.432  28.126  1.00  0.00    -0.352 N 
ATOM     30  C   UNL A   1      35.366  31.359  28.847  1.00  0.00     0.251 C 
ATOM     31  H   UNL A   1      33.868  32.340  27.916  1.00  0.00     0.163 HD
ATOM     32  O   UNL A   1      35.800  32.349  29.433  1.00  0.00    -0.269 OA
BRANCH  30  33
ATOM     33  C   UNL A   1      36.227  30.145  28.748  1.00  0.00     0.039 A 
ATOM     34  C   UNL A   1      36.552  29.500  29.953  1.00  0.00     0.014 A 
ATOM     35  C   UNL A   1      36.978  29.884  27.611  1.00  0.00     0.014 A 
ATOM     36  C   UNL A   1      37.783  28.871  30.082  1.00  0.00     0.010 A 
ATOM     37  C   UNL A   1      38.260  29.447  27.772  1.00  0.00     0.010 A 
ATOM     38  C   UNL A   1      38.667  28.984  29.018  1.00  0.00    -0.014 A 
BRANCH  38  39
ATOM     39  C   UNL A   1      40.051  28.580  29.034  1.00  0.00     0.031 A 
ATOM     40  C   UNL A   1      40.324  27.170  28.738  1.00  0.00     0.074 A 
ATOM     41  C   UNL A   1      40.982  29.555  29.079  1.00  0.00     0.049 A 
ATOM     42  N   UNL A   1      41.390  26.551  29.079  1.00  0.00    -0.248 NA
ATOM     43  C   UNL A   1      39.361  26.311  28.045  1.00  0.00     0.031 C 
ATOM     44  C   UNL A   1      42.409  29.477  28.807  1.00  0.00     0.029 A 
ATOM     45  N   UNL A   1      40.807  30.826  29.623  1.00  0.00    -0.354 N 
ATOM     46  C   UNL A   1      41.416  25.374  28.364  1.00  0.00     0.074 A 
ATOM     47  C   UNL A   1      40.088  25.211  27.836  1.00  0.00     0.031 C 
ATOM     48  C   UNL A   1      43.025  30.485  29.452  1.00  0.00     0.029 A 
ATOM     49  C   UNL A   1      42.018  31.156  30.260  1.00  0.00     0.049 A 
ATOM     50  H   UNL A   1      39.997  31.384  29.572  1.00  0.00     0.167 HD
ATOM     51  C   UNL A   1      42.622  24.780  28.152  1.00  0.00     0.034 A 
ATOM     52  C   UNL A   1      42.033  31.256  31.624  1.00  0.00     0.034 A 
ATOM     53  C   UNL A   1      43.675  25.558  28.801  1.00  0.00     0.049 A 
ATOM     54  C   UNL A   1      42.858  30.144  32.246  1.00  0.00     0.074 A 
ATOM     55  C   UNL A   1      44.553  26.520  28.328  1.00  0.00     0.029 A 
ATOM     56  N   UNL A   1      43.650  25.691  30.183  1.00  0.00    -0.354 N 
ATOM     57  N   UNL A   1      43.112  29.001  31.661  1.00  0.00    -0.248 NA
ATOM     58  C   UNL A   1      43.539  30.271  33.529  1.00  0.00     0.031 C 
ATOM     59  C   UNL A   1      44.990  27.290  29.441  1.00  0.00     0.029 A 
ATOM     60  C   UNL A   1      44.399  26.778  30.583  1.00  0.00     0.049 A 
ATOM     61  H   UNL A   1      43.165  25.091  30.793  1.00  0.00     0.167 HD
ATOM     62  C   UNL A   1      44.014  28.284  32.409  1.00  0.00     0.074 A 
ATOM     63  C   UNL A   1      44.238  29.122  33.577  1.00  0.00     0.031 C 
ATOM     64  C   UNL A   1      44.532  27.082  31.998  1.00  0.00     0.034 A 
BRANCH  51  65
ATOM     65  C   UNL A   1      42.891  23.718  27.121  1.00  0.00     0.023 A 
ATOM     66  C   UNL A   1      42.270  22.462  27.283  1.00  0.00     0.031 A 
ATOM     67  C   UNL A   1      43.725  23.841  25.994  1.00  0.00     0.131 A 
ATOM     68  C   UNL A   1      42.531  21.392  26.414  1.00  0.00     0.055 A 
ATOM     69  C   UNL A   1      44.018  22.762  25.146  1.00  0.00     0.041 A 
ATOM     70  F   UNL A   1      44.254  25.017  25.630  1.00  0.00    -0.206 F 
ATOM     71  C   UNL A   1      43.423  21.526  25.357  1.00  0.00     0.022 A 
BRANCH  68  72
ATOM     72  S   UNL A   1      41.664  19.826  26.689  1.00  0.00     0.124 S 
ATOM     73  O   UNL A   1      40.328  20.275  27.068  1.00  0.00    -0.237 OA
ATOM     74  O   UNL A   1      41.782  19.174  25.390  1.00  0.00    -0.237 OA
ATOM     75  O   UNL A   1      42.432  19.198  27.764  1.00  0.00    -0.744 OA
ENDBRANCH  68  72
ENDBRANCH  51  65
BRANCH  52  76
ATOM     76  C   UNL A   1      40.757  31.874  32.133  1.00  0.00     0.023 A 
ATOM     77  C   UNL A   1      40.129  31.188  33.207  1.00  0.00     0.031 A 
ATOM     78  C   UNL A   1      40.479  33.240  31.992  1.00  0.00     0.131 A 
ATOM     79  C   UNL A   1      39.484  31.905  34.228  1.00  0.00     0.055 A 
ATOM     80  C   UNL A   1      39.729  33.929  32.959  1.00  0.00     0.041 A 
ATOM     81  F   UNL A   1      41.045  33.957  31.011  1.00  0.00    -0.206 F 
ATOM     82  C   UNL A   1      39.287  33.279  34.115  1.00  0.00     0.022 A 
BRANCH  79  83
ATOM     83  S   UNL A   1      39.217  31.074  35.831  1.00  0.00     0.124 S 
ATOM     84  O   UNL A   1      38.778  32.177  36.678  1.00  0.00    -0.237 OA
ATOM     85  O   UNL A   1      38.204  30.068  35.512  1.00  0.00    -0.237 OA
ATOM     86  O   UNL A   1      40.523  30.504  36.164  1.00  0.00    -0.744 OA
ENDBRANCH  79  83
ENDBRANCH  52  76
BRANCH  64  87
ATOM     87  C   UNL A   1      45.287  26.083  32.856  1.00  0.00     0.023 A 
ATOM     88  C   UNL A   1      44.659  25.053  33.560  1.00  0.00     0.031 A 
ATOM     89  C   UNL A   1      46.709  26.076  32.913  1.00  0.00     0.131 A 
ATOM     90  C   UNL A   1      45.399  24.142  34.332  1.00  0.00     0.055 A 
ATOM     91  C   UNL A   1      47.447  25.101  33.586  1.00  0.00     0.041 A 
ATOM     92  F   UNL A   1      47.457  27.012  32.310  1.00  0.00    -0.206 F 
ATOM     93  C   UNL A   1      46.791  24.132  34.321  1.00  0.00     0.022 A 
BRANCH  90  94
ATOM     94  S   UNL A   1      44.486  23.034  35.430  1.00  0.00     0.124 S 
ATOM     95  O   UNL A   1      44.928  23.491  36.745  1.00  0.00    -0.237 OA
ATOM     96  O   UNL A   1      43.097  23.331  35.092  1.00  0.00    -0.237 OA
ATOM     97  O   UNL A   1      44.952  21.705  35.044  1.00  0.00    -0.744 OA
ENDBRANCH  90  94
ENDBRANCH  64  87
ENDBRANCH  38  39
ENDBRANCH  30  33
ENDBRANCH  28  29
ENDBRANCH   1  28
TORSDOF 16
ENDMDL
MODEL 3
REMARK VINA RESULT:     -13.4      2.009      2.323
REMARK SMILES Cc1ccc(S(=O)(=O)N2c3ccc(C(=O)NCCCCNC(=O)c4ccc(-c5c6nc(c(-c7cc(S(=O)(=O)[O-])ccc7F)c7ccc([nH]7)c(-c7cc(S(=O)(=O)[O-])ccc7F)c7nc(c(-c8cc(S(=O)(=O)[O-])ccc8F)c8ccc5[nH]8)C=C7)C=C6)cc4)cc3C[C@H]2C)cc1
REMARK SMILES IDX 19 1 18 2 17 3 16 4 14 5 15 6 13 8 9 9 10 10 90 11 11 12
REMARK SMILES IDX 88 13 89 14 91 15 12 16 87 17 6 18 7 19 8 20 5 21 1 22 2 23
REMARK SMILES IDX 3 24 93 25 4 26 92 27 20 28 21 29 22 30 23 32 24 33 25 34
REMARK SMILES IDX 86 35 26 36 85 37 27 38 28 39 29 40 79 41 30 42 84 43 78 44
REMARK SMILES IDX 80 45 31 46 83 47 77 48 76 49 32 51 64 52 44 53 63 54 45 55
REMARK SMILES IDX 48 56 62 57 81 58 46 59 47 60 61 62 82 63 49 64 33 65 34 66
REMARK SMILES IDX 42 67 35 68 41 69 43 70 40 71 36 72 37 73 38 74 39 75 65 76
REMARK SMILES IDX 66 77 74 78 67 79 73 80 75 81 72 82 68 83 69 84 70 85 71 86
REMARK SMILES IDX 50 87 51 88 59 89 52 90 58 91 60 92 57 93 53 94 54 95 55 96
REMARK SMILES IDX 56 97
REMARK H PARENT 16 7 21 31 80 50 48 61
REMARK Flexibility Score: inf
ROOT
ATOM      1  C   UNL A   1      32.380  30.841  26.820  1.00  0.00     0.023 C 
ENDROOT
BRANCH   1   2
ATOM      2  C   UNL A   1      31.762  29.713  26.014  1.00  0.00     0.023 C 
BRANCH   2   3
ATOM      3  C   UNL A   1      32.388  29.448  24.649  1.00  0.00     0.116 C 
BRANCH   3   4
ATOM      4  N   UNL A   1      31.417  29.242  23.571  1.00  0.00    -0.352 N 
ATOM      5  C   UNL A   1      30.958  28.088  22.974  1.00  0.00     0.251 C 
ATOM      6  O   UNL A   1      30.187  28.172  22.018  1.00  0.00    -0.269 OA
ATOM      7  H   UNL A   1      31.026  30.071  23.212  1.00  0.00     0.163 HD
BRANCH   5   8
ATOM      8  C   UNL A   1      31.441  26.748  23.400  1.00  0.00     0.040 A 
ATOM      9  N   UNL A   1      33.506  23.269  24.569  1.00  0.00    -0.263 N 
ATOM     10  C   UNL A   1      32.693  24.433  24.285  1.00  0.00     0.055 A 
ATOM     11  C   UNL A   1      34.255  23.010  23.278  1.00  0.00     0.101 C 
ATOM     12  C   UNL A   1      31.870  25.120  25.155  1.00  0.00     0.028 A 
ATOM     13  C   UNL A   1      32.807  24.832  22.955  1.00  0.00    -0.021 A 
ATOM     14  C   UNL A   1      33.540  23.804  22.165  1.00  0.00     0.063 C 
ATOM     15  C   UNL A   1      35.693  23.523  23.447  1.00  0.00     0.032 C 
ATOM     16  C   UNL A   1      31.171  26.224  24.672  1.00  0.00     0.016 A 
ATOM     17  C   UNL A   1      32.212  26.000  22.499  1.00  0.00     0.019 A 
BRANCH   9  18
ATOM     18  S   UNL A   1      32.561  21.994  25.227  1.00  0.00     0.264 S 
ATOM     19  O   UNL A   1      31.187  22.220  24.835  1.00  0.00    -0.201 OA
ATOM     20  O   UNL A   1      32.925  21.835  26.625  1.00  0.00    -0.201 OA
BRANCH  18  21
ATOM     21  C   UNL A   1      33.016  20.438  24.486  1.00  0.00     0.088 A 
ATOM     22  C   UNL A   1      34.049  16.395  23.450  1.00  0.00     0.044 C 
ATOM     23  C   UNL A   1      33.719  17.824  23.757  1.00  0.00    -0.051 A 
ATOM     24  C   UNL A   1      34.548  18.561  24.607  1.00  0.00     0.005 A 
ATOM     25  C   UNL A   1      32.585  18.437  23.211  1.00  0.00     0.005 A 
ATOM     26  C   UNL A   1      34.197  19.858  24.971  1.00  0.00     0.022 A 
ATOM     27  C   UNL A   1      32.241  19.746  23.562  1.00  0.00     0.022 A 
ENDBRANCH  18  21
ENDBRANCH   9  18
ENDBRANCH   5   8
ENDBRANCH   3   4
ENDBRANCH   2   3
ENDBRANCH   1   2
BRANCH   1  28
ATOM     28  C   UNL A   1      33.621  30.452  27.597  1.00  0.00     0.116 C 
BRANCH  28  29
ATOM     29  N   UNL A   1      34.509  31.535  27.983  1.00  0.00    -0.352 N 
ATOM     30  C   UNL A   1      35.729  31.467  28.640  1.00  0.00     0.251 C 
ATOM     31  H   UNL A   1      34.204  32.440  27.745  1.00  0.00     0.163 HD
ATOM     32  O   UNL A   1      36.219  32.472  29.149  1.00  0.00    -0.269 OA
BRANCH  30  33
ATOM     33  C   UNL A   1      36.553  30.226  28.554  1.00  0.00     0.039 A 
ATOM     34  C   UNL A   1      36.834  29.569  29.764  1.00  0.00     0.014 A 
ATOM     35  C   UNL A   1      37.319  29.944  27.432  1.00  0.00     0.014 A 
ATOM     36  C   UNL A   1      38.042  28.902  29.916  1.00  0.00     0.010 A 
ATOM     37  C   UNL A   1      38.583  29.467  27.618  1.00  0.00     0.010 A 
ATOM     38  C   UNL A   1      38.950  28.988  28.871  1.00  0.00    -0.014 A 
BRANCH  38  39
ATOM     39  C   UNL A   1      40.320  28.542  28.913  1.00  0.00     0.031 A 
ATOM     40  C   UNL A   1      40.552  27.119  28.648  1.00  0.00     0.074 A 
ATOM     41  C   UNL A   1      41.281  29.488  28.953  1.00  0.00     0.049 A 
ATOM     42  N   UNL A   1      41.593  26.473  29.015  1.00  0.00    -0.248 NA
ATOM     43  C   UNL A   1      39.572  26.277  27.957  1.00  0.00     0.031 C 
ATOM     44  C   UNL A   1      42.708  29.359  28.702  1.00  0.00     0.029 A 
ATOM     45  N   UNL A   1      41.139  30.774  29.471  1.00  0.00    -0.354 N 
ATOM     46  C   UNL A   1      41.592  25.282  28.323  1.00  0.00     0.074 A 
ATOM     47  C   UNL A   1      40.266  25.151  27.779  1.00  0.00     0.031 C 
ATOM     48  C   UNL A   1      43.348  30.360  29.337  1.00  0.00     0.029 A 
ATOM     49  C   UNL A   1      42.352  31.077  30.118  1.00  0.00     0.049 A 
ATOM     50  H   UNL A   1      40.348  31.355  29.398  1.00  0.00     0.167 HD
ATOM     51  C   UNL A   1      42.780  24.646  28.138  1.00  0.00     0.034 A 
ATOM     52  C   UNL A   1      42.351  31.203  31.480  1.00  0.00     0.034 A 
ATOM     53  C   UNL A   1      43.849  25.403  28.788  1.00  0.00     0.049 A 
ATOM     54  C   UNL A   1      43.132  30.077  32.134  1.00  0.00     0.074 A 
ATOM     55  C   UNL A   1      44.763  26.327  28.309  1.00  0.00     0.029 A 
ATOM     56  N   UNL A   1      43.810  25.563  30.167  1.00  0.00    -0.354 N 
ATOM     57  N   UNL A   1      43.358  28.916  31.574  1.00  0.00    -0.248 NA
ATOM     58  C   UNL A   1      43.800  30.208  33.424  1.00  0.00     0.031 C 
ATOM     59  C   UNL A   1      45.209  27.105  29.413  1.00  0.00     0.029 A 
ATOM     60  C   UNL A   1      44.588  26.634  30.557  1.00  0.00     0.049 A 
ATOM     61  H   UNL A   1      43.298  24.991  30.781  1.00  0.00     0.167 HD
ATOM     62  C   UNL A   1      44.226  28.185  32.348  1.00  0.00     0.074 A 
ATOM     63  C   UNL A   1      44.461  29.038  33.503  1.00  0.00     0.031 C 
ATOM     64  C   UNL A   1      44.712  26.960  31.967  1.00  0.00     0.034 A 
BRANCH  51  65
ATOM     65  C   UNL A   1      43.029  23.556  27.131  1.00  0.00     0.023 A 
ATOM     66  C   UNL A   1      42.371  22.323  27.312  1.00  0.00     0.031 A 
ATOM     67  C   UNL A   1      43.878  23.633  26.012  1.00  0.00     0.131 A 
ATOM     68  C   UNL A   1      42.610  21.228  26.467  1.00  0.00     0.055 A 
ATOM     69  C   UNL A   1      44.149  22.529  25.188  1.00  0.00     0.041 A 
ATOM     70  F   UNL A   1      44.444  24.786  25.630  1.00  0.00    -0.206 F 
ATOM     71  C   UNL A   1      43.516  21.315  25.417  1.00  0.00     0.022 A 
BRANCH  68  72
ATOM     72  S   UNL A   1      41.695  19.693  26.763  1.00  0.00     0.124 S 
ATOM     73  O   UNL A   1      42.598  18.961  27.644  1.00  0.00    -0.237 OA
ATOM     74  O   UNL A   1      40.459  20.181  27.367  1.00  0.00    -0.237 OA
ATOM     75  O   UNL A   1      41.542  19.126  25.424  1.00  0.00    -0.744 OA
ENDBRANCH  68  72
ENDBRANCH  51  65
BRANCH  52  76
ATOM     76  C   UNL A   1      41.089  31.870  31.959  1.00  0.00     0.023 A 
ATOM     77  C   UNL A   1      40.226  31.059  32.743  1.00  0.00     0.031 A 
ATOM     78  C   UNL A   1      40.993  33.259  32.125  1.00  0.00     0.131 A 
ATOM     79  C   UNL A   1      39.512  31.612  33.819  1.00  0.00     0.055 A 
ATOM     80  C   UNL A   1      40.183  33.814  33.129  1.00  0.00     0.041 A 
ATOM     81  F   UNL A   1      41.785  34.088  31.430  1.00  0.00    -0.206 F 
ATOM     82  C   UNL A   1      39.493  32.991  34.024  1.00  0.00     0.022 A 
BRANCH  79  83
ATOM     83  S   UNL A   1      38.903  30.488  35.122  1.00  0.00     0.124 S 
ATOM     84  O   UNL A   1      37.946  29.665  34.390  1.00  0.00    -0.237 OA
ATOM     85  O   UNL A   1      40.123  29.813  35.565  1.00  0.00    -0.237 OA
ATOM     86  O   UNL A   1      38.329  31.380  36.129  1.00  0.00    -0.744 OA
ENDBRANCH  79  83
ENDBRANCH  52  76
BRANCH  64  87
ATOM     87  C   UNL A   1      45.423  25.955  32.854  1.00  0.00     0.023 A 
ATOM     88  C   UNL A   1      44.755  24.943  33.549  1.00  0.00     0.031 A 
ATOM     89  C   UNL A   1      46.842  25.921  32.951  1.00  0.00     0.131 A 
ATOM     90  C   UNL A   1      45.456  24.025  34.349  1.00  0.00     0.055 A 
ATOM     91  C   UNL A   1      47.542  24.938  33.653  1.00  0.00     0.041 A 
ATOM     92  F   UNL A   1      47.624  26.837  32.361  1.00  0.00    -0.206 F 
ATOM     93  C   UNL A   1      46.847  23.988  34.377  1.00  0.00     0.022 A 
BRANCH  90  94
ATOM     94  S   UNL A   1      44.491  22.944  35.430  1.00  0.00     0.124 S 
ATOM     95  O   UNL A   1      44.918  21.622  34.982  1.00  0.00    -0.237 OA
ATOM     96  O   UNL A   1      44.948  23.340  36.759  1.00  0.00    -0.237 OA
ATOM     97  O   UNL A   1      43.107  23.291  35.117  1.00  0.00    -0.744 OA
ENDBRANCH  90  94
ENDBRANCH  64  87
ENDBRANCH  38  39
ENDBRANCH  30  33
ENDBRANCH  28  29
ENDBRANCH   1  28
TORSDOF 16
ENDMDL
