MODEL 1
REMARK VINA RESULT:     -12.1      0.000      0.000
REMARK SMILES O=C(NCCCCNC(=O)c1cc2cnc(Cl)cc2[nH]1)c1ccc(-c2c3nc(c(-c4cc(S(=O)(=O)[O-])ccc4F)c4ccc([nH]4)c(-c4cc(S(=O)(=O)[O-])ccc4F)c4nc(c(-c5cc(S(=O)(=O)[O-])ccc5F)c5ccc2[nH]5)C=C4)C=C3)cc1
REMARK SMILES IDX 4 1 3 2 1 3 2 4 21 6 22 7 83 8 23 9 82 10 24 11 25 12 26 13
REMARK SMILES IDX 76 14 27 15 81 16 75 17 77 18 28 19 80 20 74 21 73 22 29 24
REMARK SMILES IDX 61 25 41 26 60 27 42 28 45 29 59 30 78 31 43 32 44 33 58 35
REMARK SMILES IDX 79 36 46 37 30 38 31 39 39 40 32 41 38 42 40 43 37 44 33 45
REMARK SMILES IDX 34 46 35 47 36 48 62 49 63 50 71 51 64 52 70 53 72 54 69 55
REMARK SMILES IDX 65 56 66 57 67 58 68 59 47 60 48 61 56 62 49 63 55 64 57 65
REMARK SMILES IDX 54 66 50 67 51 68 52 69 53 70 5 71 6 72 7 73 8 74 9 75 10 77
REMARK SMILES IDX 11 78 12 79 20 80 13 81 19 82 14 84 18 85 15 86 16 87 17 88
REMARK H PARENT 3 5 77 23 45 34 8 76 20 83
REMARK Flexibility Score: inf
ROOT
ATOM      1  C   UNL A   1      38.346  20.948  25.350  1.00  0.00     0.116 C 
ENDROOT
BRANCH   1   2
ATOM      2  N   UNL A   1      39.207  19.777  25.572  1.00  0.00    -0.352 N 
ATOM      3  O   UNL A   1      41.255  18.776  25.641  1.00  0.00    -0.269 OA
ATOM      4  C   UNL A   1      40.569  19.768  25.857  1.00  0.00     0.251 C 
ATOM      5  H   UNL A   1      38.769  18.897  25.509  1.00  0.00     0.163 HD
BRANCH   4   6
ATOM      6  C   UNL A   1      41.160  20.983  26.450  1.00  0.00     0.039 A 
ATOM      7  C   UNL A   1      41.702  22.028  25.702  1.00  0.00     0.014 A 
ATOM      8  C   UNL A   1      41.077  21.079  27.831  1.00  0.00     0.014 A 
ATOM      9  C   UNL A   1      42.075  23.194  26.375  1.00  0.00     0.010 A 
ATOM     10  C   UNL A   1      41.149  22.304  28.421  1.00  0.00     0.010 A 
ATOM     11  C   UNL A   1      41.771  23.332  27.743  1.00  0.00    -0.014 A 
BRANCH  11  12
ATOM     12  C   UNL A   1      42.034  24.556  28.492  1.00  0.00     0.031 A 
ATOM     13  C   UNL A   1      40.996  25.595  28.315  1.00  0.00     0.074 A 
ATOM     14  C   UNL A   1      43.040  24.694  29.388  1.00  0.00     0.049 A 
ATOM     15  N   UNL A   1      41.054  26.606  27.516  1.00  0.00    -0.248 NA
ATOM     16  C   UNL A   1      39.669  25.376  28.908  1.00  0.00     0.031 C 
ATOM     17  C   UNL A   1      43.960  23.670  29.910  1.00  0.00     0.029 A 
ATOM     18  N   UNL A   1      43.407  25.794  30.098  1.00  0.00    -0.354 N 
ATOM     19  C   UNL A   1      39.874  27.309  27.720  1.00  0.00     0.074 A 
ATOM     20  C   UNL A   1      38.980  26.387  28.375  1.00  0.00     0.031 C 
ATOM     21  C   UNL A   1      44.593  24.134  31.008  1.00  0.00     0.029 A 
ATOM     22  C   UNL A   1      44.294  25.544  31.140  1.00  0.00     0.049 A 
ATOM     23  H   UNL A   1      43.072  26.696  29.892  1.00  0.00     0.167 HD
ATOM     24  C   UNL A   1      39.849  28.667  27.604  1.00  0.00     0.034 A 
ATOM     25  C   UNL A   1      44.770  26.431  32.049  1.00  0.00     0.034 A 
ATOM     26  C   UNL A   1      41.073  29.144  27.002  1.00  0.00     0.049 A 
ATOM     27  C   UNL A   1      44.592  27.783  31.479  1.00  0.00     0.074 A 
ATOM     28  C   UNL A   1      41.704  28.968  25.788  1.00  0.00     0.029 A 
ATOM     29  N   UNL A   1      42.030  29.603  27.874  1.00  0.00    -0.354 N 
ATOM     30  N   UNL A   1      45.258  28.233  30.455  1.00  0.00    -0.248 NA
ATOM     31  C   UNL A   1      43.352  28.482  31.778  1.00  0.00     0.031 C 
ATOM     32  C   UNL A   1      43.096  28.941  26.090  1.00  0.00     0.029 A 
ATOM     33  C   UNL A   1      43.264  29.182  27.458  1.00  0.00     0.049 A 
ATOM     34  H   UNL A   1      41.857  30.150  28.675  1.00  0.00     0.167 HD
ATOM     35  C   UNL A   1      44.311  28.916  29.710  1.00  0.00     0.074 A 
ATOM     36  C   UNL A   1      43.205  29.157  30.636  1.00  0.00     0.031 C 
ATOM     37  C   UNL A   1      44.390  28.956  28.346  1.00  0.00     0.034 A 
BRANCH  24  38
ATOM     38  C   UNL A   1      38.956  29.575  28.422  1.00  0.00     0.023 A 
ATOM     39  C   UNL A   1      37.776  30.155  27.923  1.00  0.00     0.031 A 
ATOM     40  C   UNL A   1      39.146  29.684  29.816  1.00  0.00     0.131 A 
ATOM     41  C   UNL A   1      36.852  30.790  28.761  1.00  0.00     0.055 A 
ATOM     42  C   UNL A   1      38.191  30.258  30.664  1.00  0.00     0.041 A 
ATOM     43  F   UNL A   1      40.239  29.175  30.405  1.00  0.00    -0.206 F 
ATOM     44  C   UNL A   1      37.032  30.810  30.138  1.00  0.00     0.022 A 
BRANCH  41  45
ATOM     45  S   UNL A   1      35.375  31.575  28.057  1.00  0.00     0.124 S 
ATOM     46  O   UNL A   1      34.892  30.546  27.144  1.00  0.00    -0.237 OA
ATOM     47  O   UNL A   1      34.565  31.794  29.253  1.00  0.00    -0.237 OA
ATOM     48  O   UNL A   1      35.897  32.788  27.433  1.00  0.00    -0.744 OA
ENDBRANCH  41  45
ENDBRANCH  24  38
BRANCH  25  49
ATOM     49  C   UNL A   1      44.905  26.224  33.510  1.00  0.00     0.023 A 
ATOM     50  C   UNL A   1      43.759  25.963  34.280  1.00  0.00     0.031 A 
ATOM     51  C   UNL A   1      46.066  26.631  34.191  1.00  0.00     0.131 A 
ATOM     52  C   UNL A   1      43.768  26.192  35.663  1.00  0.00     0.055 A 
ATOM     53  C   UNL A   1      46.080  26.837  35.575  1.00  0.00     0.041 A 
ATOM     54  F   UNL A   1      47.187  26.921  33.511  1.00  0.00    -0.206 F 
ATOM     55  C   UNL A   1      44.919  26.638  36.316  1.00  0.00     0.022 A 
BRANCH  52  56
ATOM     56  S   UNL A   1      42.240  26.025  36.625  1.00  0.00     0.124 S 
ATOM     57  O   UNL A   1      41.914  24.613  36.438  1.00  0.00    -0.237 OA
ATOM     58  O   UNL A   1      42.689  26.398  37.961  1.00  0.00    -0.237 OA
ATOM     59  O   UNL A   1      41.328  26.961  35.972  1.00  0.00    -0.744 OA
ENDBRANCH  52  56
ENDBRANCH  25  49
BRANCH  37  60
ATOM     60  C   UNL A   1      45.688  28.546  27.683  1.00  0.00     0.023 A 
ATOM     61  C   UNL A   1      45.781  27.204  27.273  1.00  0.00     0.031 A 
ATOM     62  C   UNL A   1      46.861  29.323  27.626  1.00  0.00     0.131 A 
ATOM     63  C   UNL A   1      47.009  26.661  26.886  1.00  0.00     0.055 A 
ATOM     64  C   UNL A   1      48.074  28.795  27.164  1.00  0.00     0.041 A 
ATOM     65  F   UNL A   1      46.897  30.581  28.085  1.00  0.00    -0.206 F 
ATOM     66  C   UNL A   1      48.157  27.452  26.810  1.00  0.00     0.022 A 
BRANCH  63  67
ATOM     67  S   UNL A   1      47.169  24.876  26.634  1.00  0.00     0.124 S 
ATOM     68  O   UNL A   1      48.439  24.584  27.293  1.00  0.00    -0.237 OA
ATOM     69  O   UNL A   1      45.980  24.360  27.308  1.00  0.00    -0.237 OA
ATOM     70  O   UNL A   1      47.169  24.721  25.182  1.00  0.00    -0.744 OA
ENDBRANCH  63  67
ENDBRANCH  37  60
ENDBRANCH  11  12
ENDBRANCH   4   6
ENDBRANCH   1   2
BRANCH   1  71
ATOM     71  C   UNL A   1      36.904  20.612  25.004  1.00  0.00     0.023 C 
BRANCH  71  72
ATOM     72  C   UNL A   1      35.860  21.617  25.509  1.00  0.00     0.023 C 
BRANCH  72  73
ATOM     73  C   UNL A   1      35.231  22.551  24.468  1.00  0.00     0.116 C 
BRANCH  73  74
ATOM     74  N   UNL A   1      33.971  23.142  24.897  1.00  0.00    -0.351 N 
ATOM     75  C   UNL A   1      32.703  22.617  24.885  1.00  0.00     0.267 C 
ATOM     76  H   UNL A   1      34.039  24.058  25.250  1.00  0.00     0.163 HD
ATOM     77  O   UNL A   1      31.743  23.384  25.023  1.00  0.00    -0.268 OA
BRANCH  75  78
ATOM     78  C   UNL A   1      32.535  21.211  24.638  1.00  0.00     0.105 A 
ATOM     79  C   UNL A   1      32.409  20.556  23.425  1.00  0.00     0.043 A 
ATOM     80  N   UNL A   1      32.401  20.240  25.607  1.00  0.00    -0.350 N 
ATOM     81  C   UNL A   1      32.547  19.163  23.668  1.00  0.00     0.019 A 
ATOM     82  C   UNL A   1      32.596  18.999  25.052  1.00  0.00     0.051 A 
ATOM     83  H   UNL A   1      32.197  20.411  26.554  1.00  0.00     0.167 HD
ATOM     84  C   UNL A   1      32.682  18.032  22.854  1.00  0.00     0.123 A 
ATOM     85  C   UNL A   1      32.818  17.760  25.647  1.00  0.00     0.067 A 
ATOM     86  N   UNL A   1      32.930  16.816  23.402  1.00  0.00    -0.244 NA
ATOM     87  C   UNL A   1      33.002  16.722  24.747  1.00  0.00     0.131 A 
ATOM     88  Cl  UNL A   1      33.395  15.149  25.318  1.00  0.00    -0.062 Cl
ENDBRANCH  75  78
ENDBRANCH  73  74
ENDBRANCH  72  73
ENDBRANCH  71  72
ENDBRANCH   1  71
TORSDOF 14
ENDMDL
MODEL 2
REMARK VINA RESULT:     -12.1      3.222      7.217
REMARK SMILES O=C(NCCCCNC(=O)c1cc2cnc(Cl)cc2[nH]1)c1ccc(-c2c3nc(c(-c4cc(S(=O)(=O)[O-])ccc4F)c4ccc([nH]4)c(-c4cc(S(=O)(=O)[O-])ccc4F)c4nc(c(-c5cc(S(=O)(=O)[O-])ccc5F)c5ccc2[nH]5)C=C4)C=C3)cc1
REMARK SMILES IDX 4 1 3 2 1 3 2 4 21 6 22 7 83 8 23 9 82 10 24 11 25 12 26 13
REMARK SMILES IDX 76 14 27 15 81 16 75 17 77 18 28 19 80 20 74 21 73 22 29 24
REMARK SMILES IDX 61 25 41 26 60 27 42 28 45 29 59 30 78 31 43 32 44 33 58 35
REMARK SMILES IDX 79 36 46 37 30 38 31 39 39 40 32 41 38 42 40 43 37 44 33 45
REMARK SMILES IDX 34 46 35 47 36 48 62 49 63 50 71 51 64 52 70 53 72 54 69 55
REMARK SMILES IDX 65 56 66 57 67 58 68 59 47 60 48 61 56 62 49 63 55 64 57 65
REMARK SMILES IDX 54 66 50 67 51 68 52 69 53 70 5 71 6 72 7 73 8 74 9 75 10 77
REMARK SMILES IDX 11 78 12 79 20 80 13 81 19 82 14 84 18 85 15 86 16 87 17 88
REMARK H PARENT 3 5 77 23 45 34 8 76 20 83
REMARK Flexibility Score: inf
ROOT
ATOM      1  C   UNL A   1      37.929  22.647  25.251  1.00  0.00     0.116 C 
ENDROOT
BRANCH   1   2
ATOM      2  N   UNL A   1      38.622  21.904  26.313  1.00  0.00    -0.352 N 
ATOM      3  O   UNL A   1      40.421  21.555  27.672  1.00  0.00    -0.269 OA
ATOM      4  C   UNL A   1      39.674  22.347  27.109  1.00  0.00     0.251 C 
ATOM      5  H   UNL A   1      38.308  20.985  26.479  1.00  0.00     0.163 HD
BRANCH   4   6
ATOM      6  C   UNL A   1      39.852  23.802  27.274  1.00  0.00     0.039 A 
ATOM      7  C   UNL A   1      38.865  24.744  26.985  1.00  0.00     0.014 A 
ATOM      8  C   UNL A   1      41.060  24.201  27.825  1.00  0.00     0.014 A 
ATOM      9  C   UNL A   1      39.098  26.074  27.343  1.00  0.00     0.010 A 
ATOM     10  C   UNL A   1      41.147  25.413  28.440  1.00  0.00     0.010 A 
ATOM     11  C   UNL A   1      40.243  26.397  28.097  1.00  0.00    -0.014 A 
BRANCH  11  12
ATOM     12  C   UNL A   1      40.505  27.742  28.598  1.00  0.00     0.031 A 
ATOM     13  C   UNL A   1      41.688  28.383  27.984  1.00  0.00     0.074 A 
ATOM     14  C   UNL A   1      39.673  28.418  29.424  1.00  0.00     0.049 A 
ATOM     15  N   UNL A   1      42.872  28.450  28.494  1.00  0.00    -0.248 NA
ATOM     16  C   UNL A   1      41.620  28.791  26.574  1.00  0.00     0.031 C 
ATOM     17  C   UNL A   1      38.318  28.055  29.872  1.00  0.00     0.029 A 
ATOM     18  N   UNL A   1      39.838  29.645  29.989  1.00  0.00    -0.354 N 
ATOM     19  C   UNL A   1      43.632  29.165  27.577  1.00  0.00     0.074 A 
ATOM     20  C   UNL A   1      42.893  29.119  26.340  1.00  0.00     0.031 C 
ATOM     21  C   UNL A   1      37.707  29.128  30.418  1.00  0.00     0.029 A 
ATOM     22  C   UNL A   1      38.689  30.183  30.558  1.00  0.00     0.049 A 
ATOM     23  H   UNL A   1      40.703  30.115  29.994  1.00  0.00     0.167 HD
ATOM     24  C   UNL A   1      44.641  29.978  27.999  1.00  0.00     0.034 A 
ATOM     25  C   UNL A   1      38.544  31.407  31.123  1.00  0.00     0.034 A 
ATOM     26  C   UNL A   1      44.927  29.742  29.396  1.00  0.00     0.049 A 
ATOM     27  C   UNL A   1      39.895  31.891  31.478  1.00  0.00     0.074 A 
ATOM     28  C   UNL A   1      45.367  28.667  30.140  1.00  0.00     0.029 A 
ATOM     29  N   UNL A   1      44.346  30.616  30.282  1.00  0.00    -0.354 N 
ATOM     30  N   UNL A   1      40.628  31.368  32.419  1.00  0.00    -0.248 NA
ATOM     31  C   UNL A   1      40.612  32.678  30.488  1.00  0.00     0.031 C 
ATOM     32  C   UNL A   1      44.670  28.759  31.379  1.00  0.00     0.029 A 
ATOM     33  C   UNL A   1      43.897  29.924  31.374  1.00  0.00     0.049 A 
ATOM     34  H   UNL A   1      44.265  31.589  30.153  1.00  0.00     0.167 HD
ATOM     35  C   UNL A   1      41.904  31.342  31.878  1.00  0.00     0.074 A 
ATOM     36  C   UNL A   1      41.857  32.284  30.760  1.00  0.00     0.031 C 
ATOM     37  C   UNL A   1      42.779  30.345  32.201  1.00  0.00     0.034 A 
BRANCH  24  38
ATOM     38  C   UNL A   1      45.046  31.261  27.308  1.00  0.00     0.023 A 
ATOM     39  C   UNL A   1      44.240  32.413  27.277  1.00  0.00     0.031 A 
ATOM     40  C   UNL A   1      46.374  31.435  26.862  1.00  0.00     0.131 A 
ATOM     41  C   UNL A   1      44.732  33.649  26.842  1.00  0.00     0.055 A 
ATOM     42  C   UNL A   1      46.887  32.684  26.491  1.00  0.00     0.041 A 
ATOM     43  F   UNL A   1      47.234  30.405  26.837  1.00  0.00    -0.206 F 
ATOM     44  C   UNL A   1      46.066  33.803  26.485  1.00  0.00     0.022 A 
BRANCH  41  45
ATOM     45  S   UNL A   1      43.632  35.091  26.768  1.00  0.00     0.124 S 
ATOM     46  O   UNL A   1      44.579  36.197  26.839  1.00  0.00    -0.237 OA
ATOM     47  O   UNL A   1      42.981  34.893  25.475  1.00  0.00    -0.237 OA
ATOM     48  O   UNL A   1      42.764  34.918  27.929  1.00  0.00    -0.744 OA
ENDBRANCH  41  45
ENDBRANCH  24  38
BRANCH  25  49
ATOM     49  C   UNL A   1      37.417  32.350  30.930  1.00  0.00     0.023 A 
ATOM     50  C   UNL A   1      36.716  32.827  32.050  1.00  0.00     0.031 A 
ATOM     51  C   UNL A   1      36.807  32.496  29.671  1.00  0.00     0.131 A 
ATOM     52  C   UNL A   1      35.421  33.344  31.907  1.00  0.00     0.055 A 
ATOM     53  C   UNL A   1      35.523  33.034  29.527  1.00  0.00     0.041 A 
ATOM     54  F   UNL A   1      37.413  32.036  28.565  1.00  0.00    -0.206 F 
ATOM     55  C   UNL A   1      34.813  33.442  30.653  1.00  0.00     0.022 A 
BRANCH  52  56
ATOM     56  S   UNL A   1      34.452  33.794  33.372  1.00  0.00     0.124 S 
ATOM     57  O   UNL A   1      33.202  33.072  33.146  1.00  0.00    -0.237 OA
ATOM     58  O   UNL A   1      35.291  33.282  34.449  1.00  0.00    -0.237 OA
ATOM     59  O   UNL A   1      34.352  35.248  33.276  1.00  0.00    -0.744 OA
ENDBRANCH  52  56
ENDBRANCH  25  49
BRANCH  37  60
ATOM     60  C   UNL A   1      42.474  29.471  33.399  1.00  0.00     0.023 A 
ATOM     61  C   UNL A   1      43.163  29.778  34.585  1.00  0.00     0.031 A 
ATOM     62  C   UNL A   1      41.729  28.275  33.374  1.00  0.00     0.131 A 
ATOM     63  C   UNL A   1      43.149  28.892  35.667  1.00  0.00     0.055 A 
ATOM     64  C   UNL A   1      41.656  27.428  34.488  1.00  0.00     0.041 A 
ATOM     65  F   UNL A   1      41.119  27.848  32.261  1.00  0.00    -0.206 F 
ATOM     66  C   UNL A   1      42.385  27.725  35.635  1.00  0.00     0.022 A 
BRANCH  63  67
ATOM     67  S   UNL A   1      44.260  29.163  37.070  1.00  0.00     0.124 S 
ATOM     68  O   UNL A   1      45.536  29.422  36.408  1.00  0.00    -0.237 OA
ATOM     69  O   UNL A   1      43.651  30.315  37.730  1.00  0.00    -0.237 OA
ATOM     70  O   UNL A   1      44.191  27.914  37.823  1.00  0.00    -0.744 OA
ENDBRANCH  63  67
ENDBRANCH  37  60
ENDBRANCH  11  12
ENDBRANCH   4   6
ENDBRANCH   1   2
BRANCH   1  71
ATOM     71  C   UNL A   1      36.412  22.627  25.358  1.00  0.00     0.023 C 
BRANCH  71  72
ATOM     72  C   UNL A   1      35.710  23.924  24.931  1.00  0.00     0.023 C 
BRANCH  72  73
ATOM     73  C   UNL A   1      34.202  24.018  25.193  1.00  0.00     0.116 C 
BRANCH  73  74
ATOM     74  N   UNL A   1      33.824  23.694  26.561  1.00  0.00    -0.351 N 
ATOM     75  C   UNL A   1      33.131  22.616  27.052  1.00  0.00     0.267 C 
ATOM     76  H   UNL A   1      34.109  24.349  27.238  1.00  0.00     0.163 HD
ATOM     77  O   UNL A   1      32.672  22.679  28.198  1.00  0.00    -0.268 OA
BRANCH  75  78
ATOM     78  C   UNL A   1      32.901  21.488  26.192  1.00  0.00     0.105 A 
ATOM     79  C   UNL A   1      32.118  21.416  25.052  1.00  0.00     0.043 A 
ATOM     80  N   UNL A   1      33.388  20.215  26.396  1.00  0.00    -0.350 N 
ATOM     81  C   UNL A   1      32.421  20.194  24.395  1.00  0.00     0.019 A 
ATOM     82  C   UNL A   1      33.269  19.480  25.242  1.00  0.00     0.051 A 
ATOM     83  H   UNL A   1      33.764  19.883  27.243  1.00  0.00     0.167 HD
ATOM     84  C   UNL A   1      32.100  19.642  23.149  1.00  0.00     0.123 A 
ATOM     85  C   UNL A   1      33.838  18.264  24.873  1.00  0.00     0.067 A 
ATOM     86  N   UNL A   1      32.662  18.474  22.748  1.00  0.00    -0.244 NA
ATOM     87  C   UNL A   1      33.503  17.844  23.596  1.00  0.00     0.131 A 
ATOM     88  Cl  UNL A   1      34.209  16.417  22.949  1.00  0.00    -0.062 Cl
ENDBRANCH  75  78
ENDBRANCH  73  74
ENDBRANCH  72  73
ENDBRANCH  71  72
ENDBRANCH   1  71
TORSDOF 14
ENDMDL
MODEL 3
REMARK VINA RESULT:     -12.1      4.801      9.479
REMARK SMILES O=C(NCCCCNC(=O)c1cc2cnc(Cl)cc2[nH]1)c1ccc(-c2c3nc(c(-c4cc(S(=O)(=O)[O-])ccc4F)c4ccc([nH]4)c(-c4cc(S(=O)(=O)[O-])ccc4F)c4nc(c(-c5cc(S(=O)(=O)[O-])ccc5F)c5ccc2[nH]5)C=C4)C=C3)cc1
REMARK SMILES IDX 4 1 3 2 1 3 2 4 21 6 22 7 83 8 23 9 82 10 24 11 25 12 26 13
REMARK SMILES IDX 76 14 27 15 81 16 75 17 77 18 28 19 80 20 74 21 73 22 29 24
REMARK SMILES IDX 61 25 41 26 60 27 42 28 45 29 59 30 78 31 43 32 44 33 58 35
REMARK SMILES IDX 79 36 46 37 30 38 31 39 39 40 32 41 38 42 40 43 37 44 33 45
REMARK SMILES IDX 34 46 35 47 36 48 62 49 63 50 71 51 64 52 70 53 72 54 69 55
REMARK SMILES IDX 65 56 66 57 67 58 68 59 47 60 48 61 56 62 49 63 55 64 57 65
REMARK SMILES IDX 54 66 50 67 51 68 52 69 53 70 5 71 6 72 7 73 8 74 9 75 10 77
REMARK SMILES IDX 11 78 12 79 20 80 13 81 19 82 14 84 18 85 15 86 16 87 17 88
REMARK H PARENT 3 5 77 23 45 34 8 76 20 83
REMARK Flexibility Score: inf
ROOT
ATOM      1  C   UNL A   1      42.913  22.605  25.793  1.00  0.00     0.116 C 
ENDROOT
BRANCH   1   2
ATOM      2  N   UNL A   1      41.523  22.181  25.569  1.00  0.00    -0.352 N 
ATOM      3  O   UNL A   1      39.389  21.835  26.296  1.00  0.00    -0.269 OA
ATOM      4  C   UNL A   1      40.401  22.525  26.318  1.00  0.00     0.251 C 
ATOM      5  H   UNL A   1      41.368  21.583  24.802  1.00  0.00     0.163 HD
BRANCH   4   6
ATOM      6  C   UNL A   1      40.459  23.760  27.123  1.00  0.00     0.039 A 
ATOM      7  C   UNL A   1      41.278  23.922  28.241  1.00  0.00     0.014 A 
ATOM      8  C   UNL A   1      39.694  24.818  26.655  1.00  0.00     0.014 A 
ATOM      9  C   UNL A   1      41.365  25.193  28.813  1.00  0.00     0.010 A 
ATOM     10  C   UNL A   1      40.020  26.089  27.018  1.00  0.00     0.010 A 
ATOM     11  C   UNL A   1      40.744  26.285  28.176  1.00  0.00    -0.014 A 
BRANCH  11  12
ATOM     12  C   UNL A   1      40.874  27.657  28.654  1.00  0.00     0.031 A 
ATOM     13  C   UNL A   1      42.002  28.394  28.043  1.00  0.00     0.074 A 
ATOM     14  C   UNL A   1      39.972  28.268  29.457  1.00  0.00     0.049 A 
ATOM     15  N   UNL A   1      43.167  28.578  28.567  1.00  0.00    -0.248 NA
ATOM     16  C   UNL A   1      41.917  28.768  26.625  1.00  0.00     0.031 C 
ATOM     17  C   UNL A   1      38.649  27.788  29.893  1.00  0.00     0.029 A 
ATOM     18  N   UNL A   1      40.015  29.514  30.000  1.00  0.00    -0.354 N 
ATOM     19  C   UNL A   1      43.871  29.344  27.646  1.00  0.00     0.074 A 
ATOM     20  C   UNL A   1      43.158  29.208  26.401  1.00  0.00     0.031 C 
ATOM     21  C   UNL A   1      37.935  28.810  30.412  1.00  0.00     0.029 A 
ATOM     22  C   UNL A   1      38.813  29.954  30.544  1.00  0.00     0.049 A 
ATOM     23  H   UNL A   1      40.832  30.062  30.007  1.00  0.00     0.167 HD
ATOM     24  C   UNL A   1      44.795  30.254  28.067  1.00  0.00     0.034 A 
ATOM     25  C   UNL A   1      38.548  31.168  31.084  1.00  0.00     0.034 A 
ATOM     26  C   UNL A   1      45.081  30.070  29.471  1.00  0.00     0.049 A 
ATOM     27  C   UNL A   1      39.843  31.781  31.448  1.00  0.00     0.074 A 
ATOM     28  C   UNL A   1      45.608  29.054  30.240  1.00  0.00     0.029 A 
ATOM     29  N   UNL A   1      44.410  30.902  30.333  1.00  0.00    -0.354 N 
ATOM     30  N   UNL A   1      40.607  31.345  32.407  1.00  0.00    -0.248 NA
ATOM     31  C   UNL A   1      40.498  32.614  30.452  1.00  0.00     0.031 C 
ATOM     32  C   UNL A   1      44.887  29.103  31.469  1.00  0.00     0.029 A 
ATOM     33  C   UNL A   1      44.010  30.191  31.432  1.00  0.00     0.049 A 
ATOM     34  H   UNL A   1      44.241  31.861  30.184  1.00  0.00     0.167 HD
ATOM     35  C   UNL A   1      41.887  31.428  31.884  1.00  0.00     0.074 A 
ATOM     36  C   UNL A   1      41.771  32.341  30.748  1.00  0.00     0.031 C 
ATOM     37  C   UNL A   1      42.846  30.521  32.236  1.00  0.00     0.034 A 
BRANCH  24  38
ATOM     38  C   UNL A   1      45.090  31.557  27.356  1.00  0.00     0.023 A 
ATOM     39  C   UNL A   1      44.264  32.692  27.444  1.00  0.00     0.031 A 
ATOM     40  C   UNL A   1      46.351  31.767  26.759  1.00  0.00     0.131 A 
ATOM     41  C   UNL A   1      44.677  33.945  26.977  1.00  0.00     0.055 A 
ATOM     42  C   UNL A   1      46.793  33.032  26.353  1.00  0.00     0.041 A 
ATOM     43  F   UNL A   1      47.222  30.756  26.613  1.00  0.00    -0.206 F 
ATOM     44  C   UNL A   1      45.955  34.133  26.467  1.00  0.00     0.022 A 
BRANCH  41  45
ATOM     45  S   UNL A   1      43.549  35.364  27.061  1.00  0.00     0.124 S 
ATOM     46  O   UNL A   1      42.950  35.354  25.731  1.00  0.00    -0.237 OA
ATOM     47  O   UNL A   1      42.667  34.970  28.157  1.00  0.00    -0.237 OA
ATOM     48  O   UNL A   1      44.435  36.488  27.353  1.00  0.00    -0.744 OA
ENDBRANCH  41  45
ENDBRANCH  24  38
BRANCH  25  49
ATOM     49  C   UNL A   1      37.341  31.999  30.859  1.00  0.00     0.023 A 
ATOM     50  C   UNL A   1      36.700  32.598  31.957  1.00  0.00     0.031 A 
ATOM     51  C   UNL A   1      36.622  31.913  29.654  1.00  0.00     0.131 A 
ATOM     52  C   UNL A   1      35.362  33.006  31.858  1.00  0.00     0.055 A 
ATOM     53  C   UNL A   1      35.293  32.343  29.551  1.00  0.00     0.041 A 
ATOM     54  F   UNL A   1      37.168  31.328  28.576  1.00  0.00    -0.206 F 
ATOM     55  C   UNL A   1      34.650  32.873  30.665  1.00  0.00     0.022 A 
BRANCH  52  56
ATOM     56  S   UNL A   1      34.485  33.615  33.324  1.00  0.00     0.124 S 
ATOM     57  O   UNL A   1      33.173  32.989  33.177  1.00  0.00    -0.237 OA
ATOM     58  O   UNL A   1      35.316  33.092  34.403  1.00  0.00    -0.237 OA
ATOM     59  O   UNL A   1      34.502  35.064  33.149  1.00  0.00    -0.744 OA
ENDBRANCH  52  56
ENDBRANCH  25  49
BRANCH  37  60
ATOM     60  C   UNL A   1      42.606  29.644  33.447  1.00  0.00     0.023 A 
ATOM     61  C   UNL A   1      43.249  30.032  34.635  1.00  0.00     0.031 A 
ATOM     62  C   UNL A   1      41.972  28.386  33.435  1.00  0.00     0.131 A 
ATOM     63  C   UNL A   1      43.301  29.168  35.732  1.00  0.00     0.055 A 
ATOM     64  C   UNL A   1      41.961  27.555  34.563  1.00  0.00     0.041 A 
ATOM     65  F   UNL A   1      41.417  27.887  32.323  1.00  0.00    -0.206 F 
ATOM     66  C   UNL A   1      42.645  27.935  35.712  1.00  0.00     0.022 A 
BRANCH  63  67
ATOM     67  S   UNL A   1      44.365  29.561  37.143  1.00  0.00     0.124 S 
ATOM     68  O   UNL A   1      44.414  28.288  37.856  1.00  0.00    -0.237 OA
ATOM     69  O   UNL A   1      45.609  29.962  36.490  1.00  0.00    -0.237 OA
ATOM     70  O   UNL A   1      43.657  30.635  37.832  1.00  0.00    -0.744 OA
ENDBRANCH  63  67
ENDBRANCH  37  60
ENDBRANCH  11  12
ENDBRANCH   4   6
ENDBRANCH   1   2
BRANCH   1  71
ATOM     71  C   UNL A   1      43.424  23.634  24.798  1.00  0.00     0.023 C 
BRANCH  71  72
ATOM     72  C   UNL A   1      43.246  25.098  25.222  1.00  0.00     0.023 C 
BRANCH  72  73
ATOM     73  C   UNL A   1      44.480  25.818  25.779  1.00  0.00     0.116 C 
BRANCH  73  74
ATOM     74  N   UNL A   1      45.670  24.980  25.839  1.00  0.00    -0.351 N 
ATOM     75  C   UNL A   1      46.330  24.465  26.926  1.00  0.00     0.267 C 
ATOM     76  H   UNL A   1      46.059  24.746  24.966  1.00  0.00     0.163 HD
ATOM     77  O   UNL A   1      47.474  24.022  26.769  1.00  0.00    -0.268 OA
BRANCH  75  78
ATOM     78  C   UNL A   1      45.700  24.528  28.217  1.00  0.00     0.105 A 
ATOM     79  C   UNL A   1      44.763  23.668  28.763  1.00  0.00     0.043 A 
ATOM     80  N   UNL A   1      45.878  25.531  29.145  1.00  0.00    -0.350 N 
ATOM     81  C   UNL A   1      44.648  23.973  30.146  1.00  0.00     0.019 A 
ATOM     82  C   UNL A   1      45.408  25.122  30.368  1.00  0.00     0.051 A 
ATOM     83  H   UNL A   1      46.282  26.409  28.958  1.00  0.00     0.167 HD
ATOM     84  C   UNL A   1      44.017  23.365  31.237  1.00  0.00     0.123 A 
ATOM     85  C   UNL A   1      45.594  25.655  31.641  1.00  0.00     0.067 A 
ATOM     86  N   UNL A   1      44.203  23.843  32.493  1.00  0.00    -0.244 NA
ATOM     87  C   UNL A   1      44.977  24.938  32.654  1.00  0.00     0.131 A 
ATOM     88  Cl  UNL A   1      45.200  25.403  34.294  1.00  0.00    -0.062 Cl
ENDBRANCH  75  78
ENDBRANCH  73  74
ENDBRANCH  72  73
ENDBRANCH  71  72
ENDBRANCH   1  71
TORSDOF 14
ENDMDL
