MODEL 1
REMARK VINA RESULT:     -12.8      0.000      0.000
REMARK SMILES Cc1c(C#N)c2ccccc2n1CC(=O)N1CC[C@H](O)C[C@@H]1C(=O)NCCCCNC(=O)c1ccc(-c2c3nc(c(-c4cc(S(=O)(=O)[O-])ccc4F)c4ccc([nH]4)c(-c4cc(S(=O)(=O)[O-])ccc4F)c4nc(c(-c5cc(S(=O)(=O)[O-])ccc5F)c5ccc2[nH]5)C=C4)C=C3)cc1
REMARK SMILES IDX 27 1 26 2 25 3 23 4 24 5 22 7 16 8 17 9 18 10 21 11 19 12
REMARK SMILES IDX 14 13 15 14 13 15 12 16 1 17 2 18 3 19 6 20 11 21 7 22 10 23
REMARK SMILES IDX 8 24 9 25 4 26 5 27 20 28 28 30 29 31 30 32 31 33 32 35
REMARK SMILES IDX 33 36 34 37 95 38 35 39 94 40 36 41 37 42 38 43 88 44 39 45
REMARK SMILES IDX 93 46 87 47 89 48 40 49 92 50 86 51 85 52 41 54 73 55 53 56
REMARK SMILES IDX 72 57 54 58 57 59 71 60 90 61 55 62 56 63 70 65 91 66 58 67
REMARK SMILES IDX 42 68 43 69 51 70 44 71 50 72 52 73 49 74 45 75 46 76 47 77
REMARK SMILES IDX 48 78 74 79 75 80 83 81 76 82 82 83 84 84 81 85 77 86 78 87
REMARK SMILES IDX 79 88 80 89 59 90 60 91 68 92 61 93 67 94 69 95 66 96 62 97
REMARK SMILES IDX 63 98 64 99 65 100
REMARK H PARENT 25 6 20 29 30 34 89 53 57 64
REMARK Flexibility Score: inf
ROOT
ATOM      1  C   UNL A   1      36.757  20.853  24.560  1.00  0.00     0.023 C 
ENDROOT
BRANCH   1   2
ATOM      2  C   UNL A   1      35.725  21.751  25.230  1.00  0.00     0.116 C 
BRANCH   2   3
ATOM      3  N   UNL A   1      34.390  21.196  25.214  1.00  0.00    -0.354 N 
ATOM      4  C   UNL A   1      33.187  21.826  25.262  1.00  0.00     0.242 C 
ATOM      5  O   UNL A   1      32.192  21.091  25.247  1.00  0.00    -0.273 OA
ATOM      6  H   UNL A   1      34.346  20.214  25.162  1.00  0.00     0.163 HD
BRANCH   4   7
ATOM      7  C   UNL A   1      33.055  23.379  25.382  1.00  0.00     0.177 C 
ATOM      8  N   UNL A   1      31.625  23.740  25.178  1.00  0.00    -0.329 N 
ATOM      9  C   UNL A   1      31.143  23.547  23.806  1.00  0.00     0.123 C 
ATOM     10  C   UNL A   1      31.975  24.354  22.812  1.00  0.00     0.053 C 
ATOM     11  C   UNL A   1      33.890  24.252  24.441  1.00  0.00     0.067 C 
ATOM     12  C   UNL A   1      33.468  24.116  22.983  1.00  0.00     0.118 C 
BRANCH   8  13
ATOM     13  C   UNL A   1      30.914  24.243  26.256  1.00  0.00     0.243 C 
ATOM     14  O   UNL A   1      30.853  23.594  27.312  1.00  0.00    -0.273 OA
BRANCH  13  15
ATOM     15  C   UNL A   1      30.059  25.499  26.158  1.00  0.00     0.222 C 
BRANCH  15  16
ATOM     16  N   UNL A   1      30.500  26.565  25.269  1.00  0.00    -0.334 N 
ATOM     17  C   UNL A   1      28.520  26.469  23.697  1.00  0.00     0.066 C 
ATOM     18  C   UNL A   1      29.802  27.059  24.182  1.00  0.00     0.034 A 
ATOM     19  C   UNL A   1      30.500  28.167  23.727  1.00  0.00     0.080 A 
ATOM     20  C   UNL A   1      31.675  28.319  24.515  1.00  0.00     0.018 A 
ATOM     21  C   UNL A   1      31.681  27.277  25.446  1.00  0.00     0.050 A 
ATOM     22  C   UNL A   1      32.724  29.263  24.547  1.00  0.00     0.012 A 
ATOM     23  C   UNL A   1      32.707  27.143  26.400  1.00  0.00     0.027 A 
ATOM     24  C   UNL A   1      33.739  29.144  25.502  1.00  0.00     0.001 A 
ATOM     25  C   UNL A   1      33.730  28.094  26.412  1.00  0.00     0.002 A 
BRANCH  19  26
ATOM     26  C   UNL A   1      30.083  29.037  22.666  1.00  0.00     0.102 C 
ATOM     27  N   UNL A   1      29.760  29.749  21.813  1.00  0.00    -0.192 NA
ENDBRANCH  19  26
ENDBRANCH  15  16
ENDBRANCH  13  15
ENDBRANCH   8  13
BRANCH  12  28
ATOM     28  O   UNL A   1      33.865  22.854  22.458  1.00  0.00    -0.393 OA
ATOM     29  H   UNL A   1      33.265  22.165  22.786  1.00  0.00     0.210 HD
ENDBRANCH  12  28
ENDBRANCH   4   7
ENDBRANCH   2   3
ENDBRANCH   1   2
BRANCH   1  30
ATOM     30  C   UNL A   1      38.095  20.687  25.289  1.00  0.00     0.023 C 
BRANCH  30  31
ATOM     31  C   UNL A   1      38.640  21.941  25.973  1.00  0.00     0.116 C 
BRANCH  31  32
ATOM     32  N   UNL A   1      40.083  22.028  25.988  1.00  0.00    -0.352 N 
ATOM     33  C   UNL A   1      40.998  22.798  26.650  1.00  0.00     0.251 C 
ATOM     34  H   UNL A   1      40.506  21.380  25.379  1.00  0.00     0.163 HD
ATOM     35  O   UNL A   1      42.172  22.432  26.539  1.00  0.00    -0.269 OA
BRANCH  33  36
ATOM     36  C   UNL A   1      40.705  24.054  27.392  1.00  0.00     0.039 A 
ATOM     37  C   UNL A   1      39.552  24.829  27.267  1.00  0.00     0.014 A 
ATOM     38  C   UNL A   1      41.752  24.534  28.205  1.00  0.00     0.014 A 
ATOM     39  C   UNL A   1      39.521  26.115  27.800  1.00  0.00     0.010 A 
ATOM     40  C   UNL A   1      41.712  25.803  28.763  1.00  0.00     0.010 A 
ATOM     41  C   UNL A   1      40.630  26.625  28.486  1.00  0.00    -0.014 A 
BRANCH  41  42
ATOM     42  C   UNL A   1      40.572  27.996  28.995  1.00  0.00     0.031 A 
ATOM     43  C   UNL A   1      41.598  28.882  28.379  1.00  0.00     0.074 A 
ATOM     44  C   UNL A   1      39.638  28.437  29.868  1.00  0.00     0.049 A 
ATOM     45  N   UNL A   1      42.677  29.335  28.927  1.00  0.00    -0.248 NA
ATOM     46  C   UNL A   1      41.529  29.116  26.928  1.00  0.00     0.031 C 
ATOM     47  C   UNL A   1      38.420  27.747  30.314  1.00  0.00     0.029 A 
ATOM     48  N   UNL A   1      39.534  29.646  30.497  1.00  0.00    -0.354 N 
ATOM     49  C   UNL A   1      43.296  30.123  27.955  1.00  0.00     0.074 A 
ATOM     50  C   UNL A   1      42.660  29.792  26.708  1.00  0.00     0.031 C 
ATOM     51  C   UNL A   1      37.592  28.629  30.924  1.00  0.00     0.029 A 
ATOM     52  C   UNL A   1      38.289  29.893  31.076  1.00  0.00     0.049 A 
ATOM     53  H   UNL A   1      40.277  30.289  30.539  1.00  0.00     0.167 HD
ATOM     54  C   UNL A   1      44.094  31.172  28.307  1.00  0.00     0.034 A 
ATOM     55  C   UNL A   1      37.863  31.057  31.633  1.00  0.00     0.034 A 
ATOM     56  C   UNL A   1      44.393  31.121  29.712  1.00  0.00     0.049 A 
ATOM     57  C   UNL A   1      39.062  31.856  31.958  1.00  0.00     0.074 A 
ATOM     58  C   UNL A   1      45.246  30.418  30.529  1.00  0.00     0.029 A 
ATOM     59  N   UNL A   1      43.398  31.643  30.494  1.00  0.00    -0.354 N 
ATOM     60  N   UNL A   1      39.917  31.525  32.883  1.00  0.00    -0.248 NA
ATOM     61  C   UNL A   1      39.531  32.838  30.988  1.00  0.00     0.031 C 
ATOM     62  C   UNL A   1      44.606  30.366  31.802  1.00  0.00     0.029 A 
ATOM     63  C   UNL A   1      43.418  31.099  31.748  1.00  0.00     0.049 A 
ATOM     64  H   UNL A   1      42.750  32.322  30.194  1.00  0.00     0.167 HD
ATOM     65  C   UNL A   1      41.139  31.893  32.358  1.00  0.00     0.074 A 
ATOM     66  C   UNL A   1      40.831  32.840  31.290  1.00  0.00     0.031 C 
ATOM     67  C   UNL A   1      42.261  31.162  32.620  1.00  0.00     0.034 A 
BRANCH  54  68
ATOM     68  C   UNL A   1      44.196  32.472  27.534  1.00  0.00     0.023 A 
ATOM     69  C   UNL A   1      43.551  33.656  27.932  1.00  0.00     0.031 A 
ATOM     70  C   UNL A   1      45.158  32.617  26.509  1.00  0.00     0.131 A 
ATOM     71  C   UNL A   1      43.843  34.893  27.340  1.00  0.00     0.055 A 
ATOM     72  C   UNL A   1      45.498  33.862  25.961  1.00  0.00     0.041 A 
ATOM     73  F   UNL A   1      45.841  31.557  26.046  1.00  0.00    -0.206 F 
ATOM     74  C   UNL A   1      44.840  35.011  26.378  1.00  0.00     0.022 A 
BRANCH  71  75
ATOM     75  S   UNL A   1      42.929  36.382  27.828  1.00  0.00     0.124 S 
ATOM     76  O   UNL A   1      41.776  35.818  28.521  1.00  0.00    -0.237 OA
ATOM     77  O   UNL A   1      43.907  37.061  28.675  1.00  0.00    -0.237 OA
ATOM     78  O   UNL A   1      42.649  37.043  26.556  1.00  0.00    -0.744 OA
ENDBRANCH  71  75
ENDBRANCH  54  68
BRANCH  55  79
ATOM     79  C   UNL A   1      36.541  31.716  31.475  1.00  0.00     0.023 A 
ATOM     80  C   UNL A   1      36.002  31.852  30.183  1.00  0.00     0.031 A 
ATOM     81  C   UNL A   1      35.990  32.521  32.491  1.00  0.00     0.131 A 
ATOM     82  C   UNL A   1      35.001  32.801  29.925  1.00  0.00     0.055 A 
ATOM     83  C   UNL A   1      34.969  33.449  32.236  1.00  0.00     0.041 A 
ATOM     84  F   UNL A   1      36.486  32.478  33.738  1.00  0.00    -0.206 F 
ATOM     85  C   UNL A   1      34.483  33.606  30.943  1.00  0.00     0.022 A 
BRANCH  82  86
ATOM     86  S   UNL A   1      34.433  33.102  28.228  1.00  0.00     0.124 S 
ATOM     87  O   UNL A   1      33.467  34.182  28.418  1.00  0.00    -0.237 OA
ATOM     88  O   UNL A   1      35.675  33.481  27.563  1.00  0.00    -0.237 OA
ATOM     89  O   UNL A   1      33.859  31.822  27.829  1.00  0.00    -0.744 OA
ENDBRANCH  82  86
ENDBRANCH  55  79
BRANCH  67  90
ATOM     90  C   UNL A   1      42.264  30.249  33.815  1.00  0.00     0.023 A 
ATOM     91  C   UNL A   1      42.689  30.826  35.022  1.00  0.00     0.031 A 
ATOM     92  C   UNL A   1      42.068  28.858  33.786  1.00  0.00     0.131 A 
ATOM     93  C   UNL A   1      42.981  30.024  36.126  1.00  0.00     0.055 A 
ATOM     94  C   UNL A   1      42.282  28.065  34.920  1.00  0.00     0.041 A 
ATOM     95  F   UNL A   1      41.743  28.219  32.653  1.00  0.00    -0.206 F 
ATOM     96  C   UNL A   1      42.764  28.645  36.091  1.00  0.00     0.022 A 
BRANCH  93  97
ATOM     97  S   UNL A   1      43.817  30.745  37.560  1.00  0.00     0.124 S 
ATOM     98  O   UNL A   1      42.695  31.189  38.380  1.00  0.00    -0.237 OA
ATOM     99  O   UNL A   1      44.568  29.605  38.083  1.00  0.00    -0.237 OA
ATOM    100  O   UNL A   1      44.638  31.812  36.992  1.00  0.00    -0.744 OA
ENDBRANCH  93  97
ENDBRANCH  67  90
ENDBRANCH  41  42
ENDBRANCH  33  36
ENDBRANCH  31  32
ENDBRANCH  30  31
ENDBRANCH   1  30
TORSDOF 19
ENDMDL
MODEL 2
REMARK VINA RESULT:     -12.5      3.149      8.934
REMARK SMILES Cc1c(C#N)c2ccccc2n1CC(=O)N1CC[C@H](O)C[C@@H]1C(=O)NCCCCNC(=O)c1ccc(-c2c3nc(c(-c4cc(S(=O)(=O)[O-])ccc4F)c4ccc([nH]4)c(-c4cc(S(=O)(=O)[O-])ccc4F)c4nc(c(-c5cc(S(=O)(=O)[O-])ccc5F)c5ccc2[nH]5)C=C4)C=C3)cc1
REMARK SMILES IDX 27 1 26 2 25 3 23 4 24 5 22 7 16 8 17 9 18 10 21 11 19 12
REMARK SMILES IDX 14 13 15 14 13 15 12 16 1 17 2 18 3 19 6 20 11 21 7 22 10 23
REMARK SMILES IDX 8 24 9 25 4 26 5 27 20 28 28 30 29 31 30 32 31 33 32 35
REMARK SMILES IDX 33 36 34 37 95 38 35 39 94 40 36 41 37 42 38 43 88 44 39 45
REMARK SMILES IDX 93 46 87 47 89 48 40 49 92 50 86 51 85 52 41 54 73 55 53 56
REMARK SMILES IDX 72 57 54 58 57 59 71 60 90 61 55 62 56 63 70 65 91 66 58 67
REMARK SMILES IDX 42 68 43 69 51 70 44 71 50 72 52 73 49 74 45 75 46 76 47 77
REMARK SMILES IDX 48 78 74 79 75 80 83 81 76 82 82 83 84 84 81 85 77 86 78 87
REMARK SMILES IDX 79 88 80 89 59 90 60 91 68 92 61 93 67 94 69 95 66 96 62 97
REMARK SMILES IDX 63 98 64 99 65 100
REMARK H PARENT 25 6 20 29 30 34 89 53 57 64
REMARK Flexibility Score: inf
ROOT
ATOM      1  C   UNL A   1      33.885  29.734  27.626  1.00  0.00     0.023 C 
ENDROOT
BRANCH   1   2
ATOM      2  C   UNL A   1      34.214  28.866  26.418  1.00  0.00     0.116 C 
BRANCH   2   3
ATOM      3  N   UNL A   1      33.182  28.883  25.405  1.00  0.00    -0.354 N 
ATOM      4  C   UNL A   1      32.768  27.894  24.570  1.00  0.00     0.242 C 
ATOM      5  O   UNL A   1      31.862  28.197  23.783  1.00  0.00    -0.273 OA
ATOM      6  H   UNL A   1      32.709  29.741  25.305  1.00  0.00     0.163 HD
BRANCH   4   7
ATOM      7  C   UNL A   1      33.423  26.475  24.558  1.00  0.00     0.177 C 
ATOM      8  N   UNL A   1      32.703  25.641  23.556  1.00  0.00    -0.329 N 
ATOM      9  C   UNL A   1      31.331  25.288  23.937  1.00  0.00     0.123 C 
ATOM     10  C   UNL A   1      31.305  24.543  25.269  1.00  0.00     0.053 C 
ATOM     11  C   UNL A   1      33.465  25.685  25.869  1.00  0.00     0.067 C 
ATOM     12  C   UNL A   1      32.080  25.276  26.355  1.00  0.00     0.118 C 
BRANCH   8  13
ATOM     13  C   UNL A   1      33.384  25.257  22.412  1.00  0.00     0.243 C 
ATOM     14  O   UNL A   1      33.745  26.114  21.591  1.00  0.00    -0.273 OA
BRANCH  13  15
ATOM     15  C   UNL A   1      33.576  23.797  22.025  1.00  0.00     0.222 C 
BRANCH  15  16
ATOM     16  N   UNL A   1      33.708  22.813  23.092  1.00  0.00    -0.334 N 
ATOM     17  C   UNL A   1      31.494  21.655  22.694  1.00  0.00     0.066 C 
ATOM     18  C   UNL A   1      32.809  21.803  23.382  1.00  0.00     0.034 A 
ATOM     19  C   UNL A   1      33.401  21.006  24.350  1.00  0.00     0.080 A 
ATOM     20  C   UNL A   1      34.660  21.572  24.698  1.00  0.00     0.018 A 
ATOM     21  C   UNL A   1      34.813  22.731  23.932  1.00  0.00     0.050 A 
ATOM     22  C   UNL A   1      35.703  21.194  25.571  1.00  0.00     0.012 A 
ATOM     23  C   UNL A   1      35.969  23.528  24.019  1.00  0.00     0.027 A 
ATOM     24  C   UNL A   1      36.860  21.975  25.652  1.00  0.00     0.001 A 
ATOM     25  C   UNL A   1      36.987  23.128  24.888  1.00  0.00     0.002 A 
BRANCH  19  26
ATOM     26  C   UNL A   1      32.852  19.792  24.881  1.00  0.00     0.102 C 
ATOM     27  N   UNL A   1      32.411  18.818  25.325  1.00  0.00    -0.192 NA
ENDBRANCH  19  26
ENDBRANCH  15  16
ENDBRANCH  13  15
ENDBRANCH   8  13
BRANCH  12  28
ATOM     28  O   UNL A   1      31.363  26.403  26.846  1.00  0.00    -0.393 OA
ATOM     29  H   UNL A   1      31.976  27.006  27.295  1.00  0.00     0.210 HD
ENDBRANCH  12  28
ENDBRANCH   4   7
ENDBRANCH   2   3
ENDBRANCH   1   2
BRANCH   1  30
ATOM     30  C   UNL A   1      33.385  31.153  27.334  1.00  0.00     0.023 C 
BRANCH  30  31
ATOM     31  C   UNL A   1      34.207  32.286  27.950  1.00  0.00     0.116 C 
BRANCH  31  32
ATOM     32  N   UNL A   1      34.362  32.192  29.384  1.00  0.00    -0.352 N 
ATOM     33  C   UNL A   1      35.358  31.778  30.224  1.00  0.00     0.251 C 
ATOM     34  H   UNL A   1      33.564  32.501  29.871  1.00  0.00     0.163 HD
ATOM     35  O   UNL A   1      35.183  32.040  31.418  1.00  0.00    -0.269 OA
BRANCH  33  36
ATOM     36  C   UNL A   1      36.551  30.979  29.832  1.00  0.00     0.039 A 
ATOM     37  C   UNL A   1      36.613  29.589  29.742  1.00  0.00     0.014 A 
ATOM     38  C   UNL A   1      37.738  31.718  29.647  1.00  0.00     0.014 A 
ATOM     39  C   UNL A   1      37.849  28.955  29.640  1.00  0.00     0.010 A 
ATOM     40  C   UNL A   1      38.969  31.090  29.514  1.00  0.00     0.010 A 
ATOM     41  C   UNL A   1      39.030  29.708  29.598  1.00  0.00    -0.014 A 
BRANCH  41  42
ATOM     42  C   UNL A   1      40.310  29.002  29.533  1.00  0.00     0.031 A 
ATOM     43  C   UNL A   1      40.950  28.847  30.868  1.00  0.00     0.074 A 
ATOM     44  C   UNL A   1      40.822  28.474  28.398  1.00  0.00     0.049 A 
ATOM     45  N   UNL A   1      41.977  29.483  31.326  1.00  0.00    -0.248 NA
ATOM     46  C   UNL A   1      40.243  28.055  31.887  1.00  0.00     0.031 C 
ATOM     47  C   UNL A   1      40.159  28.309  27.098  1.00  0.00     0.029 A 
ATOM     48  N   UNL A   1      42.040  27.892  28.179  1.00  0.00    -0.354 N 
ATOM     49  C   UNL A   1      42.196  28.980  32.610  1.00  0.00     0.074 A 
ATOM     50  C   UNL A   1      40.999  28.266  32.967  1.00  0.00     0.031 C 
ATOM     51  C   UNL A   1      40.875  27.458  26.323  1.00  0.00     0.029 A 
ATOM     52  C   UNL A   1      42.129  27.164  26.992  1.00  0.00     0.049 A 
ATOM     53  H   UNL A   1      42.791  27.979  28.807  1.00  0.00     0.167 HD
ATOM     54  C   UNL A   1      43.445  28.971  33.157  1.00  0.00     0.034 A 
ATOM     55  C   UNL A   1      43.160  26.372  26.595  1.00  0.00     0.034 A 
ATOM     56  C   UNL A   1      44.339  29.777  32.370  1.00  0.00     0.049 A 
ATOM     57  C   UNL A   1      44.350  26.773  27.372  1.00  0.00     0.074 A 
ATOM     58  C   UNL A   1      44.602  31.116  32.211  1.00  0.00     0.029 A 
ATOM     59  N   UNL A   1      44.836  29.119  31.276  1.00  0.00    -0.354 N 
ATOM     60  N   UNL A   1      44.949  27.920  27.228  1.00  0.00    -0.248 NA
ATOM     61  C   UNL A   1      44.659  26.049  28.599  1.00  0.00     0.031 C 
ATOM     62  C   UNL A   1      45.092  31.259  30.880  1.00  0.00     0.029 A 
ATOM     63  C   UNL A   1      45.183  29.997  30.288  1.00  0.00     0.049 A 
ATOM     64  H   UNL A   1      44.930  28.141  31.209  1.00  0.00     0.167 HD
ATOM     65  C   UNL A   1      45.332  28.262  28.509  1.00  0.00     0.074 A 
ATOM     66  C   UNL A   1      45.289  27.016  29.271  1.00  0.00     0.031 C 
ATOM     67  C   UNL A   1      45.342  29.565  28.912  1.00  0.00     0.034 A 
BRANCH  54  68
ATOM     68  C   UNL A   1      43.975  27.887  34.075  1.00  0.00     0.023 A 
ATOM     69  C   UNL A   1      44.224  28.092  35.443  1.00  0.00     0.031 A 
ATOM     70  C   UNL A   1      43.999  26.540  33.645  1.00  0.00     0.131 A 
ATOM     71  C   UNL A   1      44.489  27.025  36.314  1.00  0.00     0.055 A 
ATOM     72  C   UNL A   1      44.200  25.469  34.527  1.00  0.00     0.041 A 
ATOM     73  F   UNL A   1      43.773  26.220  32.361  1.00  0.00    -0.206 F 
ATOM     74  C   UNL A   1      44.444  25.708  35.872  1.00  0.00     0.022 A 
BRANCH  71  75
ATOM     75  S   UNL A   1      44.885  27.342  38.056  1.00  0.00     0.124 S 
ATOM     76  O   UNL A   1      46.305  27.012  38.110  1.00  0.00    -0.237 OA
ATOM     77  O   UNL A   1      44.559  28.761  38.177  1.00  0.00    -0.237 OA
ATOM     78  O   UNL A   1      43.992  26.439  38.778  1.00  0.00    -0.744 OA
ENDBRANCH  71  75
ENDBRANCH  54  68
BRANCH  55  79
ATOM     79  C   UNL A   1      43.090  25.028  25.966  1.00  0.00     0.023 A 
ATOM     80  C   UNL A   1      42.167  24.093  26.469  1.00  0.00     0.031 A 
ATOM     81  C   UNL A   1      44.132  24.534  25.158  1.00  0.00     0.131 A 
ATOM     82  C   UNL A   1      42.333  22.722  26.216  1.00  0.00     0.055 A 
ATOM     83  C   UNL A   1      44.279  23.166  24.883  1.00  0.00     0.041 A 
ATOM     84  F   UNL A   1      45.075  25.363  24.682  1.00  0.00    -0.206 F 
ATOM     85  C   UNL A   1      43.387  22.251  25.429  1.00  0.00     0.022 A 
BRANCH  82  86
ATOM     86  S   UNL A   1      41.251  21.502  27.011  1.00  0.00     0.124 S 
ATOM     87  O   UNL A   1      41.014  20.552  25.926  1.00  0.00    -0.237 OA
ATOM     88  O   UNL A   1      42.096  21.018  28.096  1.00  0.00    -0.237 OA
ATOM     89  O   UNL A   1      40.087  22.287  27.410  1.00  0.00    -0.744 OA
ENDBRANCH  82  86
ENDBRANCH  55  79
BRANCH  67  90
ATOM     90  C   UNL A   1      45.380  30.644  27.865  1.00  0.00     0.023 A 
ATOM     91  C   UNL A   1      46.649  31.168  27.575  1.00  0.00     0.031 A 
ATOM     92  C   UNL A   1      44.261  31.286  27.308  1.00  0.00     0.131 A 
ATOM     93  C   UNL A   1      46.778  32.336  26.824  1.00  0.00     0.055 A 
ATOM     94  C   UNL A   1      44.398  32.412  26.485  1.00  0.00     0.041 A 
ATOM     95  F   UNL A   1      43.011  30.900  27.602  1.00  0.00    -0.206 F 
ATOM     96  C   UNL A   1      45.661  32.956  26.259  1.00  0.00     0.022 A 
BRANCH  93  97
ATOM     97  S   UNL A   1      48.384  33.164  26.723  1.00  0.00     0.124 S 
ATOM     98  O   UNL A   1      49.284  32.055  26.420  1.00  0.00    -0.237 OA
ATOM     99  O   UNL A   1      48.172  34.118  25.637  1.00  0.00    -0.237 OA
ATOM    100  O   UNL A   1      48.556  33.765  28.043  1.00  0.00    -0.744 OA
ENDBRANCH  93  97
ENDBRANCH  67  90
ENDBRANCH  41  42
ENDBRANCH  33  36
ENDBRANCH  31  32
ENDBRANCH  30  31
ENDBRANCH   1  30
TORSDOF 19
ENDMDL
MODEL 3
REMARK VINA RESULT:     -12.1      3.385      9.030
REMARK SMILES Cc1c(C#N)c2ccccc2n1CC(=O)N1CC[C@H](O)C[C@@H]1C(=O)NCCCCNC(=O)c1ccc(-c2c3nc(c(-c4cc(S(=O)(=O)[O-])ccc4F)c4ccc([nH]4)c(-c4cc(S(=O)(=O)[O-])ccc4F)c4nc(c(-c5cc(S(=O)(=O)[O-])ccc5F)c5ccc2[nH]5)C=C4)C=C3)cc1
REMARK SMILES IDX 27 1 26 2 25 3 23 4 24 5 22 7 16 8 17 9 18 10 21 11 19 12
REMARK SMILES IDX 14 13 15 14 13 15 12 16 1 17 2 18 3 19 6 20 11 21 7 22 10 23
REMARK SMILES IDX 8 24 9 25 4 26 5 27 20 28 28 30 29 31 30 32 31 33 32 35
REMARK SMILES IDX 33 36 34 37 95 38 35 39 94 40 36 41 37 42 38 43 88 44 39 45
REMARK SMILES IDX 93 46 87 47 89 48 40 49 92 50 86 51 85 52 41 54 73 55 53 56
REMARK SMILES IDX 72 57 54 58 57 59 71 60 90 61 55 62 56 63 70 65 91 66 58 67
REMARK SMILES IDX 42 68 43 69 51 70 44 71 50 72 52 73 49 74 45 75 46 76 47 77
REMARK SMILES IDX 48 78 74 79 75 80 83 81 76 82 82 83 84 84 81 85 77 86 78 87
REMARK SMILES IDX 79 88 80 89 59 90 60 91 68 92 61 93 67 94 69 95 66 96 62 97
REMARK SMILES IDX 63 98 64 99 65 100
REMARK H PARENT 25 6 20 29 30 34 89 53 57 64
REMARK Flexibility Score: inf
ROOT
ATOM      1  C   UNL A   1      34.878  29.975  27.746  1.00  0.00     0.023 C 
ENDROOT
BRANCH   1   2
ATOM      2  C   UNL A   1      34.336  28.815  26.919  1.00  0.00     0.116 C 
BRANCH   2   3
ATOM      3  N   UNL A   1      34.238  29.117  25.509  1.00  0.00    -0.354 N 
ATOM      4  C   UNL A   1      33.644  28.412  24.509  1.00  0.00     0.242 C 
ATOM      5  O   UNL A   1      33.727  28.908  23.378  1.00  0.00    -0.273 OA
ATOM      6  H   UNL A   1      34.667  29.958  25.230  1.00  0.00     0.163 HD
BRANCH   4   7
ATOM      7  C   UNL A   1      32.944  27.036  24.751  1.00  0.00     0.177 C 
ATOM      8  N   UNL A   1      33.046  26.237  23.498  1.00  0.00    -0.329 N 
ATOM      9  C   UNL A   1      32.232  26.748  22.389  1.00  0.00     0.123 C 
ATOM     10  C   UNL A   1      30.758  26.823  22.777  1.00  0.00     0.053 C 
ATOM     11  C   UNL A   1      31.474  27.037  25.180  1.00  0.00     0.067 C 
ATOM     12  C   UNL A   1      30.544  27.560  24.092  1.00  0.00     0.118 C 
BRANCH   8  13
ATOM     13  C   UNL A   1      33.842  25.104  23.505  1.00  0.00     0.243 C 
ATOM     14  O   UNL A   1      34.129  24.544  22.436  1.00  0.00    -0.273 OA
BRANCH  13  15
ATOM     15  C   UNL A   1      34.261  24.407  24.792  1.00  0.00     0.222 C 
BRANCH  15  16
ATOM     16  N   UNL A   1      34.753  23.038  24.705  1.00  0.00    -0.334 N 
ATOM     17  C   UNL A   1      37.215  23.619  24.647  1.00  0.00     0.066 C 
ATOM     18  C   UNL A   1      36.081  22.651  24.691  1.00  0.00     0.034 A 
ATOM     19  C   UNL A   1      36.095  21.267  24.769  1.00  0.00     0.080 A 
ATOM     20  C   UNL A   1      34.751  20.797  24.775  1.00  0.00     0.018 A 
ATOM     21  C   UNL A   1      33.925  21.921  24.686  1.00  0.00     0.050 A 
ATOM     22  C   UNL A   1      34.154  19.523  24.878  1.00  0.00     0.012 A 
ATOM     23  C   UNL A   1      32.523  21.810  24.686  1.00  0.00     0.027 A 
ATOM     24  C   UNL A   1      32.760  19.407  24.892  1.00  0.00     0.001 A 
ATOM     25  C   UNL A   1      31.958  20.537  24.793  1.00  0.00     0.002 A 
BRANCH  19  26
ATOM     26  C   UNL A   1      37.269  20.449  24.871  1.00  0.00     0.102 C 
ATOM     27  N   UNL A   1      38.210  19.778  24.942  1.00  0.00    -0.192 NA
ENDBRANCH  19  26
ENDBRANCH  15  16
ENDBRANCH  13  15
ENDBRANCH   8  13
BRANCH  12  28
ATOM     28  O   UNL A   1      30.688  28.967  23.937  1.00  0.00    -0.393 OA
ATOM     29  H   UNL A   1      31.631  29.192  23.892  1.00  0.00     0.210 HD
ENDBRANCH  12  28
ENDBRANCH   4   7
ENDBRANCH   2   3
ENDBRANCH   1   2
BRANCH   1  30
ATOM     30  C   UNL A   1      34.196  31.333  27.548  1.00  0.00     0.023 C 
BRANCH  30  31
ATOM     31  C   UNL A   1      34.753  32.483  28.388  1.00  0.00     0.116 C 
BRANCH  31  32
ATOM     32  N   UNL A   1      34.406  32.413  29.791  1.00  0.00    -0.352 N 
ATOM     33  C   UNL A   1      35.089  32.143  30.943  1.00  0.00     0.251 C 
ATOM     34  H   UNL A   1      33.455  32.607  29.954  1.00  0.00     0.163 HD
ATOM     35  O   UNL A   1      34.474  32.378  31.987  1.00  0.00    -0.269 OA
BRANCH  33  36
ATOM     36  C   UNL A   1      36.438  31.519  31.030  1.00  0.00     0.039 A 
ATOM     37  C   UNL A   1      37.657  32.194  30.974  1.00  0.00     0.014 A 
ATOM     38  C   UNL A   1      36.451  30.110  31.062  1.00  0.00     0.014 A 
ATOM     39  C   UNL A   1      38.836  31.479  30.784  1.00  0.00     0.010 A 
ATOM     40  C   UNL A   1      37.628  29.393  30.904  1.00  0.00     0.010 A 
ATOM     41  C   UNL A   1      38.810  30.082  30.679  1.00  0.00    -0.014 A 
BRANCH  41  42
ATOM     42  C   UNL A   1      40.066  29.372  30.438  1.00  0.00     0.031 A 
ATOM     43  C   UNL A   1      40.799  29.059  31.696  1.00  0.00     0.074 A 
ATOM     44  C   UNL A   1      40.483  28.969  29.217  1.00  0.00     0.049 A 
ATOM     45  N   UNL A   1      41.870  29.625  32.143  1.00  0.00    -0.248 NA
ATOM     46  C   UNL A   1      40.152  28.166  32.670  1.00  0.00     0.031 C 
ATOM     47  C   UNL A   1      39.723  28.961  27.960  1.00  0.00     0.029 A 
ATOM     48  N   UNL A   1      41.668  28.400  28.842  1.00  0.00    -0.354 N 
ATOM     49  C   UNL A   1      42.172  28.978  33.343  1.00  0.00     0.074 A 
ATOM     50  C   UNL A   1      40.990  28.243  33.707  1.00  0.00     0.031 C 
ATOM     51  C   UNL A   1      40.361  28.194  27.043  1.00  0.00     0.029 A 
ATOM     52  C   UNL A   1      41.655  27.810  27.578  1.00  0.00     0.049 A 
ATOM     53  H   UNL A   1      42.465  28.406  29.418  1.00  0.00     0.167 HD
ATOM     54  C   UNL A   1      43.458  28.891  33.789  1.00  0.00     0.034 A 
ATOM     55  C   UNL A   1      42.636  27.055  27.018  1.00  0.00     0.034 A 
ATOM     56  C   UNL A   1      44.308  29.769  33.033  1.00  0.00     0.049 A 
ATOM     57  C   UNL A   1      43.888  27.350  27.744  1.00  0.00     0.074 A 
ATOM     58  C   UNL A   1      44.587  31.115  33.005  1.00  0.00     0.029 A 
ATOM     59  N   UNL A   1      44.709  29.233  31.838  1.00  0.00    -0.354 N 
ATOM     60  N   UNL A   1      44.499  28.499  27.684  1.00  0.00    -0.248 NA
ATOM     61  C   UNL A   1      44.271  26.489  28.855  1.00  0.00     0.031 C 
ATOM     62  C   UNL A   1      44.981  31.400  31.665  1.00  0.00     0.029 A 
ATOM     63  C   UNL A   1      45.002  30.212  30.930  1.00  0.00     0.049 A 
ATOM     64  H   UNL A   1      44.778  28.268  31.654  1.00  0.00     0.167 HD
ATOM     65  C   UNL A   1      44.983  28.688  28.963  1.00  0.00     0.074 A 
ATOM     66  C   UNL A   1      44.969  27.364  29.581  1.00  0.00     0.031 C 
ATOM     67  C   UNL A   1      45.050  29.937  29.507  1.00  0.00     0.034 A 
BRANCH  54  68
ATOM     68  C   UNL A   1      44.030  27.703  34.538  1.00  0.00     0.023 A 
ATOM     69  C   UNL A   1      44.009  26.392  34.030  1.00  0.00     0.031 A 
ATOM     70  C   UNL A   1      44.846  27.904  35.674  1.00  0.00     0.131 A 
ATOM     71  C   UNL A   1      44.743  25.357  34.626  1.00  0.00     0.055 A 
ATOM     72  C   UNL A   1      45.631  26.885  36.231  1.00  0.00     0.041 A 
ATOM     73  F   UNL A   1      44.949  29.115  36.247  1.00  0.00    -0.206 F 
ATOM     74  C   UNL A   1      45.584  25.601  35.705  1.00  0.00     0.022 A 
BRANCH  71  75
ATOM     75  S   UNL A   1      44.622  23.663  33.987  1.00  0.00     0.124 S 
ATOM     76  O   UNL A   1      43.593  23.087  34.844  1.00  0.00    -0.237 OA
ATOM     77  O   UNL A   1      44.231  23.901  32.599  1.00  0.00    -0.237 OA
ATOM     78  O   UNL A   1      45.972  23.134  34.167  1.00  0.00    -0.744 OA
ENDBRANCH  71  75
ENDBRANCH  54  68
BRANCH  55  79
ATOM     79  C   UNL A   1      42.491  25.792  26.250  1.00  0.00     0.023 A 
ATOM     80  C   UNL A   1      41.659  24.780  26.762  1.00  0.00     0.031 A 
ATOM     81  C   UNL A   1      43.414  25.424  25.252  1.00  0.00     0.131 A 
ATOM     82  C   UNL A   1      41.802  23.453  26.328  1.00  0.00     0.055 A 
ATOM     83  C   UNL A   1      43.535  24.101  24.798  1.00  0.00     0.041 A 
ATOM     84  F   UNL A   1      44.271  26.327  24.751  1.00  0.00    -0.206 F 
ATOM     85  C   UNL A   1      42.738  23.105  25.351  1.00  0.00     0.022 A 
BRANCH  82  86
ATOM     86  S   UNL A   1      40.855  22.120  27.115  1.00  0.00     0.124 S 
ATOM     87  O   UNL A   1      41.188  20.972  26.274  1.00  0.00    -0.237 OA
ATOM     88  O   UNL A   1      41.427  22.102  28.456  1.00  0.00    -0.237 OA
ATOM     89  O   UNL A   1      39.473  22.579  27.015  1.00  0.00    -0.744 OA
ENDBRANCH  82  86
ENDBRANCH  55  79
BRANCH  67  90
ATOM     90  C   UNL A   1      45.033  31.127  28.587  1.00  0.00     0.023 A 
ATOM     91  C   UNL A   1      46.258  31.445  27.981  1.00  0.00     0.031 A 
ATOM     92  C   UNL A   1      43.971  32.035  28.439  1.00  0.00     0.131 A 
ATOM     93  C   UNL A   1      46.427  32.664  27.323  1.00  0.00     0.055 A 
ATOM     94  C   UNL A   1      44.119  33.220  27.707  1.00  0.00     0.041 A 
ATOM     95  F   UNL A   1      42.795  31.846  29.054  1.00  0.00    -0.206 F 
ATOM     96  C   UNL A   1      45.359  33.550  27.165  1.00  0.00     0.022 A 
BRANCH  93  97
ATOM     97  S   UNL A   1      48.085  33.190  26.823  1.00  0.00     0.124 S 
ATOM     98  O   UNL A   1      48.733  31.918  26.519  1.00  0.00    -0.237 OA
ATOM     99  O   UNL A   1      47.803  34.044  25.671  1.00  0.00    -0.237 OA
ATOM    100  O   UNL A   1      48.603  33.892  27.995  1.00  0.00    -0.744 OA
ENDBRANCH  93  97
ENDBRANCH  67  90
ENDBRANCH  41  42
ENDBRANCH  33  36
ENDBRANCH  31  32
ENDBRANCH  30  31
ENDBRANCH   1  30
TORSDOF 19
ENDMDL
