MODEL 1
REMARK VINA RESULT:     -11.5      0.000      0.000
REMARK SMILES CN(C(=O)CC(=O)NCCCCNC(=O)c1ccc(-c2c3nc(c(-c4cc(S(=O)(=O)[O-])ccc4F)c4ccc([nH]4)c(-c4cc(S(=O)(=O)[O-])ccc4F)c4nc(c(-c5cc(S(=O)(=O)[O-])ccc5F)c5ccc2[nH]5)C=C4)C=C3)cc1)C1CCC(C)(C)CC1
REMARK SMILES IDX 10 1 9 2 8 3 6 4 7 5 5 7 3 8 4 9 2 10 1 11 79 12 80 13 86 14
REMARK SMILES IDX 81 15 85 16 82 17 83 18 84 19 11 20 12 21 13 22 14 23 15 25
REMARK SMILES IDX 16 26 17 27 78 28 18 29 77 30 19 31 20 32 21 33 71 34 22 35
REMARK SMILES IDX 76 36 70 37 72 38 23 39 75 40 69 41 68 42 24 44 56 45 36 46
REMARK SMILES IDX 55 47 37 48 40 49 54 50 73 51 38 52 39 53 53 55 74 56 41 57
REMARK SMILES IDX 25 58 26 59 34 60 27 61 33 62 35 63 32 64 28 65 29 66 30 67
REMARK SMILES IDX 31 68 57 69 58 70 66 71 59 72 65 73 67 74 64 75 60 76 61 77
REMARK SMILES IDX 62 78 63 79 42 80 43 81 51 82 44 83 50 84 52 85 49 86 45 87
REMARK SMILES IDX 46 88 47 89 48 90
REMARK H PARENT 8 6 13 24 72 43 40 54
REMARK Flexibility Score: inf
ROOT
ATOM      1  C   UNL A   1      30.797  29.295  23.985  1.00  0.00     0.023 C 
ENDROOT
BRANCH   1   2
ATOM      2  C   UNL A   1      31.021  28.432  22.748  1.00  0.00     0.116 C 
BRANCH   2   3
ATOM      3  N   UNL A   1      32.343  28.674  22.200  1.00  0.00    -0.356 N 
ATOM      4  C   UNL A   1      33.474  27.933  22.364  1.00  0.00     0.229 C 
ATOM      5  O   UNL A   1      34.543  28.401  21.966  1.00  0.00    -0.275 OA
ATOM      6  H   UNL A   1      32.433  29.477  21.638  1.00  0.00     0.163 HD
BRANCH   4   7
ATOM      7  C   UNL A   1      33.400  26.545  22.939  1.00  0.00     0.200 C 
BRANCH   7   8
ATOM      8  C   UNL A   1      32.947  25.436  22.013  1.00  0.00     0.231 C 
ATOM      9  O   UNL A   1      33.287  25.529  20.830  1.00  0.00    -0.274 OA
BRANCH   8  10
ATOM     10  N   UNL A   1      32.231  24.350  22.522  1.00  0.00    -0.342 N 
ATOM     11  C   UNL A   1      30.921  24.543  23.148  1.00  0.00     0.147 C 
BRANCH  10  12
ATOM     12  C   UNL A   1      32.805  22.970  22.655  1.00  0.00     0.084 C 
ATOM     13  C   UNL A   1      34.350  22.961  22.775  1.00  0.00     0.025 C 
ATOM     14  C   UNL A   1      32.258  22.029  23.749  1.00  0.00     0.025 C 
ATOM     15  C   UNL A   1      34.835  23.375  24.165  1.00  0.00     0.008 C 
ATOM     16  C   UNL A   1      32.718  22.403  25.160  1.00  0.00     0.008 C 
ATOM     17  C   UNL A   1      34.254  22.503  25.303  1.00  0.00    -0.035 C 
ATOM     18  C   UNL A   1      34.612  23.138  26.661  1.00  0.00     0.011 C 
ATOM     19  C   UNL A   1      34.878  21.094  25.288  1.00  0.00     0.011 C 
ENDBRANCH  10  12
ENDBRANCH   8  10
ENDBRANCH   7   8
ENDBRANCH   4   7
ENDBRANCH   2   3
ENDBRANCH   1   2
BRANCH   1  20
ATOM     20  C   UNL A   1      31.416  28.735  25.264  1.00  0.00     0.023 C 
BRANCH  20  21
ATOM     21  C   UNL A   1      32.625  29.500  25.778  1.00  0.00     0.116 C 
BRANCH  21  22
ATOM     22  N   UNL A   1      32.310  30.856  26.206  1.00  0.00    -0.352 N 
ATOM     23  C   UNL A   1      32.985  31.709  27.053  1.00  0.00     0.251 C 
ATOM     24  H   UNL A   1      31.479  31.224  25.827  1.00  0.00     0.163 HD
ATOM     25  O   UNL A   1      32.471  32.773  27.366  1.00  0.00    -0.269 OA
BRANCH  23  26
ATOM     26  C   UNL A   1      34.301  31.321  27.618  1.00  0.00     0.039 A 
ATOM     27  C   UNL A   1      35.278  32.304  27.795  1.00  0.00     0.014 A 
ATOM     28  C   UNL A   1      34.572  30.004  27.989  1.00  0.00     0.014 A 
ATOM     29  C   UNL A   1      36.481  31.984  28.432  1.00  0.00     0.010 A 
ATOM     30  C   UNL A   1      35.717  29.712  28.723  1.00  0.00     0.010 A 
ATOM     31  C   UNL A   1      36.688  30.697  28.955  1.00  0.00    -0.014 A 
BRANCH  31  32
ATOM     32  C   UNL A   1      37.905  30.348  29.738  1.00  0.00     0.031 A 
ATOM     33  C   UNL A   1      38.906  29.374  29.171  1.00  0.00     0.074 A 
ATOM     34  C   UNL A   1      38.064  30.827  30.988  1.00  0.00     0.049 A 
ATOM     35  N   UNL A   1      39.942  28.818  29.745  1.00  0.00    -0.248 NA
ATOM     36  C   UNL A   1      38.681  28.932  27.785  1.00  0.00     0.031 C 
ATOM     37  C   UNL A   1      37.141  31.739  31.672  1.00  0.00     0.029 A 
ATOM     38  N   UNL A   1      39.049  30.602  31.918  1.00  0.00    -0.354 N 
ATOM     39  C   UNL A   1      40.471  27.940  28.804  1.00  0.00     0.074 A 
ATOM     40  C   UNL A   1      39.602  27.992  27.648  1.00  0.00     0.031 C 
ATOM     41  C   UNL A   1      37.619  32.016  32.894  1.00  0.00     0.029 A 
ATOM     42  C   UNL A   1      38.849  31.262  33.109  1.00  0.00     0.049 A 
ATOM     43  H   UNL A   1      39.827  30.023  31.747  1.00  0.00     0.167 HD
ATOM     44  C   UNL A   1      41.592  27.181  28.886  1.00  0.00     0.034 A 
ATOM     45  C   UNL A   1      39.566  31.249  34.250  1.00  0.00     0.034 A 
ATOM     46  C   UNL A   1      42.469  27.171  30.031  1.00  0.00     0.049 A 
ATOM     47  C   UNL A   1      40.811  30.400  34.317  1.00  0.00     0.074 A 
ATOM     48  C   UNL A   1      43.665  26.495  30.195  1.00  0.00     0.029 A 
ATOM     49  N   UNL A   1      42.247  27.874  31.208  1.00  0.00    -0.354 N 
ATOM     50  N   UNL A   1      41.320  29.607  33.403  1.00  0.00    -0.248 NA
ATOM     51  C   UNL A   1      41.582  30.452  35.567  1.00  0.00     0.031 C 
ATOM     52  C   UNL A   1      44.136  26.742  31.489  1.00  0.00     0.029 A 
ATOM     53  C   UNL A   1      43.270  27.629  32.110  1.00  0.00     0.049 A 
ATOM     54  H   UNL A   1      41.475  28.461  31.378  1.00  0.00     0.167 HD
ATOM     55  C   UNL A   1      42.487  29.090  33.958  1.00  0.00     0.074 A 
ATOM     56  C   UNL A   1      42.613  29.671  35.278  1.00  0.00     0.031 C 
ATOM     57  C   UNL A   1      43.376  28.213  33.425  1.00  0.00     0.034 A 
BRANCH  44  58
ATOM     58  C   UNL A   1      41.918  26.291  27.709  1.00  0.00     0.023 A 
ATOM     59  C   UNL A   1      41.415  24.982  27.612  1.00  0.00     0.031 A 
ATOM     60  C   UNL A   1      42.766  26.746  26.685  1.00  0.00     0.131 A 
ATOM     61  C   UNL A   1      41.829  24.147  26.564  1.00  0.00     0.055 A 
ATOM     62  C   UNL A   1      43.107  25.938  25.597  1.00  0.00     0.041 A 
ATOM     63  F   UNL A   1      43.294  27.980  26.731  1.00  0.00    -0.206 F 
ATOM     64  C   UNL A   1      42.651  24.624  25.541  1.00  0.00     0.022 A 
BRANCH  61  65
ATOM     65  S   UNL A   1      41.397  22.387  26.637  1.00  0.00     0.124 S 
ATOM     66  O   UNL A   1      41.756  22.054  28.014  1.00  0.00    -0.237 OA
ATOM     67  O   UNL A   1      39.970  22.400  26.334  1.00  0.00    -0.237 OA
ATOM     68  O   UNL A   1      42.247  21.782  25.614  1.00  0.00    -0.744 OA
ENDBRANCH  61  65
ENDBRANCH  44  58
BRANCH  45  69
ATOM     69  C   UNL A   1      39.130  32.050  35.431  1.00  0.00     0.023 A 
ATOM     70  C   UNL A   1      38.488  31.438  36.519  1.00  0.00     0.031 A 
ATOM     71  C   UNL A   1      39.308  33.444  35.471  1.00  0.00     0.131 A 
ATOM     72  C   UNL A   1      38.003  32.222  37.577  1.00  0.00     0.055 A 
ATOM     73  C   UNL A   1      38.870  34.213  36.550  1.00  0.00     0.041 A 
ATOM     74  F   UNL A   1      39.922  34.079  34.459  1.00  0.00    -0.206 F 
ATOM     75  C   UNL A   1      38.200  33.604  37.606  1.00  0.00     0.022 A 
BRANCH  72  76
ATOM     76  S   UNL A   1      37.027  31.417  38.877  1.00  0.00     0.124 S 
ATOM     77  O   UNL A   1      37.886  31.588  40.044  1.00  0.00    -0.237 OA
ATOM     78  O   UNL A   1      35.798  32.205  38.864  1.00  0.00    -0.237 OA
ATOM     79  O   UNL A   1      36.890  30.043  38.398  1.00  0.00    -0.744 OA
ENDBRANCH  72  76
ENDBRANCH  45  69
BRANCH  57  80
ATOM     80  C   UNL A   1      44.586  27.875  34.260  1.00  0.00     0.023 A 
ATOM     81  C   UNL A   1      44.583  26.799  35.163  1.00  0.00     0.031 A 
ATOM     82  C   UNL A   1      45.755  28.649  34.153  1.00  0.00     0.131 A 
ATOM     83  C   UNL A   1      45.709  26.558  35.964  1.00  0.00     0.055 A 
ATOM     84  C   UNL A   1      46.892  28.370  34.910  1.00  0.00     0.041 A 
ATOM     85  F   UNL A   1      45.810  29.690  33.306  1.00  0.00    -0.206 F 
ATOM     86  C   UNL A   1      46.869  27.326  35.832  1.00  0.00     0.022 A 
BRANCH  83  87
ATOM     87  S   UNL A   1      45.610  25.275  37.242  1.00  0.00     0.124 S 
ATOM     88  O   UNL A   1      44.297  25.529  37.827  1.00  0.00    -0.237 OA
ATOM     89  O   UNL A   1      45.735  24.048  36.464  1.00  0.00    -0.237 OA
ATOM     90  O   UNL A   1      46.744  25.572  38.116  1.00  0.00    -0.744 OA
ENDBRANCH  83  87
ENDBRANCH  57  80
ENDBRANCH  31  32
ENDBRANCH  23  26
ENDBRANCH  21  22
ENDBRANCH  20  21
ENDBRANCH   1  20
TORSDOF 17
ENDMDL
MODEL 2
REMARK VINA RESULT:     -11.3      5.252     10.292
REMARK SMILES CN(C(=O)CC(=O)NCCCCNC(=O)c1ccc(-c2c3nc(c(-c4cc(S(=O)(=O)[O-])ccc4F)c4ccc([nH]4)c(-c4cc(S(=O)(=O)[O-])ccc4F)c4nc(c(-c5cc(S(=O)(=O)[O-])ccc5F)c5ccc2[nH]5)C=C4)C=C3)cc1)C1CCC(C)(C)CC1
REMARK SMILES IDX 10 1 9 2 8 3 6 4 7 5 5 7 3 8 4 9 2 10 1 11 79 12 80 13 86 14
REMARK SMILES IDX 81 15 85 16 82 17 83 18 84 19 11 20 12 21 13 22 14 23 15 25
REMARK SMILES IDX 16 26 17 27 78 28 18 29 77 30 19 31 20 32 21 33 71 34 22 35
REMARK SMILES IDX 76 36 70 37 72 38 23 39 75 40 69 41 68 42 24 44 56 45 36 46
REMARK SMILES IDX 55 47 37 48 40 49 54 50 73 51 38 52 39 53 53 55 74 56 41 57
REMARK SMILES IDX 25 58 26 59 34 60 27 61 33 62 35 63 32 64 28 65 29 66 30 67
REMARK SMILES IDX 31 68 57 69 58 70 66 71 59 72 65 73 67 74 64 75 60 76 61 77
REMARK SMILES IDX 62 78 63 79 42 80 43 81 51 82 44 83 50 84 52 85 49 86 45 87
REMARK SMILES IDX 46 88 47 89 48 90
REMARK H PARENT 8 6 13 24 72 43 40 54
REMARK Flexibility Score: inf
ROOT
ATOM      1  C   UNL A   1      35.699  23.207  26.012  1.00  0.00     0.023 C 
ENDROOT
BRANCH   1   2
ATOM      2  C   UNL A   1      34.378  23.617  25.371  1.00  0.00     0.116 C 
BRANCH   2   3
ATOM      3  N   UNL A   1      34.358  23.232  23.971  1.00  0.00    -0.356 N 
ATOM      4  C   UNL A   1      33.862  23.927  22.910  1.00  0.00     0.229 C 
ATOM      5  O   UNL A   1      33.776  23.352  21.823  1.00  0.00    -0.275 OA
ATOM      6  H   UNL A   1      34.754  22.355  23.763  1.00  0.00     0.163 HD
BRANCH   4   7
ATOM      7  C   UNL A   1      33.513  25.383  23.049  1.00  0.00     0.200 C 
BRANCH   7   8
ATOM      8  C   UNL A   1      32.089  25.787  22.728  1.00  0.00     0.231 C 
ATOM      9  O   UNL A   1      31.904  26.356  21.649  1.00  0.00    -0.274 OA
BRANCH   8  10
ATOM     10  N   UNL A   1      31.056  25.462  23.610  1.00  0.00    -0.342 N 
ATOM     11  C   UNL A   1      30.367  24.173  23.516  1.00  0.00     0.147 C 
BRANCH  10  12
ATOM     12  C   UNL A   1      30.441  26.445  24.563  1.00  0.00     0.084 C 
ATOM     13  C   UNL A   1      30.715  26.106  26.049  1.00  0.00     0.025 C 
ATOM     14  C   UNL A   1      30.725  27.951  24.380  1.00  0.00     0.025 C 
ATOM     15  C   UNL A   1      32.137  26.465  26.483  1.00  0.00     0.008 C 
ATOM     16  C   UNL A   1      32.138  28.360  24.802  1.00  0.00     0.008 C 
ATOM     17  C   UNL A   1      32.492  27.953  26.251  1.00  0.00    -0.035 C 
ATOM     18  C   UNL A   1      33.999  28.159  26.497  1.00  0.00     0.011 C 
ATOM     19  C   UNL A   1      31.746  28.858  27.250  1.00  0.00     0.011 C 
ENDBRANCH  10  12
ENDBRANCH   8  10
ENDBRANCH   7   8
ENDBRANCH   4   7
ENDBRANCH   2   3
ENDBRANCH   1   2
BRANCH   1  20
ATOM     20  C   UNL A   1      36.107  21.760  25.741  1.00  0.00     0.023 C 
BRANCH  20  21
ATOM     21  C   UNL A   1      37.371  21.596  24.912  1.00  0.00     0.116 C 
BRANCH  21  22
ATOM     22  N   UNL A   1      38.251  20.546  25.404  1.00  0.00    -0.352 N 
ATOM     23  C   UNL A   1      39.416  20.623  26.139  1.00  0.00     0.251 C 
ATOM     24  H   UNL A   1      37.969  19.631  25.176  1.00  0.00     0.163 HD
ATOM     25  O   UNL A   1      40.063  19.606  26.344  1.00  0.00    -0.269 OA
BRANCH  23  26
ATOM     26  C   UNL A   1      39.906  21.933  26.635  1.00  0.00     0.039 A 
ATOM     27  C   UNL A   1      40.910  21.955  27.607  1.00  0.00     0.014 A 
ATOM     28  C   UNL A   1      39.398  23.134  26.140  1.00  0.00     0.014 A 
ATOM     29  C   UNL A   1      41.468  23.174  28.004  1.00  0.00     0.010 A 
ATOM     30  C   UNL A   1      40.029  24.334  26.449  1.00  0.00     0.010 A 
ATOM     31  C   UNL A   1      41.073  24.372  27.385  1.00  0.00    -0.014 A 
BRANCH  31  32
ATOM     32  C   UNL A   1      41.721  25.675  27.698  1.00  0.00     0.031 A 
ATOM     33  C   UNL A   1      40.962  26.722  28.472  1.00  0.00     0.074 A 
ATOM     34  C   UNL A   1      42.946  25.954  27.210  1.00  0.00     0.049 A 
ATOM     35  N   UNL A   1      41.278  27.969  28.713  1.00  0.00    -0.248 NA
ATOM     36  C   UNL A   1      39.650  26.323  29.005  1.00  0.00     0.031 C 
ATOM     37  C   UNL A   1      43.766  25.044  26.404  1.00  0.00     0.029 A 
ATOM     38  N   UNL A   1      43.714  27.089  27.302  1.00  0.00    -0.354 N 
ATOM     39  C   UNL A   1      40.193  28.509  29.396  1.00  0.00     0.074 A 
ATOM     40  C   UNL A   1      39.187  27.472  29.472  1.00  0.00     0.031 C 
ATOM     41  C   UNL A   1      44.928  25.644  26.103  1.00  0.00     0.029 A 
ATOM     42  C   UNL A   1      44.919  27.000  26.643  1.00  0.00     0.049 A 
ATOM     43  H   UNL A   1      43.429  27.891  27.796  1.00  0.00     0.167 HD
ATOM     44  C   UNL A   1      40.057  29.747  29.934  1.00  0.00     0.034 A 
ATOM     45  C   UNL A   1      45.898  27.911  26.477  1.00  0.00     0.034 A 
ATOM     46  C   UNL A   1      41.086  30.757  29.885  1.00  0.00     0.049 A 
ATOM     47  C   UNL A   1      45.727  29.280  27.086  1.00  0.00     0.074 A 
ATOM     48  C   UNL A   1      41.084  32.018  30.453  1.00  0.00     0.029 A 
ATOM     49  N   UNL A   1      42.304  30.619  29.230  1.00  0.00    -0.354 N 
ATOM     50  N   UNL A   1      44.711  29.762  27.765  1.00  0.00    -0.248 NA
ATOM     51  C   UNL A   1      46.839  30.225  26.915  1.00  0.00     0.031 C 
ATOM     52  C   UNL A   1      42.272  32.664  30.095  1.00  0.00     0.029 A 
ATOM     53  C   UNL A   1      43.048  31.781  29.361  1.00  0.00     0.049 A 
ATOM     54  H   UNL A   1      42.595  29.815  28.743  1.00  0.00     0.167 HD
ATOM     55  C   UNL A   1      45.076  31.055  28.126  1.00  0.00     0.074 A 
ATOM     56  C   UNL A   1      46.409  31.273  27.603  1.00  0.00     0.031 C 
ATOM     57  C   UNL A   1      44.374  31.981  28.828  1.00  0.00     0.034 A 
BRANCH  44  58
ATOM     58  C   UNL A   1      38.745  30.074  30.606  1.00  0.00     0.023 A 
ATOM     59  C   UNL A   1      37.721  30.763  29.931  1.00  0.00     0.031 A 
ATOM     60  C   UNL A   1      38.523  29.721  31.948  1.00  0.00     0.131 A 
ATOM     61  C   UNL A   1      36.562  31.149  30.621  1.00  0.00     0.055 A 
ATOM     62  C   UNL A   1      37.330  30.033  32.606  1.00  0.00     0.041 A 
ATOM     63  F   UNL A   1      39.470  29.080  32.652  1.00  0.00    -0.206 F 
ATOM     64  C   UNL A   1      36.348  30.766  31.946  1.00  0.00     0.022 A 
BRANCH  61  65
ATOM     65  S   UNL A   1      35.407  32.284  29.803  1.00  0.00     0.124 S 
ATOM     66  O   UNL A   1      34.972  31.486  28.660  1.00  0.00    -0.237 OA
ATOM     67  O   UNL A   1      34.407  32.516  30.839  1.00  0.00    -0.237 OA
ATOM     68  O   UNL A   1      36.240  33.438  29.469  1.00  0.00    -0.744 OA
ENDBRANCH  61  65
ENDBRANCH  44  58
BRANCH  45  69
ATOM     69  C   UNL A   1      47.122  27.577  25.694  1.00  0.00     0.023 A 
ATOM     70  C   UNL A   1      47.216  27.899  24.330  1.00  0.00     0.031 A 
ATOM     71  C   UNL A   1      48.199  26.893  26.284  1.00  0.00     0.131 A 
ATOM     72  C   UNL A   1      48.337  27.494  23.590  1.00  0.00     0.055 A 
ATOM     73  C   UNL A   1      49.336  26.537  25.556  1.00  0.00     0.041 A 
ATOM     74  F   UNL A   1      48.164  26.566  27.586  1.00  0.00    -0.206 F 
ATOM     75  C   UNL A   1      49.403  26.825  24.196  1.00  0.00     0.022 A 
BRANCH  72  76
ATOM     76  S   UNL A   1      48.342  27.773  21.798  1.00  0.00     0.124 S 
ATOM     77  O   UNL A   1      47.074  28.467  21.602  1.00  0.00    -0.237 OA
ATOM     78  O   UNL A   1      49.547  28.578  21.621  1.00  0.00    -0.237 OA
ATOM     79  O   UNL A   1      48.408  26.423  21.243  1.00  0.00    -0.744 OA
ENDBRANCH  72  76
ENDBRANCH  45  69
BRANCH  57  80
ATOM     80  C   UNL A   1      45.064  33.293  29.107  1.00  0.00     0.023 A 
ATOM     81  C   UNL A   1      44.838  34.431  28.313  1.00  0.00     0.031 A 
ATOM     82  C   UNL A   1      45.965  33.401  30.181  1.00  0.00     0.131 A 
ATOM     83  C   UNL A   1      45.547  35.613  28.572  1.00  0.00     0.055 A 
ATOM     84  C   UNL A   1      46.625  34.596  30.468  1.00  0.00     0.041 A 
ATOM     85  F   UNL A   1      46.218  32.344  30.970  1.00  0.00    -0.206 F 
ATOM     86  C   UNL A   1      46.426  35.708  29.654  1.00  0.00     0.022 A 
BRANCH  83  87
ATOM     87  S   UNL A   1      45.366  37.005  27.423  1.00  0.00     0.124 S 
ATOM     88  O   UNL A   1      45.087  38.113  28.331  1.00  0.00    -0.237 OA
ATOM     89  O   UNL A   1      46.665  37.035  26.761  1.00  0.00    -0.237 OA
ATOM     90  O   UNL A   1      44.247  36.605  26.573  1.00  0.00    -0.744 OA
ENDBRANCH  83  87
ENDBRANCH  57  80
ENDBRANCH  31  32
ENDBRANCH  23  26
ENDBRANCH  21  22
ENDBRANCH  20  21
ENDBRANCH   1  20
TORSDOF 17
ENDMDL
MODEL 3
REMARK VINA RESULT:     -11.2      1.450      1.799
REMARK SMILES CN(C(=O)CC(=O)NCCCCNC(=O)c1ccc(-c2c3nc(c(-c4cc(S(=O)(=O)[O-])ccc4F)c4ccc([nH]4)c(-c4cc(S(=O)(=O)[O-])ccc4F)c4nc(c(-c5cc(S(=O)(=O)[O-])ccc5F)c5ccc2[nH]5)C=C4)C=C3)cc1)C1CCC(C)(C)CC1
REMARK SMILES IDX 10 1 9 2 8 3 6 4 7 5 5 7 3 8 4 9 2 10 1 11 79 12 80 13 86 14
REMARK SMILES IDX 81 15 85 16 82 17 83 18 84 19 11 20 12 21 13 22 14 23 15 25
REMARK SMILES IDX 16 26 17 27 78 28 18 29 77 30 19 31 20 32 21 33 71 34 22 35
REMARK SMILES IDX 76 36 70 37 72 38 23 39 75 40 69 41 68 42 24 44 56 45 36 46
REMARK SMILES IDX 55 47 37 48 40 49 54 50 73 51 38 52 39 53 53 55 74 56 41 57
REMARK SMILES IDX 25 58 26 59 34 60 27 61 33 62 35 63 32 64 28 65 29 66 30 67
REMARK SMILES IDX 31 68 57 69 58 70 66 71 59 72 65 73 67 74 64 75 60 76 61 77
REMARK SMILES IDX 62 78 63 79 42 80 43 81 51 82 44 83 50 84 52 85 49 86 45 87
REMARK SMILES IDX 46 88 47 89 48 90
REMARK H PARENT 8 6 13 24 72 43 40 54
REMARK Flexibility Score: inf
ROOT
ATOM      1  C   UNL A   1      32.034  29.354  24.524  1.00  0.00     0.023 C 
ENDROOT
BRANCH   1   2
ATOM      2  C   UNL A   1      31.795  27.928  25.006  1.00  0.00     0.116 C 
BRANCH   2   3
ATOM      3  N   UNL A   1      30.641  27.358  24.335  1.00  0.00    -0.356 N 
ATOM      4  C   UNL A   1      29.934  26.243  24.670  1.00  0.00     0.229 C 
ATOM      5  O   UNL A   1      29.096  25.820  23.871  1.00  0.00    -0.275 OA
ATOM      6  H   UNL A   1      30.331  27.838  23.534  1.00  0.00     0.163 HD
BRANCH   4   7
ATOM      7  C   UNL A   1      30.114  25.603  26.019  1.00  0.00     0.200 C 
BRANCH   7   8
ATOM      8  C   UNL A   1      31.149  24.503  26.130  1.00  0.00     0.231 C 
ATOM      9  O   UNL A   1      31.300  23.995  27.244  1.00  0.00    -0.274 OA
BRANCH   8  10
ATOM     10  N   UNL A   1      31.837  24.074  24.993  1.00  0.00    -0.342 N 
ATOM     11  C   UNL A   1      31.378  22.909  24.233  1.00  0.00     0.147 C 
BRANCH  10  12
ATOM     12  C   UNL A   1      33.173  24.619  24.579  1.00  0.00     0.084 C 
ATOM     13  C   UNL A   1      34.183  24.710  25.750  1.00  0.00     0.025 C 
ATOM     14  C   UNL A   1      33.913  23.976  23.387  1.00  0.00     0.025 C 
ATOM     15  C   UNL A   1      34.773  23.349  26.124  1.00  0.00     0.008 C 
ATOM     16  C   UNL A   1      34.523  22.611  23.715  1.00  0.00     0.008 C 
ATOM     17  C   UNL A   1      35.465  22.633  24.940  1.00  0.00    -0.035 C 
ATOM     18  C   UNL A   1      35.815  21.191  25.355  1.00  0.00     0.011 C 
ATOM     19  C   UNL A   1      36.789  23.329  24.575  1.00  0.00     0.011 C 
ENDBRANCH  10  12
ENDBRANCH   8  10
ENDBRANCH   7   8
ENDBRANCH   4   7
ENDBRANCH   2   3
ENDBRANCH   1   2
BRANCH   1  20
ATOM     20  C   UNL A   1      31.331  30.425  25.356  1.00  0.00     0.023 C 
BRANCH  20  21
ATOM     21  C   UNL A   1      32.059  30.827  26.629  1.00  0.00     0.116 C 
BRANCH  21  22
ATOM     22  N   UNL A   1      32.034  32.261  26.880  1.00  0.00    -0.352 N 
ATOM     23  C   UNL A   1      32.925  33.070  27.553  1.00  0.00     0.251 C 
ATOM     24  H   UNL A   1      31.254  32.730  26.506  1.00  0.00     0.163 HD
ATOM     25  O   UNL A   1      32.641  34.243  27.746  1.00  0.00    -0.269 OA
BRANCH  23  26
ATOM     26  C   UNL A   1      34.194  32.511  28.083  1.00  0.00     0.039 A 
ATOM     27  C   UNL A   1      35.312  33.344  28.176  1.00  0.00     0.014 A 
ATOM     28  C   UNL A   1      34.284  31.184  28.503  1.00  0.00     0.014 A 
ATOM     29  C   UNL A   1      36.483  32.873  28.779  1.00  0.00     0.010 A 
ATOM     30  C   UNL A   1      35.406  30.753  29.203  1.00  0.00     0.010 A 
ATOM     31  C   UNL A   1      36.521  31.591  29.352  1.00  0.00    -0.014 A 
BRANCH  31  32
ATOM     32  C   UNL A   1      37.708  31.095  30.101  1.00  0.00     0.031 A 
ATOM     33  C   UNL A   1      38.654  30.122  29.445  1.00  0.00     0.074 A 
ATOM     34  C   UNL A   1      37.883  31.439  31.393  1.00  0.00     0.049 A 
ATOM     35  N   UNL A   1      39.650  29.451  29.966  1.00  0.00    -0.248 NA
ATOM     36  C   UNL A   1      38.416  29.831  28.023  1.00  0.00     0.031 C 
ATOM     37  C   UNL A   1      37.011  32.335  32.159  1.00  0.00     0.029 A 
ATOM     38  N   UNL A   1      38.845  31.067  32.300  1.00  0.00    -0.354 N 
ATOM     39  C   UNL A   1      40.134  28.638  28.947  1.00  0.00     0.074 A 
ATOM     40  C   UNL A   1      39.281  28.854  27.798  1.00  0.00     0.031 C 
ATOM     41  C   UNL A   1      37.492  32.463  33.404  1.00  0.00     0.029 A 
ATOM     42  C   UNL A   1      38.674  31.619  33.549  1.00  0.00     0.049 A 
ATOM     43  H   UNL A   1      39.588  30.461  32.076  1.00  0.00     0.167 HD
ATOM     44  C   UNL A   1      41.207  27.808  28.958  1.00  0.00     0.034 A 
ATOM     45  C   UNL A   1      39.378  31.452  34.686  1.00  0.00     0.034 A 
ATOM     46  C   UNL A   1      42.072  27.635  30.099  1.00  0.00     0.049 A 
ATOM     47  C   UNL A   1      40.569  30.528  34.674  1.00  0.00     0.074 A 
ATOM     48  C   UNL A   1      43.224  26.875  30.201  1.00  0.00     0.029 A 
ATOM     49  N   UNL A   1      41.881  28.233  31.338  1.00  0.00    -0.354 N 
ATOM     50  N   UNL A   1      41.039  29.797  33.688  1.00  0.00    -0.248 NA
ATOM     51  C   UNL A   1      41.330  30.411  35.925  1.00  0.00     0.031 C 
ATOM     52  C   UNL A   1      43.696  26.967  31.514  1.00  0.00     0.029 A 
ATOM     53  C   UNL A   1      42.879  27.840  32.215  1.00  0.00     0.049 A 
ATOM     54  H   UNL A   1      41.144  28.846  31.562  1.00  0.00     0.167 HD
ATOM     55  C   UNL A   1      42.167  29.159  34.194  1.00  0.00     0.074 A 
ATOM     56  C   UNL A   1      42.316  29.602  35.565  1.00  0.00     0.031 C 
ATOM     57  C   UNL A   1      43.008  28.287  33.582  1.00  0.00     0.034 A 
BRANCH  44  58
ATOM     58  C   UNL A   1      41.490  27.020  27.701  1.00  0.00     0.023 A 
ATOM     59  C   UNL A   1      41.188  25.649  27.606  1.00  0.00     0.031 A 
ATOM     60  C   UNL A   1      42.098  27.636  26.593  1.00  0.00     0.131 A 
ATOM     61  C   UNL A   1      41.568  24.925  26.467  1.00  0.00     0.055 A 
ATOM     62  C   UNL A   1      42.396  26.927  25.427  1.00  0.00     0.041 A 
ATOM     63  F   UNL A   1      42.428  28.937  26.631  1.00  0.00    -0.206 F 
ATOM     64  C   UNL A   1      42.146  25.559  25.366  1.00  0.00     0.022 A 
BRANCH  61  65
ATOM     65  S   UNL A   1      41.429  23.117  26.506  1.00  0.00     0.124 S 
ATOM     66  O   UNL A   1      41.920  22.814  27.849  1.00  0.00    -0.237 OA
ATOM     67  O   UNL A   1      40.003  22.905  26.283  1.00  0.00    -0.237 OA
ATOM     68  O   UNL A   1      42.303  22.682  25.418  1.00  0.00    -0.744 OA
ENDBRANCH  61  65
ENDBRANCH  44  58
BRANCH  45  69
ATOM     69  C   UNL A   1      38.980  32.159  35.937  1.00  0.00     0.023 A 
ATOM     70  C   UNL A   1      38.222  31.507  36.923  1.00  0.00     0.031 A 
ATOM     71  C   UNL A   1      39.312  33.509  36.147  1.00  0.00     0.131 A 
ATOM     72  C   UNL A   1      37.779  32.218  38.049  1.00  0.00     0.055 A 
ATOM     73  C   UNL A   1      38.913  34.197  37.295  1.00  0.00     0.041 A 
ATOM     74  F   UNL A   1      40.040  34.179  35.239  1.00  0.00    -0.206 F 
ATOM     75  C   UNL A   1      38.129  33.555  38.248  1.00  0.00     0.022 A 
BRANCH  72  76
ATOM     76  S   UNL A   1      36.657  31.391  39.211  1.00  0.00     0.124 S 
ATOM     77  O   UNL A   1      37.475  31.324  40.418  1.00  0.00    -0.237 OA
ATOM     78  O   UNL A   1      35.529  32.316  39.251  1.00  0.00    -0.237 OA
ATOM     79  O   UNL A   1      36.387  30.107  38.567  1.00  0.00    -0.744 OA
ENDBRANCH  72  76
ENDBRANCH  45  69
BRANCH  57  80
ATOM     80  C   UNL A   1      44.187  27.797  34.384  1.00  0.00     0.023 A 
ATOM     81  C   UNL A   1      44.116  26.633  35.168  1.00  0.00     0.031 A 
ATOM     82  C   UNL A   1      45.397  28.513  34.367  1.00  0.00     0.131 A 
ATOM     83  C   UNL A   1      45.218  26.248  35.946  1.00  0.00     0.055 A 
ATOM     84  C   UNL A   1      46.508  28.094  35.098  1.00  0.00     0.041 A 
ATOM     85  F   UNL A   1      45.518  29.633  33.635  1.00  0.00    -0.206 F 
ATOM     86  C   UNL A   1      46.419  26.961  35.903  1.00  0.00     0.022 A 
BRANCH  83  87
ATOM     87  S   UNL A   1      45.034  24.844  37.080  1.00  0.00     0.124 S 
ATOM     88  O   UNL A   1      43.776  25.157  37.749  1.00  0.00    -0.237 OA
ATOM     89  O   UNL A   1      45.006  23.707  36.168  1.00  0.00    -0.237 OA
ATOM     90  O   UNL A   1      46.224  24.929  37.926  1.00  0.00    -0.744 OA
ENDBRANCH  83  87
ENDBRANCH  57  80
ENDBRANCH  31  32
ENDBRANCH  23  26
ENDBRANCH  21  22
ENDBRANCH  20  21
ENDBRANCH   1  20
TORSDOF 17
ENDMDL
