MODEL 1
REMARK VINA RESULT:     -12.2      0.000      0.000
REMARK SMILES O=C(NCCCCNC(=O)[C@@H]1CC[C@H](CNC(=O)c2cccn2C2CC2)O1)c1ccc(-c2c3nc(c(-c4cc(S(=O)(=O)[O-])ccc4F)c4ccc([nH]4)c(-c4cc(S(=O)(=O)[O-])ccc4F)c4nc(c(-c5cc(S(=O)(=O)[O-])ccc5F)c5ccc2[nH]5)C=C4)C=C3)cc1
REMARK SMILES IDX 6 1 5 2 4 3 3 4 1 5 2 6 28 8 29 9 90 10 30 11 89 12 31 13
REMARK SMILES IDX 32 14 33 15 83 16 34 17 88 18 82 19 84 20 35 21 87 22 81 23
REMARK SMILES IDX 80 24 36 26 68 27 48 28 67 29 49 30 52 31 66 32 85 33 50 34
REMARK SMILES IDX 51 35 65 37 86 38 53 39 37 40 38 41 46 42 39 43 45 44 47 45
REMARK SMILES IDX 44 46 40 47 41 48 42 49 43 50 69 51 70 52 78 53 71 54 77 55
REMARK SMILES IDX 79 56 76 57 72 58 73 59 74 60 75 61 54 62 55 63 63 64 56 65
REMARK SMILES IDX 62 66 64 67 61 68 57 69 58 70 59 71 60 72 7 73 8 74 9 75
REMARK SMILES IDX 10 77 11 78 12 79 27 80 13 81 14 82 15 83 16 84 17 85 18 87
REMARK SMILES IDX 19 88 20 89 23 90 21 91 22 92 24 93 25 94 26 95
REMARK H PARENT 3 7 84 25 52 36 8 76 16 86
REMARK Flexibility Score: inf
ROOT
ATOM      1  C   UNL A   1      36.169  21.839  25.479  1.00  0.00     0.023 C 
ENDROOT
BRANCH   1   2
ATOM      2  C   UNL A   1      36.463  23.298  25.133  1.00  0.00     0.023 C 
BRANCH   2   3
ATOM      3  C   UNL A   1      37.290  24.060  26.170  1.00  0.00     0.116 C 
BRANCH   3   4
ATOM      4  N   UNL A   1      38.531  23.428  26.582  1.00  0.00    -0.352 N 
ATOM      5  O   UNL A   1      40.499  23.050  27.565  1.00  0.00    -0.269 OA
ATOM      6  C   UNL A   1      39.600  23.858  27.330  1.00  0.00     0.251 C 
ATOM      7  H   UNL A   1      38.625  22.502  26.260  1.00  0.00     0.163 HD
BRANCH   6   8
ATOM      8  C   UNL A   1      39.739  25.258  27.802  1.00  0.00     0.039 A 
ATOM      9  C   UNL A   1      39.539  25.633  29.130  1.00  0.00     0.014 A 
ATOM     10  C   UNL A   1      40.114  26.233  26.862  1.00  0.00     0.014 A 
ATOM     11  C   UNL A   1      39.588  26.972  29.494  1.00  0.00     0.010 A 
ATOM     12  C   UNL A   1      40.217  27.576  27.235  1.00  0.00     0.010 A 
ATOM     13  C   UNL A   1      39.934  27.949  28.553  1.00  0.00    -0.014 A 
BRANCH  13  14
ATOM     14  C   UNL A   1      40.184  29.315  29.078  1.00  0.00     0.031 A 
ATOM     15  C   UNL A   1      38.886  30.009  29.500  1.00  0.00     0.074 A 
ATOM     16  C   UNL A   1      41.452  29.813  29.018  1.00  0.00     0.049 A 
ATOM     17  N   UNL A   1      38.511  31.245  29.354  1.00  0.00    -0.248 NA
ATOM     18  C   UNL A   1      37.782  29.164  30.026  1.00  0.00     0.031 C 
ATOM     19  C   UNL A   1      42.633  29.051  28.564  1.00  0.00     0.029 A 
ATOM     20  N   UNL A   1      42.008  31.043  29.309  1.00  0.00    -0.354 N 
ATOM     21  C   UNL A   1      37.245  31.370  29.973  1.00  0.00     0.074 A 
ATOM     22  C   UNL A   1      36.782  30.032  30.191  1.00  0.00     0.031 C 
ATOM     23  C   UNL A   1      43.734  29.832  28.558  1.00  0.00     0.029 A 
ATOM     24  C   UNL A   1      43.389  31.167  29.011  1.00  0.00     0.049 A 
ATOM     25  H   UNL A   1      41.483  31.782  29.695  1.00  0.00     0.167 HD
ATOM     26  C   UNL A   1      36.735  32.555  30.425  1.00  0.00     0.034 A 
ATOM     27  C   UNL A   1      44.202  32.266  29.088  1.00  0.00     0.034 A 
ATOM     28  C   UNL A   1      37.650  33.621  30.167  1.00  0.00     0.049 A 
ATOM     29  C   UNL A   1      43.375  33.352  29.641  1.00  0.00     0.074 A 
ATOM     30  C   UNL A   1      38.046  34.317  29.057  1.00  0.00     0.029 A 
ATOM     31  N   UNL A   1      38.449  34.005  31.219  1.00  0.00    -0.354 N 
ATOM     32  N   UNL A   1      43.006  33.452  30.880  1.00  0.00    -0.248 NA
ATOM     33  C   UNL A   1      42.897  34.408  28.737  1.00  0.00     0.031 C 
ATOM     34  C   UNL A   1      39.323  34.826  29.392  1.00  0.00     0.029 A 
ATOM     35  C   UNL A   1      39.642  34.425  30.694  1.00  0.00     0.049 A 
ATOM     36  H   UNL A   1      38.207  33.981  32.174  1.00  0.00     0.167 HD
ATOM     37  C   UNL A   1      42.018  34.406  30.835  1.00  0.00     0.074 A 
ATOM     38  C   UNL A   1      42.216  35.145  29.609  1.00  0.00     0.031 C 
ATOM     39  C   UNL A   1      40.843  34.177  31.473  1.00  0.00     0.034 A 
BRANCH  26  40
ATOM     40  C   UNL A   1      35.576  32.884  31.352  1.00  0.00     0.023 A 
ATOM     41  C   UNL A   1      34.651  33.852  30.876  1.00  0.00     0.031 A 
ATOM     42  C   UNL A   1      35.463  32.558  32.710  1.00  0.00     0.131 A 
ATOM     43  C   UNL A   1      33.786  34.543  31.734  1.00  0.00     0.055 A 
ATOM     44  C   UNL A   1      34.538  33.194  33.556  1.00  0.00     0.041 A 
ATOM     45  F   UNL A   1      36.279  31.679  33.304  1.00  0.00    -0.206 F 
ATOM     46  C   UNL A   1      33.723  34.218  33.082  1.00  0.00     0.022 A 
BRANCH  43  47
ATOM     47  S   UNL A   1      32.902  35.992  31.085  1.00  0.00     0.124 S 
ATOM     48  O   UNL A   1      31.743  36.069  31.968  1.00  0.00    -0.237 OA
ATOM     49  O   UNL A   1      33.898  37.048  31.244  1.00  0.00    -0.237 OA
ATOM     50  O   UNL A   1      32.607  35.617  29.704  1.00  0.00    -0.744 OA
ENDBRANCH  43  47
ENDBRANCH  26  40
BRANCH  27  51
ATOM     51  C   UNL A   1      45.629  32.641  28.726  1.00  0.00     0.023 A 
ATOM     52  C   UNL A   1      46.012  33.486  27.673  1.00  0.00     0.031 A 
ATOM     53  C   UNL A   1      46.716  32.147  29.515  1.00  0.00     0.131 A 
ATOM     54  C   UNL A   1      47.374  33.838  27.487  1.00  0.00     0.055 A 
ATOM     55  C   UNL A   1      48.047  32.542  29.365  1.00  0.00     0.041 A 
ATOM     56  F   UNL A   1      46.541  31.247  30.493  1.00  0.00    -0.206 F 
ATOM     57  C   UNL A   1      48.383  33.406  28.349  1.00  0.00     0.022 A 
BRANCH  54  58
ATOM     58  S   UNL A   1      47.894  34.907  26.113  1.00  0.00     0.124 S 
ATOM     59  O   UNL A   1      47.016  34.464  25.036  1.00  0.00    -0.237 OA
ATOM     60  O   UNL A   1      47.649  36.253  26.623  1.00  0.00    -0.237 OA
ATOM     61  O   UNL A   1      49.305  34.558  25.951  1.00  0.00    -0.744 OA
ENDBRANCH  54  58
ENDBRANCH  27  51
BRANCH  39  62
ATOM     62  C   UNL A   1      40.964  33.216  32.655  1.00  0.00     0.023 A 
ATOM     63  C   UNL A   1      40.615  31.858  32.526  1.00  0.00     0.031 A 
ATOM     64  C   UNL A   1      41.290  33.647  33.953  1.00  0.00     0.131 A 
ATOM     65  C   UNL A   1      40.588  31.014  33.656  1.00  0.00     0.055 A 
ATOM     66  C   UNL A   1      41.292  32.809  35.071  1.00  0.00     0.041 A 
ATOM     67  F   UNL A   1      41.597  34.920  34.188  1.00  0.00    -0.206 F 
ATOM     68  C   UNL A   1      40.933  31.481  34.926  1.00  0.00     0.022 A 
BRANCH  65  69
ATOM     69  S   UNL A   1      40.103  29.275  33.467  1.00  0.00     0.124 S 
ATOM     70  O   UNL A   1      38.650  29.361  33.354  1.00  0.00    -0.237 OA
ATOM     71  O   UNL A   1      40.815  28.875  32.258  1.00  0.00    -0.237 OA
ATOM     72  O   UNL A   1      40.588  28.648  34.697  1.00  0.00    -0.744 OA
ENDBRANCH  65  69
ENDBRANCH  39  62
ENDBRANCH  13  14
ENDBRANCH   6   8
ENDBRANCH   3   4
ENDBRANCH   2   3
ENDBRANCH   1   2
BRANCH   1  73
ATOM     73  C   UNL A   1      35.002  21.623  26.435  1.00  0.00     0.116 C 
BRANCH  73  74
ATOM     74  N   UNL A   1      33.880  20.949  25.803  1.00  0.00    -0.354 N 
ATOM     75  C   UNL A   1      32.588  21.361  25.649  1.00  0.00     0.249 C 
ATOM     76  H   UNL A   1      34.084  20.061  25.429  1.00  0.00     0.163 HD
ATOM     77  O   UNL A   1      31.832  20.657  24.973  1.00  0.00    -0.272 OA
BRANCH  75  78
ATOM     78  C   UNL A   1      32.106  22.650  26.325  1.00  0.00     0.207 C 
ATOM     79  C   UNL A   1      30.585  22.688  26.355  1.00  0.00     0.045 C 
ATOM     80  O   UNL A   1      32.546  23.816  25.609  1.00  0.00    -0.363 OA
ATOM     81  C   UNL A   1      30.296  24.161  26.220  1.00  0.00     0.037 C 
ATOM     82  C   UNL A   1      31.409  24.640  25.303  1.00  0.00     0.138 C 
BRANCH  82  83
ATOM     83  C   UNL A   1      31.090  24.506  23.807  1.00  0.00     0.148 C 
BRANCH  83  84
ATOM     84  N   UNL A   1      32.252  24.771  22.966  1.00  0.00    -0.348 N 
ATOM     85  C   UNL A   1      32.748  25.958  22.514  1.00  0.00     0.268 C 
ATOM     86  H   UNL A   1      32.754  23.973  22.682  1.00  0.00     0.163 HD
ATOM     87  O   UNL A   1      33.735  25.903  21.751  1.00  0.00    -0.268 OA
BRANCH  85  88
ATOM     88  C   UNL A   1      32.186  27.194  22.978  1.00  0.00     0.107 A 
ATOM     89  C   UNL A   1      31.139  27.889  22.368  1.00  0.00     0.033 A 
ATOM     90  N   UNL A   1      32.479  27.893  24.133  1.00  0.00    -0.340 N 
ATOM     91  C   UNL A   1      30.825  29.022  23.147  1.00  0.00     0.020 A 
ATOM     92  C   UNL A   1      31.657  28.991  24.239  1.00  0.00     0.086 A 
BRANCH  90  93
ATOM     93  C   UNL A   1      33.527  27.693  25.121  1.00  0.00     0.087 C 
ATOM     94  C   UNL A   1      34.084  28.729  26.070  1.00  0.00     0.027 C 
ATOM     95  C   UNL A   1      33.222  27.639  26.606  1.00  0.00     0.027 C 
ENDBRANCH  90  93
ENDBRANCH  85  88
ENDBRANCH  83  84
ENDBRANCH  82  83
ENDBRANCH  75  78
ENDBRANCH  73  74
ENDBRANCH   1  73
TORSDOF 18
ENDMDL
MODEL 2
REMARK VINA RESULT:     -11.7      4.130      9.211
REMARK SMILES O=C(NCCCCNC(=O)[C@@H]1CC[C@H](CNC(=O)c2cccn2C2CC2)O1)c1ccc(-c2c3nc(c(-c4cc(S(=O)(=O)[O-])ccc4F)c4ccc([nH]4)c(-c4cc(S(=O)(=O)[O-])ccc4F)c4nc(c(-c5cc(S(=O)(=O)[O-])ccc5F)c5ccc2[nH]5)C=C4)C=C3)cc1
REMARK SMILES IDX 6 1 5 2 4 3 3 4 1 5 2 6 28 8 29 9 90 10 30 11 89 12 31 13
REMARK SMILES IDX 32 14 33 15 83 16 34 17 88 18 82 19 84 20 35 21 87 22 81 23
REMARK SMILES IDX 80 24 36 26 68 27 48 28 67 29 49 30 52 31 66 32 85 33 50 34
REMARK SMILES IDX 51 35 65 37 86 38 53 39 37 40 38 41 46 42 39 43 45 44 47 45
REMARK SMILES IDX 44 46 40 47 41 48 42 49 43 50 69 51 70 52 78 53 71 54 77 55
REMARK SMILES IDX 79 56 76 57 72 58 73 59 74 60 75 61 54 62 55 63 63 64 56 65
REMARK SMILES IDX 62 66 64 67 61 68 57 69 58 70 59 71 60 72 7 73 8 74 9 75
REMARK SMILES IDX 10 77 11 78 12 79 27 80 13 81 14 82 15 83 16 84 17 85 18 87
REMARK SMILES IDX 19 88 20 89 23 90 21 91 22 92 24 93 25 94 26 95
REMARK H PARENT 3 7 84 25 52 36 8 76 16 86
REMARK Flexibility Score: inf
ROOT
ATOM      1  C   UNL A   1      37.330  21.798  24.772  1.00  0.00     0.023 C 
ENDROOT
BRANCH   1   2
ATOM      2  C   UNL A   1      37.861  20.368  24.674  1.00  0.00     0.023 C 
BRANCH   2   3
ATOM      3  C   UNL A   1      38.616  19.866  25.906  1.00  0.00     0.116 C 
BRANCH   3   4
ATOM      4  N   UNL A   1      39.954  19.356  25.668  1.00  0.00    -0.352 N 
ATOM      5  O   UNL A   1      42.173  19.119  25.693  1.00  0.00    -0.269 OA
ATOM      6  C   UNL A   1      41.206  19.824  25.983  1.00  0.00     0.251 C 
ATOM      7  H   UNL A   1      39.966  18.500  25.181  1.00  0.00     0.163 HD
BRANCH   6   8
ATOM      8  C   UNL A   1      41.436  21.157  26.593  1.00  0.00     0.039 A 
ATOM      9  C   UNL A   1      41.241  21.414  27.950  1.00  0.00     0.014 A 
ATOM     10  C   UNL A   1      41.894  22.190  25.758  1.00  0.00     0.014 A 
ATOM     11  C   UNL A   1      41.378  22.705  28.445  1.00  0.00     0.010 A 
ATOM     12  C   UNL A   1      42.086  23.479  26.262  1.00  0.00     0.010 A 
ATOM     13  C   UNL A   1      41.808  23.741  27.608  1.00  0.00    -0.014 A 
BRANCH  13  14
ATOM     14  C   UNL A   1      42.145  25.027  28.268  1.00  0.00     0.031 A 
ATOM     15  C   UNL A   1      43.514  24.974  28.953  1.00  0.00     0.074 A 
ATOM     16  C   UNL A   1      41.203  26.014  28.290  1.00  0.00     0.049 A 
ATOM     17  N   UNL A   1      43.901  25.469  30.091  1.00  0.00    -0.248 NA
ATOM     18  C   UNL A   1      44.562  24.110  28.349  1.00  0.00     0.031 C 
ATOM     19  C   UNL A   1      39.895  25.942  27.609  1.00  0.00     0.029 A 
ATOM     20  N   UNL A   1      41.141  27.258  28.887  1.00  0.00    -0.354 N 
ATOM     21  C   UNL A   1      45.280  25.179  30.220  1.00  0.00     0.074 A 
ATOM     22  C   UNL A   1      45.568  24.194  29.221  1.00  0.00     0.031 C 
ATOM     23  C   UNL A   1      39.160  27.044  27.866  1.00  0.00     0.029 A 
ATOM     24  C   UNL A   1      39.909  27.942  28.727  1.00  0.00     0.049 A 
ATOM     25  H   UNL A   1      41.896  27.642  29.388  1.00  0.00     0.167 HD
ATOM     26  C   UNL A   1      46.133  25.891  31.017  1.00  0.00     0.034 A 
ATOM     27  C   UNL A   1      39.495  29.130  29.267  1.00  0.00     0.034 A 
ATOM     28  C   UNL A   1      45.429  26.933  31.693  1.00  0.00     0.049 A 
ATOM     29  C   UNL A   1      40.640  29.657  30.029  1.00  0.00     0.074 A 
ATOM     30  C   UNL A   1      44.545  26.994  32.736  1.00  0.00     0.029 A 
ATOM     31  N   UNL A   1      45.518  28.188  31.136  1.00  0.00    -0.354 N 
ATOM     32  N   UNL A   1      41.703  30.184  29.508  1.00  0.00    -0.248 NA
ATOM     33  C   UNL A   1      40.612  29.571  31.497  1.00  0.00     0.031 C 
ATOM     34  C   UNL A   1      43.842  28.205  32.538  1.00  0.00     0.029 A 
ATOM     35  C   UNL A   1      44.336  28.833  31.389  1.00  0.00     0.049 A 
ATOM     36  H   UNL A   1      46.290  28.554  30.644  1.00  0.00     0.167 HD
ATOM     37  C   UNL A   1      42.584  30.215  30.562  1.00  0.00     0.074 A 
ATOM     38  C   UNL A   1      41.788  30.131  31.766  1.00  0.00     0.031 C 
ATOM     39  C   UNL A   1      43.850  29.763  30.384  1.00  0.00     0.034 A 
BRANCH  26  40
ATOM     40  C   UNL A   1      47.650  25.956  31.092  1.00  0.00     0.023 A 
ATOM     41  C   UNL A   1      48.330  26.099  29.852  1.00  0.00     0.031 A 
ATOM     42  C   UNL A   1      48.456  25.620  32.188  1.00  0.00     0.131 A 
ATOM     43  C   UNL A   1      49.686  25.781  29.704  1.00  0.00     0.055 A 
ATOM     44  C   UNL A   1      49.835  25.379  32.054  1.00  0.00     0.041 A 
ATOM     45  F   UNL A   1      47.953  25.431  33.413  1.00  0.00    -0.206 F 
ATOM     46  C   UNL A   1      50.449  25.419  30.805  1.00  0.00     0.022 A 
BRANCH  43  47
ATOM     47  S   UNL A   1      50.366  25.663  28.024  1.00  0.00     0.124 S 
ATOM     48  O   UNL A   1      49.751  26.808  27.359  1.00  0.00    -0.237 OA
ATOM     49  O   UNL A   1      51.802  25.764  28.271  1.00  0.00    -0.237 OA
ATOM     50  O   UNL A   1      49.904  24.355  27.563  1.00  0.00    -0.744 OA
ENDBRANCH  43  47
ENDBRANCH  26  40
BRANCH  27  51
ATOM     51  C   UNL A   1      38.226  29.964  29.320  1.00  0.00     0.023 A 
ATOM     52  C   UNL A   1      37.687  30.562  30.470  1.00  0.00     0.031 A 
ATOM     53  C   UNL A   1      37.495  30.224  28.118  1.00  0.00     0.131 A 
ATOM     54  C   UNL A   1      36.542  31.398  30.381  1.00  0.00     0.055 A 
ATOM     55  C   UNL A   1      36.406  31.093  28.026  1.00  0.00     0.041 A 
ATOM     56  F   UNL A   1      37.808  29.646  26.950  1.00  0.00    -0.206 F 
ATOM     57  C   UNL A   1      35.927  31.697  29.165  1.00  0.00     0.022 A 
BRANCH  54  58
ATOM     58  S   UNL A   1      35.812  32.159  31.860  1.00  0.00     0.124 S 
ATOM     59  O   UNL A   1      34.397  32.205  31.509  1.00  0.00    -0.237 OA
ATOM     60  O   UNL A   1      36.175  31.233  32.929  1.00  0.00    -0.237 OA
ATOM     61  O   UNL A   1      36.484  33.457  31.917  1.00  0.00    -0.744 OA
ENDBRANCH  54  58
ENDBRANCH  27  51
BRANCH  39  62
ATOM     62  C   UNL A   1      44.339  29.860  28.939  1.00  0.00     0.023 A 
ATOM     63  C   UNL A   1      44.481  28.709  28.142  1.00  0.00     0.031 A 
ATOM     64  C   UNL A   1      44.801  31.062  28.375  1.00  0.00     0.131 A 
ATOM     65  C   UNL A   1      45.072  28.792  26.863  1.00  0.00     0.055 A 
ATOM     66  C   UNL A   1      45.361  31.154  27.098  1.00  0.00     0.041 A 
ATOM     67  F   UNL A   1      44.747  32.200  29.061  1.00  0.00    -0.206 F 
ATOM     68  C   UNL A   1      45.504  30.009  26.334  1.00  0.00     0.022 A 
BRANCH  65  69
ATOM     69  S   UNL A   1      45.274  27.286  25.869  1.00  0.00     0.124 S 
ATOM     70  O   UNL A   1      43.934  26.708  25.892  1.00  0.00    -0.237 OA
ATOM     71  O   UNL A   1      45.722  27.811  24.583  1.00  0.00    -0.237 OA
ATOM     72  O   UNL A   1      46.286  26.525  26.603  1.00  0.00    -0.744 OA
ENDBRANCH  65  69
ENDBRANCH  39  62
ENDBRANCH  13  14
ENDBRANCH   6   8
ENDBRANCH   3   4
ENDBRANCH   2   3
ENDBRANCH   1   2
BRANCH   1  73
ATOM     73  C   UNL A   1      35.868  21.919  25.183  1.00  0.00     0.116 C 
BRANCH  73  74
ATOM     74  N   UNL A   1      35.114  22.802  24.309  1.00  0.00    -0.354 N 
ATOM     75  C   UNL A   1      33.853  23.303  24.450  1.00  0.00     0.249 C 
ATOM     76  H   UNL A   1      35.586  23.082  23.491  1.00  0.00     0.163 HD
ATOM     77  O   UNL A   1      33.461  24.131  23.623  1.00  0.00    -0.272 OA
BRANCH  75  78
ATOM     78  C   UNL A   1      32.957  22.817  25.596  1.00  0.00     0.207 C 
ATOM     79  C   UNL A   1      31.627  22.323  25.047  1.00  0.00     0.045 C 
ATOM     80  O   UNL A   1      32.667  23.877  26.523  1.00  0.00    -0.363 OA
ATOM     81  C   UNL A   1      30.666  22.687  26.151  1.00  0.00     0.037 C 
ATOM     82  C   UNL A   1      31.243  23.990  26.682  1.00  0.00     0.138 C 
BRANCH  82  83
ATOM     83  C   UNL A   1      30.759  25.241  25.935  1.00  0.00     0.148 C 
BRANCH  83  84
ATOM     84  N   UNL A   1      30.809  26.438  26.767  1.00  0.00    -0.348 N 
ATOM     85  C   UNL A   1      31.503  27.598  26.583  1.00  0.00     0.268 C 
ATOM     86  H   UNL A   1      30.261  26.404  27.583  1.00  0.00     0.163 HD
ATOM     87  O   UNL A   1      31.415  28.456  27.486  1.00  0.00    -0.268 OA
BRANCH  85  88
ATOM     88  C   UNL A   1      32.222  27.818  25.362  1.00  0.00     0.107 A 
ATOM     89  C   UNL A   1      33.558  27.480  25.133  1.00  0.00     0.033 A 
ATOM     90  N   UNL A   1      31.748  28.307  24.160  1.00  0.00    -0.340 N 
ATOM     91  C   UNL A   1      33.890  27.794  23.800  1.00  0.00     0.020 A 
ATOM     92  C   UNL A   1      32.749  28.288  23.217  1.00  0.00     0.086 A 
BRANCH  90  93
ATOM     93  C   UNL A   1      30.459  28.887  23.815  1.00  0.00     0.087 C 
ATOM     94  C   UNL A   1      29.965  29.231  22.429  1.00  0.00     0.027 C 
ATOM     95  C   UNL A   1      29.371  28.068  23.145  1.00  0.00     0.027 C 
ENDBRANCH  90  93
ENDBRANCH  85  88
ENDBRANCH  83  84
ENDBRANCH  82  83
ENDBRANCH  75  78
ENDBRANCH  73  74
ENDBRANCH   1  73
TORSDOF 18
ENDMDL
MODEL 3
REMARK VINA RESULT:     -11.7      3.671      7.459
REMARK SMILES O=C(NCCCCNC(=O)[C@@H]1CC[C@H](CNC(=O)c2cccn2C2CC2)O1)c1ccc(-c2c3nc(c(-c4cc(S(=O)(=O)[O-])ccc4F)c4ccc([nH]4)c(-c4cc(S(=O)(=O)[O-])ccc4F)c4nc(c(-c5cc(S(=O)(=O)[O-])ccc5F)c5ccc2[nH]5)C=C4)C=C3)cc1
REMARK SMILES IDX 6 1 5 2 4 3 3 4 1 5 2 6 28 8 29 9 90 10 30 11 89 12 31 13
REMARK SMILES IDX 32 14 33 15 83 16 34 17 88 18 82 19 84 20 35 21 87 22 81 23
REMARK SMILES IDX 80 24 36 26 68 27 48 28 67 29 49 30 52 31 66 32 85 33 50 34
REMARK SMILES IDX 51 35 65 37 86 38 53 39 37 40 38 41 46 42 39 43 45 44 47 45
REMARK SMILES IDX 44 46 40 47 41 48 42 49 43 50 69 51 70 52 78 53 71 54 77 55
REMARK SMILES IDX 79 56 76 57 72 58 73 59 74 60 75 61 54 62 55 63 63 64 56 65
REMARK SMILES IDX 62 66 64 67 61 68 57 69 58 70 59 71 60 72 7 73 8 74 9 75
REMARK SMILES IDX 10 77 11 78 12 79 27 80 13 81 14 82 15 83 16 84 17 85 18 87
REMARK SMILES IDX 19 88 20 89 23 90 21 91 22 92 24 93 25 94 26 95
REMARK H PARENT 3 7 84 25 52 36 8 76 16 86
REMARK Flexibility Score: inf
ROOT
ATOM      1  C   UNL A   1      33.402  30.121  26.920  1.00  0.00     0.023 C 
ENDROOT
BRANCH   1   2
ATOM      2  C   UNL A   1      32.212  31.041  27.186  1.00  0.00     0.023 C 
BRANCH   2   3
ATOM      3  C   UNL A   1      32.339  32.454  26.615  1.00  0.00     0.116 C 
BRANCH   3   4
ATOM      4  N   UNL A   1      32.238  33.539  27.575  1.00  0.00    -0.352 N 
ATOM      5  O   UNL A   1      32.746  35.036  29.150  1.00  0.00    -0.269 OA
ATOM      6  C   UNL A   1      33.104  34.046  28.512  1.00  0.00     0.251 C 
ATOM      7  H   UNL A   1      31.373  34.008  27.547  1.00  0.00     0.163 HD
BRANCH   6   8
ATOM      8  C   UNL A   1      34.410  33.412  28.825  1.00  0.00     0.039 A 
ATOM      9  C   UNL A   1      35.532  33.547  28.008  1.00  0.00     0.014 A 
ATOM     10  C   UNL A   1      34.510  32.670  30.014  1.00  0.00     0.014 A 
ATOM     11  C   UNL A   1      36.699  32.852  28.302  1.00  0.00     0.010 A 
ATOM     12  C   UNL A   1      35.699  32.012  30.341  1.00  0.00     0.010 A 
ATOM     13  C   UNL A   1      36.792  32.089  29.471  1.00  0.00    -0.014 A 
BRANCH  13  14
ATOM     14  C   UNL A   1      38.139  31.571  29.818  1.00  0.00     0.031 A 
ATOM     15  C   UNL A   1      39.045  32.672  30.378  1.00  0.00     0.074 A 
ATOM     16  C   UNL A   1      38.440  30.278  29.507  1.00  0.00     0.049 A 
ATOM     17  N   UNL A   1      40.309  32.899  30.180  1.00  0.00    -0.248 NA
ATOM     18  C   UNL A   1      38.410  33.771  31.152  1.00  0.00     0.031 C 
ATOM     19  C   UNL A   1      37.483  29.306  28.941  1.00  0.00     0.029 A 
ATOM     20  N   UNL A   1      39.593  29.522  29.588  1.00  0.00    -0.354 N 
ATOM     21  C   UNL A   1      40.661  34.010  30.981  1.00  0.00     0.074 A 
ATOM     22  C   UNL A   1      39.425  34.602  31.395  1.00  0.00     0.031 C 
ATOM     23  C   UNL A   1      38.091  28.129  28.684  1.00  0.00     0.029 A 
ATOM     24  C   UNL A   1      39.491  28.209  29.060  1.00  0.00     0.049 A 
ATOM     25  H   UNL A   1      40.425  29.869  29.983  1.00  0.00     0.167 HD
ATOM     26  C   UNL A   1      41.938  34.271  31.398  1.00  0.00     0.034 A 
ATOM     27  C   UNL A   1      40.461  27.256  28.901  1.00  0.00     0.034 A 
ATOM     28  C   UNL A   1      42.836  33.282  30.896  1.00  0.00     0.049 A 
ATOM     29  C   UNL A   1      41.693  27.822  29.477  1.00  0.00     0.074 A 
ATOM     30  C   UNL A   1      43.388  32.995  29.677  1.00  0.00     0.029 A 
ATOM     31  N   UNL A   1      43.171  32.268  31.765  1.00  0.00    -0.354 N 
ATOM     32  N   UNL A   1      41.932  27.954  30.745  1.00  0.00    -0.248 NA
ATOM     33  C   UNL A   1      42.742  28.305  28.567  1.00  0.00     0.031 C 
ATOM     34  C   UNL A   1      43.726  31.623  29.751  1.00  0.00     0.029 A 
ATOM     35  C   UNL A   1      43.374  31.139  31.017  1.00  0.00     0.049 A 
ATOM     36  H   UNL A   1      43.249  32.342  32.744  1.00  0.00     0.167 HD
ATOM     37  C   UNL A   1      43.015  28.798  30.772  1.00  0.00     0.074 A 
ATOM     38  C   UNL A   1      43.630  28.720  29.466  1.00  0.00     0.031 C 
ATOM     39  C   UNL A   1      43.006  29.865  31.610  1.00  0.00     0.034 A 
BRANCH  26  40
ATOM     40  C   UNL A   1      42.496  35.197  32.465  1.00  0.00     0.023 A 
ATOM     41  C   UNL A   1      41.913  35.085  33.757  1.00  0.00     0.031 A 
ATOM     42  C   UNL A   1      43.310  36.320  32.267  1.00  0.00     0.131 A 
ATOM     43  C   UNL A   1      42.022  36.100  34.715  1.00  0.00     0.055 A 
ATOM     44  C   UNL A   1      43.485  37.301  33.259  1.00  0.00     0.041 A 
ATOM     45  F   UNL A   1      43.908  36.570  31.097  1.00  0.00    -0.206 F 
ATOM     46  C   UNL A   1      42.810  37.216  34.473  1.00  0.00     0.022 A 
BRANCH  43  47
ATOM     47  S   UNL A   1      40.961  36.014  36.188  1.00  0.00     0.124 S 
ATOM     48  O   UNL A   1      39.746  36.684  35.734  1.00  0.00    -0.237 OA
ATOM     49  O   UNL A   1      40.855  34.574  36.400  1.00  0.00    -0.237 OA
ATOM     50  O   UNL A   1      41.728  36.738  37.200  1.00  0.00    -0.744 OA
ENDBRANCH  43  47
ENDBRANCH  26  40
BRANCH  27  51
ATOM     51  C   UNL A   1      40.596  25.876  28.280  1.00  0.00     0.023 A 
ATOM     52  C   UNL A   1      41.649  24.976  28.505  1.00  0.00     0.031 A 
ATOM     53  C   UNL A   1      39.573  25.386  27.408  1.00  0.00     0.131 A 
ATOM     54  C   UNL A   1      41.622  23.675  27.938  1.00  0.00     0.055 A 
ATOM     55  C   UNL A   1      39.521  24.086  26.901  1.00  0.00     0.041 A 
ATOM     56  F   UNL A   1      38.551  26.151  27.001  1.00  0.00    -0.206 F 
ATOM     57  C   UNL A   1      40.548  23.214  27.175  1.00  0.00     0.022 A 
BRANCH  54  58
ATOM     58  S   UNL A   1      42.987  22.504  28.195  1.00  0.00     0.124 S 
ATOM     59  O   UNL A   1      43.326  22.737  29.595  1.00  0.00    -0.237 OA
ATOM     60  O   UNL A   1      42.383  21.211  27.891  1.00  0.00    -0.237 OA
ATOM     61  O   UNL A   1      43.985  22.959  27.228  1.00  0.00    -0.744 OA
ENDBRANCH  54  58
ENDBRANCH  27  51
BRANCH  39  62
ATOM     62  C   UNL A   1      42.122  29.669  32.841  1.00  0.00     0.023 A 
ATOM     63  C   UNL A   1      40.906  30.364  32.979  1.00  0.00     0.031 A 
ATOM     64  C   UNL A   1      42.527  28.909  33.952  1.00  0.00     0.131 A 
ATOM     65  C   UNL A   1      40.171  30.292  34.183  1.00  0.00     0.055 A 
ATOM     66  C   UNL A   1      41.789  28.811  35.135  1.00  0.00     0.041 A 
ATOM     67  F   UNL A   1      43.679  28.245  33.937  1.00  0.00    -0.206 F 
ATOM     68  C   UNL A   1      40.603  29.512  35.257  1.00  0.00     0.022 A 
BRANCH  65  69
ATOM     69  S   UNL A   1      38.623  31.224  34.346  1.00  0.00     0.124 S 
ATOM     70  O   UNL A   1      37.864  30.787  33.179  1.00  0.00    -0.237 OA
ATOM     71  O   UNL A   1      38.117  30.780  35.641  1.00  0.00    -0.237 OA
ATOM     72  O   UNL A   1      39.059  32.621  34.309  1.00  0.00    -0.744 OA
ENDBRANCH  65  69
ENDBRANCH  39  62
ENDBRANCH  13  14
ENDBRANCH   6   8
ENDBRANCH   3   4
ENDBRANCH   2   3
ENDBRANCH   1   2
BRANCH   1  73
ATOM     73  C   UNL A   1      33.154  28.644  27.200  1.00  0.00     0.116 C 
BRANCH  73  74
ATOM     74  N   UNL A   1      33.681  27.781  26.156  1.00  0.00    -0.354 N 
ATOM     75  C   UNL A   1      33.049  27.223  25.083  1.00  0.00     0.249 C 
ATOM     76  H   UNL A   1      34.639  27.569  26.234  1.00  0.00     0.163 HD
ATOM     77  O   UNL A   1      33.734  26.608  24.261  1.00  0.00    -0.272 OA
BRANCH  75  78
ATOM     78  C   UNL A   1      31.527  27.345  24.938  1.00  0.00     0.207 C 
ATOM     79  C   UNL A   1      30.830  26.511  26.002  1.00  0.00     0.045 C 
ATOM     80  O   UNL A   1      31.080  26.862  23.659  1.00  0.00    -0.363 OA
ATOM     81  C   UNL A   1      29.581  26.056  25.290  1.00  0.00     0.037 C 
ATOM     82  C   UNL A   1      30.059  25.871  23.859  1.00  0.00     0.138 C 
BRANCH  82  83
ATOM     83  C   UNL A   1      30.652  24.485  23.569  1.00  0.00     0.148 C 
BRANCH  83  84
ATOM     84  N   UNL A   1      31.727  24.536  22.587  1.00  0.00    -0.348 N 
ATOM     85  C   UNL A   1      32.832  23.745  22.462  1.00  0.00     0.268 C 
ATOM     86  H   UNL A   1      31.645  25.247  21.912  1.00  0.00     0.163 HD
ATOM     87  O   UNL A   1      33.638  24.041  21.555  1.00  0.00    -0.268 OA
BRANCH  85  88
ATOM     88  C   UNL A   1      32.986  22.591  23.299  1.00  0.00     0.107 A 
ATOM     89  C   UNL A   1      32.431  21.332  23.058  1.00  0.00     0.033 A 
ATOM     90  N   UNL A   1      33.762  22.447  24.434  1.00  0.00    -0.340 N 
ATOM     91  C   UNL A   1      32.854  20.442  24.066  1.00  0.00     0.020 A 
ATOM     92  C   UNL A   1      33.688  21.153  24.893  1.00  0.00     0.086 A 
BRANCH  90  93
ATOM     93  C   UNL A   1      34.508  23.431  25.202  1.00  0.00     0.087 C 
ATOM     94  C   UNL A   1      35.613  23.154  26.195  1.00  0.00     0.027 C 
ATOM     95  C   UNL A   1      35.952  23.766  24.880  1.00  0.00     0.027 C 
ENDBRANCH  90  93
ENDBRANCH  85  88
ENDBRANCH  83  84
ENDBRANCH  82  83
ENDBRANCH  75  78
ENDBRANCH  73  74
ENDBRANCH   1  73
TORSDOF 18
ENDMDL
