MODEL 1
REMARK VINA RESULT:     -11.7      0.000      0.000
REMARK SMILES CC[C@@](C)(NC(=O)N1CCC[C@H]1C1CCCC1)C(=O)NCCCCNC(=O)c1ccc(-c2c3nc(c(-c4cc(S(=O)(=O)[O-])ccc4F)c4ccc([nH]4)c(-c4cc(S(=O)(=O)[O-])ccc4F)c4nc(c(-c5cc(S(=O)(=O)[O-])ccc5F)c5ccc2[nH]5)C=C4)C=C3)cc1
REMARK SMILES IDX 22 1 21 2 20 3 18 4 19 5 3 7 4 8 2 9 1 10 5 11 6 12 7 14
REMARK SMILES IDX 8 15 9 16 12 17 10 18 11 19 13 20 14 21 17 22 15 23 16 24
REMARK SMILES IDX 23 25 24 26 25 27 26 28 27 30 28 31 29 32 90 33 30 34 89 35
REMARK SMILES IDX 31 36 32 37 33 38 83 39 34 40 88 41 82 42 84 43 35 44 87 45
REMARK SMILES IDX 81 46 80 47 36 49 68 50 48 51 67 52 49 53 52 54 66 55 85 56
REMARK SMILES IDX 50 57 51 58 65 60 86 61 53 62 37 63 38 64 46 65 39 66 45 67
REMARK SMILES IDX 47 68 44 69 40 70 41 71 42 72 43 73 69 74 70 75 78 76 71 77
REMARK SMILES IDX 77 78 79 79 76 80 72 81 73 82 74 83 75 84 54 85 55 86 63 87
REMARK SMILES IDX 56 88 62 89 64 90 61 91 57 92 58 93 59 94 60 95
REMARK H PARENT 20 6 5 13 25 29 84 48 52 59
REMARK Flexibility Score: inf
ROOT
ATOM      1  C   UNL A   1      33.617  21.064  26.367  1.00  0.00     0.023 C 
ENDROOT
BRANCH   1   2
ATOM      2  C   UNL A   1      32.454  21.792  25.707  1.00  0.00     0.116 C 
BRANCH   2   3
ATOM      3  N   UNL A   1      31.410  22.235  26.612  1.00  0.00    -0.354 N 
ATOM      4  C   UNL A   1      30.757  23.427  26.741  1.00  0.00     0.245 C 
ATOM      5  O   UNL A   1      29.727  23.394  27.424  1.00  0.00    -0.272 OA
ATOM      6  H   UNL A   1      31.118  21.548  27.255  1.00  0.00     0.163 HD
BRANCH   4   7
ATOM      7  C   UNL A   1      31.179  24.710  25.963  1.00  0.00     0.117 C 
ATOM      8  C   UNL A   1      32.735  24.691  25.931  1.00  0.00     0.045 C 
BRANCH   7   9
ATOM      9  C   UNL A   1      30.700  24.759  24.477  1.00  0.00     0.035 C 
ATOM     10  C   UNL A   1      31.764  24.746  23.383  1.00  0.00     0.007 C 
ENDBRANCH   7   9
BRANCH   7  11
ATOM     11  N   UNL A   1      30.748  25.982  26.607  1.00  0.00    -0.324 N 
ATOM     12  C   UNL A   1      31.162  27.268  26.567  1.00  0.00     0.318 C 
ATOM     13  H   UNL A   1      29.976  25.857  27.205  1.00  0.00     0.166 HD
ATOM     14  O   UNL A   1      31.105  27.840  27.660  1.00  0.00    -0.249 OA
BRANCH  12  15
ATOM     15  N   UNL A   1      31.575  27.914  25.442  1.00  0.00    -0.322 N 
ATOM     16  C   UNL A   1      30.792  28.440  24.345  1.00  0.00     0.122 C 
ATOM     17  C   UNL A   1      33.017  28.072  25.141  1.00  0.00     0.090 C 
ATOM     18  C   UNL A   1      31.664  28.303  23.116  1.00  0.00     0.024 C 
ATOM     19  C   UNL A   1      33.079  28.430  23.637  1.00  0.00     0.027 C 
BRANCH  17  20
ATOM     20  C   UNL A   1      33.823  29.143  25.932  1.00  0.00     0.012 C 
ATOM     21  C   UNL A   1      33.013  30.305  26.499  1.00  0.00     0.006 C 
ATOM     22  C   UNL A   1      34.607  28.683  27.162  1.00  0.00     0.006 C 
ATOM     23  C   UNL A   1      33.988  31.034  27.415  1.00  0.00     0.000 C 
ATOM     24  C   UNL A   1      34.966  29.970  27.908  1.00  0.00     0.000 C 
ENDBRANCH  17  20
ENDBRANCH  12  15
ENDBRANCH   7  11
ENDBRANCH   4   7
ENDBRANCH   2   3
ENDBRANCH   1   2
BRANCH   1  25
ATOM     25  C   UNL A   1      34.724  21.952  26.927  1.00  0.00     0.023 C 
BRANCH  25  26
ATOM     26  C   UNL A   1      35.844  22.290  25.964  1.00  0.00     0.116 C 
BRANCH  26  27
ATOM     27  N   UNL A   1      36.786  21.194  25.822  1.00  0.00    -0.352 N 
ATOM     28  C   UNL A   1      38.161  21.193  25.802  1.00  0.00     0.251 C 
ATOM     29  H   UNL A   1      36.372  20.307  25.723  1.00  0.00     0.163 HD
ATOM     30  O   UNL A   1      38.742  20.181  25.417  1.00  0.00    -0.269 OA
BRANCH  28  31
ATOM     31  C   UNL A   1      38.942  22.389  26.211  1.00  0.00     0.039 A 
ATOM     32  C   UNL A   1      40.082  22.217  27.004  1.00  0.00     0.014 A 
ATOM     33  C   UNL A   1      38.540  23.680  25.871  1.00  0.00     0.014 A 
ATOM     34  C   UNL A   1      40.833  23.328  27.403  1.00  0.00     0.010 A 
ATOM     35  C   UNL A   1      39.358  24.769  26.153  1.00  0.00     0.010 A 
ATOM     36  C   UNL A   1      40.497  24.615  26.956  1.00  0.00    -0.014 A 
BRANCH  36  37
ATOM     37  C   UNL A   1      41.265  25.823  27.368  1.00  0.00     0.031 A 
ATOM     38  C   UNL A   1      40.607  26.866  28.241  1.00  0.00     0.074 A 
ATOM     39  C   UNL A   1      42.519  26.021  26.913  1.00  0.00     0.049 A 
ATOM     40  N   UNL A   1      41.043  28.044  28.604  1.00  0.00    -0.248 NA
ATOM     41  C   UNL A   1      39.254  26.556  28.729  1.00  0.00     0.031 C 
ATOM     42  C   UNL A   1      43.252  25.114  26.027  1.00  0.00     0.029 A 
ATOM     43  N   UNL A   1      43.398  27.055  27.125  1.00  0.00    -0.354 N 
ATOM     44  C   UNL A   1      40.009  28.625  29.332  1.00  0.00     0.074 A 
ATOM     45  C   UNL A   1      38.898  27.701  29.290  1.00  0.00     0.031 C 
ATOM     46  C   UNL A   1      44.477  25.615  25.798  1.00  0.00     0.029 A 
ATOM     47  C   UNL A   1      44.601  26.902  26.475  1.00  0.00     0.049 A 
ATOM     48  H   UNL A   1      43.186  27.833  27.689  1.00  0.00     0.167 HD
ATOM     49  C   UNL A   1      39.995  29.803  30.006  1.00  0.00     0.034 A 
ATOM     50  C   UNL A   1      45.677  27.712  26.419  1.00  0.00     0.034 A 
ATOM     51  C   UNL A   1      41.127  30.693  30.074  1.00  0.00     0.049 A 
ATOM     52  C   UNL A   1      45.645  29.015  27.179  1.00  0.00     0.074 A 
ATOM     53  C   UNL A   1      41.249  31.882  30.772  1.00  0.00     0.029 A 
ATOM     54  N   UNL A   1      42.338  30.489  29.425  1.00  0.00    -0.354 N 
ATOM     55  N   UNL A   1      44.671  29.531  27.895  1.00  0.00    -0.248 NA
ATOM     56  C   UNL A   1      46.861  29.837  27.136  1.00  0.00     0.031 C 
ATOM     57  C   UNL A   1      42.509  32.424  30.497  1.00  0.00     0.029 A 
ATOM     58  C   UNL A   1      43.203  31.539  29.688  1.00  0.00     0.049 A 
ATOM     59  H   UNL A   1      42.551  29.712  28.859  1.00  0.00     0.167 HD
ATOM     60  C   UNL A   1      45.170  30.724  28.409  1.00  0.00     0.074 A 
ATOM     61  C   UNL A   1      46.534  30.842  27.937  1.00  0.00     0.031 C 
ATOM     62  C   UNL A   1      44.559  31.641  29.201  1.00  0.00     0.034 A 
BRANCH  49  63
ATOM     63  C   UNL A   1      38.711  30.191  30.705  1.00  0.00     0.023 A 
ATOM     64  C   UNL A   1      37.837  31.151  30.164  1.00  0.00     0.031 A 
ATOM     65  C   UNL A   1      38.373  29.624  31.946  1.00  0.00     0.131 A 
ATOM     66  C   UNL A   1      36.722  31.580  30.901  1.00  0.00     0.055 A 
ATOM     67  C   UNL A   1      37.212  29.989  32.633  1.00  0.00     0.041 A 
ATOM     68  F   UNL A   1      39.174  28.717  32.525  1.00  0.00    -0.206 F 
ATOM     69  C   UNL A   1      36.388  30.987  32.118  1.00  0.00     0.022 A 
BRANCH  66  70
ATOM     70  S   UNL A   1      35.811  33.037  30.318  1.00  0.00     0.124 S 
ATOM     71  O   UNL A   1      36.299  34.071  31.228  1.00  0.00    -0.237 OA
ATOM     72  O   UNL A   1      36.247  33.149  28.931  1.00  0.00    -0.237 OA
ATOM     73  O   UNL A   1      34.410  32.663  30.506  1.00  0.00    -0.744 OA
ENDBRANCH  66  70
ENDBRANCH  49  63
BRANCH  50  74
ATOM     74  C   UNL A   1      46.873  27.328  25.614  1.00  0.00     0.023 A 
ATOM     75  C   UNL A   1      47.031  27.774  24.293  1.00  0.00     0.031 A 
ATOM     76  C   UNL A   1      47.860  26.477  26.144  1.00  0.00     0.131 A 
ATOM     77  C   UNL A   1      48.123  27.332  23.530  1.00  0.00     0.055 A 
ATOM     78  C   UNL A   1      48.974  26.084  25.399  1.00  0.00     0.041 A 
ATOM     79  F   UNL A   1      47.761  26.026  27.405  1.00  0.00    -0.206 F 
ATOM     80  C   UNL A   1      49.101  26.501  24.078  1.00  0.00     0.022 A 
BRANCH  77  81
ATOM     81  S   UNL A   1      48.200  27.792  21.776  1.00  0.00     0.124 S 
ATOM     82  O   UNL A   1      46.909  28.443  21.583  1.00  0.00    -0.237 OA
ATOM     83  O   UNL A   1      49.370  28.664  21.744  1.00  0.00    -0.237 OA
ATOM     84  O   UNL A   1      48.361  26.510  21.095  1.00  0.00    -0.744 OA
ENDBRANCH  77  81
ENDBRANCH  50  74
BRANCH  62  85
ATOM     85  C   UNL A   1      45.384  32.825  29.643  1.00  0.00     0.023 A 
ATOM     86  C   UNL A   1      45.415  34.022  28.906  1.00  0.00     0.031 A 
ATOM     87  C   UNL A   1      46.156  32.748  30.816  1.00  0.00     0.131 A 
ATOM     88  C   UNL A   1      46.245  35.074  29.320  1.00  0.00     0.055 A 
ATOM     89  C   UNL A   1      46.932  33.821  31.255  1.00  0.00     0.041 A 
ATOM     90  F   UNL A   1      46.163  31.629  31.558  1.00  0.00    -0.206 F 
ATOM     91  C   UNL A   1      46.990  34.988  30.499  1.00  0.00     0.022 A 
BRANCH  88  92
ATOM     92  S   UNL A   1      46.409  36.526  28.246  1.00  0.00     0.124 S 
ATOM     93  O   UNL A   1      45.546  36.172  27.123  1.00  0.00    -0.237 OA
ATOM     94  O   UNL A   1      45.928  37.604  29.104  1.00  0.00    -0.237 OA
ATOM     95  O   UNL A   1      47.838  36.568  27.941  1.00  0.00    -0.744 OA
ENDBRANCH  88  92
ENDBRANCH  62  85
ENDBRANCH  36  37
ENDBRANCH  28  31
ENDBRANCH  26  27
ENDBRANCH  25  26
ENDBRANCH   1  25
TORSDOF 18
ENDMDL
MODEL 2
REMARK VINA RESULT:     -11.7      5.513     10.780
REMARK SMILES CC[C@@](C)(NC(=O)N1CCC[C@H]1C1CCCC1)C(=O)NCCCCNC(=O)c1ccc(-c2c3nc(c(-c4cc(S(=O)(=O)[O-])ccc4F)c4ccc([nH]4)c(-c4cc(S(=O)(=O)[O-])ccc4F)c4nc(c(-c5cc(S(=O)(=O)[O-])ccc5F)c5ccc2[nH]5)C=C4)C=C3)cc1
REMARK SMILES IDX 22 1 21 2 20 3 18 4 19 5 3 7 4 8 2 9 1 10 5 11 6 12 7 14
REMARK SMILES IDX 8 15 9 16 12 17 10 18 11 19 13 20 14 21 17 22 15 23 16 24
REMARK SMILES IDX 23 25 24 26 25 27 26 28 27 30 28 31 29 32 90 33 30 34 89 35
REMARK SMILES IDX 31 36 32 37 33 38 83 39 34 40 88 41 82 42 84 43 35 44 87 45
REMARK SMILES IDX 81 46 80 47 36 49 68 50 48 51 67 52 49 53 52 54 66 55 85 56
REMARK SMILES IDX 50 57 51 58 65 60 86 61 53 62 37 63 38 64 46 65 39 66 45 67
REMARK SMILES IDX 47 68 44 69 40 70 41 71 42 72 43 73 69 74 70 75 78 76 71 77
REMARK SMILES IDX 77 78 79 79 76 80 72 81 73 82 74 83 75 84 54 85 55 86 63 87
REMARK SMILES IDX 56 88 62 89 64 90 61 91 57 92 58 93 59 94 60 95
REMARK H PARENT 20 6 5 13 25 29 84 48 52 59
REMARK Flexibility Score: inf
ROOT
ATOM      1  C   UNL A   1      31.392  30.890  25.736  1.00  0.00     0.023 C 
ENDROOT
BRANCH   1   2
ATOM      2  C   UNL A   1      32.554  29.907  25.794  1.00  0.00     0.116 C 
BRANCH   2   3
ATOM      3  N   UNL A   1      33.210  29.651  24.525  1.00  0.00    -0.354 N 
ATOM      4  C   UNL A   1      33.372  28.510  23.795  1.00  0.00     0.245 C 
ATOM      5  O   UNL A   1      33.735  28.679  22.625  1.00  0.00    -0.272 OA
ATOM      6  H   UNL A   1      33.614  30.450  24.115  1.00  0.00     0.163 HD
BRANCH   4   7
ATOM      7  C   UNL A   1      32.983  27.099  24.332  1.00  0.00     0.117 C 
ATOM      8  C   UNL A   1      33.784  26.916  25.653  1.00  0.00     0.045 C 
BRANCH   7   9
ATOM      9  C   UNL A   1      31.473  26.933  24.695  1.00  0.00     0.035 C 
ATOM     10  C   UNL A   1      31.117  26.633  26.147  1.00  0.00     0.007 C 
ENDBRANCH   7   9
BRANCH   7  11
ATOM     11  N   UNL A   1      33.342  25.979  23.418  1.00  0.00    -0.324 N 
ATOM     12  C   UNL A   1      33.648  24.672  23.574  1.00  0.00     0.318 C 
ATOM     13  H   UNL A   1      33.363  26.258  22.473  1.00  0.00     0.166 HD
ATOM     14  O   UNL A   1      34.537  24.278  22.812  1.00  0.00    -0.249 OA
BRANCH  12  15
ATOM     15  N   UNL A   1      33.031  23.832  24.449  1.00  0.00    -0.322 N 
ATOM     16  C   UNL A   1      31.760  23.151  24.328  1.00  0.00     0.122 C 
ATOM     17  C   UNL A   1      33.601  23.581  25.794  1.00  0.00     0.090 C 
ATOM     18  C   UNL A   1      31.214  23.051  25.736  1.00  0.00     0.024 C 
ATOM     19  C   UNL A   1      32.442  22.970  26.616  1.00  0.00     0.027 C 
BRANCH  17  20
ATOM     20  C   UNL A   1      34.833  22.636  25.907  1.00  0.00     0.012 C 
ATOM     21  C   UNL A   1      34.876  21.471  24.924  1.00  0.00     0.006 C 
ATOM     22  C   UNL A   1      36.222  23.248  25.724  1.00  0.00     0.006 C 
ATOM     23  C   UNL A   1      36.273  20.889  25.088  1.00  0.00     0.000 C 
ATOM     24  C   UNL A   1      37.158  22.054  25.524  1.00  0.00     0.000 C 
ENDBRANCH  17  20
ENDBRANCH  12  15
ENDBRANCH   7  11
ENDBRANCH   4   7
ENDBRANCH   2   3
ENDBRANCH   1   2
BRANCH   1  25
ATOM     25  C   UNL A   1      31.389  31.978  26.805  1.00  0.00     0.023 C 
BRANCH  25  26
ATOM     26  C   UNL A   1      32.737  32.594  27.119  1.00  0.00     0.116 C 
BRANCH  26  27
ATOM     27  N   UNL A   1      32.613  33.964  27.583  1.00  0.00    -0.352 N 
ATOM     28  C   UNL A   1      33.221  34.612  28.633  1.00  0.00     0.251 C 
ATOM     29  H   UNL A   1      31.991  34.520  27.061  1.00  0.00     0.163 HD
ATOM     30  O   UNL A   1      32.774  35.698  28.991  1.00  0.00    -0.269 OA
BRANCH  28  31
ATOM     31  C   UNL A   1      34.380  34.013  29.345  1.00  0.00     0.039 A 
ATOM     32  C   UNL A   1      35.673  34.415  28.995  1.00  0.00     0.014 A 
ATOM     33  C   UNL A   1      34.215  33.025  30.314  1.00  0.00     0.014 A 
ATOM     34  C   UNL A   1      36.781  33.865  29.650  1.00  0.00     0.010 A 
ATOM     35  C   UNL A   1      35.304  32.578  31.056  1.00  0.00     0.010 A 
ATOM     36  C   UNL A   1      36.607  32.963  30.711  1.00  0.00    -0.014 A 
BRANCH  36  37
ATOM     37  C   UNL A   1      37.760  32.347  31.425  1.00  0.00     0.031 A 
ATOM     38  C   UNL A   1      38.521  31.213  30.778  1.00  0.00     0.074 A 
ATOM     39  C   UNL A   1      38.086  32.753  32.669  1.00  0.00     0.049 A 
ATOM     40  N   UNL A   1      39.463  30.453  31.274  1.00  0.00    -0.248 NA
ATOM     41  C   UNL A   1      38.131  30.858  29.405  1.00  0.00     0.031 C 
ATOM     42  C   UNL A   1      37.403  33.806  33.423  1.00  0.00     0.029 A 
ATOM     43  N   UNL A   1      39.070  32.322  33.524  1.00  0.00    -0.354 N 
ATOM     44  C   UNL A   1      39.753  29.515  30.287  1.00  0.00     0.074 A 
ATOM     45  C   UNL A   1      38.831  29.754  29.200  1.00  0.00     0.031 C 
ATOM     46  C   UNL A   1      38.007  33.960  34.612  1.00  0.00     0.029 A 
ATOM     47  C   UNL A   1      39.085  32.984  34.731  1.00  0.00     0.049 A 
ATOM     48  H   UNL A   1      39.704  31.605  33.295  1.00  0.00     0.167 HD
ATOM     49  C   UNL A   1      40.721  28.564  30.271  1.00  0.00     0.034 A 
ATOM     50  C   UNL A   1      39.870  32.815  35.814  1.00  0.00     0.034 A 
ATOM     51  C   UNL A   1      41.661  28.367  31.346  1.00  0.00     0.049 A 
ATOM     52  C   UNL A   1      40.944  31.756  35.774  1.00  0.00     0.074 A 
ATOM     53  C   UNL A   1      42.718  27.476  31.417  1.00  0.00     0.029 A 
ATOM     54  N   UNL A   1      41.660  29.077  32.540  1.00  0.00    -0.354 N 
ATOM     55  N   UNL A   1      41.229  30.902  34.817  1.00  0.00    -0.248 NA
ATOM     56  C   UNL A   1      41.811  31.649  36.955  1.00  0.00     0.031 C 
ATOM     57  C   UNL A   1      43.318  27.607  32.673  1.00  0.00     0.029 A 
ATOM     58  C   UNL A   1      42.684  28.630  33.361  1.00  0.00     0.049 A 
ATOM     59  H   UNL A   1      41.026  29.793  32.771  1.00  0.00     0.167 HD
ATOM     60  C   UNL A   1      42.326  30.177  35.271  1.00  0.00     0.074 A 
ATOM     61  C   UNL A   1      42.662  30.705  36.577  1.00  0.00     0.031 C 
ATOM     62  C   UNL A   1      42.999  29.166  34.664  1.00  0.00     0.034 A 
BRANCH  49  63
ATOM     63  C   UNL A   1      40.793  27.664  29.057  1.00  0.00     0.023 A 
ATOM     64  C   UNL A   1      41.752  27.861  28.047  1.00  0.00     0.031 A 
ATOM     65  C   UNL A   1      39.868  26.619  28.885  1.00  0.00     0.131 A 
ATOM     66  C   UNL A   1      41.708  27.090  26.876  1.00  0.00     0.055 A 
ATOM     67  C   UNL A   1      39.887  25.795  27.757  1.00  0.00     0.041 A 
ATOM     68  F   UNL A   1      38.915  26.390  29.802  1.00  0.00    -0.206 F 
ATOM     69  C   UNL A   1      40.800  26.040  26.735  1.00  0.00     0.022 A 
BRANCH  66  70
ATOM     70  S   UNL A   1      42.748  27.588  25.475  1.00  0.00     0.124 S 
ATOM     71  O   UNL A   1      42.800  26.353  24.695  1.00  0.00    -0.237 OA
ATOM     72  O   UNL A   1      41.984  28.682  24.887  1.00  0.00    -0.237 OA
ATOM     73  O   UNL A   1      44.010  27.973  26.105  1.00  0.00    -0.744 OA
ENDBRANCH  66  70
ENDBRANCH  49  63
BRANCH  50  74
ATOM     74  C   UNL A   1      39.673  33.656  37.030  1.00  0.00     0.023 A 
ATOM     75  C   UNL A   1      39.103  33.122  38.196  1.00  0.00     0.031 A 
ATOM     76  C   UNL A   1      40.018  35.020  37.031  1.00  0.00     0.131 A 
ATOM     77  C   UNL A   1      38.852  33.955  39.298  1.00  0.00     0.055 A 
ATOM     78  C   UNL A   1      39.818  35.832  38.150  1.00  0.00     0.041 A 
ATOM     79  F   UNL A   1      40.573  35.581  35.944  1.00  0.00    -0.206 F 
ATOM     80  C   UNL A   1      39.217  35.302  39.287  1.00  0.00     0.022 A 
BRANCH  77  81
ATOM     81  S   UNL A   1      37.958  33.267  40.720  1.00  0.00     0.124 S 
ATOM     82  O   UNL A   1      38.614  31.976  40.886  1.00  0.00    -0.237 OA
ATOM     83  O   UNL A   1      38.225  34.261  41.754  1.00  0.00    -0.237 OA
ATOM     84  O   UNL A   1      36.574  33.210  40.256  1.00  0.00    -0.744 OA
ENDBRANCH  77  81
ENDBRANCH  50  74
BRANCH  62  85
ATOM     85  C   UNL A   1      44.194  28.602  35.393  1.00  0.00     0.023 A 
ATOM     86  C   UNL A   1      44.071  27.544  36.310  1.00  0.00     0.031 A 
ATOM     87  C   UNL A   1      45.474  29.141  35.170  1.00  0.00     0.131 A 
ATOM     88  C   UNL A   1      45.199  27.095  37.011  1.00  0.00     0.055 A 
ATOM     89  C   UNL A   1      46.602  28.648  35.826  1.00  0.00     0.041 A 
ATOM     90  F   UNL A   1      45.649  30.154  34.305  1.00  0.00    -0.206 F 
ATOM     91  C   UNL A   1      46.467  27.628  36.763  1.00  0.00     0.022 A 
BRANCH  88  92
ATOM     92  S   UNL A   1      44.973  25.862  38.323  1.00  0.00     0.124 S 
ATOM     93  O   UNL A   1      44.199  24.831  37.640  1.00  0.00    -0.237 OA
ATOM     94  O   UNL A   1      46.349  25.509  38.659  1.00  0.00    -0.237 OA
ATOM     95  O   UNL A   1      44.250  26.595  39.361  1.00  0.00    -0.744 OA
ENDBRANCH  88  92
ENDBRANCH  62  85
ENDBRANCH  36  37
ENDBRANCH  28  31
ENDBRANCH  26  27
ENDBRANCH  25  26
ENDBRANCH   1  25
TORSDOF 18
ENDMDL
MODEL 3
REMARK VINA RESULT:     -11.6      4.889     10.055
REMARK SMILES CC[C@@](C)(NC(=O)N1CCC[C@H]1C1CCCC1)C(=O)NCCCCNC(=O)c1ccc(-c2c3nc(c(-c4cc(S(=O)(=O)[O-])ccc4F)c4ccc([nH]4)c(-c4cc(S(=O)(=O)[O-])ccc4F)c4nc(c(-c5cc(S(=O)(=O)[O-])ccc5F)c5ccc2[nH]5)C=C4)C=C3)cc1
REMARK SMILES IDX 22 1 21 2 20 3 18 4 19 5 3 7 4 8 2 9 1 10 5 11 6 12 7 14
REMARK SMILES IDX 8 15 9 16 12 17 10 18 11 19 13 20 14 21 17 22 15 23 16 24
REMARK SMILES IDX 23 25 24 26 25 27 26 28 27 30 28 31 29 32 90 33 30 34 89 35
REMARK SMILES IDX 31 36 32 37 33 38 83 39 34 40 88 41 82 42 84 43 35 44 87 45
REMARK SMILES IDX 81 46 80 47 36 49 68 50 48 51 67 52 49 53 52 54 66 55 85 56
REMARK SMILES IDX 50 57 51 58 65 60 86 61 53 62 37 63 38 64 46 65 39 66 45 67
REMARK SMILES IDX 47 68 44 69 40 70 41 71 42 72 43 73 69 74 70 75 78 76 71 77
REMARK SMILES IDX 77 78 79 79 76 80 72 81 73 82 74 83 75 84 54 85 55 86 63 87
REMARK SMILES IDX 56 88 62 89 64 90 61 91 57 92 58 93 59 94 60 95
REMARK H PARENT 20 6 5 13 25 29 84 48 52 59
REMARK Flexibility Score: inf
ROOT
ATOM      1  C   UNL A   1      33.851  27.896  22.712  1.00  0.00     0.023 C 
ENDROOT
BRANCH   1   2
ATOM      2  C   UNL A   1      32.995  26.859  21.996  1.00  0.00     0.116 C 
BRANCH   2   3
ATOM      3  N   UNL A   1      31.640  26.724  22.498  1.00  0.00    -0.354 N 
ATOM      4  C   UNL A   1      31.088  25.886  23.423  1.00  0.00     0.245 C 
ATOM      5  O   UNL A   1      29.965  26.213  23.827  1.00  0.00    -0.272 OA
ATOM      6  H   UNL A   1      30.999  27.353  22.094  1.00  0.00     0.163 HD
BRANCH   4   7
ATOM      7  C   UNL A   1      31.865  24.689  24.051  1.00  0.00     0.117 C 
ATOM      8  C   UNL A   1      32.787  25.311  25.138  1.00  0.00     0.045 C 
BRANCH   7   9
ATOM      9  C   UNL A   1      30.966  23.635  24.773  1.00  0.00     0.035 C 
ATOM     10  C   UNL A   1      30.716  23.815  26.267  1.00  0.00     0.007 C 
ENDBRANCH   7   9
BRANCH   7  11
ATOM     11  N   UNL A   1      32.725  23.949  23.086  1.00  0.00    -0.324 N 
ATOM     12  C   UNL A   1      33.819  23.162  23.182  1.00  0.00     0.318 C 
ATOM     13  H   UNL A   1      32.424  24.059  22.155  1.00  0.00     0.166 HD
ATOM     14  O   UNL A   1      34.631  23.331  22.267  1.00  0.00    -0.249 OA
BRANCH  12  15
ATOM     15  N   UNL A   1      34.023  22.237  24.159  1.00  0.00    -0.322 N 
ATOM     16  C   UNL A   1      33.513  20.887  24.267  1.00  0.00     0.122 C 
ATOM     17  C   UNL A   1      34.780  22.579  25.386  1.00  0.00     0.090 C 
ATOM     18  C   UNL A   1      33.351  20.629  25.749  1.00  0.00     0.024 C 
ATOM     19  C   UNL A   1      34.425  21.469  26.403  1.00  0.00     0.027 C 
BRANCH  17  20
ATOM     20  C   UNL A   1      36.331  22.679  25.293  1.00  0.00     0.012 C 
ATOM     21  C   UNL A   1      36.996  23.672  26.241  1.00  0.00     0.006 C 
ATOM     22  C   UNL A   1      37.146  21.412  25.550  1.00  0.00     0.006 C 
ATOM     23  C   UNL A   1      38.484  23.377  26.115  1.00  0.00     0.000 C 
ATOM     24  C   UNL A   1      38.583  21.898  25.751  1.00  0.00     0.000 C 
ENDBRANCH  17  20
ENDBRANCH  12  15
ENDBRANCH   7  11
ENDBRANCH   4   7
ENDBRANCH   2   3
ENDBRANCH   1   2
BRANCH   1  25
ATOM     25  C   UNL A   1      33.090  29.034  23.384  1.00  0.00     0.023 C 
BRANCH  25  26
ATOM     26  C   UNL A   1      33.214  29.105  24.893  1.00  0.00     0.116 C 
BRANCH  26  27
ATOM     27  N   UNL A   1      32.561  30.283  25.436  1.00  0.00    -0.352 N 
ATOM     28  C   UNL A   1      32.799  30.983  26.595  1.00  0.00     0.251 C 
ATOM     29  H   UNL A   1      31.827  30.637  24.884  1.00  0.00     0.163 HD
ATOM     30  O   UNL A   1      31.958  31.795  26.974  1.00  0.00    -0.269 OA
BRANCH  28  31
ATOM     31  C   UNL A   1      34.029  30.757  27.397  1.00  0.00     0.039 A 
ATOM     32  C   UNL A   1      34.886  31.835  27.644  1.00  0.00     0.014 A 
ATOM     33  C   UNL A   1      34.378  29.492  27.866  1.00  0.00     0.014 A 
ATOM     34  C   UNL A   1      36.052  31.647  28.395  1.00  0.00     0.010 A 
ATOM     35  C   UNL A   1      35.463  29.332  28.723  1.00  0.00     0.010 A 
ATOM     36  C   UNL A   1      36.337  30.399  28.970  1.00  0.00    -0.014 A 
BRANCH  36  37
ATOM     37  C   UNL A   1      37.573  30.157  29.767  1.00  0.00     0.031 A 
ATOM     38  C   UNL A   1      38.680  29.308  29.188  1.00  0.00     0.074 A 
ATOM     39  C   UNL A   1      37.679  30.638  31.022  1.00  0.00     0.049 A 
ATOM     40  N   UNL A   1      39.773  28.865  29.756  1.00  0.00    -0.248 NA
ATOM     41  C   UNL A   1      38.507  28.857  27.799  1.00  0.00     0.031 C 
ATOM     42  C   UNL A   1      36.662  31.434  31.713  1.00  0.00     0.029 A 
ATOM     43  N   UNL A   1      38.689  30.521  31.945  1.00  0.00    -0.354 N 
ATOM     44  C   UNL A   1      40.396  28.061  28.805  1.00  0.00     0.074 A 
ATOM     45  C   UNL A   1      39.518  28.015  27.657  1.00  0.00     0.031 C 
ATOM     46  C   UNL A   1      37.113  31.758  32.936  1.00  0.00     0.029 A 
ATOM     47  C   UNL A   1      38.424  31.152  33.139  1.00  0.00     0.049 A 
ATOM     48  H   UNL A   1      39.523  30.029  31.769  1.00  0.00     0.167 HD
ATOM     49  C   UNL A   1      41.604  27.446  28.866  1.00  0.00     0.034 A 
ATOM     50  C   UNL A   1      39.150  31.224  34.273  1.00  0.00     0.034 A 
ATOM     51  C   UNL A   1      42.486  27.538  30.003  1.00  0.00     0.049 A 
ATOM     52  C   UNL A   1      40.493  30.538  34.319  1.00  0.00     0.074 A 
ATOM     53  C   UNL A   1      43.756  27.007  30.155  1.00  0.00     0.029 A 
ATOM     54  N   UNL A   1      42.194  28.210  31.182  1.00  0.00    -0.354 N 
ATOM     55  N   UNL A   1      41.084  29.813  33.396  1.00  0.00    -0.248 NA
ATOM     56  C   UNL A   1      41.273  30.692  35.554  1.00  0.00     0.031 C 
ATOM     57  C   UNL A   1      44.204  27.308  31.445  1.00  0.00     0.029 A 
ATOM     58  C   UNL A   1      43.248  28.090  32.073  1.00  0.00     0.049 A 
ATOM     59  H   UNL A   1      41.359  28.701  31.360  1.00  0.00     0.167 HD
ATOM     60  C   UNL A   1      42.317  29.450  33.931  1.00  0.00     0.074 A 
ATOM     61  C   UNL A   1      42.391  30.050  35.248  1.00  0.00     0.031 C 
ATOM     62  C   UNL A   1      43.301  28.691  33.386  1.00  0.00     0.034 A 
BRANCH  49  63
ATOM     63  C   UNL A   1      42.023  26.614  27.675  1.00  0.00     0.023 A 
ATOM     64  C   UNL A   1      41.842  25.219  27.646  1.00  0.00     0.031 A 
ATOM     65  C   UNL A   1      42.648  27.215  26.567  1.00  0.00     0.131 A 
ATOM     66  C   UNL A   1      42.359  24.465  26.582  1.00  0.00     0.055 A 
ATOM     67  C   UNL A   1      43.078  26.468  25.468  1.00  0.00     0.041 A 
ATOM     68  F   UNL A   1      42.868  28.538  26.540  1.00  0.00    -0.206 F 
ATOM     69  C   UNL A   1      42.951  25.081  25.480  1.00  0.00     0.022 A 
BRANCH  66  70
ATOM     70  S   UNL A   1      42.389  22.658  26.740  1.00  0.00     0.124 S 
ATOM     71  O   UNL A   1      43.784  22.418  27.103  1.00  0.00    -0.237 OA
ATOM     72  O   UNL A   1      41.406  22.415  27.789  1.00  0.00    -0.237 OA
ATOM     73  O   UNL A   1      42.011  22.191  25.407  1.00  0.00    -0.744 OA
ENDBRANCH  66  70
ENDBRANCH  49  63
BRANCH  50  74
ATOM     74  C   UNL A   1      38.630  31.962  35.459  1.00  0.00     0.023 A 
ATOM     75  C   UNL A   1      38.155  31.277  36.588  1.00  0.00     0.031 A 
ATOM     76  C   UNL A   1      38.565  33.367  35.467  1.00  0.00     0.131 A 
ATOM     77  C   UNL A   1      37.594  31.992  37.658  1.00  0.00     0.055 A 
ATOM     78  C   UNL A   1      38.056  34.077  36.557  1.00  0.00     0.041 A 
ATOM     79  F   UNL A   1      39.011  34.073  34.416  1.00  0.00    -0.206 F 
ATOM     80  C   UNL A   1      37.554  33.387  37.655  1.00  0.00     0.022 A 
BRANCH  77  81
ATOM     81  S   UNL A   1      36.836  31.064  39.021  1.00  0.00     0.124 S 
ATOM     82  O   UNL A   1      37.792  31.287  40.100  1.00  0.00    -0.237 OA
ATOM     83  O   UNL A   1      35.545  31.730  39.159  1.00  0.00    -0.237 OA
ATOM     84  O   UNL A   1      36.778  29.696  38.510  1.00  0.00    -0.744 OA
ENDBRANCH  77  81
ENDBRANCH  50  74
BRANCH  62  85
ATOM     85  C   UNL A   1      44.560  28.511  34.198  1.00  0.00     0.023 A 
ATOM     86  C   UNL A   1      44.754  27.390  35.023  1.00  0.00     0.031 A 
ATOM     87  C   UNL A   1      45.574  29.484  34.150  1.00  0.00     0.131 A 
ATOM     88  C   UNL A   1      45.912  27.295  35.809  1.00  0.00     0.055 A 
ATOM     89  C   UNL A   1      46.751  29.353  34.888  1.00  0.00     0.041 A 
ATOM     90  F   UNL A   1      45.440  30.575  33.380  1.00  0.00    -0.206 F 
ATOM     91  C   UNL A   1      46.919  28.261  35.734  1.00  0.00     0.022 A 
BRANCH  88  92
ATOM     92  S   UNL A   1      46.044  25.936  37.002  1.00  0.00     0.124 S 
ATOM     93  O   UNL A   1      44.735  25.969  37.647  1.00  0.00    -0.237 OA
ATOM     94  O   UNL A   1      46.301  24.787  36.140  1.00  0.00    -0.237 OA
ATOM     95  O   UNL A   1      47.164  26.334  37.854  1.00  0.00    -0.744 OA
ENDBRANCH  88  92
ENDBRANCH  62  85
ENDBRANCH  36  37
ENDBRANCH  28  31
ENDBRANCH  26  27
ENDBRANCH  25  26
ENDBRANCH   1  25
TORSDOF 18
ENDMDL
