MODEL 1
REMARK VINA RESULT:     -13.4      0.000      0.000
REMARK SMILES Cc1cc(C(=O)NCCCCNC(=O)c2ccc(-c3c4nc(c(-c5cc(S(=O)(=O)[O-])ccc5F)c5ccc([nH]5)c(-c5cc(S(=O)(=O)[O-])ccc5F)c5nc(c(-c6cc(S(=O)(=O)[O-])ccc6F)c6ccc3[nH]6)C=C5)C=C4)cc2)ccc1NS(=O)(=O)c1c(F)cccc1F
REMARK SMILES IDX 9 1 8 2 7 3 5 4 6 5 4 7 1 8 2 9 3 10 80 11 79 12 78 13 81 14
REMARK SMILES IDX 82 16 83 17 84 18 85 19 86 20 91 21 87 22 88 23 90 24 92 25
REMARK SMILES IDX 89 26 10 27 11 28 12 29 13 30 14 32 15 33 16 34 77 35 17 36
REMARK SMILES IDX 76 37 18 38 19 39 20 40 70 41 21 42 75 43 69 44 71 45 22 46
REMARK SMILES IDX 74 47 68 48 67 49 23 51 55 52 35 53 54 54 36 55 39 56 53 57
REMARK SMILES IDX 72 58 37 59 38 60 52 62 73 63 40 64 24 65 25 66 33 67 26 68
REMARK SMILES IDX 32 69 34 70 31 71 27 72 28 73 29 74 30 75 56 76 57 77 65 78
REMARK SMILES IDX 58 79 64 80 66 81 63 82 59 83 60 84 61 85 62 86 41 87 42 88
REMARK SMILES IDX 50 89 43 90 49 91 51 92 48 93 44 94 45 95 46 96 47 97
REMARK H PARENT 7 6 81 15 12 31 71 50 39 61
REMARK Flexibility Score: inf
ROOT
ATOM      1  C   UNL A   1      37.104  21.481  24.726  1.00  0.00     0.023 C 
ENDROOT
BRANCH   1   2
ATOM      2  C   UNL A   1      35.841  21.222  25.559  1.00  0.00     0.116 C 
BRANCH   2   3
ATOM      3  N   UNL A   1      35.092  20.032  25.153  1.00  0.00    -0.352 N 
ATOM      4  C   UNL A   1      33.825  19.837  24.653  1.00  0.00     0.251 C 
ATOM      5  O   UNL A   1      33.448  18.680  24.461  1.00  0.00    -0.269 OA
ATOM      6  H   UNL A   1      35.600  19.197  25.260  1.00  0.00     0.163 HD
BRANCH   4   7
ATOM      7  C   UNL A   1      32.858  20.944  24.429  1.00  0.00     0.040 A 
ATOM      8  C   UNL A   1      30.677  23.104  26.668  1.00  0.00     0.046 C 
ATOM      9  C   UNL A   1      31.447  22.651  25.458  1.00  0.00    -0.026 A 
ATOM     10  C   UNL A   1      32.219  21.483  25.555  1.00  0.00     0.019 A 
ATOM     11  C   UNL A   1      31.403  23.325  24.228  1.00  0.00     0.052 A 
ATOM     12  C   UNL A   1      31.775  22.634  23.075  1.00  0.00     0.028 A 
ATOM     13  C   UNL A   1      32.508  21.443  23.177  1.00  0.00     0.016 A 
BRANCH  11  14
ATOM     14  N   UNL A   1      31.121  24.725  24.265  1.00  0.00    -0.279 N 
ATOM     15  H   UNL A   1      30.236  24.981  24.611  1.00  0.00     0.180 HD
BRANCH  14  16
ATOM     16  S   UNL A   1      32.118  25.984  23.785  1.00  0.00     0.267 S 
ATOM     17  O   UNL A   1      33.407  25.375  23.501  1.00  0.00    -0.201 OA
ATOM     18  O   UNL A   1      31.382  26.673  22.756  1.00  0.00    -0.201 OA
BRANCH  16  19
ATOM     19  C   UNL A   1      32.320  27.110  25.110  1.00  0.00     0.158 A 
ATOM     20  C   UNL A   1      33.466  27.898  25.119  1.00  0.00     0.146 A 
ATOM     21  C   UNL A   1      31.455  27.148  26.196  1.00  0.00     0.146 A 
ATOM     22  F   UNL A   1      34.267  27.970  24.048  1.00  0.00    -0.205 F 
ATOM     23  C   UNL A   1      33.804  28.643  26.243  1.00  0.00     0.041 A 
ATOM     24  C   UNL A   1      31.799  27.865  27.339  1.00  0.00     0.041 A 
ATOM     25  F   UNL A   1      30.297  26.475  26.193  1.00  0.00    -0.205 F 
ATOM     26  C   UNL A   1      32.985  28.597  27.366  1.00  0.00     0.006 A 
ENDBRANCH  16  19
ENDBRANCH  14  16
ENDBRANCH  11  14
ENDBRANCH   4   7
ENDBRANCH   2   3
ENDBRANCH   1   2
BRANCH   1  27
ATOM     27  C   UNL A   1      38.435  21.419  25.480  1.00  0.00     0.023 C 
BRANCH  27  28
ATOM     28  C   UNL A   1      38.785  22.676  26.271  1.00  0.00     0.116 C 
BRANCH  28  29
ATOM     29  N   UNL A   1      40.177  22.787  26.718  1.00  0.00    -0.352 N 
ATOM     30  C   UNL A   1      40.888  23.925  27.047  1.00  0.00     0.251 C 
ATOM     31  H   UNL A   1      40.671  21.938  26.794  1.00  0.00     0.163 HD
ATOM     32  O   UNL A   1      42.091  23.884  27.275  1.00  0.00    -0.269 OA
BRANCH  30  33
ATOM     33  C   UNL A   1      40.155  25.204  27.234  1.00  0.00     0.039 A 
ATOM     34  C   UNL A   1      40.517  26.290  26.428  1.00  0.00     0.014 A 
ATOM     35  C   UNL A   1      39.332  25.394  28.341  1.00  0.00     0.014 A 
ATOM     36  C   UNL A   1      40.278  27.584  26.881  1.00  0.00     0.010 A 
ATOM     37  C   UNL A   1      39.191  26.671  28.845  1.00  0.00     0.010 A 
ATOM     38  C   UNL A   1      39.735  27.760  28.154  1.00  0.00    -0.014 A 
BRANCH  38  39
ATOM     39  C   UNL A   1      39.893  28.991  28.922  1.00  0.00     0.031 A 
ATOM     40  C   UNL A   1      38.874  30.061  28.884  1.00  0.00     0.074 A 
ATOM     41  C   UNL A   1      40.954  29.118  29.748  1.00  0.00     0.049 A 
ATOM     42  N   UNL A   1      39.090  31.292  29.209  1.00  0.00    -0.248 NA
ATOM     43  C   UNL A   1      37.514  29.826  28.419  1.00  0.00     0.031 C 
ATOM     44  C   UNL A   1      41.149  30.102  30.811  1.00  0.00     0.029 A 
ATOM     45  N   UNL A   1      42.182  28.490  29.677  1.00  0.00    -0.354 N 
ATOM     46  C   UNL A   1      37.869  31.922  29.308  1.00  0.00     0.074 A 
ATOM     47  C   UNL A   1      36.936  30.995  28.713  1.00  0.00     0.031 C 
ATOM     48  C   UNL A   1      42.461  30.185  31.092  1.00  0.00     0.029 A 
ATOM     49  C   UNL A   1      43.165  29.378  30.110  1.00  0.00     0.049 A 
ATOM     50  H   UNL A   1      42.338  27.567  29.372  1.00  0.00     0.167 HD
ATOM     51  C   UNL A   1      37.771  33.083  30.022  1.00  0.00     0.034 A 
ATOM     52  C   UNL A   1      44.133  29.850  29.267  1.00  0.00     0.034 A 
ATOM     53  C   UNL A   1      39.091  33.559  30.454  1.00  0.00     0.049 A 
ATOM     54  C   UNL A   1      44.107  31.358  29.097  1.00  0.00     0.074 A 
ATOM     55  C   UNL A   1      39.754  33.530  31.670  1.00  0.00     0.029 A 
ATOM     56  N   UNL A   1      40.038  33.927  29.502  1.00  0.00    -0.354 N 
ATOM     57  N   UNL A   1      43.091  32.115  29.409  1.00  0.00    -0.248 NA
ATOM     58  C   UNL A   1      45.218  32.126  28.540  1.00  0.00     0.031 C 
ATOM     59  C   UNL A   1      41.125  33.814  31.431  1.00  0.00     0.029 A 
ATOM     60  C   UNL A   1      41.289  34.049  30.077  1.00  0.00     0.049 A 
ATOM     61  H   UNL A   1      39.843  34.082  28.549  1.00  0.00     0.167 HD
ATOM     62  C   UNL A   1      43.369  33.421  29.092  1.00  0.00     0.074 A 
ATOM     63  C   UNL A   1      44.727  33.377  28.576  1.00  0.00     0.031 C 
ATOM     64  C   UNL A   1      42.448  34.418  29.270  1.00  0.00     0.034 A 
BRANCH  51  65
ATOM     65  C   UNL A   1      36.471  33.608  30.613  1.00  0.00     0.023 A 
ATOM     66  C   UNL A   1      35.515  34.200  29.756  1.00  0.00     0.031 A 
ATOM     67  C   UNL A   1      36.133  33.634  31.979  1.00  0.00     0.131 A 
ATOM     68  C   UNL A   1      34.386  34.878  30.259  1.00  0.00     0.055 A 
ATOM     69  C   UNL A   1      35.044  34.357  32.488  1.00  0.00     0.041 A 
ATOM     70  F   UNL A   1      36.798  32.912  32.887  1.00  0.00    -0.206 F 
ATOM     71  C   UNL A   1      34.171  35.000  31.627  1.00  0.00     0.022 A 
BRANCH  68  72
ATOM     72  S   UNL A   1      33.197  35.605  29.097  1.00  0.00     0.124 S 
ATOM     73  O   UNL A   1      32.277  36.301  29.991  1.00  0.00    -0.237 OA
ATOM     74  O   UNL A   1      34.053  36.444  28.267  1.00  0.00    -0.237 OA
ATOM     75  O   UNL A   1      32.633  34.440  28.417  1.00  0.00    -0.744 OA
ENDBRANCH  68  72
ENDBRANCH  51  65
BRANCH  52  76
ATOM     76  C   UNL A   1      44.533  28.882  28.204  1.00  0.00     0.023 A 
ATOM     77  C   UNL A   1      45.328  27.784  28.594  1.00  0.00     0.031 A 
ATOM     78  C   UNL A   1      43.881  28.809  26.966  1.00  0.00     0.131 A 
ATOM     79  C   UNL A   1      45.322  26.604  27.838  1.00  0.00     0.055 A 
ATOM     80  C   UNL A   1      43.936  27.650  26.180  1.00  0.00     0.041 A 
ATOM     81  F   UNL A   1      43.085  29.806  26.552  1.00  0.00    -0.206 F 
ATOM     82  C   UNL A   1      44.627  26.526  26.632  1.00  0.00     0.022 A 
BRANCH  79  83
ATOM     83  S   UNL A   1      46.055  25.125  28.583  1.00  0.00     0.124 S 
ATOM     84  O   UNL A   1      46.508  24.384  27.411  1.00  0.00    -0.237 OA
ATOM     85  O   UNL A   1      47.118  25.689  29.415  1.00  0.00    -0.237 OA
ATOM     86  O   UNL A   1      44.956  24.515  29.322  1.00  0.00    -0.744 OA
ENDBRANCH  79  83
ENDBRANCH  52  76
BRANCH  64  87
ATOM     87  C   UNL A   1      42.574  35.848  28.780  1.00  0.00     0.023 A 
ATOM     88  C   UNL A   1      43.140  36.884  29.538  1.00  0.00     0.031 A 
ATOM     89  C   UNL A   1      42.189  36.200  27.461  1.00  0.00     0.131 A 
ATOM     90  C   UNL A   1      43.228  38.196  29.033  1.00  0.00     0.055 A 
ATOM     91  C   UNL A   1      42.352  37.485  26.933  1.00  0.00     0.041 A 
ATOM     92  F   UNL A   1      41.644  35.308  26.622  1.00  0.00    -0.206 F 
ATOM     93  C   UNL A   1      42.860  38.499  27.726  1.00  0.00     0.022 A 
BRANCH  90  94
ATOM     94  S   UNL A   1      43.780  39.513  30.149  1.00  0.00     0.124 S 
ATOM     95  O   UNL A   1      44.047  38.772  31.379  1.00  0.00    -0.237 OA
ATOM     96  O   UNL A   1      44.954  40.037  29.460  1.00  0.00    -0.237 OA
ATOM     97  O   UNL A   1      42.637  40.420  30.208  1.00  0.00    -0.744 OA
ENDBRANCH  90  94
ENDBRANCH  64  87
ENDBRANCH  38  39
ENDBRANCH  30  33
ENDBRANCH  28  29
ENDBRANCH  27  28
ENDBRANCH   1  27
TORSDOF 17
ENDMDL
MODEL 2
REMARK VINA RESULT:     -13.2      4.170     10.615
REMARK SMILES Cc1cc(C(=O)NCCCCNC(=O)c2ccc(-c3c4nc(c(-c5cc(S(=O)(=O)[O-])ccc5F)c5ccc([nH]5)c(-c5cc(S(=O)(=O)[O-])ccc5F)c5nc(c(-c6cc(S(=O)(=O)[O-])ccc6F)c6ccc3[nH]6)C=C5)C=C4)cc2)ccc1NS(=O)(=O)c1c(F)cccc1F
REMARK SMILES IDX 9 1 8 2 7 3 5 4 6 5 4 7 1 8 2 9 3 10 80 11 79 12 78 13 81 14
REMARK SMILES IDX 82 16 83 17 84 18 85 19 86 20 91 21 87 22 88 23 90 24 92 25
REMARK SMILES IDX 89 26 10 27 11 28 12 29 13 30 14 32 15 33 16 34 77 35 17 36
REMARK SMILES IDX 76 37 18 38 19 39 20 40 70 41 21 42 75 43 69 44 71 45 22 46
REMARK SMILES IDX 74 47 68 48 67 49 23 51 55 52 35 53 54 54 36 55 39 56 53 57
REMARK SMILES IDX 72 58 37 59 38 60 52 62 73 63 40 64 24 65 25 66 33 67 26 68
REMARK SMILES IDX 32 69 34 70 31 71 27 72 28 73 29 74 30 75 56 76 57 77 65 78
REMARK SMILES IDX 58 79 64 80 66 81 63 82 59 83 60 84 61 85 62 86 41 87 42 88
REMARK SMILES IDX 50 89 43 90 49 91 51 92 48 93 44 94 45 95 46 96 47 97
REMARK H PARENT 7 6 81 15 12 31 71 50 39 61
REMARK Flexibility Score: inf
ROOT
ATOM      1  C   UNL A   1      31.852  30.296  26.814  1.00  0.00     0.023 C 
ENDROOT
BRANCH   1   2
ATOM      2  C   UNL A   1      31.358  30.086  25.375  1.00  0.00     0.116 C 
BRANCH   2   3
ATOM      3  N   UNL A   1      32.428  29.871  24.401  1.00  0.00    -0.352 N 
ATOM      4  C   UNL A   1      33.113  28.755  23.979  1.00  0.00     0.251 C 
ATOM      5  O   UNL A   1      34.027  28.906  23.168  1.00  0.00    -0.269 OA
ATOM      6  H   UNL A   1      32.721  30.698  23.955  1.00  0.00     0.163 HD
BRANCH   4   7
ATOM      7  C   UNL A   1      32.868  27.394  24.526  1.00  0.00     0.040 A 
ATOM      8  C   UNL A   1      30.746  24.419  23.483  1.00  0.00     0.046 C 
ATOM      9  C   UNL A   1      31.825  25.215  24.165  1.00  0.00    -0.026 A 
ATOM     10  C   UNL A   1      31.966  26.572  23.836  1.00  0.00     0.019 A 
ATOM     11  C   UNL A   1      32.677  24.671  25.138  1.00  0.00     0.052 A 
ATOM     12  C   UNL A   1      33.335  25.538  26.010  1.00  0.00     0.028 A 
ATOM     13  C   UNL A   1      33.434  26.902  25.700  1.00  0.00     0.016 A 
BRANCH  11  14
ATOM     14  N   UNL A   1      32.926  23.266  25.070  1.00  0.00    -0.279 N 
ATOM     15  H   UNL A   1      32.497  22.714  25.764  1.00  0.00     0.180 HD
BRANCH  14  16
ATOM     16  S   UNL A   1      33.865  22.445  23.952  1.00  0.00     0.267 S 
ATOM     17  O   UNL A   1      33.162  21.199  23.689  1.00  0.00    -0.201 OA
ATOM     18  O   UNL A   1      34.107  23.395  22.896  1.00  0.00    -0.201 OA
BRANCH  16  19
ATOM     19  C   UNL A   1      35.420  22.060  24.659  1.00  0.00     0.158 A 
ATOM     20  C   UNL A   1      36.286  23.114  24.928  1.00  0.00     0.146 A 
ATOM     21  C   UNL A   1      35.857  20.754  24.835  1.00  0.00     0.146 A 
ATOM     22  F   UNL A   1      35.869  24.386  24.873  1.00  0.00    -0.205 F 
ATOM     23  C   UNL A   1      37.611  22.872  25.273  1.00  0.00     0.041 A 
ATOM     24  C   UNL A   1      37.189  20.499  25.149  1.00  0.00     0.041 A 
ATOM     25  F   UNL A   1      35.032  19.711  24.674  1.00  0.00    -0.205 F 
ATOM     26  C   UNL A   1      38.069  21.561  25.349  1.00  0.00     0.006 A 
ENDBRANCH  16  19
ENDBRANCH  14  16
ENDBRANCH  11  14
ENDBRANCH   4   7
ENDBRANCH   2   3
ENDBRANCH   1   2
BRANCH   1  27
ATOM     27  C   UNL A   1      33.065  31.216  26.984  1.00  0.00     0.023 C 
BRANCH  27  28
ATOM     28  C   UNL A   1      34.208  30.626  27.806  1.00  0.00     0.116 C 
BRANCH  28  29
ATOM     29  N   UNL A   1      35.099  31.594  28.453  1.00  0.00    -0.352 N 
ATOM     30  C   UNL A   1      36.315  31.367  29.069  1.00  0.00     0.251 C 
ATOM     31  H   UNL A   1      34.791  32.529  28.448  1.00  0.00     0.163 HD
ATOM     32  O   UNL A   1      36.891  32.252  29.692  1.00  0.00    -0.269 OA
BRANCH  30  33
ATOM     33  C   UNL A   1      36.986  30.055  28.880  1.00  0.00     0.039 A 
ATOM     34  C   UNL A   1      37.141  29.231  30.001  1.00  0.00     0.014 A 
ATOM     35  C   UNL A   1      37.667  29.772  27.699  1.00  0.00     0.014 A 
ATOM     36  C   UNL A   1      38.171  28.296  30.021  1.00  0.00     0.010 A 
ATOM     37  C   UNL A   1      38.755  28.925  27.755  1.00  0.00     0.010 A 
ATOM     38  C   UNL A   1      39.055  28.248  28.943  1.00  0.00    -0.014 A 
BRANCH  38  39
ATOM     39  C   UNL A   1      40.405  27.701  29.045  1.00  0.00     0.031 A 
ATOM     40  C   UNL A   1      40.711  26.316  28.631  1.00  0.00     0.074 A 
ATOM     41  C   UNL A   1      41.410  28.507  29.451  1.00  0.00     0.049 A 
ATOM     42  N   UNL A   1      41.742  25.644  29.021  1.00  0.00    -0.248 NA
ATOM     43  C   UNL A   1      39.829  25.549  27.762  1.00  0.00     0.031 C 
ATOM     44  C   UNL A   1      42.848  28.271  29.340  1.00  0.00     0.029 A 
ATOM     45  N   UNL A   1      41.342  29.646  30.230  1.00  0.00    -0.354 N 
ATOM     46  C   UNL A   1      41.835  24.519  28.233  1.00  0.00     0.074 A 
ATOM     47  C   UNL A   1      40.571  24.460  27.537  1.00  0.00     0.031 C 
ATOM     48  C   UNL A   1      43.488  29.058  30.222  1.00  0.00     0.029 A 
ATOM     49  C   UNL A   1      42.475  29.703  31.039  1.00  0.00     0.049 A 
ATOM     50  H   UNL A   1      40.613  30.309  30.215  1.00  0.00     0.167 HD
ATOM     51  C   UNL A   1      43.029  23.860  28.145  1.00  0.00     0.034 A 
ATOM     52  C   UNL A   1      42.394  29.603  32.400  1.00  0.00     0.034 A 
ATOM     53  C   UNL A   1      44.016  24.413  29.080  1.00  0.00     0.049 A 
ATOM     54  C   UNL A   1      43.145  28.411  32.967  1.00  0.00     0.074 A 
ATOM     55  C   UNL A   1      45.110  25.248  28.914  1.00  0.00     0.029 A 
ATOM     56  N   UNL A   1      43.787  24.339  30.451  1.00  0.00    -0.354 N 
ATOM     57  N   UNL A   1      43.533  27.385  32.260  1.00  0.00    -0.248 NA
ATOM     58  C   UNL A   1      43.496  28.276  34.378  1.00  0.00     0.031 C 
ATOM     59  C   UNL A   1      45.492  25.733  30.193  1.00  0.00     0.029 A 
ATOM     60  C   UNL A   1      44.654  25.167  31.139  1.00  0.00     0.049 A 
ATOM     61  H   UNL A   1      43.102  23.772  30.874  1.00  0.00     0.167 HD
ATOM     62  C   UNL A   1      44.141  26.463  33.075  1.00  0.00     0.074 A 
ATOM     63  C   UNL A   1      44.117  27.083  34.389  1.00  0.00     0.031 C 
ATOM     64  C   UNL A   1      44.596  25.265  32.594  1.00  0.00     0.034 A 
BRANCH  51  65
ATOM     65  C   UNL A   1      43.409  22.942  26.992  1.00  0.00     0.023 A 
ATOM     66  C   UNL A   1      42.885  21.630  26.954  1.00  0.00     0.031 A 
ATOM     67  C   UNL A   1      44.314  23.245  25.957  1.00  0.00     0.131 A 
ATOM     68  C   UNL A   1      43.347  20.673  26.029  1.00  0.00     0.055 A 
ATOM     69  C   UNL A   1      44.820  22.281  25.072  1.00  0.00     0.041 A 
ATOM     70  F   UNL A   1      44.708  24.498  25.704  1.00  0.00    -0.206 F 
ATOM     71  C   UNL A   1      44.350  20.980  25.116  1.00  0.00     0.022 A 
BRANCH  68  72
ATOM     72  S   UNL A   1      42.620  19.010  26.035  1.00  0.00     0.124 S 
ATOM     73  O   UNL A   1      43.620  18.232  25.311  1.00  0.00    -0.237 OA
ATOM     74  O   UNL A   1      42.495  18.736  27.462  1.00  0.00    -0.237 OA
ATOM     75  O   UNL A   1      41.351  19.193  25.331  1.00  0.00    -0.744 OA
ENDBRANCH  68  72
ENDBRANCH  51  65
BRANCH  52  76
ATOM     76  C   UNL A   1      41.138  30.167  32.975  1.00  0.00     0.023 A 
ATOM     77  C   UNL A   1      41.027  31.570  33.038  1.00  0.00     0.031 A 
ATOM     78  C   UNL A   1      39.964  29.412  33.106  1.00  0.00     0.131 A 
ATOM     79  C   UNL A   1      39.765  32.179  33.064  1.00  0.00     0.055 A 
ATOM     80  C   UNL A   1      38.708  30.028  33.202  1.00  0.00     0.041 A 
ATOM     81  F   UNL A   1      39.998  28.074  33.023  1.00  0.00    -0.206 F 
ATOM     82  C   UNL A   1      38.601  31.417  33.142  1.00  0.00     0.022 A 
BRANCH  79  83
ATOM     83  S   UNL A   1      39.687  33.964  32.766  1.00  0.00     0.124 S 
ATOM     84  O   UNL A   1      38.281  34.256  33.027  1.00  0.00    -0.237 OA
ATOM     85  O   UNL A   1      40.628  34.487  33.757  1.00  0.00    -0.237 OA
ATOM     86  O   UNL A   1      40.109  34.114  31.379  1.00  0.00    -0.744 OA
ENDBRANCH  79  83
ENDBRANCH  52  76
BRANCH  64  87
ATOM     87  C   UNL A   1      45.103  24.103  33.427  1.00  0.00     0.023 A 
ATOM     88  C   UNL A   1      46.417  24.004  33.909  1.00  0.00     0.031 A 
ATOM     89  C   UNL A   1      44.225  23.068  33.839  1.00  0.00     0.131 A 
ATOM     90  C   UNL A   1      46.834  22.899  34.677  1.00  0.00     0.055 A 
ATOM     91  C   UNL A   1      44.621  22.013  34.668  1.00  0.00     0.041 A 
ATOM     92  F   UNL A   1      42.939  23.039  33.462  1.00  0.00    -0.206 F 
ATOM     93  C   UNL A   1      45.939  21.914  35.081  1.00  0.00     0.022 A 
BRANCH  90  94
ATOM     94  S   UNL A   1      48.594  22.749  35.083  1.00  0.00     0.124 S 
ATOM     95  O   UNL A   1      49.216  23.535  34.021  1.00  0.00    -0.237 OA
ATOM     96  O   UNL A   1      48.657  23.330  36.420  1.00  0.00    -0.237 OA
ATOM     97  O   UNL A   1      48.844  21.311  35.018  1.00  0.00    -0.744 OA
ENDBRANCH  90  94
ENDBRANCH  64  87
ENDBRANCH  38  39
ENDBRANCH  30  33
ENDBRANCH  28  29
ENDBRANCH  27  28
ENDBRANCH   1  27
TORSDOF 17
ENDMDL
MODEL 3
REMARK VINA RESULT:     -13.2      4.225     10.661
REMARK SMILES Cc1cc(C(=O)NCCCCNC(=O)c2ccc(-c3c4nc(c(-c5cc(S(=O)(=O)[O-])ccc5F)c5ccc([nH]5)c(-c5cc(S(=O)(=O)[O-])ccc5F)c5nc(c(-c6cc(S(=O)(=O)[O-])ccc6F)c6ccc3[nH]6)C=C5)C=C4)cc2)ccc1NS(=O)(=O)c1c(F)cccc1F
REMARK SMILES IDX 9 1 8 2 7 3 5 4 6 5 4 7 1 8 2 9 3 10 80 11 79 12 78 13 81 14
REMARK SMILES IDX 82 16 83 17 84 18 85 19 86 20 91 21 87 22 88 23 90 24 92 25
REMARK SMILES IDX 89 26 10 27 11 28 12 29 13 30 14 32 15 33 16 34 77 35 17 36
REMARK SMILES IDX 76 37 18 38 19 39 20 40 70 41 21 42 75 43 69 44 71 45 22 46
REMARK SMILES IDX 74 47 68 48 67 49 23 51 55 52 35 53 54 54 36 55 39 56 53 57
REMARK SMILES IDX 72 58 37 59 38 60 52 62 73 63 40 64 24 65 25 66 33 67 26 68
REMARK SMILES IDX 32 69 34 70 31 71 27 72 28 73 29 74 30 75 56 76 57 77 65 78
REMARK SMILES IDX 58 79 64 80 66 81 63 82 59 83 60 84 61 85 62 86 41 87 42 88
REMARK SMILES IDX 50 89 43 90 49 91 51 92 48 93 44 94 45 95 46 96 47 97
REMARK H PARENT 7 6 81 15 12 31 71 50 39 61
REMARK Flexibility Score: inf
ROOT
ATOM      1  C   UNL A   1      32.661  29.640  27.008  1.00  0.00     0.023 C 
ENDROOT
BRANCH   1   2
ATOM      2  C   UNL A   1      32.697  29.439  25.486  1.00  0.00     0.116 C 
BRANCH   2   3
ATOM      3  N   UNL A   1      31.522  29.959  24.787  1.00  0.00    -0.352 N 
ATOM      4  C   UNL A   1      30.582  29.386  23.961  1.00  0.00     0.251 C 
ATOM      5  O   UNL A   1      29.724  30.116  23.463  1.00  0.00    -0.269 OA
ATOM      6  H   UNL A   1      31.373  30.920  24.937  1.00  0.00     0.163 HD
BRANCH   4   7
ATOM      7  C   UNL A   1      30.610  27.953  23.565  1.00  0.00     0.040 A 
ATOM      8  C   UNL A   1      32.211  25.976  20.742  1.00  0.00     0.046 C 
ATOM      9  C   UNL A   1      31.564  26.277  22.067  1.00  0.00    -0.026 A 
ATOM     10  C   UNL A   1      31.321  27.617  22.404  1.00  0.00     0.019 A 
ATOM     11  C   UNL A   1      31.163  25.277  22.966  1.00  0.00     0.052 A 
ATOM     12  C   UNL A   1      30.212  25.594  23.936  1.00  0.00     0.028 A 
ATOM     13  C   UNL A   1      29.939  26.936  24.238  1.00  0.00     0.016 A 
BRANCH  11  14
ATOM     14  N   UNL A   1      31.873  24.038  22.918  1.00  0.00    -0.279 N 
ATOM     15  H   UNL A   1      31.433  23.304  22.431  1.00  0.00     0.180 HD
BRANCH  14  16
ATOM     16  S   UNL A   1      33.365  23.685  23.594  1.00  0.00     0.267 S 
ATOM     17  O   UNL A   1      34.350  24.109  22.611  1.00  0.00    -0.201 OA
ATOM     18  O   UNL A   1      33.330  24.275  24.907  1.00  0.00    -0.201 OA
BRANCH  16  19
ATOM     19  C   UNL A   1      33.516  21.956  23.814  1.00  0.00     0.158 A 
ATOM     20  C   UNL A   1      32.477  21.152  23.357  1.00  0.00     0.146 A 
ATOM     21  C   UNL A   1      34.558  21.383  24.531  1.00  0.00     0.146 A 
ATOM     22  F   UNL A   1      31.511  21.648  22.572  1.00  0.00    -0.205 F 
ATOM     23  C   UNL A   1      32.420  19.806  23.697  1.00  0.00     0.041 A 
ATOM     24  C   UNL A   1      34.496  20.043  24.905  1.00  0.00     0.041 A 
ATOM     25  F   UNL A   1      35.622  22.100  24.914  1.00  0.00    -0.205 F 
ATOM     26  C   UNL A   1      33.416  19.261  24.502  1.00  0.00     0.006 A 
ENDBRANCH  16  19
ENDBRANCH  14  16
ENDBRANCH  11  14
ENDBRANCH   4   7
ENDBRANCH   2   3
ENDBRANCH   1   2
BRANCH   1  27
ATOM     27  C   UNL A   1      33.208  30.973  27.526  1.00  0.00     0.023 C 
BRANCH  27  28
ATOM     28  C   UNL A   1      34.714  31.156  27.366  1.00  0.00     0.116 C 
BRANCH  28  29
ATOM     29  N   UNL A   1      35.395  31.859  28.457  1.00  0.00    -0.352 N 
ATOM     30  C   UNL A   1      36.366  31.381  29.317  1.00  0.00     0.251 C 
ATOM     31  H   UNL A   1      35.126  32.796  28.597  1.00  0.00     0.163 HD
ATOM     32  O   UNL A   1      36.751  32.039  30.276  1.00  0.00    -0.269 OA
BRANCH  30  33
ATOM     33  C   UNL A   1      37.030  30.088  29.007  1.00  0.00     0.039 A 
ATOM     34  C   UNL A   1      37.141  29.146  30.037  1.00  0.00     0.014 A 
ATOM     35  C   UNL A   1      37.746  29.925  27.824  1.00  0.00     0.014 A 
ATOM     36  C   UNL A   1      38.161  28.200  29.987  1.00  0.00     0.010 A 
ATOM     37  C   UNL A   1      38.824  29.063  27.821  1.00  0.00     0.010 A 
ATOM     38  C   UNL A   1      39.078  28.257  28.937  1.00  0.00    -0.014 A 
BRANCH  38  39
ATOM     39  C   UNL A   1      40.419  27.685  29.021  1.00  0.00     0.031 A 
ATOM     40  C   UNL A   1      40.689  26.287  28.626  1.00  0.00     0.074 A 
ATOM     41  C   UNL A   1      41.449  28.478  29.391  1.00  0.00     0.049 A 
ATOM     42  N   UNL A   1      41.715  25.602  29.007  1.00  0.00    -0.248 NA
ATOM     43  C   UNL A   1      39.773  25.522  27.790  1.00  0.00     0.031 C 
ATOM     44  C   UNL A   1      42.879  28.211  29.254  1.00  0.00     0.029 A 
ATOM     45  N   UNL A   1      41.420  29.631  30.150  1.00  0.00    -0.354 N 
ATOM     46  C   UNL A   1      41.768  24.460  28.238  1.00  0.00     0.074 A 
ATOM     47  C   UNL A   1      40.489  24.415  27.570  1.00  0.00     0.031 C 
ATOM     48  C   UNL A   1      43.553  29.000  30.109  1.00  0.00     0.029 A 
ATOM     49  C   UNL A   1      42.570  29.680  30.934  1.00  0.00     0.049 A 
ATOM     50  H   UNL A   1      40.704  30.308  30.139  1.00  0.00     0.167 HD
ATOM     51  C   UNL A   1      42.946  23.776  28.137  1.00  0.00     0.034 A 
ATOM     52  C   UNL A   1      42.517  29.606  32.299  1.00  0.00     0.034 A 
ATOM     53  C   UNL A   1      43.964  24.326  29.041  1.00  0.00     0.049 A 
ATOM     54  C   UNL A   1      43.256  28.409  32.871  1.00  0.00     0.074 A 
ATOM     55  C   UNL A   1      45.070  25.135  28.837  1.00  0.00     0.029 A 
ATOM     56  N   UNL A   1      43.763  24.281  30.418  1.00  0.00    -0.354 N 
ATOM     57  N   UNL A   1      43.608  27.363  32.176  1.00  0.00    -0.248 NA
ATOM     58  C   UNL A   1      43.634  28.292  34.277  1.00  0.00     0.031 C 
ATOM     59  C   UNL A   1      45.489  25.635  30.098  1.00  0.00     0.029 A 
ATOM     60  C   UNL A   1      44.660  25.103  31.072  1.00  0.00     0.049 A 
ATOM     61  H   UNL A   1      43.075  23.736  30.865  1.00  0.00     0.167 HD
ATOM     62  C   UNL A   1      44.215  26.444  32.994  1.00  0.00     0.074 A 
ATOM     63  C   UNL A   1      44.231  27.088  34.297  1.00  0.00     0.031 C 
ATOM     64  C   UNL A   1      44.636  25.228  32.526  1.00  0.00     0.034 A 
BRANCH  51  65
ATOM     65  C   UNL A   1      43.283  22.831  26.993  1.00  0.00     0.023 A 
ATOM     66  C   UNL A   1      42.781  21.509  27.021  1.00  0.00     0.031 A 
ATOM     67  C   UNL A   1      44.129  23.116  25.905  1.00  0.00     0.131 A 
ATOM     68  C   UNL A   1      43.212  20.532  26.102  1.00  0.00     0.055 A 
ATOM     69  C   UNL A   1      44.606  22.134  25.024  1.00  0.00     0.041 A 
ATOM     70  F   UNL A   1      44.488  24.367  25.596  1.00  0.00    -0.206 F 
ATOM     71  C   UNL A   1      44.162  20.828  25.130  1.00  0.00     0.022 A 
BRANCH  68  72
ATOM     72  S   UNL A   1      42.516  18.859  26.194  1.00  0.00     0.124 S 
ATOM     73  O   UNL A   1      41.149  19.066  25.727  1.00  0.00    -0.237 OA
ATOM     74  O   UNL A   1      43.398  18.111  25.306  1.00  0.00    -0.237 OA
ATOM     75  O   UNL A   1      42.639  18.518  27.611  1.00  0.00    -0.744 OA
ENDBRANCH  68  72
ENDBRANCH  51  65
BRANCH  52  76
ATOM     76  C   UNL A   1      41.284  30.205  32.889  1.00  0.00     0.023 A 
ATOM     77  C   UNL A   1      41.223  31.611  32.972  1.00  0.00     0.031 A 
ATOM     78  C   UNL A   1      40.086  29.490  33.018  1.00  0.00     0.131 A 
ATOM     79  C   UNL A   1      39.983  32.263  33.014  1.00  0.00     0.055 A 
ATOM     80  C   UNL A   1      38.853  30.148  33.130  1.00  0.00     0.041 A 
ATOM     81  F   UNL A   1      40.072  28.153  32.917  1.00  0.00    -0.206 F 
ATOM     82  C   UNL A   1      38.794  31.541  33.089  1.00  0.00     0.022 A 
BRANCH  79  83
ATOM     83  S   UNL A   1      39.965  34.054  32.740  1.00  0.00     0.124 S 
ATOM     84  O   UNL A   1      39.854  34.139  31.287  1.00  0.00    -0.237 OA
ATOM     85  O   UNL A   1      38.776  34.470  33.483  1.00  0.00    -0.237 OA
ATOM     86  O   UNL A   1      41.231  34.513  33.298  1.00  0.00    -0.744 OA
ENDBRANCH  79  83
ENDBRANCH  52  76
BRANCH  64  87
ATOM     87  C   UNL A   1      45.137  24.071  33.370  1.00  0.00     0.023 A 
ATOM     88  C   UNL A   1      46.406  24.035  33.966  1.00  0.00     0.031 A 
ATOM     89  C   UNL A   1      44.291  22.973  33.672  1.00  0.00     0.131 A 
ATOM     90  C   UNL A   1      46.821  22.931  34.737  1.00  0.00     0.055 A 
ATOM     91  C   UNL A   1      44.675  21.917  34.504  1.00  0.00     0.041 A 
ATOM     92  F   UNL A   1      43.048  22.881  33.179  1.00  0.00    -0.206 F 
ATOM     93  C   UNL A   1      45.955  21.882  35.031  1.00  0.00     0.022 A 
BRANCH  90  94
ATOM     94  S   UNL A   1      48.543  22.871  35.298  1.00  0.00     0.124 S 
ATOM     95  O   UNL A   1      48.529  21.714  36.188  1.00  0.00    -0.237 OA
ATOM     96  O   UNL A   1      49.274  22.698  34.047  1.00  0.00    -0.237 OA
ATOM     97  O   UNL A   1      48.738  24.160  35.958  1.00  0.00    -0.744 OA
ENDBRANCH  90  94
ENDBRANCH  64  87
ENDBRANCH  38  39
ENDBRANCH  30  33
ENDBRANCH  28  29
ENDBRANCH  27  28
ENDBRANCH   1  27
TORSDOF 17
ENDMDL
