MODEL 1
REMARK VINA RESULT:     -12.7      0.000      0.000
REMARK SMILES C[C@@H]1CN(S(=O)(=O)c2cccc(C(=O)N3CCC[C@@H]3C(=O)NCCCCNC(=O)c3ccc(-c4c5nc(c(-c6cc(S(=O)(=O)[O-])ccc6F)c6ccc([nH]6)c(-c6cc(S(=O)(=O)[O-])ccc6F)c6nc(c(-c7cc(S(=O)(=O)[O-])ccc7F)c7ccc4[nH]7)C=C6)C=C5)cc3)c2)C[C@H](C)O1
REMARK SMILES IDX 24 1 23 2 22 3 20 4 21 5 19 7 15 8 16 9 17 10 18 11 13 12
REMARK SMILES IDX 14 13 12 14 8 15 9 16 93 17 10 18 11 19 5 20 6 21 7 22 4 23
REMARK SMILES IDX 1 24 2 25 3 26 97 27 95 28 94 29 96 30 25 31 26 32 27 33
REMARK SMILES IDX 28 34 29 36 30 37 31 38 92 39 32 40 91 41 33 42 34 43 35 44
REMARK SMILES IDX 85 45 36 46 90 47 84 48 86 49 37 50 89 51 83 52 82 53 38 55
REMARK SMILES IDX 70 56 50 57 69 58 51 59 54 60 68 61 87 62 52 63 53 64 67 66
REMARK SMILES IDX 88 67 55 68 39 69 40 70 48 71 41 72 47 73 49 74 46 75 42 76
REMARK SMILES IDX 43 77 44 78 45 79 71 80 72 81 80 82 73 83 79 84 81 85 78 86
REMARK SMILES IDX 74 87 75 88 76 89 77 90 56 91 57 92 65 93 58 94 64 95 66 96
REMARK SMILES IDX 63 97 59 98 60 99 61 100 62 101
REMARK H PARENT 22 6 27 35 86 54 54 65
REMARK Flexibility Score: inf
ROOT
ATOM      1  C   UNL A   1      32.507  29.289  24.384  1.00  0.00     0.023 C 
ENDROOT
BRANCH   1   2
ATOM      2  C   UNL A   1      32.688  28.939  22.919  1.00  0.00     0.116 C 
BRANCH   2   3
ATOM      3  N   UNL A   1      31.746  29.612  22.065  1.00  0.00    -0.354 N 
ATOM      4  C   UNL A   1      30.383  29.620  22.127  1.00  0.00     0.242 C 
ATOM      5  O   UNL A   1      29.784  30.142  21.180  1.00  0.00    -0.273 OA
ATOM      6  H   UNL A   1      32.140  30.142  21.335  1.00  0.00     0.163 HD
BRANCH   4   7
ATOM      7  C   UNL A   1      29.591  28.831  23.199  1.00  0.00     0.174 C 
ATOM      8  N   UNL A   1      29.360  27.399  23.014  1.00  0.00    -0.327 N 
ATOM      9  C   UNL A   1      28.161  27.036  23.746  1.00  0.00     0.121 C 
ATOM     10  C   UNL A   1      27.230  28.176  23.398  1.00  0.00     0.024 C 
ATOM     11  C   UNL A   1      28.160  29.397  23.337  1.00  0.00     0.037 C 
BRANCH   8  12
ATOM     12  C   UNL A   1      30.417  26.537  22.792  1.00  0.00     0.254 C 
ATOM     13  O   UNL A   1      30.992  26.478  21.710  1.00  0.00    -0.269 OA
BRANCH  12  14
ATOM     14  C   UNL A   1      30.663  25.482  23.837  1.00  0.00     0.041 A 
ATOM     15  C   UNL A   1      31.668  23.396  24.606  1.00  0.00     0.083 A 
ATOM     16  C   UNL A   1      31.318  23.704  25.923  1.00  0.00     0.022 A 
ATOM     17  C   UNL A   1      31.347  24.285  23.576  1.00  0.00     0.035 A 
ATOM     18  C   UNL A   1      30.639  24.894  26.198  1.00  0.00     0.002 A 
ATOM     19  C   UNL A   1      30.306  25.773  25.161  1.00  0.00     0.014 A 
BRANCH  15  20
ATOM     20  S   UNL A   1      32.180  21.739  24.184  1.00  0.00     0.243 S 
ATOM     21  O   UNL A   1      31.798  21.549  22.791  1.00  0.00    -0.207 OA
ATOM     22  O   UNL A   1      31.652  20.863  25.197  1.00  0.00    -0.207 OA
BRANCH  20  23
ATOM     23  N   UNL A   1      33.919  21.670  24.238  1.00  0.00    -0.193 NA
ATOM     24  C   UNL A   1      36.979  20.420  24.908  1.00  0.00     0.040 C 
ATOM     25  C   UNL A   1      36.017  21.325  25.672  1.00  0.00     0.130 C 
ATOM     26  C   UNL A   1      34.503  21.070  25.481  1.00  0.00     0.134 C 
ATOM     27  O   UNL A   1      36.364  22.701  25.512  1.00  0.00    -0.373 OA
ATOM     28  C   UNL A   1      35.930  23.284  24.282  1.00  0.00     0.130 C 
ATOM     29  C   UNL A   1      34.435  23.078  24.019  1.00  0.00     0.134 C 
ATOM     30  C   UNL A   1      36.830  22.937  23.104  1.00  0.00     0.040 C 
ENDBRANCH  20  23
ENDBRANCH  15  20
ENDBRANCH  12  14
ENDBRANCH   8  12
ENDBRANCH   4   7
ENDBRANCH   2   3
ENDBRANCH   1   2
BRANCH   1  31
ATOM     31  C   UNL A   1      33.017  28.282  25.404  1.00  0.00     0.023 C 
BRANCH  31  32
ATOM     32  C   UNL A   1      33.651  28.839  26.676  1.00  0.00     0.116 C 
BRANCH  32  33
ATOM     33  N   UNL A   1      33.177  30.152  27.101  1.00  0.00    -0.352 N 
ATOM     34  C   UNL A   1      33.864  31.200  27.679  1.00  0.00     0.251 C 
ATOM     35  H   UNL A   1      32.219  30.315  26.953  1.00  0.00     0.163 HD
ATOM     36  O   UNL A   1      33.319  32.281  27.872  1.00  0.00    -0.269 OA
BRANCH  34  37
ATOM     37  C   UNL A   1      35.253  31.017  28.121  1.00  0.00     0.039 A 
ATOM     38  C   UNL A   1      36.165  32.072  27.975  1.00  0.00     0.014 A 
ATOM     39  C   UNL A   1      35.644  29.811  28.690  1.00  0.00     0.014 A 
ATOM     40  C   UNL A   1      37.449  31.956  28.505  1.00  0.00     0.010 A 
ATOM     41  C   UNL A   1      36.889  29.725  29.284  1.00  0.00     0.010 A 
ATOM     42  C   UNL A   1      37.798  30.796  29.199  1.00  0.00    -0.014 A 
BRANCH  42  43
ATOM     43  C   UNL A   1      39.130  30.575  29.798  1.00  0.00     0.031 A 
ATOM     44  C   UNL A   1      39.990  29.534  29.152  1.00  0.00     0.074 A 
ATOM     45  C   UNL A   1      39.436  31.122  30.987  1.00  0.00     0.049 A 
ATOM     46  N   UNL A   1      40.925  28.792  29.673  1.00  0.00    -0.248 NA
ATOM     47  C   UNL A   1      39.683  29.234  27.743  1.00  0.00     0.031 C 
ATOM     48  C   UNL A   1      38.658  32.154  31.675  1.00  0.00     0.029 A 
ATOM     49  N   UNL A   1      40.452  30.829  31.861  1.00  0.00    -0.354 N 
ATOM     50  C   UNL A   1      41.262  27.877  28.682  1.00  0.00     0.074 A 
ATOM     51  C   UNL A   1      40.426  28.159  27.535  1.00  0.00     0.031 C 
ATOM     52  C   UNL A   1      39.204  32.380  32.883  1.00  0.00     0.029 A 
ATOM     53  C   UNL A   1      40.318  31.458  33.078  1.00  0.00     0.049 A 
ATOM     54  H   UNL A   1      41.201  30.230  31.639  1.00  0.00     0.167 HD
ATOM     55  C   UNL A   1      42.176  26.881  28.750  1.00  0.00     0.034 A 
ATOM     56  C   UNL A   1      40.981  31.256  34.235  1.00  0.00     0.034 A 
ATOM     57  C   UNL A   1      43.012  26.674  29.905  1.00  0.00     0.049 A 
ATOM     58  C   UNL A   1      42.036  30.176  34.268  1.00  0.00     0.074 A 
ATOM     59  C   UNL A   1      44.026  25.752  30.086  1.00  0.00     0.029 A 
ATOM     60  N   UNL A   1      42.930  27.416  31.078  1.00  0.00    -0.354 N 
ATOM     61  N   UNL A   1      42.360  29.312  33.331  1.00  0.00    -0.248 NA
ATOM     62  C   UNL A   1      42.812  30.040  35.507  1.00  0.00     0.031 C 
ATOM     63  C   UNL A   1      44.527  25.909  31.384  1.00  0.00     0.029 A 
ATOM     64  C   UNL A   1      43.868  26.969  31.990  1.00  0.00     0.049 A 
ATOM     65  H   UNL A   1      42.295  28.152  31.237  1.00  0.00     0.167 HD
ATOM     66  C   UNL A   1      43.402  28.555  33.858  1.00  0.00     0.074 A 
ATOM     67  C   UNL A   1      43.653  29.066  35.190  1.00  0.00     0.031 C 
ATOM     68  C   UNL A   1      44.094  27.529  33.299  1.00  0.00     0.034 A 
BRANCH  55  69
ATOM     69  C   UNL A   1      42.270  25.934  27.582  1.00  0.00     0.023 A 
ATOM     70  C   UNL A   1      41.581  24.710  27.559  1.00  0.00     0.031 A 
ATOM     71  C   UNL A   1      43.099  26.243  26.489  1.00  0.00     0.131 A 
ATOM     72  C   UNL A   1      41.791  23.808  26.504  1.00  0.00     0.055 A 
ATOM     73  C   UNL A   1      43.240  25.378  25.403  1.00  0.00     0.041 A 
ATOM     74  F   UNL A   1      43.803  27.385  26.467  1.00  0.00    -0.206 F 
ATOM     75  C   UNL A   1      42.595  24.145  25.412  1.00  0.00     0.022 A 
BRANCH  72  76
ATOM     76  S   UNL A   1      41.097  22.140  26.639  1.00  0.00     0.124 S 
ATOM     77  O   UNL A   1      41.978  21.384  25.752  1.00  0.00    -0.237 OA
ATOM     78  O   UNL A   1      41.230  21.855  28.064  1.00  0.00    -0.237 OA
ATOM     79  O   UNL A   1      39.725  22.299  26.161  1.00  0.00    -0.744 OA
ENDBRANCH  72  76
ENDBRANCH  55  69
BRANCH  56  80
ATOM     80  C   UNL A   1      40.642  32.036  35.460  1.00  0.00     0.023 A 
ATOM     81  C   UNL A   1      39.506  31.719  36.221  1.00  0.00     0.031 A 
ATOM     82  C   UNL A   1      41.418  33.136  35.868  1.00  0.00     0.131 A 
ATOM     83  C   UNL A   1      39.146  32.522  37.315  1.00  0.00     0.055 A 
ATOM     84  C   UNL A   1      41.086  33.900  36.989  1.00  0.00     0.041 A 
ATOM     85  F   UNL A   1      42.521  33.481  35.184  1.00  0.00    -0.206 F 
ATOM     86  C   UNL A   1      39.934  33.604  37.711  1.00  0.00     0.022 A 
BRANCH  83  87
ATOM     87  S   UNL A   1      37.573  32.187  38.155  1.00  0.00     0.124 S 
ATOM     88  O   UNL A   1      37.386  30.767  37.880  1.00  0.00    -0.237 OA
ATOM     89  O   UNL A   1      37.890  32.538  39.535  1.00  0.00    -0.237 OA
ATOM     90  O   UNL A   1      36.632  33.083  37.485  1.00  0.00    -0.744 OA
ENDBRANCH  83  87
ENDBRANCH  56  80
BRANCH  68  91
ATOM     91  C   UNL A   1      45.233  26.961  34.101  1.00  0.00     0.023 A 
ATOM     92  C   UNL A   1      46.546  27.435  33.958  1.00  0.00     0.031 A 
ATOM     93  C   UNL A   1      44.983  25.948  35.044  1.00  0.00     0.131 A 
ATOM     94  C   UNL A   1      47.573  26.867  34.724  1.00  0.00     0.055 A 
ATOM     95  C   UNL A   1      46.000  25.422  35.837  1.00  0.00     0.041 A 
ATOM     96  F   UNL A   1      43.740  25.467  35.215  1.00  0.00    -0.206 F 
ATOM     97  C   UNL A   1      47.306  25.876  35.674  1.00  0.00     0.022 A 
BRANCH  94  98
ATOM     98  S   UNL A   1      49.279  27.406  34.428  1.00  0.00     0.124 S 
ATOM     99  O   UNL A   1      49.149  28.150  33.180  1.00  0.00    -0.237 OA
ATOM    100  O   UNL A   1      49.567  28.201  35.618  1.00  0.00    -0.237 OA
ATOM    101  O   UNL A   1      50.023  26.151  34.329  1.00  0.00    -0.744 OA
ENDBRANCH  94  98
ENDBRANCH  68  91
ENDBRANCH  42  43
ENDBRANCH  34  37
ENDBRANCH  32  33
ENDBRANCH  31  32
ENDBRANCH   1  31
TORSDOF 18
ENDMDL
MODEL 2
REMARK VINA RESULT:     -12.6      1.979      7.530
REMARK SMILES C[C@@H]1CN(S(=O)(=O)c2cccc(C(=O)N3CCC[C@@H]3C(=O)NCCCCNC(=O)c3ccc(-c4c5nc(c(-c6cc(S(=O)(=O)[O-])ccc6F)c6ccc([nH]6)c(-c6cc(S(=O)(=O)[O-])ccc6F)c6nc(c(-c7cc(S(=O)(=O)[O-])ccc7F)c7ccc4[nH]7)C=C6)C=C5)cc3)c2)C[C@H](C)O1
REMARK SMILES IDX 24 1 23 2 22 3 20 4 21 5 19 7 15 8 16 9 17 10 18 11 13 12
REMARK SMILES IDX 14 13 12 14 8 15 9 16 93 17 10 18 11 19 5 20 6 21 7 22 4 23
REMARK SMILES IDX 1 24 2 25 3 26 97 27 95 28 94 29 96 30 25 31 26 32 27 33
REMARK SMILES IDX 28 34 29 36 30 37 31 38 92 39 32 40 91 41 33 42 34 43 35 44
REMARK SMILES IDX 85 45 36 46 90 47 84 48 86 49 37 50 89 51 83 52 82 53 38 55
REMARK SMILES IDX 70 56 50 57 69 58 51 59 54 60 68 61 87 62 52 63 53 64 67 66
REMARK SMILES IDX 88 67 55 68 39 69 40 70 48 71 41 72 47 73 49 74 46 75 42 76
REMARK SMILES IDX 43 77 44 78 45 79 71 80 72 81 80 82 73 83 79 84 81 85 78 86
REMARK SMILES IDX 74 87 75 88 76 89 77 90 56 91 57 92 65 93 58 94 64 95 66 96
REMARK SMILES IDX 63 97 59 98 60 99 61 100 62 101
REMARK H PARENT 22 6 27 35 86 54 54 65
REMARK Flexibility Score: inf
ROOT
ATOM      1  C   UNL A   1      32.757  29.241  24.634  1.00  0.00     0.023 C 
ENDROOT
BRANCH   1   2
ATOM      2  C   UNL A   1      32.896  28.792  23.192  1.00  0.00     0.116 C 
BRANCH   2   3
ATOM      3  N   UNL A   1      32.031  29.515  22.298  1.00  0.00    -0.354 N 
ATOM      4  C   UNL A   1      30.667  29.561  22.272  1.00  0.00     0.242 C 
ATOM      5  O   UNL A   1      30.146  30.125  21.304  1.00  0.00    -0.273 OA
ATOM      6  H   UNL A   1      32.485  30.051  21.610  1.00  0.00     0.163 HD
BRANCH   4   7
ATOM      7  C   UNL A   1      29.786  28.768  23.269  1.00  0.00     0.174 C 
ATOM      8  N   UNL A   1      29.499  27.357  23.012  1.00  0.00    -0.327 N 
ATOM      9  C   UNL A   1      28.249  27.023  23.667  1.00  0.00     0.121 C 
ATOM     10  C   UNL A   1      27.390  28.220  23.323  1.00  0.00     0.024 C 
ATOM     11  C   UNL A   1      28.377  29.396  23.360  1.00  0.00     0.037 C 
BRANCH   8  12
ATOM     12  C   UNL A   1      30.525  26.455  22.806  1.00  0.00     0.254 C 
ATOM     13  O   UNL A   1      31.127  26.387  21.739  1.00  0.00    -0.269 OA
BRANCH  12  14
ATOM     14  C   UNL A   1      30.699  25.377  23.841  1.00  0.00     0.041 A 
ATOM     15  C   UNL A   1      31.657  23.278  24.635  1.00  0.00     0.083 A 
ATOM     16  C   UNL A   1      31.208  23.554  25.929  1.00  0.00     0.022 A 
ATOM     17  C   UNL A   1      31.408  24.189  23.605  1.00  0.00     0.035 A 
ATOM     18  C   UNL A   1      30.504  24.735  26.180  1.00  0.00     0.002 A 
ATOM     19  C   UNL A   1      30.243  25.636  25.142  1.00  0.00     0.014 A 
BRANCH  15  20
ATOM     20  S   UNL A   1      32.209  21.634  24.215  1.00  0.00     0.243 S 
ATOM     21  O   UNL A   1      31.835  21.434  22.820  1.00  0.00    -0.207 OA
ATOM     22  O   UNL A   1      31.699  20.745  25.227  1.00  0.00    -0.207 OA
BRANCH  20  23
ATOM     23  N   UNL A   1      33.949  21.606  24.274  1.00  0.00    -0.193 NA
ATOM     24  C   UNL A   1      37.036  20.418  24.932  1.00  0.00     0.040 C 
ATOM     25  C   UNL A   1      36.050  21.287  25.708  1.00  0.00     0.130 C 
ATOM     26  C   UNL A   1      34.543  20.999  25.508  1.00  0.00     0.134 C 
ATOM     27  O   UNL A   1      36.364  22.673  25.573  1.00  0.00    -0.373 OA
ATOM     28  C   UNL A   1      35.920  23.267  24.351  1.00  0.00     0.130 C 
ATOM     29  C   UNL A   1      34.431  23.029  24.080  1.00  0.00     0.134 C 
ATOM     30  C   UNL A   1      36.831  22.961  23.170  1.00  0.00     0.040 C 
ENDBRANCH  20  23
ENDBRANCH  15  20
ENDBRANCH  12  14
ENDBRANCH   8  12
ENDBRANCH   4   7
ENDBRANCH   2   3
ENDBRANCH   1   2
BRANCH   1  31
ATOM     31  C   UNL A   1      33.221  28.268  25.709  1.00  0.00     0.023 C 
BRANCH  31  32
ATOM     32  C   UNL A   1      34.249  28.781  26.715  1.00  0.00     0.116 C 
BRANCH  32  33
ATOM     33  N   UNL A   1      34.241  30.220  26.956  1.00  0.00    -0.352 N 
ATOM     34  C   UNL A   1      35.185  31.024  27.561  1.00  0.00     0.251 C 
ATOM     35  H   UNL A   1      33.438  30.690  26.637  1.00  0.00     0.163 HD
ATOM     36  O   UNL A   1      35.057  32.243  27.579  1.00  0.00    -0.269 OA
BRANCH  34  37
ATOM     37  C   UNL A   1      36.340  30.422  28.242  1.00  0.00     0.039 A 
ATOM     38  C   UNL A   1      36.149  29.758  29.461  1.00  0.00     0.014 A 
ATOM     39  C   UNL A   1      37.601  30.505  27.666  1.00  0.00     0.014 A 
ATOM     40  C   UNL A   1      37.210  29.076  30.052  1.00  0.00     0.010 A 
ATOM     41  C   UNL A   1      38.634  29.763  28.209  1.00  0.00     0.010 A 
ATOM     42  C   UNL A   1      38.446  29.042  29.402  1.00  0.00    -0.014 A 
BRANCH  42  43
ATOM     43  C   UNL A   1      39.631  28.347  29.943  1.00  0.00     0.031 A 
ATOM     44  C   UNL A   1      40.369  29.041  31.045  1.00  0.00     0.074 A 
ATOM     45  C   UNL A   1      40.132  27.271  29.311  1.00  0.00     0.049 A 
ATOM     46  N   UNL A   1      41.627  28.968  31.375  1.00  0.00    -0.248 NA
ATOM     47  C   UNL A   1      39.588  30.019  31.821  1.00  0.00     0.031 C 
ATOM     48  C   UNL A   1      39.468  26.528  28.238  1.00  0.00     0.029 A 
ATOM     49  N   UNL A   1      41.353  26.659  29.436  1.00  0.00    -0.354 N 
ATOM     50  C   UNL A   1      41.811  29.951  32.341  1.00  0.00     0.074 A 
ATOM     51  C   UNL A   1      40.536  30.605  32.535  1.00  0.00     0.031 C 
ATOM     52  C   UNL A   1      40.306  25.585  27.776  1.00  0.00     0.029 A 
ATOM     53  C   UNL A   1      41.584  25.708  28.468  1.00  0.00     0.049 A 
ATOM     54  H   UNL A   1      41.998  26.878  30.148  1.00  0.00     0.167 HD
ATOM     55  C   UNL A   1      42.958  30.278  32.981  1.00  0.00     0.034 A 
ATOM     56  C   UNL A   1      42.724  25.066  28.140  1.00  0.00     0.034 A 
ATOM     57  C   UNL A   1      44.191  29.561  32.778  1.00  0.00     0.049 A 
ATOM     58  C   UNL A   1      43.978  25.410  28.908  1.00  0.00     0.074 A 
ATOM     59  C   UNL A   1      45.408  29.737  33.408  1.00  0.00     0.029 A 
ATOM     60  N   UNL A   1      44.354  28.518  31.874  1.00  0.00    -0.354 N 
ATOM     61  N   UNL A   1      44.154  26.336  29.825  1.00  0.00    -0.248 NA
ATOM     62  C   UNL A   1      45.183  24.630  28.602  1.00  0.00     0.031 C 
ATOM     63  C   UNL A   1      46.318  28.830  32.854  1.00  0.00     0.029 A 
ATOM     64  C   UNL A   1      45.652  28.046  31.922  1.00  0.00     0.049 A 
ATOM     65  H   UNL A   1      43.648  28.168  31.283  1.00  0.00     0.167 HD
ATOM     66  C   UNL A   1      45.481  26.223  30.228  1.00  0.00     0.074 A 
ATOM     67  C   UNL A   1      46.057  25.138  29.458  1.00  0.00     0.031 C 
ATOM     68  C   UNL A   1      46.171  26.944  31.149  1.00  0.00     0.034 A 
BRANCH  55  69
ATOM     69  C   UNL A   1      42.932  31.473  33.898  1.00  0.00     0.023 A 
ATOM     70  C   UNL A   1      42.522  31.375  35.238  1.00  0.00     0.031 A 
ATOM     71  C   UNL A   1      43.285  32.744  33.410  1.00  0.00     0.131 A 
ATOM     72  C   UNL A   1      42.402  32.535  36.020  1.00  0.00     0.055 A 
ATOM     73  C   UNL A   1      43.242  33.882  34.216  1.00  0.00     0.041 A 
ATOM     74  F   UNL A   1      43.659  32.905  32.130  1.00  0.00    -0.206 F 
ATOM     75  C   UNL A   1      42.785  33.784  35.526  1.00  0.00     0.022 A 
BRANCH  72  76
ATOM     76  S   UNL A   1      41.620  32.403  37.650  1.00  0.00     0.124 S 
ATOM     77  O   UNL A   1      42.407  31.336  38.265  1.00  0.00    -0.237 OA
ATOM     78  O   UNL A   1      41.813  33.738  38.204  1.00  0.00    -0.237 OA
ATOM     79  O   UNL A   1      40.236  32.051  37.339  1.00  0.00    -0.744 OA
ENDBRANCH  72  76
ENDBRANCH  55  69
BRANCH  56  80
ATOM     80  C   UNL A   1      42.757  24.089  27.014  1.00  0.00     0.023 A 
ATOM     81  C   UNL A   1      42.184  22.815  27.153  1.00  0.00     0.031 A 
ATOM     82  C   UNL A   1      43.397  24.391  25.799  1.00  0.00     0.131 A 
ATOM     83  C   UNL A   1      42.309  21.872  26.121  1.00  0.00     0.055 A 
ATOM     84  C   UNL A   1      43.471  23.468  24.753  1.00  0.00     0.041 A 
ATOM     85  F   UNL A   1      43.954  25.598  25.605  1.00  0.00    -0.206 F 
ATOM     86  C   UNL A   1      42.939  22.193  24.917  1.00  0.00     0.022 A 
BRANCH  83  87
ATOM     87  S   UNL A   1      41.718  20.182  26.415  1.00  0.00     0.124 S 
ATOM     88  O   UNL A   1      40.271  20.361  26.370  1.00  0.00    -0.237 OA
ATOM     89  O   UNL A   1      42.310  19.457  25.296  1.00  0.00    -0.237 OA
ATOM     90  O   UNL A   1      42.266  19.854  27.729  1.00  0.00    -0.744 OA
ENDBRANCH  83  87
ENDBRANCH  56  80
BRANCH  68  91
ATOM     91  C   UNL A   1      47.588  26.522  31.422  1.00  0.00     0.023 A 
ATOM     92  C   UNL A   1      47.907  25.628  32.456  1.00  0.00     0.031 A 
ATOM     93  C   UNL A   1      48.628  27.004  30.607  1.00  0.00     0.131 A 
ATOM     94  C   UNL A   1      49.244  25.271  32.674  1.00  0.00     0.055 A 
ATOM     95  C   UNL A   1      49.949  26.607  30.797  1.00  0.00     0.041 A 
ATOM     96  F   UNL A   1      48.367  27.859  29.604  1.00  0.00    -0.206 F 
ATOM     97  C   UNL A   1      50.264  25.741  31.841  1.00  0.00     0.022 A 
BRANCH  94  98
ATOM     98  S   UNL A   1      49.643  24.219  34.095  1.00  0.00     0.124 S 
ATOM     99  O   UNL A   1      49.935  25.205  35.130  1.00  0.00    -0.237 OA
ATOM    100  O   UNL A   1      48.414  23.452  34.272  1.00  0.00    -0.237 OA
ATOM    101  O   UNL A   1      50.795  23.444  33.635  1.00  0.00    -0.744 OA
ENDBRANCH  94  98
ENDBRANCH  68  91
ENDBRANCH  42  43
ENDBRANCH  34  37
ENDBRANCH  32  33
ENDBRANCH  31  32
ENDBRANCH   1  31
TORSDOF 18
ENDMDL
MODEL 3
REMARK VINA RESULT:     -12.2      1.646      2.148
REMARK SMILES C[C@@H]1CN(S(=O)(=O)c2cccc(C(=O)N3CCC[C@@H]3C(=O)NCCCCNC(=O)c3ccc(-c4c5nc(c(-c6cc(S(=O)(=O)[O-])ccc6F)c6ccc([nH]6)c(-c6cc(S(=O)(=O)[O-])ccc6F)c6nc(c(-c7cc(S(=O)(=O)[O-])ccc7F)c7ccc4[nH]7)C=C6)C=C5)cc3)c2)C[C@H](C)O1
REMARK SMILES IDX 24 1 23 2 22 3 20 4 21 5 19 7 15 8 16 9 17 10 18 11 13 12
REMARK SMILES IDX 14 13 12 14 8 15 9 16 93 17 10 18 11 19 5 20 6 21 7 22 4 23
REMARK SMILES IDX 1 24 2 25 3 26 97 27 95 28 94 29 96 30 25 31 26 32 27 33
REMARK SMILES IDX 28 34 29 36 30 37 31 38 92 39 32 40 91 41 33 42 34 43 35 44
REMARK SMILES IDX 85 45 36 46 90 47 84 48 86 49 37 50 89 51 83 52 82 53 38 55
REMARK SMILES IDX 70 56 50 57 69 58 51 59 54 60 68 61 87 62 52 63 53 64 67 66
REMARK SMILES IDX 88 67 55 68 39 69 40 70 48 71 41 72 47 73 49 74 46 75 42 76
REMARK SMILES IDX 43 77 44 78 45 79 71 80 72 81 80 82 73 83 79 84 81 85 78 86
REMARK SMILES IDX 74 87 75 88 76 89 77 90 56 91 57 92 65 93 58 94 64 95 66 96
REMARK SMILES IDX 63 97 59 98 60 99 61 100 62 101
REMARK H PARENT 22 6 27 35 86 54 54 65
REMARK Flexibility Score: inf
ROOT
ATOM      1  C   UNL A   1      33.951  28.764  24.207  1.00  0.00     0.023 C 
ENDROOT
BRANCH   1   2
ATOM      2  C   UNL A   1      33.797  28.251  22.788  1.00  0.00     0.116 C 
BRANCH   2   3
ATOM      3  N   UNL A   1      32.589  28.713  22.157  1.00  0.00    -0.354 N 
ATOM      4  C   UNL A   1      31.296  28.359  22.414  1.00  0.00     0.242 C 
ATOM      5  O   UNL A   1      30.437  28.771  21.626  1.00  0.00    -0.273 OA
ATOM      6  H   UNL A   1      32.712  29.376  21.441  1.00  0.00     0.163 HD
BRANCH   4   7
ATOM      7  C   UNL A   1      30.914  27.319  23.496  1.00  0.00     0.174 C 
ATOM      8  N   UNL A   1      30.771  25.912  23.123  1.00  0.00    -0.327 N 
ATOM      9  C   UNL A   1      29.865  25.284  24.066  1.00  0.00     0.121 C 
ATOM     10  C   UNL A   1      28.775  26.325  24.188  1.00  0.00     0.024 C 
ATOM     11  C   UNL A   1      29.536  27.657  24.106  1.00  0.00     0.037 C 
BRANCH   8  12
ATOM     12  C   UNL A   1      31.795  25.246  22.478  1.00  0.00     0.254 C 
ATOM     13  O   UNL A   1      32.249  25.631  21.405  1.00  0.00    -0.269 OA
BRANCH  12  14
ATOM     14  C   UNL A   1      32.150  23.880  23.001  1.00  0.00     0.041 A 
ATOM     15  C   UNL A   1      32.707  22.335  24.806  1.00  0.00     0.083 A 
ATOM     16  C   UNL A   1      32.519  21.251  23.945  1.00  0.00     0.022 A 
ATOM     17  C   UNL A   1      32.515  23.637  24.335  1.00  0.00     0.035 A 
ATOM     18  C   UNL A   1      32.152  21.478  22.616  1.00  0.00     0.002 A 
ATOM     19  C   UNL A   1      31.978  22.783  22.144  1.00  0.00     0.014 A 
BRANCH  15  20
ATOM     20  S   UNL A   1      33.534  22.099  26.370  1.00  0.00     0.243 S 
ATOM     21  O   UNL A   1      33.301  20.707  26.735  1.00  0.00    -0.207 OA
ATOM     22  O   UNL A   1      33.089  23.152  27.245  1.00  0.00    -0.207 OA
BRANCH  20  23
ATOM     23  N   UNL A   1      35.248  22.269  26.117  1.00  0.00    -0.193 NA
ATOM     24  C   UNL A   1      38.290  23.723  26.193  1.00  0.00     0.040 C 
ATOM     25  C   UNL A   1      37.154  23.703  25.175  1.00  0.00     0.130 C 
ATOM     26  C   UNL A   1      35.709  23.640  25.727  1.00  0.00     0.134 C 
ATOM     27  O   UNL A   1      37.391  22.733  24.154  1.00  0.00    -0.373 OA
ATOM     28  C   UNL A   1      37.077  21.389  24.526  1.00  0.00     0.130 C 
ATOM     29  C   UNL A   1      35.657  21.241  25.081  1.00  0.00     0.134 C 
ATOM     30  C   UNL A   1      38.157  20.735  25.377  1.00  0.00     0.040 C 
ENDBRANCH  20  23
ENDBRANCH  15  20
ENDBRANCH  12  14
ENDBRANCH   8  12
ENDBRANCH   4   7
ENDBRANCH   2   3
ENDBRANCH   1   2
BRANCH   1  31
ATOM     31  C   UNL A   1      33.658  27.782  25.333  1.00  0.00     0.023 C 
BRANCH  31  32
ATOM     32  C   UNL A   1      33.416  28.367  26.722  1.00  0.00     0.116 C 
BRANCH  32  33
ATOM     33  N   UNL A   1      32.895  29.730  26.757  1.00  0.00    -0.352 N 
ATOM     34  C   UNL A   1      33.474  30.890  27.228  1.00  0.00     0.251 C 
ATOM     35  H   UNL A   1      31.990  29.838  26.387  1.00  0.00     0.163 HD
ATOM     36  O   UNL A   1      32.926  31.975  27.076  1.00  0.00    -0.269 OA
BRANCH  34  37
ATOM     37  C   UNL A   1      34.741  30.833  27.970  1.00  0.00     0.039 A 
ATOM     38  C   UNL A   1      35.028  29.708  28.756  1.00  0.00     0.014 A 
ATOM     39  C   UNL A   1      35.646  31.884  27.874  1.00  0.00     0.014 A 
ATOM     40  C   UNL A   1      36.277  29.586  29.361  1.00  0.00     0.010 A 
ATOM     41  C   UNL A   1      36.911  31.728  28.408  1.00  0.00     0.010 A 
ATOM     42  C   UNL A   1      37.237  30.578  29.151  1.00  0.00    -0.014 A 
BRANCH  42  43
ATOM     43  C   UNL A   1      38.588  30.542  29.745  1.00  0.00     0.031 A 
ATOM     44  C   UNL A   1      39.566  29.590  29.130  1.00  0.00     0.074 A 
ATOM     45  C   UNL A   1      38.831  31.165  30.912  1.00  0.00     0.049 A 
ATOM     46  N   UNL A   1      40.586  28.986  29.669  1.00  0.00    -0.248 NA
ATOM     47  C   UNL A   1      39.291  29.204  27.735  1.00  0.00     0.031 C 
ATOM     48  C   UNL A   1      37.937  32.120  31.569  1.00  0.00     0.029 A 
ATOM     49  N   UNL A   1      39.879  31.029  31.786  1.00  0.00    -0.354 N 
ATOM     50  C   UNL A   1      41.028  28.083  28.708  1.00  0.00     0.074 A 
ATOM     51  C   UNL A   1      40.159  28.220  27.560  1.00  0.00     0.031 C 
ATOM     52  C   UNL A   1      38.456  32.454  32.763  1.00  0.00     0.029 A 
ATOM     53  C   UNL A   1      39.674  31.682  32.982  1.00  0.00     0.049 A 
ATOM     54  H   UNL A   1      40.694  30.518  31.580  1.00  0.00     0.167 HD
ATOM     55  C   UNL A   1      42.057  27.209  28.805  1.00  0.00     0.034 A 
ATOM     56  C   UNL A   1      40.362  31.604  34.139  1.00  0.00     0.034 A 
ATOM     57  C   UNL A   1      42.916  27.146  29.959  1.00  0.00     0.049 A 
ATOM     58  C   UNL A   1      41.540  30.662  34.202  1.00  0.00     0.074 A 
ATOM     59  C   UNL A   1      44.035  26.362  30.164  1.00  0.00     0.029 A 
ATOM     60  N   UNL A   1      42.749  27.916  31.105  1.00  0.00    -0.354 N 
ATOM     61  N   UNL A   1      41.963  29.810  33.293  1.00  0.00    -0.248 NA
ATOM     62  C   UNL A   1      42.333  30.666  35.437  1.00  0.00     0.031 C 
ATOM     63  C   UNL A   1      44.518  26.625  31.450  1.00  0.00     0.029 A 
ATOM     64  C   UNL A   1      43.738  27.619  32.024  1.00  0.00     0.049 A 
ATOM     65  H   UNL A   1      42.030  28.574  31.243  1.00  0.00     0.167 HD
ATOM     66  C   UNL A   1      43.091  29.204  33.838  1.00  0.00     0.074 A 
ATOM     67  C   UNL A   1      43.285  29.791  35.149  1.00  0.00     0.031 C 
ATOM     68  C   UNL A   1      43.901  28.250  33.310  1.00  0.00     0.034 A 
BRANCH  55  69
ATOM     69  C   UNL A   1      42.260  26.238  27.670  1.00  0.00     0.023 A 
ATOM     70  C   UNL A   1      41.846  24.898  27.754  1.00  0.00     0.031 A 
ATOM     71  C   UNL A   1      42.918  26.651  26.498  1.00  0.00     0.131 A 
ATOM     72  C   UNL A   1      42.161  24.002  26.720  1.00  0.00     0.055 A 
ATOM     73  C   UNL A   1      43.156  25.774  25.438  1.00  0.00     0.041 A 
ATOM     74  F   UNL A   1      43.361  27.912  26.371  1.00  0.00    -0.206 F 
ATOM     75  C   UNL A   1      42.790  24.437  25.551  1.00  0.00     0.022 A 
BRANCH  72  76
ATOM     76  S   UNL A   1      41.849  22.236  26.980  1.00  0.00     0.124 S 
ATOM     77  O   UNL A   1      41.446  21.810  25.641  1.00  0.00    -0.237 OA
ATOM     78  O   UNL A   1      43.144  21.748  27.441  1.00  0.00    -0.237 OA
ATOM     79  O   UNL A   1      40.784  22.219  27.980  1.00  0.00    -0.744 OA
ENDBRANCH  72  76
ENDBRANCH  55  69
BRANCH  56  80
ATOM     80  C   UNL A   1      39.936  32.382  35.338  1.00  0.00     0.023 A 
ATOM     81  C   UNL A   1      39.103  31.804  36.309  1.00  0.00     0.031 A 
ATOM     82  C   UNL A   1      40.315  33.724  35.515  1.00  0.00     0.131 A 
ATOM     83  C   UNL A   1      38.631  32.578  37.381  1.00  0.00     0.055 A 
ATOM     84  C   UNL A   1      39.887  34.475  36.613  1.00  0.00     0.041 A 
ATOM     85  F   UNL A   1      41.119  34.327  34.623  1.00  0.00    -0.206 F 
ATOM     86  C   UNL A   1      39.027  33.907  37.546  1.00  0.00     0.022 A 
BRANCH  83  87
ATOM     87  S   UNL A   1      37.411  31.847  38.508  1.00  0.00     0.124 S 
ATOM     88  O   UNL A   1      37.274  30.500  37.962  1.00  0.00    -0.237 OA
ATOM     89  O   UNL A   1      38.090  31.952  39.794  1.00  0.00    -0.237 OA
ATOM     90  O   UNL A   1      36.241  32.707  38.347  1.00  0.00    -0.744 OA
ENDBRANCH  83  87
ENDBRANCH  56  80
BRANCH  68  91
ATOM     91  C   UNL A   1      45.103  27.854  34.122  1.00  0.00     0.023 A 
ATOM     92  C   UNL A   1      45.044  26.830  35.081  1.00  0.00     0.031 A 
ATOM     93  C   UNL A   1      46.334  28.498  33.903  1.00  0.00     0.131 A 
ATOM     94  C   UNL A   1      46.191  26.504  35.816  1.00  0.00     0.055 A 
ATOM     95  C   UNL A   1      47.483  28.135  34.602  1.00  0.00     0.041 A 
ATOM     96  F   UNL A   1      46.437  29.481  32.993  1.00  0.00    -0.206 F 
ATOM     97  C   UNL A   1      47.413  27.138  35.571  1.00  0.00     0.022 A 
BRANCH  94  98
ATOM     98  S   UNL A   1      46.056  25.269  37.136  1.00  0.00     0.124 S 
ATOM     99  O   UNL A   1      44.725  24.719  36.901  1.00  0.00    -0.237 OA
ATOM    100  O   UNL A   1      47.175  24.378  36.848  1.00  0.00    -0.237 OA
ATOM    101  O   UNL A   1      46.193  26.058  38.359  1.00  0.00    -0.744 OA
ENDBRANCH  94  98
ENDBRANCH  68  91
ENDBRANCH  42  43
ENDBRANCH  34  37
ENDBRANCH  32  33
ENDBRANCH  31  32
ENDBRANCH   1  31
TORSDOF 18
ENDMDL
