MODEL 1
REMARK VINA RESULT:     -13.1      0.000      0.000
REMARK SMILES COc1cccc([C@@H]2[NH2+][C@@](C)(C(=O)NCCCCNC(=O)c3ccc(-c4c5nc(c(-c6cc(S(=O)(=O)[O-])ccc6F)c6ccc([nH]6)c(-c6cc(S(=O)(=O)[O-])ccc6F)c6nc(c(-c7cc(S(=O)(=O)[O-])ccc7F)c7ccc4[nH]7)C=C6)C=C5)cc3)[C@@H]3C(=O)N(c4cccc(Cl)c4)C(=O)[C@@H]32)c1O
REMARK SMILES IDX 17 1 16 2 15 3 14 4 12 5 13 6 10 8 8 9 9 10 98 11 85 14
REMARK SMILES IDX 96 15 11 16 86 17 88 18 97 19 87 20 7 21 3 22 4 23 99 24
REMARK SMILES IDX 5 25 6 26 2 27 1 28 100 29 89 31 90 32 95 33 91 34 93 35
REMARK SMILES IDX 92 36 94 37 18 38 19 39 20 40 21 42 22 43 23 44 84 45 24 46
REMARK SMILES IDX 83 47 25 48 26 49 27 50 77 51 28 52 82 53 76 54 78 55 29 56
REMARK SMILES IDX 81 57 75 58 74 59 30 61 62 62 42 63 61 64 43 65 46 66 60 67
REMARK SMILES IDX 79 68 44 69 45 70 59 72 80 73 47 74 31 75 32 76 40 77 33 78
REMARK SMILES IDX 39 79 41 80 38 81 34 82 35 83 36 84 37 85 63 86 64 87 72 88
REMARK SMILES IDX 65 89 71 90 73 91 70 92 66 93 67 94 68 95 69 96 48 97 49 98
REMARK SMILES IDX 57 99 50 100 56 101 58 102 55 103 51 104 52 105 53 106
REMARK SMILES IDX 54 107
REMARK H PARENT 14 7 9 12 9 13 100 30 19 41 78 60 46 71
REMARK Flexibility Score: inf
ROOT
ATOM      1  C   UNL A   1      35.653  21.785  24.613  1.00  0.00     0.023 C 
ENDROOT
BRANCH   1   2
ATOM      2  C   UNL A   1      35.019  21.535  25.982  1.00  0.00     0.023 C 
BRANCH   2   3
ATOM      3  C   UNL A   1      33.559  21.102  25.933  1.00  0.00     0.116 C 
BRANCH   3   4
ATOM      4  N   UNL A   1      33.054  21.053  24.571  1.00  0.00    -0.351 N 
ATOM      5  C   UNL A   1      32.177  21.876  23.925  1.00  0.00     0.281 C 
ATOM      6  O   UNL A   1      31.846  21.557  22.779  1.00  0.00    -0.268 OA
ATOM      7  H   UNL A   1      33.400  20.308  24.028  1.00  0.00     0.163 HD
BRANCH   5   8
ATOM      8  C   UNL A   1      31.653  23.186  24.595  1.00  0.00     0.185 C 
ATOM      9  C   UNL A   1      31.323  24.953  22.977  1.00  0.00     0.232 C 
ATOM     10  N   UNL A   1      30.676  23.824  23.673  1.00  0.00    -0.326 N 
ATOM     11  C   UNL A   1      32.771  25.023  23.470  1.00  0.00     0.162 C 
ATOM     12  H   UNL A   1      30.357  23.140  22.988  1.00  0.00     0.347 HD
ATOM     13  H   UNL A   1      29.879  24.167  24.208  1.00  0.00     0.347 HD
ATOM     14  C   UNL A   1      32.821  24.177  24.727  1.00  0.00     0.169 C 
ATOM     15  C   UNL A   1      33.231  26.379  23.932  1.00  0.00     0.244 C 
ATOM     16  C   UNL A   1      31.021  22.791  25.941  1.00  0.00     0.091 C 
ATOM     17  C   UNL A   1      32.780  25.202  25.830  1.00  0.00     0.244 C 
ATOM     18  N   UNL A   1      33.132  26.428  25.306  1.00  0.00    -0.250 N 
ATOM     19  O   UNL A   1      33.615  27.252  23.169  1.00  0.00    -0.273 OA
ATOM     20  O   UNL A   1      32.468  24.963  26.990  1.00  0.00    -0.273 OA
BRANCH   9  21
ATOM     21  C   UNL A   1      30.523  26.251  23.072  1.00  0.00     0.056 A 
ATOM     22  C   UNL A   1      29.772  28.406  22.164  1.00  0.00     0.161 A 
ATOM     23  C   UNL A   1      28.817  28.472  23.186  1.00  0.00     0.050 A 
ATOM     24  C   UNL A   1      30.646  27.312  22.143  1.00  0.00     0.166 A 
ATOM     25  C   UNL A   1      28.710  27.464  24.142  1.00  0.00     0.005 A 
ATOM     26  C   UNL A   1      29.547  26.355  24.078  1.00  0.00     0.014 A 
BRANCH  22  27
ATOM     27  O   UNL A   1      29.740  29.496  21.341  1.00  0.00    -0.493 OA
ATOM     28  C   UNL A   1      28.696  30.444  21.483  1.00  0.00     0.278 C 
ENDBRANCH  22  27
BRANCH  24  29
ATOM     29  O   UNL A   1      31.703  27.225  21.281  1.00  0.00    -0.504 OA
ATOM     30  H   UNL A   1      31.831  27.886  20.630  1.00  0.00     0.293 HD
ENDBRANCH  24  29
ENDBRANCH   9  21
BRANCH  18  31
ATOM     31  C   UNL A   1      33.271  27.604  26.095  1.00  0.00     0.053 A 
ATOM     32  C   UNL A   1      32.154  28.374  26.454  1.00  0.00     0.027 A 
ATOM     33  C   UNL A   1      34.526  27.989  26.595  1.00  0.00     0.047 A 
ATOM     34  C   UNL A   1      32.279  29.459  27.329  1.00  0.00     0.004 A 
ATOM     35  C   UNL A   1      34.651  29.089  27.444  1.00  0.00     0.043 A 
ATOM     36  C   UNL A   1      33.530  29.815  27.828  1.00  0.00     0.020 A 
ATOM     37  Cl  UNL A   1      36.204  29.542  28.031  1.00  0.00    -0.084 Cl
ENDBRANCH  18  31
ENDBRANCH   5   8
ENDBRANCH   3   4
ENDBRANCH   2   3
ENDBRANCH   1   2
BRANCH   1  38
ATOM     38  C   UNL A   1      37.147  22.088  24.635  1.00  0.00     0.116 C 
BRANCH  38  39
ATOM     39  N   UNL A   1      37.933  21.001  25.193  1.00  0.00    -0.352 N 
ATOM     40  C   UNL A   1      39.079  21.048  25.949  1.00  0.00     0.251 C 
ATOM     41  H   UNL A   1      37.595  20.097  25.002  1.00  0.00     0.163 HD
ATOM     42  O   UNL A   1      39.687  20.008  26.186  1.00  0.00    -0.269 OA
BRANCH  40  43
ATOM     43  C   UNL A   1      39.596  22.345  26.441  1.00  0.00     0.039 A 
ATOM     44  C   UNL A   1      40.710  22.345  27.282  1.00  0.00     0.014 A 
ATOM     45  C   UNL A   1      38.994  23.554  26.080  1.00  0.00     0.014 A 
ATOM     46  C   UNL A   1      41.256  23.559  27.708  1.00  0.00     0.010 A 
ATOM     47  C   UNL A   1      39.592  24.762  26.433  1.00  0.00     0.010 A 
ATOM     48  C   UNL A   1      40.726  24.780  27.257  1.00  0.00    -0.014 A 
BRANCH  48  49
ATOM     49  C   UNL A   1      41.366  26.067  27.638  1.00  0.00     0.031 A 
ATOM     50  C   UNL A   1      42.740  26.422  27.134  1.00  0.00     0.074 A 
ATOM     51  C   UNL A   1      40.713  26.908  28.465  1.00  0.00     0.049 A 
ATOM     52  N   UNL A   1      43.435  27.515  27.327  1.00  0.00    -0.248 NA
ATOM     53  C   UNL A   1      43.434  25.405  26.333  1.00  0.00     0.031 C 
ATOM     54  C   UNL A   1      39.400  26.652  29.063  1.00  0.00     0.029 A 
ATOM     55  N   UNL A   1      41.051  28.153  28.932  1.00  0.00    -0.354 N 
ATOM     56  C   UNL A   1      44.650  27.313  26.681  1.00  0.00     0.074 A 
ATOM     57  C   UNL A   1      44.620  25.966  26.152  1.00  0.00     0.031 C 
ATOM     58  C   UNL A   1      39.019  27.730  29.765  1.00  0.00     0.029 A 
ATOM     59  C   UNL A   1      40.075  28.735  29.710  1.00  0.00     0.049 A 
ATOM     60  H   UNL A   1      41.910  28.589  28.731  1.00  0.00     0.167 HD
ATOM     61  C   UNL A   1      45.684  28.178  26.522  1.00  0.00     0.034 A 
ATOM     62  C   UNL A   1      40.033  29.943  30.304  1.00  0.00     0.034 A 
ATOM     63  C   UNL A   1      45.694  29.520  27.057  1.00  0.00     0.049 A 
ATOM     64  C   UNL A   1      41.201  30.878  30.130  1.00  0.00     0.074 A 
ATOM     65  C   UNL A   1      46.656  30.503  26.902  1.00  0.00     0.029 A 
ATOM     66  N   UNL A   1      44.703  30.065  27.866  1.00  0.00    -0.354 N 
ATOM     67  N   UNL A   1      42.311  30.703  29.449  1.00  0.00    -0.248 NA
ATOM     68  C   UNL A   1      41.099  32.183  30.793  1.00  0.00     0.031 C 
ATOM     69  C   UNL A   1      46.292  31.604  27.686  1.00  0.00     0.029 A 
ATOM     70  C   UNL A   1      45.054  31.351  28.254  1.00  0.00     0.049 A 
ATOM     71  H   UNL A   1      43.873  29.604  28.127  1.00  0.00     0.167 HD
ATOM     72  C   UNL A   1      43.023  31.893  29.576  1.00  0.00     0.074 A 
ATOM     73  C   UNL A   1      42.203  32.782  30.375  1.00  0.00     0.031 C 
ATOM     74  C   UNL A   1      44.242  32.223  29.075  1.00  0.00     0.034 A 
BRANCH  61  75
ATOM     75  C   UNL A   1      46.901  27.679  25.772  1.00  0.00     0.023 A 
ATOM     76  C   UNL A   1      47.157  28.046  24.439  1.00  0.00     0.031 A 
ATOM     77  C   UNL A   1      47.799  26.787  26.388  1.00  0.00     0.131 A 
ATOM     78  C   UNL A   1      48.222  27.457  23.739  1.00  0.00     0.055 A 
ATOM     79  C   UNL A   1      48.912  26.278  25.715  1.00  0.00     0.041 A 
ATOM     80  F   UNL A   1      47.600  26.378  27.651  1.00  0.00    -0.206 F 
ATOM     81  C   UNL A   1      49.119  26.598  24.377  1.00  0.00     0.022 A 
BRANCH  78  82
ATOM     82  S   UNL A   1      48.314  27.692  21.943  1.00  0.00     0.124 S 
ATOM     83  O   UNL A   1      48.570  26.330  21.479  1.00  0.00    -0.237 OA
ATOM     84  O   UNL A   1      46.999  28.238  21.628  1.00  0.00    -0.237 OA
ATOM     85  O   UNL A   1      49.433  28.618  21.774  1.00  0.00    -0.744 OA
ENDBRANCH  78  82
ENDBRANCH  61  75
BRANCH  62  86
ATOM     86  C   UNL A   1      38.841  30.354  31.101  1.00  0.00     0.023 A 
ATOM     87  C   UNL A   1      37.856  31.189  30.547  1.00  0.00     0.031 A 
ATOM     88  C   UNL A   1      38.686  29.955  32.441  1.00  0.00     0.131 A 
ATOM     89  C   UNL A   1      36.789  31.637  31.340  1.00  0.00     0.055 A 
ATOM     90  C   UNL A   1      37.592  30.356  33.209  1.00  0.00     0.041 A 
ATOM     91  F   UNL A   1      39.596  29.155  33.020  1.00  0.00    -0.206 F 
ATOM     92  C   UNL A   1      36.642  31.214  32.663  1.00  0.00     0.022 A 
BRANCH  89  93
ATOM     93  S   UNL A   1      35.638  32.853  30.642  1.00  0.00     0.124 S 
ATOM     94  O   UNL A   1      36.235  34.111  31.079  1.00  0.00    -0.237 OA
ATOM     95  O   UNL A   1      35.721  32.564  29.215  1.00  0.00    -0.237 OA
ATOM     96  O   UNL A   1      34.364  32.515  31.272  1.00  0.00    -0.744 OA
ENDBRANCH  89  93
ENDBRANCH  62  86
BRANCH  74  97
ATOM     97  C   UNL A   1      44.735  33.627  29.352  1.00  0.00     0.023 A 
ATOM     98  C   UNL A   1      44.495  34.687  28.458  1.00  0.00     0.031 A 
ATOM     99  C   UNL A   1      45.508  33.897  30.495  1.00  0.00     0.131 A 
ATOM    100  C   UNL A   1      45.100  35.935  28.671  1.00  0.00     0.055 A 
ATOM    101  C   UNL A   1      46.036  35.164  30.746  1.00  0.00     0.041 A 
ATOM    102  F   UNL A   1      45.776  32.927  31.384  1.00  0.00    -0.206 F 
ATOM    103  C   UNL A   1      45.853  36.186  29.819  1.00  0.00     0.022 A 
BRANCH 100 104
ATOM    104  S   UNL A   1      45.021  37.174  27.348  1.00  0.00     0.124 S 
ATOM    105  O   UNL A   1      45.416  38.392  28.050  1.00  0.00    -0.237 OA
ATOM    106  O   UNL A   1      45.983  36.658  26.379  1.00  0.00    -0.237 OA
ATOM    107  O   UNL A   1      43.625  37.130  26.920  1.00  0.00    -0.744 OA
ENDBRANCH 100 104
ENDBRANCH  74  97
ENDBRANCH  48  49
ENDBRANCH  40  43
ENDBRANCH  38  39
ENDBRANCH   1  38
TORSDOF 18
ENDMDL
MODEL 2
REMARK VINA RESULT:     -12.5      2.601      3.140
REMARK SMILES COc1cccc([C@@H]2[NH2+][C@@](C)(C(=O)NCCCCNC(=O)c3ccc(-c4c5nc(c(-c6cc(S(=O)(=O)[O-])ccc6F)c6ccc([nH]6)c(-c6cc(S(=O)(=O)[O-])ccc6F)c6nc(c(-c7cc(S(=O)(=O)[O-])ccc7F)c7ccc4[nH]7)C=C6)C=C5)cc3)[C@@H]3C(=O)N(c4cccc(Cl)c4)C(=O)[C@@H]32)c1O
REMARK SMILES IDX 17 1 16 2 15 3 14 4 12 5 13 6 10 8 8 9 9 10 98 11 85 14
REMARK SMILES IDX 96 15 11 16 86 17 88 18 97 19 87 20 7 21 3 22 4 23 99 24
REMARK SMILES IDX 5 25 6 26 2 27 1 28 100 29 89 31 90 32 95 33 91 34 93 35
REMARK SMILES IDX 92 36 94 37 18 38 19 39 20 40 21 42 22 43 23 44 84 45 24 46
REMARK SMILES IDX 83 47 25 48 26 49 27 50 77 51 28 52 82 53 76 54 78 55 29 56
REMARK SMILES IDX 81 57 75 58 74 59 30 61 62 62 42 63 61 64 43 65 46 66 60 67
REMARK SMILES IDX 79 68 44 69 45 70 59 72 80 73 47 74 31 75 32 76 40 77 33 78
REMARK SMILES IDX 39 79 41 80 38 81 34 82 35 83 36 84 37 85 63 86 64 87 72 88
REMARK SMILES IDX 65 89 71 90 73 91 70 92 66 93 67 94 68 95 69 96 48 97 49 98
REMARK SMILES IDX 57 99 50 100 56 101 58 102 55 103 51 104 52 105 53 106
REMARK SMILES IDX 54 107
REMARK H PARENT 14 7 9 12 9 13 100 30 19 41 78 60 46 71
REMARK Flexibility Score: inf
ROOT
ATOM      1  C   UNL A   1      35.849  22.557  25.171  1.00  0.00     0.023 C 
ENDROOT
BRANCH   1   2
ATOM      2  C   UNL A   1      35.198  21.281  25.704  1.00  0.00     0.023 C 
BRANCH   2   3
ATOM      3  C   UNL A   1      33.675  21.326  25.764  1.00  0.00     0.116 C 
BRANCH   3   4
ATOM      4  N   UNL A   1      33.077  21.236  24.443  1.00  0.00    -0.351 N 
ATOM      5  C   UNL A   1      32.135  22.023  23.845  1.00  0.00     0.281 C 
ATOM      6  O   UNL A   1      31.734  21.672  22.732  1.00  0.00    -0.268 OA
ATOM      7  H   UNL A   1      33.404  20.488  23.891  1.00  0.00     0.163 HD
BRANCH   5   8
ATOM      8  C   UNL A   1      31.627  23.334  24.525  1.00  0.00     0.185 C 
ATOM      9  C   UNL A   1      31.271  25.102  22.914  1.00  0.00     0.232 C 
ATOM     10  N   UNL A   1      30.634  23.974  23.621  1.00  0.00    -0.326 N 
ATOM     11  C   UNL A   1      32.728  25.169  23.381  1.00  0.00     0.162 C 
ATOM     12  H   UNL A   1      30.302  23.291  22.941  1.00  0.00     0.347 HD
ATOM     13  H   UNL A   1      29.847  24.318  24.170  1.00  0.00     0.347 HD
ATOM     14  C   UNL A   1      32.798  24.322  24.637  1.00  0.00     0.169 C 
ATOM     15  C   UNL A   1      33.198  26.525  23.836  1.00  0.00     0.244 C 
ATOM     16  C   UNL A   1      31.018  22.939  25.882  1.00  0.00     0.091 C 
ATOM     17  C   UNL A   1      32.778  25.347  25.740  1.00  0.00     0.244 C 
ATOM     18  N   UNL A   1      33.124  26.572  25.211  1.00  0.00    -0.250 N 
ATOM     19  O   UNL A   1      33.570  27.397  23.066  1.00  0.00    -0.273 OA
ATOM     20  O   UNL A   1      32.487  25.108  26.906  1.00  0.00    -0.273 OA
BRANCH   9  21
ATOM     21  C   UNL A   1      30.475  26.402  23.024  1.00  0.00     0.056 A 
ATOM     22  C   UNL A   1      29.711  28.557  22.130  1.00  0.00     0.161 A 
ATOM     23  C   UNL A   1      28.775  28.625  23.170  1.00  0.00     0.050 A 
ATOM     24  C   UNL A   1      30.582  27.462  22.092  1.00  0.00     0.166 A 
ATOM     25  C   UNL A   1      28.684  27.618  24.128  1.00  0.00     0.005 A 
ATOM     26  C   UNL A   1      29.518  26.507  24.048  1.00  0.00     0.014 A 
BRANCH  22  27
ATOM     27  O   UNL A   1      29.665  29.648  21.307  1.00  0.00    -0.493 OA
ATOM     28  C   UNL A   1      28.574  30.547  21.404  1.00  0.00     0.278 C 
ENDBRANCH  22  27
BRANCH  24  29
ATOM     29  O   UNL A   1      31.622  27.373  21.211  1.00  0.00    -0.504 OA
ATOM     30  H   UNL A   1      32.032  28.153  20.891  1.00  0.00     0.293 HD
ENDBRANCH  24  29
ENDBRANCH   9  21
BRANCH  18  31
ATOM     31  C   UNL A   1      33.279  27.748  25.998  1.00  0.00     0.053 A 
ATOM     32  C   UNL A   1      34.415  27.940  26.799  1.00  0.00     0.027 A 
ATOM     33  C   UNL A   1      32.329  28.781  25.942  1.00  0.00     0.047 A 
ATOM     34  C   UNL A   1      34.622  29.148  27.476  1.00  0.00     0.004 A 
ATOM     35  C   UNL A   1      32.524  29.972  26.641  1.00  0.00     0.043 A 
ATOM     36  C   UNL A   1      33.675  30.168  27.395  1.00  0.00     0.020 A 
ATOM     37  Cl  UNL A   1      31.336  31.214  26.561  1.00  0.00    -0.084 Cl
ENDBRANCH  18  31
ENDBRANCH   5   8
ENDBRANCH   3   4
ENDBRANCH   2   3
ENDBRANCH   1   2
BRANCH   1  38
ATOM     38  C   UNL A   1      36.903  23.177  26.082  1.00  0.00     0.116 C 
BRANCH  38  39
ATOM     39  N   UNL A   1      38.100  22.360  26.195  1.00  0.00    -0.352 N 
ATOM     40  C   UNL A   1      39.386  22.730  26.503  1.00  0.00     0.251 C 
ATOM     41  H   UNL A   1      37.969  21.399  26.026  1.00  0.00     0.163 HD
ATOM     42  O   UNL A   1      40.292  21.910  26.386  1.00  0.00    -0.269 OA
BRANCH  40  43
ATOM     43  C   UNL A   1      39.681  24.114  26.936  1.00  0.00     0.039 A 
ATOM     44  C   UNL A   1      39.583  24.426  28.293  1.00  0.00     0.014 A 
ATOM     45  C   UNL A   1      40.053  25.102  26.018  1.00  0.00     0.014 A 
ATOM     46  C   UNL A   1      39.918  25.708  28.735  1.00  0.00     0.010 A 
ATOM     47  C   UNL A   1      40.471  26.351  26.471  1.00  0.00     0.010 A 
ATOM     48  C   UNL A   1      40.403  26.672  27.834  1.00  0.00    -0.014 A 
BRANCH  48  49
ATOM     49  C   UNL A   1      40.845  28.005  28.323  1.00  0.00     0.031 A 
ATOM     50  C   UNL A   1      42.304  28.378  28.325  1.00  0.00     0.074 A 
ATOM     51  C   UNL A   1      39.927  28.874  28.790  1.00  0.00     0.049 A 
ATOM     52  N   UNL A   1      42.869  29.508  28.672  1.00  0.00    -0.248 NA
ATOM     53  C   UNL A   1      43.254  27.337  27.909  1.00  0.00     0.031 C 
ATOM     54  C   UNL A   1      38.490  28.609  28.890  1.00  0.00     0.029 A 
ATOM     55  N   UNL A   1      40.057  30.160  29.252  1.00  0.00    -0.354 N 
ATOM     56  C   UNL A   1      44.239  29.310  28.526  1.00  0.00     0.074 A 
ATOM     57  C   UNL A   1      44.418  27.930  28.127  1.00  0.00     0.031 C 
ATOM     58  C   UNL A   1      37.866  29.716  29.322  1.00  0.00     0.029 A 
ATOM     59  C   UNL A   1      38.859  30.754  29.577  1.00  0.00     0.049 A 
ATOM     60  H   UNL A   1      40.926  30.614  29.343  1.00  0.00     0.167 HD
ATOM     61  C   UNL A   1      45.249  30.201  28.687  1.00  0.00     0.034 A 
ATOM     62  C   UNL A   1      38.589  31.997  30.022  1.00  0.00     0.034 A 
ATOM     63  C   UNL A   1      45.049  31.576  29.085  1.00  0.00     0.049 A 
ATOM     64  C   UNL A   1      39.730  32.963  30.211  1.00  0.00     0.074 A 
ATOM     65  C   UNL A   1      45.990  32.582  29.215  1.00  0.00     0.029 A 
ATOM     66  N   UNL A   1      43.825  32.135  29.437  1.00  0.00    -0.354 N 
ATOM     67  N   UNL A   1      41.014  32.785  29.994  1.00  0.00    -0.248 NA
ATOM     68  C   UNL A   1      39.379  34.304  30.691  1.00  0.00     0.031 C 
ATOM     69  C   UNL A   1      45.353  33.718  29.728  1.00  0.00     0.029 A 
ATOM     70  C   UNL A   1      43.997  33.457  29.827  1.00  0.00     0.049 A 
ATOM     71  H   UNL A   1      42.962  31.661  29.415  1.00  0.00     0.167 HD
ATOM     72  C   UNL A   1      41.618  34.008  30.279  1.00  0.00     0.074 A 
ATOM     73  C   UNL A   1      40.553  34.915  30.657  1.00  0.00     0.031 C 
ATOM     74  C   UNL A   1      42.932  34.350  30.229  1.00  0.00     0.034 A 
BRANCH  61  75
ATOM     75  C   UNL A   1      46.661  29.700  28.469  1.00  0.00     0.023 A 
ATOM     76  C   UNL A   1      47.432  29.165  29.517  1.00  0.00     0.031 A 
ATOM     77  C   UNL A   1      47.262  29.797  27.200  1.00  0.00     0.131 A 
ATOM     78  C   UNL A   1      48.780  28.835  29.301  1.00  0.00     0.055 A 
ATOM     79  C   UNL A   1      48.574  29.377  26.970  1.00  0.00     0.041 A 
ATOM     80  F   UNL A   1      46.589  30.319  26.162  1.00  0.00    -0.206 F 
ATOM     81  C   UNL A   1      49.347  28.910  28.028  1.00  0.00     0.022 A 
BRANCH  78  82
ATOM     82  S   UNL A   1      49.825  28.477  30.740  1.00  0.00     0.124 S 
ATOM     83  O   UNL A   1      49.244  29.355  31.753  1.00  0.00    -0.237 OA
ATOM     84  O   UNL A   1      49.614  27.048  30.936  1.00  0.00    -0.237 OA
ATOM     85  O   UNL A   1      51.164  28.856  30.295  1.00  0.00    -0.744 OA
ENDBRANCH  78  82
ENDBRANCH  61  75
BRANCH  62  86
ATOM     86  C   UNL A   1      37.185  32.415  30.299  1.00  0.00     0.023 A 
ATOM     87  C   UNL A   1      36.402  33.019  29.301  1.00  0.00     0.031 A 
ATOM     88  C   UNL A   1      36.615  32.256  31.576  1.00  0.00     0.131 A 
ATOM     89  C   UNL A   1      35.114  33.486  29.607  1.00  0.00     0.055 A 
ATOM     90  C   UNL A   1      35.313  32.669  31.859  1.00  0.00     0.041 A 
ATOM     91  F   UNL A   1      37.318  31.682  32.566  1.00  0.00    -0.206 F 
ATOM     92  C   UNL A   1      34.559  33.301  30.875  1.00  0.00     0.022 A 
BRANCH  89  93
ATOM     93  S   UNL A   1      34.205  34.418  28.344  1.00  0.00     0.124 S 
ATOM     94  O   UNL A   1      33.096  33.516  28.052  1.00  0.00    -0.237 OA
ATOM     95  O   UNL A   1      33.865  35.644  29.057  1.00  0.00    -0.237 OA
ATOM     96  O   UNL A   1      35.182  34.575  27.270  1.00  0.00    -0.744 OA
ENDBRANCH  89  93
ENDBRANCH  62  86
BRANCH  74  97
ATOM     97  C   UNL A   1      43.274  35.787  30.558  1.00  0.00     0.023 A 
ATOM     98  C   UNL A   1      43.327  36.782  29.564  1.00  0.00     0.031 A 
ATOM     99  C   UNL A   1      43.612  36.155  31.873  1.00  0.00     0.131 A 
ATOM    100  C   UNL A   1      43.800  38.065  29.881  1.00  0.00     0.055 A 
ATOM    101  C   UNL A   1      43.999  37.455  32.197  1.00  0.00     0.041 A 
ATOM    102  F   UNL A   1      43.585  35.250  32.864  1.00  0.00    -0.206 F 
ATOM    103  C   UNL A   1      44.117  38.413  31.195  1.00  0.00     0.022 A 
BRANCH 100 104
ATOM    104  S   UNL A   1      44.145  39.221  28.526  1.00  0.00     0.124 S 
ATOM    105  O   UNL A   1      43.470  40.433  28.983  1.00  0.00    -0.237 OA
ATOM    106  O   UNL A   1      45.604  39.269  28.521  1.00  0.00    -0.237 OA
ATOM    107  O   UNL A   1      43.541  38.576  27.363  1.00  0.00    -0.744 OA
ENDBRANCH 100 104
ENDBRANCH  74  97
ENDBRANCH  48  49
ENDBRANCH  40  43
ENDBRANCH  38  39
ENDBRANCH   1  38
TORSDOF 18
ENDMDL
MODEL 3
REMARK VINA RESULT:     -12.4      2.282      2.803
REMARK SMILES COc1cccc([C@@H]2[NH2+][C@@](C)(C(=O)NCCCCNC(=O)c3ccc(-c4c5nc(c(-c6cc(S(=O)(=O)[O-])ccc6F)c6ccc([nH]6)c(-c6cc(S(=O)(=O)[O-])ccc6F)c6nc(c(-c7cc(S(=O)(=O)[O-])ccc7F)c7ccc4[nH]7)C=C6)C=C5)cc3)[C@@H]3C(=O)N(c4cccc(Cl)c4)C(=O)[C@@H]32)c1O
REMARK SMILES IDX 17 1 16 2 15 3 14 4 12 5 13 6 10 8 8 9 9 10 98 11 85 14
REMARK SMILES IDX 96 15 11 16 86 17 88 18 97 19 87 20 7 21 3 22 4 23 99 24
REMARK SMILES IDX 5 25 6 26 2 27 1 28 100 29 89 31 90 32 95 33 91 34 93 35
REMARK SMILES IDX 92 36 94 37 18 38 19 39 20 40 21 42 22 43 23 44 84 45 24 46
REMARK SMILES IDX 83 47 25 48 26 49 27 50 77 51 28 52 82 53 76 54 78 55 29 56
REMARK SMILES IDX 81 57 75 58 74 59 30 61 62 62 42 63 61 64 43 65 46 66 60 67
REMARK SMILES IDX 79 68 44 69 45 70 59 72 80 73 47 74 31 75 32 76 40 77 33 78
REMARK SMILES IDX 39 79 41 80 38 81 34 82 35 83 36 84 37 85 63 86 64 87 72 88
REMARK SMILES IDX 65 89 71 90 73 91 70 92 66 93 67 94 68 95 69 96 48 97 49 98
REMARK SMILES IDX 57 99 50 100 56 101 58 102 55 103 51 104 52 105 53 106
REMARK SMILES IDX 54 107
REMARK H PARENT 14 7 9 12 9 13 100 30 19 41 78 60 46 71
REMARK Flexibility Score: inf
ROOT
ATOM      1  C   UNL A   1      36.327  22.350  24.845  1.00  0.00     0.023 C 
ENDROOT
BRANCH   1   2
ATOM      2  C   UNL A   1      35.557  21.051  25.081  1.00  0.00     0.023 C 
BRANCH   2   3
ATOM      3  C   UNL A   1      34.058  21.236  25.292  1.00  0.00     0.116 C 
BRANCH   3   4
ATOM      4  N   UNL A   1      33.315  21.106  24.050  1.00  0.00    -0.351 N 
ATOM      5  C   UNL A   1      32.269  21.840  23.567  1.00  0.00     0.281 C 
ATOM      6  O   UNL A   1      31.760  21.462  22.509  1.00  0.00    -0.268 OA
ATOM      7  H   UNL A   1      33.615  20.374  23.463  1.00  0.00     0.163 HD
BRANCH   5   8
ATOM      8  C   UNL A   1      31.774  23.125  24.304  1.00  0.00     0.185 C 
ATOM      9  C   UNL A   1      31.406  24.955  22.767  1.00  0.00     0.232 C 
ATOM     10  N   UNL A   1      30.774  23.803  23.438  1.00  0.00    -0.326 N 
ATOM     11  C   UNL A   1      32.869  24.999  23.219  1.00  0.00     0.162 C 
ATOM     12  H   UNL A   1      30.431  23.148  22.736  1.00  0.00     0.347 HD
ATOM     13  H   UNL A   1      29.995  24.129  24.010  1.00  0.00     0.347 HD
ATOM     14  C   UNL A   1      32.951  24.104  24.439  1.00  0.00     0.169 C 
ATOM     15  C   UNL A   1      33.350  26.334  23.719  1.00  0.00     0.244 C 
ATOM     16  C   UNL A   1      31.181  22.680  25.652  1.00  0.00     0.091 C 
ATOM     17  C   UNL A   1      32.949  25.085  25.582  1.00  0.00     0.244 C 
ATOM     18  N   UNL A   1      33.293  26.329  25.097  1.00  0.00    -0.250 N 
ATOM     19  O   UNL A   1      33.717  27.234  22.980  1.00  0.00    -0.273 OA
ATOM     20  O   UNL A   1      32.671  24.802  26.741  1.00  0.00    -0.273 OA
BRANCH   9  21
ATOM     21  C   UNL A   1      30.617  26.253  22.937  1.00  0.00     0.056 A 
ATOM     22  C   UNL A   1      29.847  28.442  22.135  1.00  0.00     0.161 A 
ATOM     23  C   UNL A   1      28.928  28.475  23.191  1.00  0.00     0.050 A 
ATOM     24  C   UNL A   1      30.713  27.346  22.043  1.00  0.00     0.166 A 
ATOM     25  C   UNL A   1      28.849  27.434  24.114  1.00  0.00     0.005 A 
ATOM     26  C   UNL A   1      29.678  26.324  23.980  1.00  0.00     0.014 A 
BRANCH  22  27
ATOM     27  O   UNL A   1      29.792  29.562  21.352  1.00  0.00    -0.493 OA
ATOM     28  C   UNL A   1      28.748  30.500  21.554  1.00  0.00     0.278 C 
ENDBRANCH  22  27
BRANCH  24  29
ATOM     29  O   UNL A   1      31.738  27.286  21.142  1.00  0.00    -0.504 OA
ATOM     30  H   UNL A   1      31.729  26.640  20.463  1.00  0.00     0.293 HD
ENDBRANCH  24  29
ENDBRANCH   9  21
BRANCH  18  31
ATOM     31  C   UNL A   1      33.463  27.472  25.927  1.00  0.00     0.053 A 
ATOM     32  C   UNL A   1      34.658  27.689  26.628  1.00  0.00     0.027 A 
ATOM     33  C   UNL A   1      32.460  28.452  26.013  1.00  0.00     0.047 A 
ATOM     34  C   UNL A   1      34.867  28.873  27.345  1.00  0.00     0.004 A 
ATOM     35  C   UNL A   1      32.661  29.618  26.753  1.00  0.00     0.043 A 
ATOM     36  C   UNL A   1      33.867  29.841  27.405  1.00  0.00     0.020 A 
ATOM     37  Cl  UNL A   1      31.408  30.795  26.848  1.00  0.00    -0.084 Cl
ENDBRANCH  18  31
ENDBRANCH   5   8
ENDBRANCH   3   4
ENDBRANCH   2   3
ENDBRANCH   1   2
BRANCH   1  38
ATOM     38  C   UNL A   1      37.241  22.779  25.987  1.00  0.00     0.116 C 
BRANCH  38  39
ATOM     39  N   UNL A   1      38.454  21.981  26.068  1.00  0.00    -0.352 N 
ATOM     40  C   UNL A   1      39.734  22.364  26.388  1.00  0.00     0.251 C 
ATOM     41  H   UNL A   1      38.341  21.025  25.864  1.00  0.00     0.163 HD
ATOM     42  O   UNL A   1      40.655  21.567  26.239  1.00  0.00    -0.269 OA
BRANCH  40  43
ATOM     43  C   UNL A   1      40.003  23.736  26.872  1.00  0.00     0.039 A 
ATOM     44  C   UNL A   1      40.266  23.928  28.229  1.00  0.00     0.014 A 
ATOM     45  C   UNL A   1      40.001  24.831  26.000  1.00  0.00     0.014 A 
ATOM     46  C   UNL A   1      40.586  25.204  28.700  1.00  0.00     0.010 A 
ATOM     47  C   UNL A   1      40.407  26.084  26.455  1.00  0.00     0.010 A 
ATOM     48  C   UNL A   1      40.698  26.287  27.811  1.00  0.00    -0.014 A 
BRANCH  48  49
ATOM     49  C   UNL A   1      41.129  27.623  28.302  1.00  0.00     0.031 A 
ATOM     50  C   UNL A   1      42.585  28.008  28.306  1.00  0.00     0.074 A 
ATOM     51  C   UNL A   1      40.203  28.484  28.769  1.00  0.00     0.049 A 
ATOM     52  N   UNL A   1      43.140  29.141  28.656  1.00  0.00    -0.248 NA
ATOM     53  C   UNL A   1      43.543  26.975  27.890  1.00  0.00     0.031 C 
ATOM     54  C   UNL A   1      38.768  28.207  28.867  1.00  0.00     0.029 A 
ATOM     55  N   UNL A   1      40.322  29.770  29.233  1.00  0.00    -0.354 N 
ATOM     56  C   UNL A   1      44.511  28.955  28.512  1.00  0.00     0.074 A 
ATOM     57  C   UNL A   1      44.703  27.577  28.111  1.00  0.00     0.031 C 
ATOM     58  C   UNL A   1      38.135  29.309  29.300  1.00  0.00     0.029 A 
ATOM     59  C   UNL A   1      39.119  30.355  29.557  1.00  0.00     0.049 A 
ATOM     60  H   UNL A   1      41.187  30.231  29.326  1.00  0.00     0.167 HD
ATOM     61  C   UNL A   1      45.514  29.854  28.676  1.00  0.00     0.034 A 
ATOM     62  C   UNL A   1      38.839  31.595  30.003  1.00  0.00     0.034 A 
ATOM     63  C   UNL A   1      45.303  31.226  29.075  1.00  0.00     0.049 A 
ATOM     64  C   UNL A   1      39.971  32.569  30.195  1.00  0.00     0.074 A 
ATOM     65  C   UNL A   1      46.236  32.240  29.207  1.00  0.00     0.029 A 
ATOM     66  N   UNL A   1      44.074  31.775  29.426  1.00  0.00    -0.354 N 
ATOM     67  N   UNL A   1      41.257  32.402  29.979  1.00  0.00    -0.248 NA
ATOM     68  C   UNL A   1      39.609  33.907  30.677  1.00  0.00     0.031 C 
ATOM     69  C   UNL A   1      45.588  33.371  29.721  1.00  0.00     0.029 A 
ATOM     70  C   UNL A   1      44.234  33.098  29.818  1.00  0.00     0.049 A 
ATOM     71  H   UNL A   1      43.215  31.295  29.401  1.00  0.00     0.167 HD
ATOM     72  C   UNL A   1      41.850  33.629  30.267  1.00  0.00     0.074 A 
ATOM     73  C   UNL A   1      40.778  34.528  30.644  1.00  0.00     0.031 C 
ATOM     74  C   UNL A   1      43.161  33.982  30.219  1.00  0.00     0.034 A 
BRANCH  61  75
ATOM     75  C   UNL A   1      46.931  29.365  28.459  1.00  0.00     0.023 A 
ATOM     76  C   UNL A   1      47.394  28.960  27.194  1.00  0.00     0.031 A 
ATOM     77  C   UNL A   1      47.821  29.262  29.543  1.00  0.00     0.131 A 
ATOM     78  C   UNL A   1      48.669  28.389  27.061  1.00  0.00     0.055 A 
ATOM     79  C   UNL A   1      49.123  28.781  29.387  1.00  0.00     0.041 A 
ATOM     80  F   UNL A   1      47.436  29.609  30.781  1.00  0.00    -0.206 F 
ATOM     81  C   UNL A   1      49.548  28.323  28.144  1.00  0.00     0.022 A 
BRANCH  78  82
ATOM     82  S   UNL A   1      49.095  27.573  25.497  1.00  0.00     0.124 S 
ATOM     83  O   UNL A   1      48.251  28.296  24.548  1.00  0.00    -0.237 OA
ATOM     84  O   UNL A   1      50.528  27.817  25.393  1.00  0.00    -0.237 OA
ATOM     85  O   UNL A   1      48.711  26.180  25.721  1.00  0.00    -0.744 OA
ENDBRANCH  78  82
ENDBRANCH  61  75
BRANCH  62  86
ATOM     86  C   UNL A   1      37.430  32.000  30.279  1.00  0.00     0.023 A 
ATOM     87  C   UNL A   1      36.662  32.649  29.298  1.00  0.00     0.031 A 
ATOM     88  C   UNL A   1      36.843  31.785  31.539  1.00  0.00     0.131 A 
ATOM     89  C   UNL A   1      35.370  33.103  29.607  1.00  0.00     0.055 A 
ATOM     90  C   UNL A   1      35.537  32.186  31.822  1.00  0.00     0.041 A 
ATOM     91  F   UNL A   1      37.531  31.167  32.512  1.00  0.00    -0.206 F 
ATOM     92  C   UNL A   1      34.796  32.862  30.857  1.00  0.00     0.022 A 
BRANCH  89  93
ATOM     93  S   UNL A   1      34.479  34.090  28.374  1.00  0.00     0.124 S 
ATOM     94  O   UNL A   1      35.450  34.155  27.287  1.00  0.00    -0.237 OA
ATOM     95  O   UNL A   1      33.294  33.274  28.129  1.00  0.00    -0.237 OA
ATOM     96  O   UNL A   1      34.230  35.353  29.065  1.00  0.00    -0.744 OA
ENDBRANCH  89  93
ENDBRANCH  62  86
BRANCH  74  97
ATOM     97  C   UNL A   1      43.491  35.421  30.550  1.00  0.00     0.023 A 
ATOM     98  C   UNL A   1      43.788  35.831  31.863  1.00  0.00     0.031 A 
ATOM     99  C   UNL A   1      43.449  36.409  29.550  1.00  0.00     0.131 A 
ATOM    100  C   UNL A   1      43.934  37.195  32.157  1.00  0.00     0.055 A 
ATOM    101  C   UNL A   1      43.679  37.755  29.833  1.00  0.00     0.041 A 
ATOM    102  F   UNL A   1      43.167  36.083  28.278  1.00  0.00    -0.206 F 
ATOM    103  C   UNL A   1      43.901  38.159  31.147  1.00  0.00     0.022 A 
BRANCH 100 104
ATOM    104  S   UNL A   1      44.007  37.706  33.897  1.00  0.00     0.124 S 
ATOM    105  O   UNL A   1      42.608  38.013  34.180  1.00  0.00    -0.237 OA
ATOM    106  O   UNL A   1      44.542  36.515  34.548  1.00  0.00    -0.237 OA
ATOM    107  O   UNL A   1      44.904  38.859  33.877  1.00  0.00    -0.744 OA
ENDBRANCH 100 104
ENDBRANCH  74  97
ENDBRANCH  48  49
ENDBRANCH  40  43
ENDBRANCH  38  39
ENDBRANCH   1  38
TORSDOF 18
ENDMDL
