MODEL 1
REMARK VINA RESULT:     -12.1      0.000      0.000
REMARK SMILES C=Cc1cccc(-c2ccc([C@@H](C)C(=O)NCCCCNC(=O)c3ccc(-c4c5nc(c(-c6cc(S(=O)(=O)[O-])ccc6F)c6ccc([nH]6)c(-c6cc(S(=O)(=O)[O-])ccc6F)c6nc(c(-c7cc(S(=O)(=O)[O-])ccc7F)c7ccc4[nH]7)C=C6)C=C5)cc3)cc2)c1
REMARK SMILES IDX 18 1 17 2 16 3 14 4 15 5 12 7 13 8 11 9 8 10 9 11 88 12
REMARK SMILES IDX 10 13 87 14 7 15 3 16 4 17 89 18 5 19 6 20 2 21 1 22 19 23
REMARK SMILES IDX 20 24 21 25 22 26 23 28 24 29 25 30 86 31 26 32 85 33 27 34
REMARK SMILES IDX 28 35 29 36 79 37 30 38 84 39 78 40 80 41 31 42 83 43 77 44
REMARK SMILES IDX 76 45 32 47 64 48 44 49 63 50 45 51 48 52 62 53 81 54 46 55
REMARK SMILES IDX 47 56 61 58 82 59 49 60 33 61 34 62 42 63 35 64 41 65 43 66
REMARK SMILES IDX 40 67 36 68 37 69 38 70 39 71 65 72 66 73 74 74 67 75 73 76
REMARK SMILES IDX 75 77 72 78 68 79 69 80 70 81 71 82 50 83 51 84 59 85 52 86
REMARK SMILES IDX 58 87 60 88 57 89 53 90 54 91 55 92 56 93
REMARK H PARENT 16 6 21 27 80 46 48 57
REMARK Flexibility Score: inf
ROOT
ATOM      1  C   UNL A   1      35.448  23.999  24.134  1.00  0.00     0.023 C 
ENDROOT
BRANCH   1   2
ATOM      2  C   UNL A   1      34.650  24.906  25.072  1.00  0.00     0.116 C 
BRANCH   2   3
ATOM      3  N   UNL A   1      33.932  25.939  24.356  1.00  0.00    -0.356 N 
ATOM      4  C   UNL A   1      32.598  26.157  24.188  1.00  0.00     0.227 C 
ATOM      5  O   UNL A   1      32.277  27.104  23.458  1.00  0.00    -0.274 OA
ATOM      6  H   UNL A   1      34.510  26.603  23.913  1.00  0.00     0.163 HD
BRANCH   4   7
ATOM      7  C   UNL A   1      31.506  25.308  24.859  1.00  0.00     0.105 C 
ATOM      8  C   UNL A   1      31.183  25.733  26.291  1.00  0.00     0.023 C 
BRANCH   7   9
ATOM      9  C   UNL A   1      31.671  23.816  24.612  1.00  0.00    -0.036 A 
ATOM     10  C   UNL A   1      32.223  21.063  24.055  1.00  0.00    -0.018 A 
ATOM     11  C   UNL A   1      32.031  21.530  25.366  1.00  0.00     0.009 A 
ATOM     12  C   UNL A   1      32.077  22.004  23.025  1.00  0.00     0.009 A 
ATOM     13  C   UNL A   1      31.728  22.871  25.638  1.00  0.00     0.005 A 
ATOM     14  C   UNL A   1      31.827  23.356  23.297  1.00  0.00     0.005 A 
BRANCH  10  15
ATOM     15  C   UNL A   1      32.588  19.650  23.782  1.00  0.00    -0.018 A 
ATOM     16  C   UNL A   1      33.533  17.499  24.526  1.00  0.00    -0.026 A 
ATOM     17  C   UNL A   1      33.254  16.945  23.276  1.00  0.00     0.008 A 
ATOM     18  C   UNL A   1      33.199  18.843  24.765  1.00  0.00     0.016 A 
ATOM     19  C   UNL A   1      32.643  17.714  22.287  1.00  0.00     0.001 A 
ATOM     20  C   UNL A   1      32.322  19.050  22.538  1.00  0.00     0.009 A 
BRANCH  16  21
ATOM     21  C   UNL A   1      34.219  16.673  25.528  1.00  0.00     0.000 C 
ATOM     22  C   UNL A   1      35.201  15.808  25.248  1.00  0.00     0.009 C 
ENDBRANCH  16  21
ENDBRANCH  10  15
ENDBRANCH   7   9
ENDBRANCH   4   7
ENDBRANCH   2   3
ENDBRANCH   1   2
BRANCH   1  23
ATOM     23  C   UNL A   1      35.423  22.514  24.493  1.00  0.00     0.023 C 
BRANCH  23  24
ATOM     24  C   UNL A   1      36.217  22.129  25.737  1.00  0.00     0.116 C 
BRANCH  24  25
ATOM     25  N   UNL A   1      37.172  21.053  25.522  1.00  0.00    -0.352 N 
ATOM     26  C   UNL A   1      38.532  21.064  25.749  1.00  0.00     0.251 C 
ATOM     27  H   UNL A   1      36.800  20.211  25.170  1.00  0.00     0.163 HD
ATOM     28  O   UNL A   1      39.217  20.101  25.439  1.00  0.00    -0.269 OA
BRANCH  26  29
ATOM     29  C   UNL A   1      39.147  22.281  26.323  1.00  0.00     0.039 A 
ATOM     30  C   UNL A   1      40.204  22.143  27.226  1.00  0.00     0.014 A 
ATOM     31  C   UNL A   1      38.724  23.548  25.916  1.00  0.00     0.014 A 
ATOM     32  C   UNL A   1      40.893  23.280  27.659  1.00  0.00     0.010 A 
ATOM     33  C   UNL A   1      39.458  24.670  26.290  1.00  0.00     0.010 A 
ATOM     34  C   UNL A   1      40.552  24.547  27.160  1.00  0.00    -0.014 A 
BRANCH  34  35
ATOM     35  C   UNL A   1      41.310  25.767  27.539  1.00  0.00     0.031 A 
ATOM     36  C   UNL A   1      40.643  26.826  28.372  1.00  0.00     0.074 A 
ATOM     37  C   UNL A   1      42.555  25.964  27.058  1.00  0.00     0.049 A 
ATOM     38  N   UNL A   1      41.064  28.024  28.687  1.00  0.00    -0.248 NA
ATOM     39  C   UNL A   1      39.302  26.504  28.883  1.00  0.00     0.031 C 
ATOM     40  C   UNL A   1      43.292  25.029  26.207  1.00  0.00     0.029 A 
ATOM     41  N   UNL A   1      43.413  27.026  27.202  1.00  0.00    -0.354 N 
ATOM     42  C   UNL A   1      40.028  28.609  29.409  1.00  0.00     0.074 A 
ATOM     43  C   UNL A   1      38.941  27.653  29.433  1.00  0.00     0.031 C 
ATOM     44  C   UNL A   1      44.495  25.552  25.917  1.00  0.00     0.029 A 
ATOM     45  C   UNL A   1      44.599  26.875  26.523  1.00  0.00     0.049 A 
ATOM     46  H   UNL A   1      43.199  27.821  27.743  1.00  0.00     0.167 HD
ATOM     47  C   UNL A   1      39.998  29.822  30.015  1.00  0.00     0.034 A 
ATOM     48  C   UNL A   1      45.646  27.716  26.391  1.00  0.00     0.034 A 
ATOM     49  C   UNL A   1      41.102  30.750  30.005  1.00  0.00     0.049 A 
ATOM     50  C   UNL A   1      45.592  29.057  27.078  1.00  0.00     0.074 A 
ATOM     51  C   UNL A   1      41.201  31.982  30.627  1.00  0.00     0.029 A 
ATOM     52  N   UNL A   1      42.302  30.545  29.337  1.00  0.00    -0.354 N 
ATOM     53  N   UNL A   1      44.620  29.584  27.787  1.00  0.00    -0.248 NA
ATOM     54  C   UNL A   1      46.780  29.912  26.956  1.00  0.00     0.031 C 
ATOM     55  C   UNL A   1      42.438  32.544  30.293  1.00  0.00     0.029 A 
ATOM     56  C   UNL A   1      43.140  31.635  29.518  1.00  0.00     0.049 A 
ATOM     57  H   UNL A   1      42.527  29.744  28.811  1.00  0.00     0.167 HD
ATOM     58  C   UNL A   1      45.095  30.816  28.224  1.00  0.00     0.074 A 
ATOM     59  C   UNL A   1      46.441  30.952  27.704  1.00  0.00     0.031 C 
ATOM     60  C   UNL A   1      44.479  31.750  28.992  1.00  0.00     0.034 A 
BRANCH  47  61
ATOM     61  C   UNL A   1      38.717  30.210  30.714  1.00  0.00     0.023 A 
ATOM     62  C   UNL A   1      37.697  30.912  30.047  1.00  0.00     0.031 A 
ATOM     63  C   UNL A   1      38.530  29.917  32.077  1.00  0.00     0.131 A 
ATOM     64  C   UNL A   1      36.582  31.375  30.761  1.00  0.00     0.055 A 
ATOM     65  C   UNL A   1      37.376  30.306  32.762  1.00  0.00     0.041 A 
ATOM     66  F   UNL A   1      39.476  29.267  32.773  1.00  0.00    -0.206 F 
ATOM     67  C   UNL A   1      36.402  31.055  32.108  1.00  0.00     0.022 A 
BRANCH  64  68
ATOM     68  S   UNL A   1      35.453  32.534  29.943  1.00  0.00     0.124 S 
ATOM     69  O   UNL A   1      36.324  33.686  29.722  1.00  0.00    -0.237 OA
ATOM     70  O   UNL A   1      35.053  31.798  28.749  1.00  0.00    -0.237 OA
ATOM     71  O   UNL A   1      34.398  32.742  30.932  1.00  0.00    -0.744 OA
ENDBRANCH  64  68
ENDBRANCH  47  61
BRANCH  48  72
ATOM     72  C   UNL A   1      46.830  27.326  25.575  1.00  0.00     0.023 A 
ATOM     73  C   UNL A   1      46.988  27.800  24.263  1.00  0.00     0.031 A 
ATOM     74  C   UNL A   1      47.800  26.443  26.079  1.00  0.00     0.131 A 
ATOM     75  C   UNL A   1      48.067  27.354  23.483  1.00  0.00     0.055 A 
ATOM     76  C   UNL A   1      48.898  26.038  25.316  1.00  0.00     0.041 A 
ATOM     77  F   UNL A   1      47.700  25.967  27.331  1.00  0.00    -0.206 F 
ATOM     78  C   UNL A   1      49.028  26.485  24.004  1.00  0.00     0.022 A 
BRANCH  75  79
ATOM     79  S   UNL A   1      48.152  27.866  21.745  1.00  0.00     0.124 S 
ATOM     80  O   UNL A   1      48.369  26.592  21.069  1.00  0.00    -0.237 OA
ATOM     81  O   UNL A   1      46.843  28.483  21.548  1.00  0.00    -0.237 OA
ATOM     82  O   UNL A   1      49.283  28.790  21.718  1.00  0.00    -0.744 OA
ENDBRANCH  75  79
ENDBRANCH  48  72
BRANCH  60  83
ATOM     83  C   UNL A   1      45.284  32.969  29.366  1.00  0.00     0.023 A 
ATOM     84  C   UNL A   1      45.270  34.136  28.584  1.00  0.00     0.031 A 
ATOM     85  C   UNL A   1      46.076  32.957  30.528  1.00  0.00     0.131 A 
ATOM     86  C   UNL A   1      46.072  35.228  28.948  1.00  0.00     0.055 A 
ATOM     87  C   UNL A   1      46.831  34.064  30.913  1.00  0.00     0.041 A 
ATOM     88  F   UNL A   1      46.124  31.866  31.310  1.00  0.00    -0.206 F 
ATOM     89  C   UNL A   1      46.840  35.205  30.116  1.00  0.00     0.022 A 
BRANCH  86  90
ATOM     90  S   UNL A   1      46.155  36.659  27.837  1.00  0.00     0.124 S 
ATOM     91  O   UNL A   1      46.357  37.760  28.774  1.00  0.00    -0.237 OA
ATOM     92  O   UNL A   1      47.294  36.328  26.986  1.00  0.00    -0.237 OA
ATOM     93  O   UNL A   1      44.857  36.648  27.164  1.00  0.00    -0.744 OA
ENDBRANCH  86  90
ENDBRANCH  60  83
ENDBRANCH  34  35
ENDBRANCH  26  29
ENDBRANCH  24  25
ENDBRANCH  23  24
ENDBRANCH   1  23
TORSDOF 17
ENDMDL
MODEL 2
REMARK VINA RESULT:     -11.9      5.113     10.661
REMARK SMILES C=Cc1cccc(-c2ccc([C@@H](C)C(=O)NCCCCNC(=O)c3ccc(-c4c5nc(c(-c6cc(S(=O)(=O)[O-])ccc6F)c6ccc([nH]6)c(-c6cc(S(=O)(=O)[O-])ccc6F)c6nc(c(-c7cc(S(=O)(=O)[O-])ccc7F)c7ccc4[nH]7)C=C6)C=C5)cc3)cc2)c1
REMARK SMILES IDX 18 1 17 2 16 3 14 4 15 5 12 7 13 8 11 9 8 10 9 11 88 12
REMARK SMILES IDX 10 13 87 14 7 15 3 16 4 17 89 18 5 19 6 20 2 21 1 22 19 23
REMARK SMILES IDX 20 24 21 25 22 26 23 28 24 29 25 30 86 31 26 32 85 33 27 34
REMARK SMILES IDX 28 35 29 36 79 37 30 38 84 39 78 40 80 41 31 42 83 43 77 44
REMARK SMILES IDX 76 45 32 47 64 48 44 49 63 50 45 51 48 52 62 53 81 54 46 55
REMARK SMILES IDX 47 56 61 58 82 59 49 60 33 61 34 62 42 63 35 64 41 65 43 66
REMARK SMILES IDX 40 67 36 68 37 69 38 70 39 71 65 72 66 73 74 74 67 75 73 76
REMARK SMILES IDX 75 77 72 78 68 79 69 80 70 81 71 82 50 83 51 84 59 85 52 86
REMARK SMILES IDX 58 87 60 88 57 89 53 90 54 91 55 92 56 93
REMARK H PARENT 16 6 21 27 80 46 48 57
REMARK Flexibility Score: inf
ROOT
ATOM      1  C   UNL A   1      32.352  26.978  26.538  1.00  0.00     0.023 C 
ENDROOT
BRANCH   1   2
ATOM      2  C   UNL A   1      32.850  25.794  25.709  1.00  0.00     0.116 C 
BRANCH   2   3
ATOM      3  N   UNL A   1      32.055  24.603  25.920  1.00  0.00    -0.356 N 
ATOM      4  C   UNL A   1      31.292  23.868  25.065  1.00  0.00     0.227 C 
ATOM      5  O   UNL A   1      30.666  22.918  25.555  1.00  0.00    -0.274 OA
ATOM      6  H   UNL A   1      32.071  24.263  26.845  1.00  0.00     0.163 HD
BRANCH   4   7
ATOM      7  C   UNL A   1      31.188  24.151  23.558  1.00  0.00     0.105 C 
ATOM      8  C   UNL A   1      32.383  23.646  22.748  1.00  0.00     0.023 C 
BRANCH   7   9
ATOM      9  C   UNL A   1      30.699  25.556  23.244  1.00  0.00    -0.036 A 
ATOM     10  C   UNL A   1      29.806  28.256  22.912  1.00  0.00    -0.018 A 
ATOM     11  C   UNL A   1      30.996  27.792  22.328  1.00  0.00     0.009 A 
ATOM     12  C   UNL A   1      29.046  27.314  23.623  1.00  0.00     0.009 A 
ATOM     13  C   UNL A   1      31.418  26.462  22.462  1.00  0.00     0.005 A 
ATOM     14  C   UNL A   1      29.492  25.998  23.804  1.00  0.00     0.005 A 
BRANCH  10  15
ATOM     15  C   UNL A   1      29.391  29.677  22.802  1.00  0.00    -0.018 A 
ATOM     16  C   UNL A   1      28.402  31.526  21.507  1.00  0.00    -0.026 A 
ATOM     17  C   UNL A   1      28.567  32.378  22.600  1.00  0.00     0.008 A 
ATOM     18  C   UNL A   1      28.817  30.188  21.619  1.00  0.00     0.016 A 
ATOM     19  C   UNL A   1      29.122  31.901  23.786  1.00  0.00     0.001 A 
ATOM     20  C   UNL A   1      29.535  30.569  23.879  1.00  0.00     0.009 A 
BRANCH  16  21
ATOM     21  C   UNL A   1      27.856  32.074  20.259  1.00  0.00     0.000 C 
ATOM     22  C   UNL A   1      27.380  33.318  20.126  1.00  0.00     0.009 C 
ENDBRANCH  16  21
ENDBRANCH  10  15
ENDBRANCH   7   9
ENDBRANCH   4   7
ENDBRANCH   2   3
ENDBRANCH   1   2
BRANCH   1  23
ATOM     23  C   UNL A   1      31.948  28.210  25.730  1.00  0.00     0.023 C 
BRANCH  23  24
ATOM     24  C   UNL A   1      32.986  29.326  25.678  1.00  0.00     0.116 C 
BRANCH  24  25
ATOM     25  N   UNL A   1      32.483  30.623  26.106  1.00  0.00    -0.352 N 
ATOM     26  C   UNL A   1      33.055  31.505  26.999  1.00  0.00     0.251 C 
ATOM     27  H   UNL A   1      31.628  30.907  25.708  1.00  0.00     0.163 HD
ATOM     28  O   UNL A   1      32.466  32.526  27.321  1.00  0.00    -0.269 OA
BRANCH  26  29
ATOM     29  C   UNL A   1      34.365  31.162  27.597  1.00  0.00     0.039 A 
ATOM     30  C   UNL A   1      35.290  32.182  27.830  1.00  0.00     0.014 A 
ATOM     31  C   UNL A   1      34.644  29.850  27.986  1.00  0.00     0.014 A 
ATOM     32  C   UNL A   1      36.466  31.899  28.531  1.00  0.00     0.010 A 
ATOM     33  C   UNL A   1      35.779  29.587  28.747  1.00  0.00     0.010 A 
ATOM     34  C   UNL A   1      36.698  30.609  29.032  1.00  0.00    -0.014 A 
BRANCH  34  35
ATOM     35  C   UNL A   1      37.899  30.289  29.845  1.00  0.00     0.031 A 
ATOM     36  C   UNL A   1      38.947  29.364  29.289  1.00  0.00     0.074 A 
ATOM     37  C   UNL A   1      38.000  30.750  31.108  1.00  0.00     0.049 A 
ATOM     38  N   UNL A   1      39.988  28.837  29.880  1.00  0.00    -0.248 NA
ATOM     39  C   UNL A   1      38.770  28.945  27.891  1.00  0.00     0.031 C 
ATOM     40  C   UNL A   1      37.029  31.621  31.773  1.00  0.00     0.029 A 
ATOM     41  N   UNL A   1      38.961  30.535  32.066  1.00  0.00    -0.354 N 
ATOM     42  C   UNL A   1      40.575  28.003  28.934  1.00  0.00     0.074 A 
ATOM     43  C   UNL A   1      39.738  28.053  27.754  1.00  0.00     0.031 C 
ATOM     44  C   UNL A   1      37.450  31.877  33.023  1.00  0.00     0.029 A 
ATOM     45  C   UNL A   1      38.695  31.155  33.265  1.00  0.00     0.049 A 
ATOM     46  H   UNL A   1      39.764  29.989  31.909  1.00  0.00     0.167 HD
ATOM     47  C   UNL A   1      41.719  27.281  29.034  1.00  0.00     0.034 A 
ATOM     48  C   UNL A   1      39.371  31.132  34.431  1.00  0.00     0.034 A 
ATOM     49  C   UNL A   1      42.555  27.265  30.209  1.00  0.00     0.049 A 
ATOM     50  C   UNL A   1      40.643  30.327  34.518  1.00  0.00     0.074 A 
ATOM     51  C   UNL A   1      43.760  26.613  30.404  1.00  0.00     0.029 A 
ATOM     52  N   UNL A   1      42.272  27.937  31.392  1.00  0.00    -0.354 N 
ATOM     53  N   UNL A   1      41.206  29.570  33.604  1.00  0.00    -0.248 NA
ATOM     54  C   UNL A   1      41.377  30.381  35.789  1.00  0.00     0.031 C 
ATOM     55  C   UNL A   1      44.178  26.847  31.719  1.00  0.00     0.029 A 
ATOM     56  C   UNL A   1      43.270  27.701  32.324  1.00  0.00     0.049 A 
ATOM     57  H   UNL A   1      41.479  28.500  31.546  1.00  0.00     0.167 HD
ATOM     58  C   UNL A   1      42.377  29.088  34.181  1.00  0.00     0.074 A 
ATOM     59  C   UNL A   1      42.443  29.643  35.517  1.00  0.00     0.031 C 
ATOM     60  C   UNL A   1      43.319  28.266  33.651  1.00  0.00     0.034 A 
BRANCH  47  61
ATOM     61  C   UNL A   1      42.106  26.435  27.845  1.00  0.00     0.023 A 
ATOM     62  C   UNL A   1      41.631  25.120  27.689  1.00  0.00     0.031 A 
ATOM     63  C   UNL A   1      42.998  26.930  26.876  1.00  0.00     0.131 A 
ATOM     64  C   UNL A   1      42.118  24.318  26.647  1.00  0.00     0.055 A 
ATOM     65  C   UNL A   1      43.410  26.154  25.790  1.00  0.00     0.041 A 
ATOM     66  F   UNL A   1      43.501  28.170  26.980  1.00  0.00    -0.206 F 
ATOM     67  C   UNL A   1      42.985  24.834  25.681  1.00  0.00     0.022 A 
BRANCH  64  68
ATOM     68  S   UNL A   1      41.725  22.548  26.664  1.00  0.00     0.124 S 
ATOM     69  O   UNL A   1      42.460  22.096  27.844  1.00  0.00    -0.237 OA
ATOM     70  O   UNL A   1      40.271  22.547  26.779  1.00  0.00    -0.237 OA
ATOM     71  O   UNL A   1      42.252  22.066  25.389  1.00  0.00    -0.744 OA
ENDBRANCH  64  68
ENDBRANCH  47  61
BRANCH  48  72
ATOM     72  C   UNL A   1      38.865  31.884  35.614  1.00  0.00     0.023 A 
ATOM     73  C   UNL A   1      38.258  31.214  36.688  1.00  0.00     0.031 A 
ATOM     74  C   UNL A   1      38.943  33.286  35.670  1.00  0.00     0.131 A 
ATOM     75  C   UNL A   1      37.713  31.948  37.753  1.00  0.00     0.055 A 
ATOM     76  C   UNL A   1      38.442  34.010  36.754  1.00  0.00     0.041 A 
ATOM     77  F   UNL A   1      39.521  33.974  34.673  1.00  0.00    -0.206 F 
ATOM     78  C   UNL A   1      37.810  33.341  37.798  1.00  0.00     0.022 A 
BRANCH  75  79
ATOM     79  S   UNL A   1      36.802  31.059  39.044  1.00  0.00     0.124 S 
ATOM     80  O   UNL A   1      37.701  31.187  40.185  1.00  0.00    -0.237 OA
ATOM     81  O   UNL A   1      35.559  31.822  39.117  1.00  0.00    -0.237 OA
ATOM     82  O   UNL A   1      36.670  29.709  38.500  1.00  0.00    -0.744 OA
ENDBRANCH  75  79
ENDBRANCH  48  72
BRANCH  60  83
ATOM     83  C   UNL A   1      44.529  27.974  34.501  1.00  0.00     0.023 A 
ATOM     84  C   UNL A   1      45.675  28.786  34.465  1.00  0.00     0.031 A 
ATOM     85  C   UNL A   1      44.529  26.861  35.362  1.00  0.00     0.131 A 
ATOM     86  C   UNL A   1      46.794  28.446  35.240  1.00  0.00     0.055 A 
ATOM     87  C   UNL A   1      45.626  26.558  36.169  1.00  0.00     0.041 A 
ATOM     88  F   UNL A   1      43.459  26.054  35.433  1.00  0.00    -0.206 F 
ATOM     89  C   UNL A   1      46.770  27.347  36.103  1.00  0.00     0.022 A 
BRANCH  86  90
ATOM     90  S   UNL A   1      48.312  29.421  35.055  1.00  0.00     0.124 S 
ATOM     91  O   UNL A   1      47.938  30.371  34.012  1.00  0.00    -0.237 OA
ATOM     92  O   UNL A   1      48.491  29.979  36.391  1.00  0.00    -0.237 OA
ATOM     93  O   UNL A   1      49.311  28.430  34.661  1.00  0.00    -0.744 OA
ENDBRANCH  86  90
ENDBRANCH  60  83
ENDBRANCH  34  35
ENDBRANCH  26  29
ENDBRANCH  24  25
ENDBRANCH  23  24
ENDBRANCH   1  23
TORSDOF 17
ENDMDL
MODEL 3
REMARK VINA RESULT:     -11.8      5.676     10.430
REMARK SMILES C=Cc1cccc(-c2ccc([C@@H](C)C(=O)NCCCCNC(=O)c3ccc(-c4c5nc(c(-c6cc(S(=O)(=O)[O-])ccc6F)c6ccc([nH]6)c(-c6cc(S(=O)(=O)[O-])ccc6F)c6nc(c(-c7cc(S(=O)(=O)[O-])ccc7F)c7ccc4[nH]7)C=C6)C=C5)cc3)cc2)c1
REMARK SMILES IDX 18 1 17 2 16 3 14 4 15 5 12 7 13 8 11 9 8 10 9 11 88 12
REMARK SMILES IDX 10 13 87 14 7 15 3 16 4 17 89 18 5 19 6 20 2 21 1 22 19 23
REMARK SMILES IDX 20 24 21 25 22 26 23 28 24 29 25 30 86 31 26 32 85 33 27 34
REMARK SMILES IDX 28 35 29 36 79 37 30 38 84 39 78 40 80 41 31 42 83 43 77 44
REMARK SMILES IDX 76 45 32 47 64 48 44 49 63 50 45 51 48 52 62 53 81 54 46 55
REMARK SMILES IDX 47 56 61 58 82 59 49 60 33 61 34 62 42 63 35 64 41 65 43 66
REMARK SMILES IDX 40 67 36 68 37 69 38 70 39 71 65 72 66 73 74 74 67 75 73 76
REMARK SMILES IDX 75 77 72 78 68 79 69 80 70 81 71 82 50 83 51 84 59 85 52 86
REMARK SMILES IDX 58 87 60 88 57 89 53 90 54 91 55 92 56 93
REMARK H PARENT 16 6 21 27 80 46 48 57
REMARK Flexibility Score: inf
ROOT
ATOM      1  C   UNL A   1      32.701  29.898  26.141  1.00  0.00     0.023 C 
ENDROOT
BRANCH   1   2
ATOM      2  C   UNL A   1      33.078  28.768  27.100  1.00  0.00     0.116 C 
BRANCH   2   3
ATOM      3  N   UNL A   1      32.098  27.702  27.102  1.00  0.00    -0.356 N 
ATOM      4  C   UNL A   1      32.069  26.506  26.451  1.00  0.00     0.227 C 
ATOM      5  O   UNL A   1      31.053  25.815  26.602  1.00  0.00    -0.274 OA
ATOM      6  H   UNL A   1      31.317  27.870  27.677  1.00  0.00     0.163 HD
BRANCH   4   7
ATOM      7  C   UNL A   1      33.219  25.987  25.572  1.00  0.00     0.105 C 
ATOM      8  C   UNL A   1      33.563  26.902  24.397  1.00  0.00     0.023 C 
BRANCH   7   9
ATOM      9  C   UNL A   1      33.117  24.500  25.269  1.00  0.00    -0.036 A 
ATOM     10  C   UNL A   1      33.083  21.746  24.490  1.00  0.00    -0.018 A 
ATOM     11  C   UNL A   1      33.669  22.168  25.695  1.00  0.00     0.009 A 
ATOM     12  C   UNL A   1      32.466  22.737  23.710  1.00  0.00     0.009 A 
ATOM     13  C   UNL A   1      33.657  23.511  26.094  1.00  0.00     0.005 A 
ATOM     14  C   UNL A   1      32.500  24.088  24.080  1.00  0.00     0.005 A 
BRANCH  10  15
ATOM     15  C   UNL A   1      33.140  20.328  24.055  1.00  0.00    -0.018 A 
ATOM     16  C   UNL A   1      34.112  18.070  24.235  1.00  0.00    -0.026 A 
ATOM     17  C   UNL A   1      33.229  17.613  23.255  1.00  0.00     0.008 A 
ATOM     18  C   UNL A   1      34.059  19.419  24.623  1.00  0.00     0.016 A 
ATOM     19  C   UNL A   1      32.304  18.483  22.682  1.00  0.00     0.001 A 
ATOM     20  C   UNL A   1      32.267  19.824  23.074  1.00  0.00     0.009 A 
BRANCH  16  21
ATOM     21  C   UNL A   1      35.104  17.136  24.783  1.00  0.00     0.000 C 
ATOM     22  C   UNL A   1      34.810  15.923  25.269  1.00  0.00     0.009 C 
ENDBRANCH  16  21
ENDBRANCH  10  15
ENDBRANCH   7   9
ENDBRANCH   4   7
ENDBRANCH   2   3
ENDBRANCH   1   2
BRANCH   1  23
ATOM     23  C   UNL A   1      32.176  31.167  26.811  1.00  0.00     0.023 C 
BRANCH  23  24
ATOM     24  C   UNL A   1      33.245  32.124  27.327  1.00  0.00     0.116 C 
BRANCH  24  25
ATOM     25  N   UNL A   1      32.758  33.468  27.594  1.00  0.00    -0.352 N 
ATOM     26  C   UNL A   1      33.227  34.374  28.523  1.00  0.00     0.251 C 
ATOM     27  H   UNL A   1      31.999  33.770  27.044  1.00  0.00     0.163 HD
ATOM     28  O   UNL A   1      32.656  35.442  28.687  1.00  0.00    -0.269 OA
BRANCH  26  29
ATOM     29  C   UNL A   1      34.397  34.003  29.350  1.00  0.00     0.039 A 
ATOM     30  C   UNL A   1      34.191  33.284  30.530  1.00  0.00     0.014 A 
ATOM     31  C   UNL A   1      35.691  34.306  28.923  1.00  0.00     0.014 A 
ATOM     32  C   UNL A   1      35.292  32.796  31.240  1.00  0.00     0.010 A 
ATOM     33  C   UNL A   1      36.781  33.757  29.590  1.00  0.00     0.010 A 
ATOM     34  C   UNL A   1      36.593  32.992  30.753  1.00  0.00    -0.014 A 
BRANCH  34  35
ATOM     35  C   UNL A   1      37.781  32.424  31.440  1.00  0.00     0.031 A 
ATOM     36  C   UNL A   1      38.527  31.281  30.807  1.00  0.00     0.074 A 
ATOM     37  C   UNL A   1      38.128  32.868  32.664  1.00  0.00     0.049 A 
ATOM     38  N   UNL A   1      39.488  30.543  31.299  1.00  0.00    -0.248 NA
ATOM     39  C   UNL A   1      38.099  30.893  29.455  1.00  0.00     0.031 C 
ATOM     40  C   UNL A   1      37.457  33.943  33.398  1.00  0.00     0.029 A 
ATOM     41  N   UNL A   1      39.123  32.457  33.517  1.00  0.00    -0.354 N 
ATOM     42  C   UNL A   1      39.762  29.586  30.327  1.00  0.00     0.074 A 
ATOM     43  C   UNL A   1      38.824  29.805  29.246  1.00  0.00     0.031 C 
ATOM     44  C   UNL A   1      38.068  34.115  34.583  1.00  0.00     0.029 A 
ATOM     45  C   UNL A   1      39.143  33.138  34.713  1.00  0.00     0.049 A 
ATOM     46  H   UNL A   1      39.762  31.743  33.293  1.00  0.00     0.167 HD
ATOM     47  C   UNL A   1      40.723  28.628  30.327  1.00  0.00     0.034 A 
ATOM     48  C   UNL A   1      39.930  32.979  35.796  1.00  0.00     0.034 A 
ATOM     49  C   UNL A   1      41.667  28.443  31.402  1.00  0.00     0.049 A 
ATOM     50  C   UNL A   1      40.994  31.912  35.773  1.00  0.00     0.074 A 
ATOM     51  C   UNL A   1      42.713  27.541  31.487  1.00  0.00     0.029 A 
ATOM     52  N   UNL A   1      41.680  29.177  32.581  1.00  0.00    -0.354 N 
ATOM     53  N   UNL A   1      41.266  31.036  34.832  1.00  0.00    -0.248 NA
ATOM     54  C   UNL A   1      41.866  31.819  36.951  1.00  0.00     0.031 C 
ATOM     55  C   UNL A   1      43.324  27.693  32.737  1.00  0.00     0.029 A 
ATOM     56  C   UNL A   1      42.703  28.737  33.405  1.00  0.00     0.049 A 
ATOM     57  H   UNL A   1      41.053  29.904  32.800  1.00  0.00     0.167 HD
ATOM     58  C   UNL A   1      42.361  30.313  35.293  1.00  0.00     0.074 A 
ATOM     59  C   UNL A   1      42.704  30.858  36.591  1.00  0.00     0.031 C 
ATOM     60  C   UNL A   1      43.030  29.295  34.696  1.00  0.00     0.034 A 
BRANCH  47  61
ATOM     61  C   UNL A   1      40.772  27.701  29.137  1.00  0.00     0.023 A 
ATOM     62  C   UNL A   1      41.719  27.869  28.111  1.00  0.00     0.031 A 
ATOM     63  C   UNL A   1      39.832  26.664  29.000  1.00  0.00     0.131 A 
ATOM     64  C   UNL A   1      41.649  27.076  26.956  1.00  0.00     0.055 A 
ATOM     65  C   UNL A   1      39.824  25.820  27.887  1.00  0.00     0.041 A 
ATOM     66  F   UNL A   1      38.891  26.466  29.936  1.00  0.00    -0.206 F 
ATOM     67  C   UNL A   1      40.724  26.036  26.847  1.00  0.00     0.022 A 
BRANCH  64  68
ATOM     68  S   UNL A   1      42.680  27.527  25.534  1.00  0.00     0.124 S 
ATOM     69  O   UNL A   1      43.930  27.910  26.188  1.00  0.00    -0.237 OA
ATOM     70  O   UNL A   1      42.717  26.290  24.764  1.00  0.00    -0.237 OA
ATOM     71  O   UNL A   1      41.948  28.629  24.914  1.00  0.00    -0.744 OA
ENDBRANCH  64  68
ENDBRANCH  47  61
BRANCH  48  72
ATOM     72  C   UNL A   1      39.744  33.842  36.997  1.00  0.00     0.023 A 
ATOM     73  C   UNL A   1      39.095  33.352  38.142  1.00  0.00     0.031 A 
ATOM     74  C   UNL A   1      40.175  35.179  37.004  1.00  0.00     0.131 A 
ATOM     75  C   UNL A   1      38.856  34.207  39.230  1.00  0.00     0.055 A 
ATOM     76  C   UNL A   1      39.977  36.013  38.107  1.00  0.00     0.041 A 
ATOM     77  F   UNL A   1      40.807  35.694  35.938  1.00  0.00    -0.206 F 
ATOM     78  C   UNL A   1      39.302  35.530  39.225  1.00  0.00     0.022 A 
BRANCH  75  79
ATOM     79  S   UNL A   1      37.880  33.582  40.626  1.00  0.00     0.124 S 
ATOM     80  O   UNL A   1      36.748  32.964  39.945  1.00  0.00    -0.237 OA
ATOM     81  O   UNL A   1      38.821  32.668  41.266  1.00  0.00    -0.237 OA
ATOM     82  O   UNL A   1      37.569  34.788  41.390  1.00  0.00    -0.744 OA
ENDBRANCH  75  79
ENDBRANCH  48  72
BRANCH  60  83
ATOM     83  C   UNL A   1      44.238  28.751  35.416  1.00  0.00     0.023 A 
ATOM     84  C   UNL A   1      44.136  27.712  36.357  1.00  0.00     0.031 A 
ATOM     85  C   UNL A   1      45.511  29.287  35.152  1.00  0.00     0.131 A 
ATOM     86  C   UNL A   1      45.282  27.273  37.036  1.00  0.00     0.055 A 
ATOM     87  C   UNL A   1      46.654  28.810  35.793  1.00  0.00     0.041 A 
ATOM     88  F   UNL A   1      45.662  30.281  34.263  1.00  0.00    -0.206 F 
ATOM     89  C   UNL A   1      46.542  27.805  36.748  1.00  0.00     0.022 A 
BRANCH  86  90
ATOM     90  S   UNL A   1      45.097  26.042  38.355  1.00  0.00     0.124 S 
ATOM     91  O   UNL A   1      44.347  26.787  39.362  1.00  0.00    -0.237 OA
ATOM     92  O   UNL A   1      44.370  24.970  37.683  1.00  0.00    -0.237 OA
ATOM     93  O   UNL A   1      46.475  25.719  38.720  1.00  0.00    -0.744 OA
ENDBRANCH  86  90
ENDBRANCH  60  83
ENDBRANCH  34  35
ENDBRANCH  26  29
ENDBRANCH  24  25
ENDBRANCH  23  24
ENDBRANCH   1  23
TORSDOF 17
ENDMDL
