MODEL 1
REMARK VINA RESULT:     -11.7      0.000      0.000
REMARK SMILES C[C@](NC(=O)c1c(F)cccc1F)(C(=O)NCCCCNC(=O)c1ccc(-c2c3nc(c(-c4cc(S(=O)(=O)[O-])ccc4F)c4ccc([nH]4)c(-c4cc(S(=O)(=O)[O-])ccc4F)c4nc(c(-c5cc(S(=O)(=O)[O-])ccc5F)c5ccc2[nH]5)C=C4)C=C3)cc1)C(F)(F)F
REMARK SMILES IDX 19 1 18 2 17 3 16 4 14 5 15 6 2 8 1 9 87 10 88 11 89 12
REMARK SMILES IDX 90 13 3 14 4 15 5 17 6 18 7 19 12 20 8 21 9 22 11 23 13 24
REMARK SMILES IDX 10 25 20 26 21 27 22 28 23 30 24 31 25 32 86 33 26 34 85 35
REMARK SMILES IDX 27 36 28 37 29 38 79 39 30 40 84 41 78 42 80 43 31 44 83 45
REMARK SMILES IDX 77 46 76 47 32 49 64 50 44 51 63 52 45 53 48 54 62 55 81 56
REMARK SMILES IDX 46 57 47 58 61 60 82 61 49 62 33 63 34 64 42 65 35 66 41 67
REMARK SMILES IDX 43 68 40 69 36 70 37 71 38 72 39 73 65 74 66 75 74 76 67 77
REMARK SMILES IDX 73 78 75 79 72 80 68 81 69 82 70 83 71 84 50 85 51 86 59 87
REMARK SMILES IDX 52 88 58 89 60 90 57 91 53 92 54 93 55 94 56 95
REMARK H PARENT 16 7 3 16 21 29 80 48 48 59
REMARK Flexibility Score: inf
ROOT
ATOM      1  C   UNL A   1      31.788  29.397  26.650  1.00  0.00     0.023 C 
ENDROOT
BRANCH   1   2
ATOM      2  C   UNL A   1      31.895  28.058  27.381  1.00  0.00     0.023 C 
BRANCH   2   3
ATOM      3  C   UNL A   1      31.080  26.937  26.748  1.00  0.00     0.116 C 
BRANCH   3   4
ATOM      4  N   UNL A   1      30.993  27.084  25.311  1.00  0.00    -0.354 N 
ATOM      5  C   UNL A   1      31.638  26.420  24.304  1.00  0.00     0.254 C 
ATOM      6  O   UNL A   1      31.314  26.750  23.161  1.00  0.00    -0.272 OA
ATOM      7  H   UNL A   1      30.365  27.778  25.007  1.00  0.00     0.163 HD
BRANCH   5   8
ATOM      8  C   UNL A   1      32.582  25.224  24.586  1.00  0.00     0.212 C 
ATOM      9  C   UNL A   1      32.710  24.416  23.289  1.00  0.00     0.056 C 
BRANCH   8  10
ATOM     10  C   UNL A   1      33.975  25.842  24.884  1.00  0.00     0.420 C 
ATOM     11  F   UNL A   1      34.096  27.087  24.364  1.00  0.00    -0.168 F 
ATOM     12  F   UNL A   1      34.148  25.976  26.228  1.00  0.00    -0.168 F 
ATOM     13  F   UNL A   1      35.007  25.089  24.447  1.00  0.00    -0.168 F 
ENDBRANCH   8  10
BRANCH   8  14
ATOM     14  N   UNL A   1      32.111  24.474  25.814  1.00  0.00    -0.330 N 
ATOM     15  C   UNL A   1      32.437  23.345  26.514  1.00  0.00     0.258 C 
ATOM     16  H   UNL A   1      31.346  24.934  26.229  1.00  0.00     0.165 HD
ATOM     17  O   UNL A   1      31.874  23.134  27.586  1.00  0.00    -0.269 OA
BRANCH  15  18
ATOM     18  C   UNL A   1      33.353  22.323  26.010  1.00  0.00     0.111 A 
ATOM     19  C   UNL A   1      34.720  22.387  26.222  1.00  0.00     0.138 A 
ATOM     20  C   UNL A   1      32.823  21.218  25.344  1.00  0.00     0.138 A 
ATOM     21  F   UNL A   1      35.258  23.393  26.927  1.00  0.00    -0.206 F 
ATOM     22  C   UNL A   1      35.567  21.426  25.667  1.00  0.00     0.040 A 
ATOM     23  C   UNL A   1      33.652  20.250  24.787  1.00  0.00     0.040 A 
ATOM     24  F   UNL A   1      31.500  21.084  25.182  1.00  0.00    -0.206 F 
ATOM     25  C   UNL A   1      35.034  20.364  24.932  1.00  0.00     0.006 A 
ENDBRANCH  15  18
ENDBRANCH   8  14
ENDBRANCH   5   8
ENDBRANCH   3   4
ENDBRANCH   2   3
ENDBRANCH   1   2
BRANCH   1  26
ATOM     26  C   UNL A   1      33.100  30.167  26.510  1.00  0.00     0.116 C 
BRANCH  26  27
ATOM     27  N   UNL A   1      33.024  31.550  26.958  1.00  0.00    -0.352 N 
ATOM     28  C   UNL A   1      33.932  32.247  27.723  1.00  0.00     0.251 C 
ATOM     29  H   UNL A   1      32.223  32.050  26.679  1.00  0.00     0.163 HD
ATOM     30  O   UNL A   1      33.691  33.391  28.083  1.00  0.00    -0.269 OA
BRANCH  28  31
ATOM     31  C   UNL A   1      35.181  31.570  28.139  1.00  0.00     0.039 A 
ATOM     32  C   UNL A   1      36.370  32.300  28.159  1.00  0.00     0.014 A 
ATOM     33  C   UNL A   1      35.156  30.242  28.574  1.00  0.00     0.014 A 
ATOM     34  C   UNL A   1      37.523  31.722  28.694  1.00  0.00     0.010 A 
ATOM     35  C   UNL A   1      36.288  29.692  29.166  1.00  0.00     0.010 A 
ATOM     36  C   UNL A   1      37.482  30.429  29.240  1.00  0.00    -0.014 A 
BRANCH  36  37
ATOM     37  C   UNL A   1      38.668  29.830  29.903  1.00  0.00     0.031 A 
ATOM     38  C   UNL A   1      39.085  30.304  31.267  1.00  0.00     0.074 A 
ATOM     39  C   UNL A   1      39.414  28.919  29.244  1.00  0.00     0.049 A 
ATOM     40  N   UNL A   1      40.139  29.979  31.972  1.00  0.00    -0.248 NA
ATOM     41  C   UNL A   1      38.217  31.302  31.908  1.00  0.00     0.031 C 
ATOM     42  C   UNL A   1      39.137  28.414  27.898  1.00  0.00     0.029 A 
ATOM     43  N   UNL A   1      40.563  28.267  29.611  1.00  0.00    -0.354 N 
ATOM     44  C   UNL A   1      40.073  30.748  33.129  1.00  0.00     0.074 A 
ATOM     45  C   UNL A   1      38.905  31.594  33.001  1.00  0.00     0.031 C 
ATOM     46  C   UNL A   1      40.078  27.516  27.562  1.00  0.00     0.029 A 
ATOM     47  C   UNL A   1      41.046  27.410  28.648  1.00  0.00     0.049 A 
ATOM     48  H   UNL A   1      41.002  28.398  30.483  1.00  0.00     0.167 HD
ATOM     49  C   UNL A   1      40.897  30.734  34.206  1.00  0.00     0.034 A 
ATOM     50  C   UNL A   1      42.150  26.637  28.639  1.00  0.00     0.034 A 
ATOM     51  C   UNL A   1      42.044  29.868  34.326  1.00  0.00     0.049 A 
ATOM     52  C   UNL A   1      43.054  26.642  29.845  1.00  0.00     0.074 A 
ATOM     53  C   UNL A   1      42.906  29.722  35.400  1.00  0.00     0.029 A 
ATOM     54  N   UNL A   1      42.496  29.005  33.335  1.00  0.00    -0.354 N 
ATOM     55  N   UNL A   1      42.949  27.335  30.954  1.00  0.00    -0.248 NA
ATOM     56  C   UNL A   1      44.222  25.752  29.799  1.00  0.00     0.031 C 
ATOM     57  C   UNL A   1      43.910  28.816  35.036  1.00  0.00     0.029 A 
ATOM     58  C   UNL A   1      43.638  28.345  33.762  1.00  0.00     0.049 A 
ATOM     59  H   UNL A   1      42.067  28.879  32.459  1.00  0.00     0.167 HD
ATOM     60  C   UNL A   1      44.019  26.940  31.751  1.00  0.00     0.074 A 
ATOM     61  C   UNL A   1      44.751  25.942  30.998  1.00  0.00     0.031 C 
ATOM     62  C   UNL A   1      44.363  27.360  32.996  1.00  0.00     0.034 A 
BRANCH  49  63
ATOM     63  C   UNL A   1      40.593  31.705  35.321  1.00  0.00     0.023 A 
ATOM     64  C   UNL A   1      39.517  31.503  36.204  1.00  0.00     0.031 A 
ATOM     65  C   UNL A   1      41.367  32.869  35.483  1.00  0.00     0.131 A 
ATOM     66  C   UNL A   1      39.192  32.488  37.149  1.00  0.00     0.055 A 
ATOM     67  C   UNL A   1      41.089  33.804  36.482  1.00  0.00     0.041 A 
ATOM     68  F   UNL A   1      42.394  33.127  34.659  1.00  0.00    -0.206 F 
ATOM     69  C   UNL A   1      39.986  33.624  37.312  1.00  0.00     0.022 A 
BRANCH  66  70
ATOM     70  S   UNL A   1      37.630  32.330  38.058  1.00  0.00     0.124 S 
ATOM     71  O   UNL A   1      37.991  32.881  39.362  1.00  0.00    -0.237 OA
ATOM     72  O   UNL A   1      36.715  33.132  37.255  1.00  0.00    -0.237 OA
ATOM     73  O   UNL A   1      37.373  30.891  38.048  1.00  0.00    -0.744 OA
ENDBRANCH  66  70
ENDBRANCH  49  63
BRANCH  50  74
ATOM     74  C   UNL A   1      42.472  25.794  27.452  1.00  0.00     0.023 A 
ATOM     75  C   UNL A   1      42.048  24.457  27.384  1.00  0.00     0.031 A 
ATOM     76  C   UNL A   1      43.242  26.299  26.391  1.00  0.00     0.131 A 
ATOM     77  C   UNL A   1      42.434  23.657  26.298  1.00  0.00     0.055 A 
ATOM     78  C   UNL A   1      43.584  25.511  25.289  1.00  0.00     0.041 A 
ATOM     79  F   UNL A   1      43.665  27.572  26.404  1.00  0.00    -0.206 F 
ATOM     80  C   UNL A   1      43.191  24.177  25.245  1.00  0.00     0.022 A 
BRANCH  77  81
ATOM     81  S   UNL A   1      41.996  21.897  26.320  1.00  0.00     0.124 S 
ATOM     82  O   UNL A   1      42.354  21.518  27.682  1.00  0.00    -0.237 OA
ATOM     83  O   UNL A   1      40.569  21.937  26.019  1.00  0.00    -0.237 OA
ATOM     84  O   UNL A   1      42.837  21.324  25.270  1.00  0.00    -0.744 OA
ENDBRANCH  77  81
ENDBRANCH  50  74
BRANCH  62  85
ATOM     85  C   UNL A   1      45.560  26.697  33.631  1.00  0.00     0.023 A 
ATOM     86  C   UNL A   1      45.445  25.497  34.352  1.00  0.00     0.031 A 
ATOM     87  C   UNL A   1      46.831  27.288  33.522  1.00  0.00     0.131 A 
ATOM     88  C   UNL A   1      46.574  24.950  34.981  1.00  0.00     0.055 A 
ATOM     89  C   UNL A   1      47.961  26.710  34.104  1.00  0.00     0.041 A 
ATOM     90  F   UNL A   1      46.996  28.436  32.845  1.00  0.00    -0.206 F 
ATOM     91  C   UNL A   1      47.833  25.541  34.849  1.00  0.00     0.022 A 
BRANCH  88  92
ATOM     92  S   UNL A   1      46.361  23.498  36.047  1.00  0.00     0.124 S 
ATOM     93  O   UNL A   1      47.351  22.575  35.504  1.00  0.00    -0.237 OA
ATOM     94  O   UNL A   1      46.651  24.038  37.373  1.00  0.00    -0.237 OA
ATOM     95  O   UNL A   1      44.968  23.113  35.828  1.00  0.00    -0.744 OA
ENDBRANCH  88  92
ENDBRANCH  62  85
ENDBRANCH  36  37
ENDBRANCH  28  31
ENDBRANCH  26  27
ENDBRANCH   1  26
TORSDOF 17
ENDMDL
MODEL 2
REMARK VINA RESULT:     -11.6      2.712      8.272
REMARK SMILES C[C@](NC(=O)c1c(F)cccc1F)(C(=O)NCCCCNC(=O)c1ccc(-c2c3nc(c(-c4cc(S(=O)(=O)[O-])ccc4F)c4ccc([nH]4)c(-c4cc(S(=O)(=O)[O-])ccc4F)c4nc(c(-c5cc(S(=O)(=O)[O-])ccc5F)c5ccc2[nH]5)C=C4)C=C3)cc1)C(F)(F)F
REMARK SMILES IDX 19 1 18 2 17 3 16 4 14 5 15 6 2 8 1 9 87 10 88 11 89 12
REMARK SMILES IDX 90 13 3 14 4 15 5 17 6 18 7 19 12 20 8 21 9 22 11 23 13 24
REMARK SMILES IDX 10 25 20 26 21 27 22 28 23 30 24 31 25 32 86 33 26 34 85 35
REMARK SMILES IDX 27 36 28 37 29 38 79 39 30 40 84 41 78 42 80 43 31 44 83 45
REMARK SMILES IDX 77 46 76 47 32 49 64 50 44 51 63 52 45 53 48 54 62 55 81 56
REMARK SMILES IDX 46 57 47 58 61 60 82 61 49 62 33 63 34 64 42 65 35 66 41 67
REMARK SMILES IDX 43 68 40 69 36 70 37 71 38 72 39 73 65 74 66 75 74 76 67 77
REMARK SMILES IDX 73 78 75 79 72 80 68 81 69 82 70 83 71 84 50 85 51 86 59 87
REMARK SMILES IDX 52 88 58 89 60 90 57 91 53 92 54 93 55 94 56 95
REMARK H PARENT 16 7 3 16 21 29 80 48 48 59
REMARK Flexibility Score: inf
ROOT
ATOM      1  C   UNL A   1      32.135  31.350  26.630  1.00  0.00     0.023 C 
ENDROOT
BRANCH   1   2
ATOM      2  C   UNL A   1      32.117  29.857  26.963  1.00  0.00     0.023 C 
BRANCH   2   3
ATOM      3  C   UNL A   1      33.357  29.102  26.503  1.00  0.00     0.116 C 
BRANCH   3   4
ATOM      4  N   UNL A   1      33.663  29.369  25.115  1.00  0.00    -0.354 N 
ATOM      5  C   UNL A   1      33.500  28.596  23.999  1.00  0.00     0.254 C 
ATOM      6  O   UNL A   1      33.822  29.128  22.934  1.00  0.00    -0.272 OA
ATOM      7  H   UNL A   1      34.053  30.257  24.944  1.00  0.00     0.163 HD
BRANCH   5   8
ATOM      8  C   UNL A   1      32.803  27.212  24.057  1.00  0.00     0.212 C 
ATOM      9  C   UNL A   1      33.253  26.518  25.347  1.00  0.00     0.056 C 
BRANCH   8  10
ATOM     10  C   UNL A   1      31.285  27.507  24.196  1.00  0.00     0.420 C 
ATOM     11  F   UNL A   1      31.010  28.824  24.036  1.00  0.00    -0.168 F 
ATOM     12  F   UNL A   1      30.592  26.856  23.222  1.00  0.00    -0.168 F 
ATOM     13  F   UNL A   1      30.757  27.095  25.369  1.00  0.00    -0.168 F 
ENDBRANCH   8  10
BRANCH   8  14
ATOM     14  N   UNL A   1      33.035  26.464  22.762  1.00  0.00    -0.330 N 
ATOM     15  C   UNL A   1      33.008  25.175  22.302  1.00  0.00     0.258 C 
ATOM     16  H   UNL A   1      33.276  27.088  22.039  1.00  0.00     0.165 HD
ATOM     17  O   UNL A   1      33.132  24.978  21.096  1.00  0.00    -0.269 OA
BRANCH  15  18
ATOM     18  C   UNL A   1      32.934  24.011  23.182  1.00  0.00     0.111 A 
ATOM     19  C   UNL A   1      31.727  23.483  23.609  1.00  0.00     0.138 A 
ATOM     20  C   UNL A   1      34.119  23.376  23.555  1.00  0.00     0.138 A 
ATOM     21  F   UNL A   1      30.565  24.016  23.207  1.00  0.00    -0.206 F 
ATOM     22  C   UNL A   1      31.701  22.409  24.502  1.00  0.00     0.040 A 
ATOM     23  C   UNL A   1      34.112  22.304  24.442  1.00  0.00     0.040 A 
ATOM     24  F   UNL A   1      35.303  23.814  23.104  1.00  0.00    -0.206 F 
ATOM     25  C   UNL A   1      32.897  21.830  24.934  1.00  0.00     0.006 A 
ENDBRANCH  15  18
ENDBRANCH   8  14
ENDBRANCH   5   8
ENDBRANCH   3   4
ENDBRANCH   2   3
ENDBRANCH   1   2
BRANCH   1  26
ATOM     26  C   UNL A   1      33.109  32.187  27.456  1.00  0.00     0.116 C 
BRANCH  26  27
ATOM     27  N   UNL A   1      32.677  33.562  27.661  1.00  0.00    -0.352 N 
ATOM     28  C   UNL A   1      33.189  34.491  28.540  1.00  0.00     0.251 C 
ATOM     29  H   UNL A   1      31.926  33.867  27.102  1.00  0.00     0.163 HD
ATOM     30  O   UNL A   1      32.667  35.593  28.651  1.00  0.00    -0.269 OA
BRANCH  28  31
ATOM     31  C   UNL A   1      34.348  34.116  29.379  1.00  0.00     0.039 A 
ATOM     32  C   UNL A   1      34.122  33.446  30.582  1.00  0.00     0.014 A 
ATOM     33  C   UNL A   1      35.651  34.364  28.939  1.00  0.00     0.014 A 
ATOM     34  C   UNL A   1      35.207  32.950  31.309  1.00  0.00     0.010 A 
ATOM     35  C   UNL A   1      36.726  33.812  29.629  1.00  0.00     0.010 A 
ATOM     36  C   UNL A   1      36.515  33.092  30.816  1.00  0.00    -0.014 A 
BRANCH  36  37
ATOM     37  C   UNL A   1      37.677  32.489  31.519  1.00  0.00     0.031 A 
ATOM     38  C   UNL A   1      38.427  31.349  30.887  1.00  0.00     0.074 A 
ATOM     39  C   UNL A   1      38.005  32.913  32.756  1.00  0.00     0.049 A 
ATOM     40  N   UNL A   1      39.402  30.626  31.375  1.00  0.00    -0.248 NA
ATOM     41  C   UNL A   1      37.997  30.949  29.539  1.00  0.00     0.031 C 
ATOM     42  C   UNL A   1      37.323  33.980  33.492  1.00  0.00     0.029 A 
ATOM     43  N   UNL A   1      38.984  32.491  33.618  1.00  0.00    -0.354 N 
ATOM     44  C   UNL A   1      39.689  29.673  30.404  1.00  0.00     0.074 A 
ATOM     45  C   UNL A   1      38.744  29.877  29.326  1.00  0.00     0.031 C 
ATOM     46  C   UNL A   1      37.919  34.142  34.685  1.00  0.00     0.029 A 
ATOM     47  C   UNL A   1      38.996  33.167  34.817  1.00  0.00     0.049 A 
ATOM     48  H   UNL A   1      39.621  31.772  33.400  1.00  0.00     0.167 HD
ATOM     49  C   UNL A   1      40.662  28.728  30.403  1.00  0.00     0.034 A 
ATOM     50  C   UNL A   1      39.780  33.009  35.903  1.00  0.00     0.034 A 
ATOM     51  C   UNL A   1      41.610  28.553  31.477  1.00  0.00     0.049 A 
ATOM     52  C   UNL A   1      40.852  31.950  35.881  1.00  0.00     0.074 A 
ATOM     53  C   UNL A   1      42.678  27.675  31.550  1.00  0.00     0.029 A 
ATOM     54  N   UNL A   1      41.599  29.264  32.671  1.00  0.00    -0.354 N 
ATOM     55  N   UNL A   1      41.145  31.091  34.934  1.00  0.00    -0.248 NA
ATOM     56  C   UNL A   1      41.703  31.847  37.074  1.00  0.00     0.031 C 
ATOM     57  C   UNL A   1      43.275  27.815  32.808  1.00  0.00     0.029 A 
ATOM     58  C   UNL A   1      42.624  28.826  33.496  1.00  0.00     0.049 A 
ATOM     59  H   UNL A   1      40.958  29.975  32.897  1.00  0.00     0.167 HD
ATOM     60  C   UNL A   1      42.237  30.366  35.404  1.00  0.00     0.074 A 
ATOM     61  C   UNL A   1      42.553  30.896  36.715  1.00  0.00     0.031 C 
ATOM     62  C   UNL A   1      42.920  29.358  34.804  1.00  0.00     0.034 A 
BRANCH  49  63
ATOM     63  C   UNL A   1      40.726  27.802  29.213  1.00  0.00     0.023 A 
ATOM     64  C   UNL A   1      41.665  27.988  28.182  1.00  0.00     0.031 A 
ATOM     65  C   UNL A   1      39.813  26.740  29.086  1.00  0.00     0.131 A 
ATOM     66  C   UNL A   1      41.614  27.182  27.035  1.00  0.00     0.055 A 
ATOM     67  C   UNL A   1      39.823  25.888  27.980  1.00  0.00     0.041 A 
ATOM     68  F   UNL A   1      38.880  26.525  30.027  1.00  0.00    -0.206 F 
ATOM     69  C   UNL A   1      40.717  26.117  26.938  1.00  0.00     0.022 A 
BRANCH  66  70
ATOM     70  S   UNL A   1      42.637  27.644  25.610  1.00  0.00     0.124 S 
ATOM     71  O   UNL A   1      43.932  27.882  26.242  1.00  0.00    -0.237 OA
ATOM     72  O   UNL A   1      42.547  26.463  24.759  1.00  0.00    -0.237 OA
ATOM     73  O   UNL A   1      41.978  28.841  25.089  1.00  0.00    -0.744 OA
ENDBRANCH  66  70
ENDBRANCH  49  63
BRANCH  50  74
ATOM     74  C   UNL A   1      39.585  33.868  37.106  1.00  0.00     0.023 A 
ATOM     75  C   UNL A   1      38.938  33.370  38.247  1.00  0.00     0.031 A 
ATOM     76  C   UNL A   1      40.006  35.208  37.116  1.00  0.00     0.131 A 
ATOM     77  C   UNL A   1      38.689  34.219  39.336  1.00  0.00     0.055 A 
ATOM     78  C   UNL A   1      39.798  36.037  38.222  1.00  0.00     0.041 A 
ATOM     79  F   UNL A   1      40.638  35.731  36.053  1.00  0.00    -0.206 F 
ATOM     80  C   UNL A   1      39.124  35.547  39.335  1.00  0.00     0.022 A 
BRANCH  77  81
ATOM     81  S   UNL A   1      37.717  33.582  40.728  1.00  0.00     0.124 S 
ATOM     82  O   UNL A   1      37.374  34.809  41.438  1.00  0.00    -0.237 OA
ATOM     83  O   UNL A   1      36.619  32.907  40.046  1.00  0.00    -0.237 OA
ATOM     84  O   UNL A   1      38.653  32.699  41.422  1.00  0.00    -0.744 OA
ENDBRANCH  77  81
ENDBRANCH  50  74
BRANCH  62  85
ATOM     85  C   UNL A   1      44.107  28.801  35.551  1.00  0.00     0.023 A 
ATOM     86  C   UNL A   1      43.978  27.736  36.457  1.00  0.00     0.031 A 
ATOM     87  C   UNL A   1      45.384  29.358  35.358  1.00  0.00     0.131 A 
ATOM     88  C   UNL A   1      45.097  27.293  37.178  1.00  0.00     0.055 A 
ATOM     89  C   UNL A   1      46.504  28.877  36.037  1.00  0.00     0.041 A 
ATOM     90  F   UNL A   1      45.563  30.379  34.504  1.00  0.00    -0.206 F 
ATOM     91  C   UNL A   1      46.362  27.846  36.962  1.00  0.00     0.022 A 
BRANCH  88  92
ATOM     92  S   UNL A   1      44.865  26.035  38.465  1.00  0.00     0.124 S 
ATOM     93  O   UNL A   1      44.254  24.943  37.715  1.00  0.00    -0.237 OA
ATOM     94  O   UNL A   1      46.230  25.806  38.928  1.00  0.00    -0.237 OA
ATOM     95  O   UNL A   1      43.986  26.692  39.431  1.00  0.00    -0.744 OA
ENDBRANCH  88  92
ENDBRANCH  62  85
ENDBRANCH  36  37
ENDBRANCH  28  31
ENDBRANCH  26  27
ENDBRANCH   1  26
TORSDOF 17
ENDMDL
MODEL 3
REMARK VINA RESULT:     -11.6      1.427      1.716
REMARK SMILES C[C@](NC(=O)c1c(F)cccc1F)(C(=O)NCCCCNC(=O)c1ccc(-c2c3nc(c(-c4cc(S(=O)(=O)[O-])ccc4F)c4ccc([nH]4)c(-c4cc(S(=O)(=O)[O-])ccc4F)c4nc(c(-c5cc(S(=O)(=O)[O-])ccc5F)c5ccc2[nH]5)C=C4)C=C3)cc1)C(F)(F)F
REMARK SMILES IDX 19 1 18 2 17 3 16 4 14 5 15 6 2 8 1 9 87 10 88 11 89 12
REMARK SMILES IDX 90 13 3 14 4 15 5 17 6 18 7 19 12 20 8 21 9 22 11 23 13 24
REMARK SMILES IDX 10 25 20 26 21 27 22 28 23 30 24 31 25 32 86 33 26 34 85 35
REMARK SMILES IDX 27 36 28 37 29 38 79 39 30 40 84 41 78 42 80 43 31 44 83 45
REMARK SMILES IDX 77 46 76 47 32 49 64 50 44 51 63 52 45 53 48 54 62 55 81 56
REMARK SMILES IDX 46 57 47 58 61 60 82 61 49 62 33 63 34 64 42 65 35 66 41 67
REMARK SMILES IDX 43 68 40 69 36 70 37 71 38 72 39 73 65 74 66 75 74 76 67 77
REMARK SMILES IDX 73 78 75 79 72 80 68 81 69 82 70 83 71 84 50 85 51 86 59 87
REMARK SMILES IDX 52 88 58 89 60 90 57 91 53 92 54 93 55 94 56 95
REMARK H PARENT 16 7 3 16 21 29 80 48 48 59
REMARK Flexibility Score: inf
ROOT
ATOM      1  C   UNL A   1      31.625  29.117  25.853  1.00  0.00     0.023 C 
ENDROOT
BRANCH   1   2
ATOM      2  C   UNL A   1      31.476  28.091  26.977  1.00  0.00     0.023 C 
BRANCH   2   3
ATOM      3  C   UNL A   1      31.050  26.707  26.503  1.00  0.00     0.116 C 
BRANCH   3   4
ATOM      4  N   UNL A   1      30.830  26.675  25.073  1.00  0.00    -0.354 N 
ATOM      5  C   UNL A   1      31.440  25.943  24.092  1.00  0.00     0.254 C 
ATOM      6  O   UNL A   1      30.995  26.110  22.954  1.00  0.00    -0.272 OA
ATOM      7  H   UNL A   1      30.124  27.281  24.753  1.00  0.00     0.163 HD
BRANCH   5   8
ATOM      8  C   UNL A   1      32.499  24.859  24.417  1.00  0.00     0.212 C 
ATOM      9  C   UNL A   1      32.623  23.946  23.191  1.00  0.00     0.056 C 
BRANCH   8  10
ATOM     10  C   UNL A   1      33.848  25.614  24.568  1.00  0.00     0.420 C 
ATOM     11  F   UNL A   1      34.061  26.017  25.844  1.00  0.00    -0.168 F 
ATOM     12  F   UNL A   1      34.883  24.787  24.256  1.00  0.00    -0.168 F 
ATOM     13  F   UNL A   1      33.965  26.684  23.753  1.00  0.00    -0.168 F 
ENDBRANCH   8  10
BRANCH   8  14
ATOM     14  N   UNL A   1      32.166  24.193  25.734  1.00  0.00    -0.330 N 
ATOM     15  C   UNL A   1      32.622  23.158  26.505  1.00  0.00     0.258 C 
ATOM     16  H   UNL A   1      31.396  24.633  26.162  1.00  0.00     0.165 HD
ATOM     17  O   UNL A   1      32.146  23.005  27.627  1.00  0.00    -0.269 OA
BRANCH  15  18
ATOM     18  C   UNL A   1      33.580  22.163  26.028  1.00  0.00     0.111 A 
ATOM     19  C   UNL A   1      34.943  22.287  26.241  1.00  0.00     0.138 A 
ATOM     20  C   UNL A   1      33.099  21.021  25.387  1.00  0.00     0.138 A 
ATOM     21  F   UNL A   1      35.438  23.330  26.923  1.00  0.00    -0.206 F 
ATOM     22  C   UNL A   1      35.831  21.348  25.711  1.00  0.00     0.040 A 
ATOM     23  C   UNL A   1      33.968  20.074  24.855  1.00  0.00     0.040 A 
ATOM     24  F   UNL A   1      31.782  20.830  25.225  1.00  0.00    -0.206 F 
ATOM     25  C   UNL A   1      35.343  20.248  25.001  1.00  0.00     0.006 A 
ENDBRANCH  15  18
ENDBRANCH   8  14
ENDBRANCH   5   8
ENDBRANCH   3   4
ENDBRANCH   2   3
ENDBRANCH   1   2
BRANCH   1  26
ATOM     26  C   UNL A   1      32.878  29.988  25.932  1.00  0.00     0.116 C 
BRANCH  26  27
ATOM     27  N   UNL A   1      32.625  31.344  26.397  1.00  0.00    -0.352 N 
ATOM     28  C   UNL A   1      33.373  32.094  27.277  1.00  0.00     0.251 C 
ATOM     29  H   UNL A   1      31.818  31.780  26.038  1.00  0.00     0.163 HD
ATOM     30  O   UNL A   1      32.989  33.200  27.631  1.00  0.00    -0.269 OA
BRANCH  28  31
ATOM     31  C   UNL A   1      34.623  31.517  27.821  1.00  0.00     0.039 A 
ATOM     32  C   UNL A   1      35.726  32.352  28.008  1.00  0.00     0.014 A 
ATOM     33  C   UNL A   1      34.674  30.175  28.207  1.00  0.00     0.014 A 
ATOM     34  C   UNL A   1      36.858  31.859  28.660  1.00  0.00     0.010 A 
ATOM     35  C   UNL A   1      35.776  29.706  28.915  1.00  0.00     0.010 A 
ATOM     36  C   UNL A   1      36.876  30.546  29.157  1.00  0.00    -0.014 A 
BRANCH  36  37
ATOM     37  C   UNL A   1      38.028  30.029  29.940  1.00  0.00     0.031 A 
ATOM     38  C   UNL A   1      38.274  30.534  31.335  1.00  0.00     0.074 A 
ATOM     39  C   UNL A   1      38.895  29.170  29.367  1.00  0.00     0.049 A 
ATOM     40  N   UNL A   1      39.272  30.284  32.144  1.00  0.00    -0.248 NA
ATOM     41  C   UNL A   1      37.282  31.474  31.877  1.00  0.00     0.031 C 
ATOM     42  C   UNL A   1      38.788  28.643  28.005  1.00  0.00     0.029 A 
ATOM     43  N   UNL A   1      40.044  28.597  29.853  1.00  0.00    -0.354 N 
ATOM     44  C   UNL A   1      39.039  31.049  33.281  1.00  0.00     0.074 A 
ATOM     45  C   UNL A   1      37.836  31.815  33.029  1.00  0.00     0.031 C 
ATOM     46  C   UNL A   1      39.816  27.810  27.773  1.00  0.00     0.029 A 
ATOM     47  C   UNL A   1      40.676  27.773  28.951  1.00  0.00     0.049 A 
ATOM     48  H   UNL A   1      40.383  28.760  30.763  1.00  0.00     0.167 HD
ATOM     49  C   UNL A   1      39.751  31.095  34.434  1.00  0.00     0.034 A 
ATOM     50  C   UNL A   1      41.825  27.076  29.058  1.00  0.00     0.034 A 
ATOM     51  C   UNL A   1      40.936  30.308  34.676  1.00  0.00     0.049 A 
ATOM     52  C   UNL A   1      42.602  27.145  30.348  1.00  0.00     0.074 A 
ATOM     53  C   UNL A   1      41.694  30.223  35.831  1.00  0.00     0.029 A 
ATOM     54  N   UNL A   1      41.541  29.474  33.743  1.00  0.00    -0.354 N 
ATOM     55  N   UNL A   1      42.340  27.833  31.435  1.00  0.00    -0.248 NA
ATOM     56  C   UNL A   1      43.825  26.336  30.427  1.00  0.00     0.031 C 
ATOM     57  C   UNL A   1      42.788  29.387  35.578  1.00  0.00     0.029 A 
ATOM     58  C   UNL A   1      42.677  28.895  34.288  1.00  0.00     0.049 A 
ATOM     59  H   UNL A   1      41.211  29.318  32.830  1.00  0.00     0.167 HD
ATOM     60  C   UNL A   1      43.350  27.513  32.338  1.00  0.00     0.074 A 
ATOM     61  C   UNL A   1      44.218  26.565  31.671  1.00  0.00     0.031 C 
ATOM     62  C   UNL A   1      43.539  27.958  33.607  1.00  0.00     0.034 A 
BRANCH  49  63
ATOM     63  C   UNL A   1      39.274  32.046  35.505  1.00  0.00     0.023 A 
ATOM     64  C   UNL A   1      39.750  33.366  35.586  1.00  0.00     0.031 A 
ATOM     65  C   UNL A   1      38.357  31.617  36.481  1.00  0.00     0.131 A 
ATOM     66  C   UNL A   1      39.377  34.181  36.665  1.00  0.00     0.055 A 
ATOM     67  C   UNL A   1      37.923  32.461  37.506  1.00  0.00     0.041 A 
ATOM     68  F   UNL A   1      37.882  30.362  36.469  1.00  0.00    -0.206 F 
ATOM     69  C   UNL A   1      38.447  33.747  37.611  1.00  0.00     0.022 A 
BRANCH  66  70
ATOM     70  S   UNL A   1      40.242  35.759  36.895  1.00  0.00     0.124 S 
ATOM     71  O   UNL A   1      39.882  36.094  38.271  1.00  0.00    -0.237 OA
ATOM     72  O   UNL A   1      41.635  35.391  36.671  1.00  0.00    -0.237 OA
ATOM     73  O   UNL A   1      39.652  36.624  35.876  1.00  0.00    -0.744 OA
ENDBRANCH  66  70
ENDBRANCH  49  63
BRANCH  50  74
ATOM     74  C   UNL A   1      42.319  26.253  27.918  1.00  0.00     0.023 A 
ATOM     75  C   UNL A   1      42.021  24.884  27.837  1.00  0.00     0.031 A 
ATOM     76  C   UNL A   1      43.131  26.813  26.917  1.00  0.00     0.131 A 
ATOM     77  C   UNL A   1      42.566  24.110  26.801  1.00  0.00     0.055 A 
ATOM     78  C   UNL A   1      43.633  26.048  25.861  1.00  0.00     0.041 A 
ATOM     79  F   UNL A   1      43.439  28.120  26.944  1.00  0.00    -0.206 F 
ATOM     80  C   UNL A   1      43.362  24.685  25.807  1.00  0.00     0.022 A 
BRANCH  77  81
ATOM     81  S   UNL A   1      42.282  22.318  26.816  1.00  0.00     0.124 S 
ATOM     82  O   UNL A   1      43.467  21.824  26.123  1.00  0.00    -0.237 OA
ATOM     83  O   UNL A   1      42.210  22.036  28.245  1.00  0.00    -0.237 OA
ATOM     84  O   UNL A   1      41.023  22.167  26.088  1.00  0.00    -0.744 OA
ENDBRANCH  77  81
ENDBRANCH  50  74
BRANCH  62  85
ATOM     85  C   UNL A   1      44.708  27.380  34.364  1.00  0.00     0.023 A 
ATOM     86  C   UNL A   1      44.605  26.172  35.074  1.00  0.00     0.031 A 
ATOM     87  C   UNL A   1      45.939  28.060  34.384  1.00  0.00     0.131 A 
ATOM     88  C   UNL A   1      45.699  25.705  35.818  1.00  0.00     0.055 A 
ATOM     89  C   UNL A   1      47.040  27.561  35.081  1.00  0.00     0.041 A 
ATOM     90  F   UNL A   1      46.091  29.219  33.723  1.00  0.00    -0.206 F 
ATOM     91  C   UNL A   1      46.920  26.384  35.813  1.00  0.00     0.022 A 
BRANCH  88  92
ATOM     92  S   UNL A   1      45.481  24.237  36.862  1.00  0.00     0.124 S 
ATOM     93  O   UNL A   1      46.850  23.752  36.992  1.00  0.00    -0.237 OA
ATOM     94  O   UNL A   1      44.886  24.800  38.071  1.00  0.00    -0.237 OA
ATOM     95  O   UNL A   1      44.592  23.385  36.074  1.00  0.00    -0.744 OA
ENDBRANCH  88  92
ENDBRANCH  62  85
ENDBRANCH  36  37
ENDBRANCH  28  31
ENDBRANCH  26  27
ENDBRANCH   1  26
TORSDOF 17
ENDMDL
