MODEL 1
REMARK VINA RESULT:     -11.9      0.000      0.000
REMARK SMILES CC(=O)N1[C@@H](c2c(F)cccc2Cl)SC[C@H]1C(=O)NCCCCNC(=O)c1ccc(-c2c3nc(c(-c4cc(S(=O)(=O)[O-])ccc4F)c4ccc([nH]4)c(-c4cc(S(=O)(=O)[O-])ccc4F)c4nc(c(-c5cc(S(=O)(=O)[O-])ccc5F)c5ccc2[nH]5)C=C4)C=C3)cc1
REMARK SMILES IDX 22 1 21 2 20 3 19 4 17 5 18 6 16 8 4 9 5 10 14 11 15 12 2 13
REMARK SMILES IDX 1 14 3 15 6 16 7 17 12 18 8 19 9 20 11 21 13 22 10 23 23 24
REMARK SMILES IDX 24 25 25 26 26 28 27 29 28 30 89 31 29 32 88 33 30 34 31 35
REMARK SMILES IDX 32 36 82 37 33 38 87 39 81 40 83 41 34 42 86 43 80 44 79 45
REMARK SMILES IDX 35 47 67 48 47 49 66 50 48 51 51 52 65 53 84 54 49 55 50 56
REMARK SMILES IDX 64 58 85 59 52 60 36 61 37 62 45 63 38 64 44 65 46 66 43 67
REMARK SMILES IDX 39 68 40 69 41 70 42 71 68 72 69 73 77 74 70 75 76 76 78 77
REMARK SMILES IDX 75 78 71 79 72 80 73 81 74 82 53 83 54 84 62 85 55 86 61 87
REMARK SMILES IDX 63 88 60 89 56 90 57 91 58 92 59 93
REMARK H PARENT 19 7 24 27 83 46 51 57
REMARK Flexibility Score: inf
ROOT
ATOM      1  C   UNL A   1      34.928  21.474  26.167  1.00  0.00     0.023 C 
ENDROOT
BRANCH   1   2
ATOM      2  C   UNL A   1      33.912  21.076  25.093  1.00  0.00     0.023 C 
BRANCH   2   3
ATOM      3  C   UNL A   1      32.459  21.433  25.389  1.00  0.00     0.116 C 
BRANCH   3   4
ATOM      4  N   UNL A   1      32.289  22.420  26.425  1.00  0.00    -0.354 N 
ATOM      5  C   UNL A   1      32.171  23.772  26.304  1.00  0.00     0.243 C 
ATOM      6  O   UNL A   1      31.616  24.366  27.239  1.00  0.00    -0.273 OA
ATOM      7  H   UNL A   1      32.255  22.070  27.345  1.00  0.00     0.163 HD
BRANCH   5   8
ATOM      8  C   UNL A   1      32.509  24.548  25.004  1.00  0.00     0.185 C 
ATOM      9  N   UNL A   1      31.682  25.702  24.590  1.00  0.00    -0.314 N 
ATOM     10  C   UNL A   1      32.431  26.872  24.084  1.00  0.00     0.179 C 
ATOM     11  S   UNL A   1      34.084  26.205  23.683  1.00  0.00    -0.129 SA
ATOM     12  C   UNL A   1      33.986  24.911  24.955  1.00  0.00     0.107 C 
BRANCH   9  13
ATOM     13  C   UNL A   1      30.413  25.315  24.175  1.00  0.00     0.221 C 
ATOM     14  C   UNL A   1      30.269  24.081  23.325  1.00  0.00     0.114 C 
ATOM     15  O   UNL A   1      29.401  25.865  24.615  1.00  0.00    -0.275 OA
ENDBRANCH   9  13
BRANCH  10  16
ATOM     16  C   UNL A   1      32.408  28.088  25.019  1.00  0.00     0.039 A 
ATOM     17  C   UNL A   1      33.192  28.182  26.186  1.00  0.00     0.130 A 
ATOM     18  C   UNL A   1      31.552  29.188  24.794  1.00  0.00     0.050 A 
ATOM     19  F   UNL A   1      34.062  27.223  26.524  1.00  0.00    -0.207 F 
ATOM     20  C   UNL A   1      33.080  29.232  27.102  1.00  0.00     0.040 A 
ATOM     21  C   UNL A   1      31.401  30.225  25.733  1.00  0.00     0.021 A 
ATOM     22  Cl  UNL A   1      30.679  29.430  23.327  1.00  0.00    -0.084 Cl
ATOM     23  C   UNL A   1      32.159  30.244  26.891  1.00  0.00     0.005 A 
ENDBRANCH  10  16
ENDBRANCH   5   8
ENDBRANCH   3   4
ENDBRANCH   2   3
ENDBRANCH   1   2
BRANCH   1  24
ATOM     24  C   UNL A   1      36.291  21.973  25.690  1.00  0.00     0.116 C 
BRANCH  24  25
ATOM     25  N   UNL A   1      37.290  20.923  25.559  1.00  0.00    -0.352 N 
ATOM     26  C   UNL A   1      38.649  20.965  25.804  1.00  0.00     0.251 C 
ATOM     27  H   UNL A   1      36.947  20.055  25.249  1.00  0.00     0.163 HD
ATOM     28  O   UNL A   1      39.353  20.006  25.536  1.00  0.00    -0.269 OA
BRANCH  26  29
ATOM     29  C   UNL A   1      39.241  22.201  26.363  1.00  0.00     0.039 A 
ATOM     30  C   UNL A   1      40.333  22.108  27.230  1.00  0.00     0.014 A 
ATOM     31  C   UNL A   1      38.747  23.448  25.978  1.00  0.00     0.014 A 
ATOM     32  C   UNL A   1      40.988  23.274  27.636  1.00  0.00     0.010 A 
ATOM     33  C   UNL A   1      39.461  24.593  26.295  1.00  0.00     0.010 A 
ATOM     34  C   UNL A   1      40.586  24.521  27.130  1.00  0.00    -0.014 A 
BRANCH  34  35
ATOM     35  C   UNL A   1      41.312  25.773  27.458  1.00  0.00     0.031 A 
ATOM     36  C   UNL A   1      40.628  26.826  28.291  1.00  0.00     0.074 A 
ATOM     37  C   UNL A   1      42.528  25.998  26.922  1.00  0.00     0.049 A 
ATOM     38  N   UNL A   1      41.022  28.036  28.587  1.00  0.00    -0.248 NA
ATOM     39  C   UNL A   1      39.296  26.485  28.814  1.00  0.00     0.031 C 
ATOM     40  C   UNL A   1      43.250  25.070  26.045  1.00  0.00     0.029 A 
ATOM     41  N   UNL A   1      43.370  27.076  27.019  1.00  0.00    -0.354 N 
ATOM     42  C   UNL A   1      39.974  28.609  29.302  1.00  0.00     0.074 A 
ATOM     43  C   UNL A   1      38.902  27.639  29.325  1.00  0.00     0.031 C 
ATOM     44  C   UNL A   1      44.437  25.603  25.719  1.00  0.00     0.029 A 
ATOM     45  C   UNL A   1      44.545  26.928  26.319  1.00  0.00     0.049 A 
ATOM     46  H   UNL A   1      43.153  27.881  27.543  1.00  0.00     0.167 HD
ATOM     47  C   UNL A   1      39.926  29.821  29.909  1.00  0.00     0.034 A 
ATOM     48  C   UNL A   1      45.588  27.770  26.178  1.00  0.00     0.034 A 
ATOM     49  C   UNL A   1      41.027  30.753  29.889  1.00  0.00     0.049 A 
ATOM     50  C   UNL A   1      45.525  29.101  26.883  1.00  0.00     0.074 A 
ATOM     51  C   UNL A   1      41.131  31.982  30.513  1.00  0.00     0.029 A 
ATOM     52  N   UNL A   1      42.221  30.551  29.205  1.00  0.00    -0.354 N 
ATOM     53  N   UNL A   1      44.551  29.607  27.607  1.00  0.00    -0.248 NA
ATOM     54  C   UNL A   1      46.706  29.965  26.770  1.00  0.00     0.031 C 
ATOM     55  C   UNL A   1      42.359  32.550  30.154  1.00  0.00     0.029 A 
ATOM     56  C   UNL A   1      43.058  31.642  29.375  1.00  0.00     0.049 A 
ATOM     57  H   UNL A   1      42.441  29.749  28.678  1.00  0.00     0.167 HD
ATOM     58  C   UNL A   1      45.019  30.835  28.065  1.00  0.00     0.074 A 
ATOM     59  C   UNL A   1      46.366  30.981  27.549  1.00  0.00     0.031 C 
ATOM     60  C   UNL A   1      44.397  31.760  28.842  1.00  0.00     0.034 A 
BRANCH  47  61
ATOM     61  C   UNL A   1      38.643  30.199  30.615  1.00  0.00     0.023 A 
ATOM     62  C   UNL A   1      37.623  30.917  29.962  1.00  0.00     0.031 A 
ATOM     63  C   UNL A   1      38.452  29.882  31.971  1.00  0.00     0.131 A 
ATOM     64  C   UNL A   1      36.509  31.372  30.685  1.00  0.00     0.055 A 
ATOM     65  C   UNL A   1      37.296  30.258  32.661  1.00  0.00     0.041 A 
ATOM     66  F   UNL A   1      39.395  29.218  32.658  1.00  0.00    -0.206 F 
ATOM     67  C   UNL A   1      36.325  31.024  32.023  1.00  0.00     0.022 A 
BRANCH  64  68
ATOM     68  S   UNL A   1      35.391  32.561  29.892  1.00  0.00     0.124 S 
ATOM     69  O   UNL A   1      34.366  32.729  30.921  1.00  0.00    -0.237 OA
ATOM     70  O   UNL A   1      36.260  33.709  29.665  1.00  0.00    -0.237 OA
ATOM     71  O   UNL A   1      34.946  31.864  28.688  1.00  0.00    -0.744 OA
ENDBRANCH  64  68
ENDBRANCH  47  61
BRANCH  48  72
ATOM     72  C   UNL A   1      46.777  27.381  25.364  1.00  0.00     0.023 A 
ATOM     73  C   UNL A   1      46.930  27.841  24.045  1.00  0.00     0.031 A 
ATOM     74  C   UNL A   1      47.768  26.526  25.879  1.00  0.00     0.131 A 
ATOM     75  C   UNL A   1      48.019  27.409  23.272  1.00  0.00     0.055 A 
ATOM     76  C   UNL A   1      48.880  26.144  25.124  1.00  0.00     0.041 A 
ATOM     77  F   UNL A   1      47.680  26.063  27.136  1.00  0.00    -0.206 F 
ATOM     78  C   UNL A   1      49.002  26.574  23.807  1.00  0.00     0.022 A 
BRANCH  75  79
ATOM     79  S   UNL A   1      48.087  27.889  21.524  1.00  0.00     0.124 S 
ATOM     80  O   UNL A   1      46.779  28.504  21.333  1.00  0.00    -0.237 OA
ATOM     81  O   UNL A   1      49.232  28.794  21.504  1.00  0.00    -0.237 OA
ATOM     82  O   UNL A   1      48.288  26.618  20.830  1.00  0.00    -0.744 OA
ENDBRANCH  75  79
ENDBRANCH  48  72
BRANCH  60  83
ATOM     83  C   UNL A   1      45.198  32.982  29.215  1.00  0.00     0.023 A 
ATOM     84  C   UNL A   1      45.120  34.172  28.474  1.00  0.00     0.031 A 
ATOM     85  C   UNL A   1      46.068  32.944  30.320  1.00  0.00     0.131 A 
ATOM     86  C   UNL A   1      45.949  35.254  28.802  1.00  0.00     0.055 A 
ATOM     87  C   UNL A   1      46.837  34.048  30.686  1.00  0.00     0.041 A 
ATOM     88  F   UNL A   1      46.182  31.831  31.062  1.00  0.00    -0.206 F 
ATOM     89  C   UNL A   1      46.793  35.207  29.915  1.00  0.00     0.022 A 
BRANCH  86  90
ATOM     90  S   UNL A   1      45.994  36.682  27.686  1.00  0.00     0.124 S 
ATOM     91  O   UNL A   1      46.101  37.796  28.624  1.00  0.00    -0.237 OA
ATOM     92  O   UNL A   1      47.179  36.410  26.880  1.00  0.00    -0.237 OA
ATOM     93  O   UNL A   1      44.723  36.596  26.969  1.00  0.00    -0.744 OA
ENDBRANCH  86  90
ENDBRANCH  60  83
ENDBRANCH  34  35
ENDBRANCH  26  29
ENDBRANCH  24  25
ENDBRANCH   1  24
TORSDOF 16
ENDMDL
MODEL 2
REMARK VINA RESULT:     -11.9      4.964      7.352
REMARK SMILES CC(=O)N1[C@@H](c2c(F)cccc2Cl)SC[C@H]1C(=O)NCCCCNC(=O)c1ccc(-c2c3nc(c(-c4cc(S(=O)(=O)[O-])ccc4F)c4ccc([nH]4)c(-c4cc(S(=O)(=O)[O-])ccc4F)c4nc(c(-c5cc(S(=O)(=O)[O-])ccc5F)c5ccc2[nH]5)C=C4)C=C3)cc1
REMARK SMILES IDX 22 1 21 2 20 3 19 4 17 5 18 6 16 8 4 9 5 10 14 11 15 12 2 13
REMARK SMILES IDX 1 14 3 15 6 16 7 17 12 18 8 19 9 20 11 21 13 22 10 23 23 24
REMARK SMILES IDX 24 25 25 26 26 28 27 29 28 30 89 31 29 32 88 33 30 34 31 35
REMARK SMILES IDX 32 36 82 37 33 38 87 39 81 40 83 41 34 42 86 43 80 44 79 45
REMARK SMILES IDX 35 47 67 48 47 49 66 50 48 51 51 52 65 53 84 54 49 55 50 56
REMARK SMILES IDX 64 58 85 59 52 60 36 61 37 62 45 63 38 64 44 65 46 66 43 67
REMARK SMILES IDX 39 68 40 69 41 70 42 71 68 72 69 73 77 74 70 75 76 76 78 77
REMARK SMILES IDX 75 78 71 79 72 80 73 81 74 82 53 83 54 84 62 85 55 86 61 87
REMARK SMILES IDX 63 88 60 89 56 90 57 91 58 92 59 93
REMARK H PARENT 19 7 24 27 83 46 51 57
REMARK Flexibility Score: inf
ROOT
ATOM      1  C   UNL A   1      31.406  28.968  27.109  1.00  0.00     0.023 C 
ENDROOT
BRANCH   1   2
ATOM      2  C   UNL A   1      31.668  27.459  27.101  1.00  0.00     0.023 C 
BRANCH   2   3
ATOM      3  C   UNL A   1      30.967  26.669  26.000  1.00  0.00     0.116 C 
BRANCH   3   4
ATOM      4  N   UNL A   1      30.362  25.439  26.443  1.00  0.00    -0.354 N 
ATOM      5  C   UNL A   1      30.893  24.184  26.455  1.00  0.00     0.243 C 
ATOM      6  O   UNL A   1      30.390  23.378  27.249  1.00  0.00    -0.273 OA
ATOM      7  H   UNL A   1      29.441  25.516  26.781  1.00  0.00     0.163 HD
BRANCH   5   8
ATOM      8  C   UNL A   1      32.183  23.793  25.688  1.00  0.00     0.185 C 
ATOM      9  N   UNL A   1      32.331  24.137  24.257  1.00  0.00    -0.314 N 
ATOM     10  C   UNL A   1      33.660  24.648  23.860  1.00  0.00     0.179 C 
ATOM     11  S   UNL A   1      34.759  24.146  25.230  1.00  0.00    -0.129 SA
ATOM     12  C   UNL A   1      33.425  24.208  26.462  1.00  0.00     0.107 C 
BRANCH   9  13
ATOM     13  C   UNL A   1      31.477  23.395  23.448  1.00  0.00     0.221 C 
ATOM     14  C   UNL A   1      31.982  22.114  22.837  1.00  0.00     0.114 C 
ATOM     15  O   UNL A   1      30.282  23.677  23.351  1.00  0.00    -0.275 OA
ENDBRANCH   9  13
BRANCH  10  16
ATOM     16  C   UNL A   1      33.680  26.138  23.496  1.00  0.00     0.039 A 
ATOM     17  C   UNL A   1      34.096  27.147  24.388  1.00  0.00     0.130 A 
ATOM     18  C   UNL A   1      33.232  26.608  22.242  1.00  0.00     0.050 A 
ATOM     19  F   UNL A   1      34.559  26.854  25.609  1.00  0.00    -0.207 F 
ATOM     20  C   UNL A   1      33.997  28.512  24.102  1.00  0.00     0.040 A 
ATOM     21  C   UNL A   1      33.087  27.980  21.964  1.00  0.00     0.021 A 
ATOM     22  Cl  UNL A   1      32.905  25.576  20.901  1.00  0.00    -0.084 Cl
ATOM     23  C   UNL A   1      33.462  28.933  22.896  1.00  0.00     0.005 A 
ENDBRANCH  10  16
ENDBRANCH   5   8
ENDBRANCH   3   4
ENDBRANCH   2   3
ENDBRANCH   1   2
BRANCH   1  24
ATOM     24  C   UNL A   1      32.417  29.857  26.386  1.00  0.00     0.116 C 
BRANCH  24  25
ATOM     25  N   UNL A   1      32.271  31.274  26.678  1.00  0.00    -0.352 N 
ATOM     26  C   UNL A   1      33.104  32.118  27.387  1.00  0.00     0.251 C 
ATOM     27  H   UNL A   1      31.458  31.695  26.318  1.00  0.00     0.163 HD
ATOM     28  O   UNL A   1      32.765  33.265  27.622  1.00  0.00    -0.269 OA
BRANCH  26  29
ATOM     29  C   UNL A   1      34.397  31.598  27.888  1.00  0.00     0.039 A 
ATOM     30  C   UNL A   1      35.443  32.488  28.143  1.00  0.00     0.014 A 
ATOM     31  C   UNL A   1      34.546  30.237  28.156  1.00  0.00     0.014 A 
ATOM     32  C   UNL A   1      36.608  32.021  28.758  1.00  0.00     0.010 A 
ATOM     33  C   UNL A   1      35.655  29.796  28.861  1.00  0.00     0.010 A 
ATOM     34  C   UNL A   1      36.700  30.680  29.167  1.00  0.00    -0.014 A 
BRANCH  34  35
ATOM     35  C   UNL A   1      37.878  30.164  29.908  1.00  0.00     0.031 A 
ATOM     36  C   UNL A   1      38.113  30.615  31.325  1.00  0.00     0.074 A 
ATOM     37  C   UNL A   1      38.776  29.386  29.271  1.00  0.00     0.049 A 
ATOM     38  N   UNL A   1      39.136  30.395  32.108  1.00  0.00    -0.248 NA
ATOM     39  C   UNL A   1      37.079  31.477  31.920  1.00  0.00     0.031 C 
ATOM     40  C   UNL A   1      38.676  28.948  27.876  1.00  0.00     0.029 A 
ATOM     41  N   UNL A   1      39.954  28.834  29.702  1.00  0.00    -0.354 N 
ATOM     42  C   UNL A   1      38.882  31.114  33.272  1.00  0.00     0.074 A 
ATOM     43  C   UNL A   1      37.648  31.837  33.058  1.00  0.00     0.031 C 
ATOM     44  C   UNL A   1      39.726  28.167  27.581  1.00  0.00     0.029 A 
ATOM     45  C   UNL A   1      40.601  28.086  28.745  1.00  0.00     0.049 A 
ATOM     46  H   UNL A   1      40.305  28.962  30.613  1.00  0.00     0.167 HD
ATOM     47  C   UNL A   1      39.598  31.144  34.423  1.00  0.00     0.034 A 
ATOM     48  C   UNL A   1      41.767  27.415  28.804  1.00  0.00     0.034 A 
ATOM     49  C   UNL A   1      40.812  30.387  34.612  1.00  0.00     0.049 A 
ATOM     50  C   UNL A   1      42.534  27.438  30.102  1.00  0.00     0.074 A 
ATOM     51  C   UNL A   1      41.597  30.278  35.744  1.00  0.00     0.029 A 
ATOM     52  N   UNL A   1      41.415  29.603  33.633  1.00  0.00    -0.354 N 
ATOM     53  N   UNL A   1      42.252  28.075  31.216  1.00  0.00    -0.248 NA
ATOM     54  C   UNL A   1      43.763  26.638  30.158  1.00  0.00     0.031 C 
ATOM     55  C   UNL A   1      42.706  29.483  35.432  1.00  0.00     0.029 A 
ATOM     56  C   UNL A   1      42.572  29.026  34.130  1.00  0.00     0.049 A 
ATOM     57  H   UNL A   1      41.069  29.475  32.720  1.00  0.00     0.167 HD
ATOM     58  C   UNL A   1      43.252  27.723  32.118  1.00  0.00     0.074 A 
ATOM     59  C   UNL A   1      44.130  26.804  31.420  1.00  0.00     0.031 C 
ATOM     60  C   UNL A   1      43.432  28.118  33.405  1.00  0.00     0.034 A 
BRANCH  47  61
ATOM     61  C   UNL A   1      39.095  32.032  35.538  1.00  0.00     0.023 A 
ATOM     62  C   UNL A   1      39.511  33.371  35.665  1.00  0.00     0.031 A 
ATOM     63  C   UNL A   1      38.222  31.526  36.518  1.00  0.00     0.131 A 
ATOM     64  C   UNL A   1      39.134  34.123  36.788  1.00  0.00     0.055 A 
ATOM     65  C   UNL A   1      37.776  32.310  37.586  1.00  0.00     0.041 A 
ATOM     66  F   UNL A   1      37.804  30.252  36.469  1.00  0.00    -0.206 F 
ATOM     67  C   UNL A   1      38.247  33.611  37.735  1.00  0.00     0.022 A 
BRANCH  64  68
ATOM     68  S   UNL A   1      39.952  35.718  37.075  1.00  0.00     0.124 S 
ATOM     69  O   UNL A   1      39.267  36.184  38.279  1.00  0.00    -0.237 OA
ATOM     70  O   UNL A   1      41.347  35.332  37.244  1.00  0.00    -0.237 OA
ATOM     71  O   UNL A   1      39.654  36.478  35.864  1.00  0.00    -0.744 OA
ENDBRANCH  64  68
ENDBRANCH  47  61
BRANCH  48  72
ATOM     72  C   UNL A   1      42.269  26.653  27.623  1.00  0.00     0.023 A 
ATOM     73  C   UNL A   1      41.959  25.292  27.458  1.00  0.00     0.031 A 
ATOM     74  C   UNL A   1      43.084  27.262  26.652  1.00  0.00     0.131 A 
ATOM     75  C   UNL A   1      42.496  24.575  26.378  1.00  0.00     0.055 A 
ATOM     76  C   UNL A   1      43.571  26.557  25.548  1.00  0.00     0.041 A 
ATOM     77  F   UNL A   1      43.405  28.561  26.752  1.00  0.00    -0.206 F 
ATOM     78  C   UNL A   1      43.290  25.201  25.414  1.00  0.00     0.022 A 
BRANCH  75  79
ATOM     79  S   UNL A   1      42.211  22.785  26.296  1.00  0.00     0.124 S 
ATOM     80  O   UNL A   1      40.762  22.708  26.436  1.00  0.00    -0.237 OA
ATOM     81  O   UNL A   1      42.749  22.454  24.981  1.00  0.00    -0.237 OA
ATOM     82  O   UNL A   1      42.976  22.267  27.429  1.00  0.00    -0.744 OA
ENDBRANCH  75  79
ENDBRANCH  48  72
BRANCH  60  83
ATOM     83  C   UNL A   1      44.596  27.510  34.145  1.00  0.00     0.023 A 
ATOM     84  C   UNL A   1      44.484  26.285  34.823  1.00  0.00     0.031 A 
ATOM     85  C   UNL A   1      45.833  28.180  34.186  1.00  0.00     0.131 A 
ATOM     86  C   UNL A   1      45.566  25.801  35.572  1.00  0.00     0.055 A 
ATOM     87  C   UNL A   1      46.928  27.657  34.874  1.00  0.00     0.041 A 
ATOM     88  F   UNL A   1      45.996  29.354  33.556  1.00  0.00    -0.206 F 
ATOM     89  C   UNL A   1      46.793  26.469  35.586  1.00  0.00     0.022 A 
BRANCH  86  90
ATOM     90  S   UNL A   1      45.310  24.345  36.623  1.00  0.00     0.124 S 
ATOM     91  O   UNL A   1      46.046  24.709  37.829  1.00  0.00    -0.237 OA
ATOM     92  O   UNL A   1      43.857  24.305  36.751  1.00  0.00    -0.237 OA
ATOM     93  O   UNL A   1      45.895  23.255  35.845  1.00  0.00    -0.744 OA
ENDBRANCH  86  90
ENDBRANCH  60  83
ENDBRANCH  34  35
ENDBRANCH  26  29
ENDBRANCH  24  25
ENDBRANCH   1  24
TORSDOF 16
ENDMDL
MODEL 3
REMARK VINA RESULT:     -11.9      5.092      7.659
REMARK SMILES CC(=O)N1[C@@H](c2c(F)cccc2Cl)SC[C@H]1C(=O)NCCCCNC(=O)c1ccc(-c2c3nc(c(-c4cc(S(=O)(=O)[O-])ccc4F)c4ccc([nH]4)c(-c4cc(S(=O)(=O)[O-])ccc4F)c4nc(c(-c5cc(S(=O)(=O)[O-])ccc5F)c5ccc2[nH]5)C=C4)C=C3)cc1
REMARK SMILES IDX 22 1 21 2 20 3 19 4 17 5 18 6 16 8 4 9 5 10 14 11 15 12 2 13
REMARK SMILES IDX 1 14 3 15 6 16 7 17 12 18 8 19 9 20 11 21 13 22 10 23 23 24
REMARK SMILES IDX 24 25 25 26 26 28 27 29 28 30 89 31 29 32 88 33 30 34 31 35
REMARK SMILES IDX 32 36 82 37 33 38 87 39 81 40 83 41 34 42 86 43 80 44 79 45
REMARK SMILES IDX 35 47 67 48 47 49 66 50 48 51 51 52 65 53 84 54 49 55 50 56
REMARK SMILES IDX 64 58 85 59 52 60 36 61 37 62 45 63 38 64 44 65 46 66 43 67
REMARK SMILES IDX 39 68 40 69 41 70 42 71 68 72 69 73 77 74 70 75 76 76 78 77
REMARK SMILES IDX 75 78 71 79 72 80 73 81 74 82 53 83 54 84 62 85 55 86 61 87
REMARK SMILES IDX 63 88 60 89 56 90 57 91 58 92 59 93
REMARK H PARENT 19 7 24 27 83 46 51 57
REMARK Flexibility Score: inf
ROOT
ATOM      1  C   UNL A   1      31.763  28.799  25.497  1.00  0.00     0.023 C 
ENDROOT
BRANCH   1   2
ATOM      2  C   UNL A   1      31.068  28.924  24.138  1.00  0.00     0.023 C 
BRANCH   2   3
ATOM      3  C   UNL A   1      31.021  27.653  23.296  1.00  0.00     0.116 C 
BRANCH   3   4
ATOM      4  N   UNL A   1      32.311  27.183  22.858  1.00  0.00    -0.354 N 
ATOM      5  C   UNL A   1      32.940  26.014  23.162  1.00  0.00     0.243 C 
ATOM      6  O   UNL A   1      33.808  25.628  22.367  1.00  0.00    -0.273 OA
ATOM      7  H   UNL A   1      32.803  27.789  22.259  1.00  0.00     0.163 HD
BRANCH   5   8
ATOM      8  C   UNL A   1      32.496  25.076  24.315  1.00  0.00     0.185 C 
ATOM      9  N   UNL A   1      32.667  23.612  24.192  1.00  0.00    -0.314 N 
ATOM     10  C   UNL A   1      33.163  22.925  25.403  1.00  0.00     0.179 C 
ATOM     11  S   UNL A   1      32.865  24.123  26.750  1.00  0.00    -0.129 SA
ATOM     12  C   UNL A   1      33.038  25.560  25.652  1.00  0.00     0.107 C 
BRANCH   9  13
ATOM     13  C   UNL A   1      31.806  23.062  23.248  1.00  0.00     0.221 C 
ATOM     14  C   UNL A   1      32.236  21.828  22.500  1.00  0.00     0.114 C 
ATOM     15  O   UNL A   1      30.648  23.466  23.126  1.00  0.00    -0.275 OA
ENDBRANCH   9  13
BRANCH  10  16
ATOM     16  C   UNL A   1      34.598  22.394  25.283  1.00  0.00     0.039 A 
ATOM     17  C   UNL A   1      35.733  23.229  25.273  1.00  0.00     0.130 A 
ATOM     18  C   UNL A   1      34.876  21.019  25.124  1.00  0.00     0.050 A 
ATOM     19  F   UNL A   1      35.629  24.554  25.427  1.00  0.00    -0.207 F 
ATOM     20  C   UNL A   1      37.028  22.758  25.039  1.00  0.00     0.040 A 
ATOM     21  C   UNL A   1      36.170  20.544  24.843  1.00  0.00     0.021 A 
ATOM     22  Cl  UNL A   1      33.699  19.779  25.344  1.00  0.00    -0.084 Cl
ATOM     23  C   UNL A   1      37.246  21.413  24.793  1.00  0.00     0.005 A 
ENDBRANCH  10  16
ENDBRANCH   5   8
ENDBRANCH   3   4
ENDBRANCH   2   3
ENDBRANCH   1   2
BRANCH   1  24
ATOM     24  C   UNL A   1      32.990  29.677  25.738  1.00  0.00     0.116 C 
BRANCH  24  25
ATOM     25  N   UNL A   1      32.676  30.996  26.267  1.00  0.00    -0.352 N 
ATOM     26  C   UNL A   1      33.356  31.756  27.198  1.00  0.00     0.251 C 
ATOM     27  H   UNL A   1      31.857  31.407  25.908  1.00  0.00     0.163 HD
ATOM     28  O   UNL A   1      32.883  32.805  27.602  1.00  0.00    -0.269 OA
BRANCH  26  29
ATOM     29  C   UNL A   1      34.648  31.262  27.725  1.00  0.00     0.039 A 
ATOM     30  C   UNL A   1      35.697  32.162  27.928  1.00  0.00     0.014 A 
ATOM     31  C   UNL A   1      34.794  29.918  28.069  1.00  0.00     0.014 A 
ATOM     32  C   UNL A   1      36.862  31.727  28.565  1.00  0.00     0.010 A 
ATOM     33  C   UNL A   1      35.903  29.514  28.796  1.00  0.00     0.010 A 
ATOM     34  C   UNL A   1      36.952  30.411  29.049  1.00  0.00    -0.014 A 
BRANCH  34  35
ATOM     35  C   UNL A   1      38.130  29.935  29.816  1.00  0.00     0.031 A 
ATOM     36  C   UNL A   1      38.341  30.425  31.224  1.00  0.00     0.074 A 
ATOM     37  C   UNL A   1      39.048  29.157  29.209  1.00  0.00     0.049 A 
ATOM     38  N   UNL A   1      39.358  30.242  32.024  1.00  0.00    -0.248 NA
ATOM     39  C   UNL A   1      37.285  31.282  31.786  1.00  0.00     0.031 C 
ATOM     40  C   UNL A   1      38.972  28.683  27.824  1.00  0.00     0.029 A 
ATOM     41  N   UNL A   1      40.231  28.637  29.667  1.00  0.00    -0.354 N 
ATOM     42  C   UNL A   1      39.078  30.985  33.167  1.00  0.00     0.074 A 
ATOM     43  C   UNL A   1      37.834  31.680  32.921  1.00  0.00     0.031 C 
ATOM     44  C   UNL A   1      40.039  27.914  27.560  1.00  0.00     0.029 A 
ATOM     45  C   UNL A   1      40.902  27.877  28.735  1.00  0.00     0.049 A 
ATOM     46  H   UNL A   1      40.569  28.793  30.578  1.00  0.00     0.167 HD
ATOM     47  C   UNL A   1      39.780  31.055  34.324  1.00  0.00     0.034 A 
ATOM     48  C   UNL A   1      42.079  27.228  28.824  1.00  0.00     0.034 A 
ATOM     49  C   UNL A   1      41.004  30.325  34.545  1.00  0.00     0.049 A 
ATOM     50  C   UNL A   1      42.830  27.297  30.130  1.00  0.00     0.074 A 
ATOM     51  C   UNL A   1      41.778  30.258  35.689  1.00  0.00     0.029 A 
ATOM     52  N   UNL A   1      41.632  29.528  33.593  1.00  0.00    -0.354 N 
ATOM     53  N   UNL A   1      42.524  27.956  31.225  1.00  0.00    -0.248 NA
ATOM     54  C   UNL A   1      44.072  26.520  30.219  1.00  0.00     0.031 C 
ATOM     55  C   UNL A   1      42.905  29.476  35.409  1.00  0.00     0.029 A 
ATOM     56  C   UNL A   1      42.793  28.984  34.117  1.00  0.00     0.049 A 
ATOM     57  H   UNL A   1      41.299  29.371  32.680  1.00  0.00     0.167 HD
ATOM     58  C   UNL A   1      43.519  27.644  32.146  1.00  0.00     0.074 A 
ATOM     59  C   UNL A   1      44.421  26.724  31.481  1.00  0.00     0.031 C 
ATOM     60  C   UNL A   1      43.677  28.073  33.425  1.00  0.00     0.034 A 
BRANCH  47  61
ATOM     61  C   UNL A   1      39.248  31.961  35.412  1.00  0.00     0.023 A 
ATOM     62  C   UNL A   1      39.629  33.314  35.501  1.00  0.00     0.031 A 
ATOM     63  C   UNL A   1      38.384  31.461  36.402  1.00  0.00     0.131 A 
ATOM     64  C   UNL A   1      39.228  34.087  36.601  1.00  0.00     0.055 A 
ATOM     65  C   UNL A   1      37.912  32.264  37.444  1.00  0.00     0.041 A 
ATOM     66  F   UNL A   1      38.000  30.175  36.388  1.00  0.00    -0.206 F 
ATOM     67  C   UNL A   1      38.349  33.580  37.559  1.00  0.00     0.022 A 
BRANCH  64  68
ATOM     68  S   UNL A   1      40.002  35.711  36.846  1.00  0.00     0.124 S 
ATOM     69  O   UNL A   1      39.582  36.420  35.639  1.00  0.00    -0.237 OA
ATOM     70  O   UNL A   1      39.399  36.163  38.094  1.00  0.00    -0.237 OA
ATOM     71  O   UNL A   1      41.428  35.403  36.914  1.00  0.00    -0.744 OA
ENDBRANCH  64  68
ENDBRANCH  47  61
BRANCH  48  72
ATOM     72  C   UNL A   1      42.608  26.447  27.668  1.00  0.00     0.023 A 
ATOM     73  C   UNL A   1      42.175  25.131  27.429  1.00  0.00     0.031 A 
ATOM     74  C   UNL A   1      43.569  26.989  26.796  1.00  0.00     0.131 A 
ATOM     75  C   UNL A   1      42.734  24.387  26.378  1.00  0.00     0.055 A 
ATOM     76  C   UNL A   1      44.082  26.263  25.718  1.00  0.00     0.041 A 
ATOM     77  F   UNL A   1      44.013  28.243  26.970  1.00  0.00    -0.206 F 
ATOM     78  C   UNL A   1      43.675  24.949  25.512  1.00  0.00     0.022 A 
BRANCH  75  79
ATOM     79  S   UNL A   1      42.274  22.641  26.210  1.00  0.00     0.124 S 
ATOM     80  O   UNL A   1      42.821  22.314  24.898  1.00  0.00    -0.237 OA
ATOM     81  O   UNL A   1      42.948  22.039  27.355  1.00  0.00    -0.237 OA
ATOM     82  O   UNL A   1      40.814  22.664  26.290  1.00  0.00    -0.744 OA
ENDBRANCH  75  79
ENDBRANCH  48  72
BRANCH  60  83
ATOM     83  C   UNL A   1      44.844  27.505  34.192  1.00  0.00     0.023 A 
ATOM     84  C   UNL A   1      44.747  26.291  34.893  1.00  0.00     0.031 A 
ATOM     85  C   UNL A   1      46.065  28.201  34.237  1.00  0.00     0.131 A 
ATOM     86  C   UNL A   1      45.828  25.844  35.667  1.00  0.00     0.055 A 
ATOM     87  C   UNL A   1      47.161  27.715  34.950  1.00  0.00     0.041 A 
ATOM     88  F   UNL A   1      46.212  29.367  33.587  1.00  0.00    -0.206 F 
ATOM     89  C   UNL A   1      47.041  26.538  35.684  1.00  0.00     0.022 A 
BRANCH  86  90
ATOM     90  S   UNL A   1      45.588  24.404  36.742  1.00  0.00     0.124 S 
ATOM     91  O   UNL A   1      44.802  24.969  37.834  1.00  0.00    -0.237 OA
ATOM     92  O   UNL A   1      44.883  23.475  35.864  1.00  0.00    -0.237 OA
ATOM     93  O   UNL A   1      46.950  24.011  37.096  1.00  0.00    -0.744 OA
ENDBRANCH  86  90
ENDBRANCH  60  83
ENDBRANCH  34  35
ENDBRANCH  26  29
ENDBRANCH  24  25
ENDBRANCH   1  24
TORSDOF 16
ENDMDL
