MODEL 1
REMARK VINA RESULT:     -11.3      0.000      0.000
REMARK SMILES O=C(C[C@H](CNC(=O)c1ccccn1)c1ccc(Cl)cc1)NCCCCNC(=O)c1ccc(-c2c3nc(c(-c4cc(S(=O)(=O)[O-])ccc4F)c4ccc([nH]4)c(-c4cc(S(=O)(=O)[O-])ccc4F)c4nc(c(-c5cc(S(=O)(=O)[O-])ccc5F)c5ccc2[nH]5)C=C4)C=C3)cc1
REMARK SMILES IDX 24 1 23 2 22 3 1 4 2 5 3 7 4 8 15 9 16 10 21 11 17 12 20 13
REMARK SMILES IDX 18 14 19 15 5 16 6 17 7 18 8 20 9 21 10 22 14 23 11 24 13 25
REMARK SMILES IDX 12 26 25 27 26 28 27 29 28 30 29 32 30 33 31 34 92 35 32 36
REMARK SMILES IDX 91 37 33 38 34 39 35 40 85 41 36 42 90 43 84 44 86 45 37 46
REMARK SMILES IDX 89 47 83 48 82 49 38 51 70 52 50 53 69 54 51 55 54 56 68 57
REMARK SMILES IDX 87 58 52 59 53 60 67 62 88 63 55 64 39 65 40 66 48 67 41 68
REMARK SMILES IDX 47 69 49 70 46 71 42 72 43 73 44 74 45 75 71 76 72 77 80 78
REMARK SMILES IDX 73 79 79 80 81 81 78 82 74 83 75 84 76 85 77 86 56 87 57 88
REMARK SMILES IDX 65 89 58 90 64 91 66 92 63 93 59 94 60 95 61 96 62 97
REMARK H PARENT 22 6 6 19 27 31 86 50 54 61
REMARK Flexibility Score: inf
ROOT
ATOM      1  C   UNL A   1      31.516  28.206  25.756  1.00  0.00     0.023 C 
ENDROOT
BRANCH   1   2
ATOM      2  C   UNL A   1      31.034  27.226  24.684  1.00  0.00     0.116 C 
BRANCH   2   3
ATOM      3  N   UNL A   1      32.134  26.547  24.026  1.00  0.00    -0.356 N 
ATOM      4  O   UNL A   1      31.317  26.752  21.908  1.00  0.00    -0.275 OA
ATOM      5  C   UNL A   1      32.194  26.347  22.671  1.00  0.00     0.220 C 
ATOM      6  H   UNL A   1      32.876  26.213  24.580  1.00  0.00     0.163 HD
BRANCH   5   7
ATOM      7  C   UNL A   1      33.373  25.547  22.123  1.00  0.00     0.110 C 
BRANCH   7   8
ATOM      8  C   UNL A   1      33.557  24.096  22.609  1.00  0.00     0.048 C 
BRANCH   8   9
ATOM      9  C   UNL A   1      34.676  23.842  23.616  1.00  0.00    -0.043 A 
ATOM     10  C   UNL A   1      34.791  24.528  24.833  1.00  0.00     0.005 A 
ATOM     11  C   UNL A   1      35.692  22.929  23.268  1.00  0.00     0.005 A 
ATOM     12  C   UNL A   1      35.921  24.356  25.643  1.00  0.00     0.021 A 
ATOM     13  C   UNL A   1      36.816  22.756  24.077  1.00  0.00     0.021 A 
ATOM     14  C   UNL A   1      36.938  23.489  25.251  1.00  0.00     0.041 A 
ATOM     15  Cl  UNL A   1      38.370  23.366  26.193  1.00  0.00    -0.084 Cl
ENDBRANCH   8   9
BRANCH   8  16
ATOM     16  C   UNL A   1      32.220  23.493  23.091  1.00  0.00     0.125 C 
BRANCH  16  17
ATOM     17  N   UNL A   1      32.124  22.047  22.966  1.00  0.00    -0.350 N 
ATOM     18  C   UNL A   1      32.374  21.100  23.944  1.00  0.00     0.269 C 
ATOM     19  H   UNL A   1      31.849  21.702  22.086  1.00  0.00     0.163 HD
ATOM     20  O   UNL A   1      32.336  19.906  23.664  1.00  0.00    -0.268 OA
BRANCH  18  21
ATOM     21  C   UNL A   1      32.674  21.552  25.336  1.00  0.00     0.128 A 
ATOM     22  C   UNL A   1      31.811  22.433  25.980  1.00  0.00     0.034 A 
ATOM     23  N   UNL A   1      33.830  21.096  25.883  1.00  0.00    -0.251 NA
ATOM     24  C   UNL A   1      32.173  22.908  27.238  1.00  0.00     0.004 A 
ATOM     25  C   UNL A   1      34.136  21.555  27.115  1.00  0.00     0.112 A 
ATOM     26  C   UNL A   1      33.356  22.462  27.817  1.00  0.00     0.020 A 
ENDBRANCH  18  21
ENDBRANCH  16  17
ENDBRANCH   8  16
ENDBRANCH   7   8
ENDBRANCH   5   7
ENDBRANCH   2   3
ENDBRANCH   1   2
BRANCH   1  27
ATOM     27  C   UNL A   1      32.854  27.856  26.416  1.00  0.00     0.023 C 
BRANCH  27  28
ATOM     28  C   UNL A   1      34.009  28.818  26.157  1.00  0.00     0.116 C 
BRANCH  28  29
ATOM     29  N   UNL A   1      33.757  30.140  26.700  1.00  0.00    -0.352 N 
ATOM     30  C   UNL A   1      34.454  30.849  27.651  1.00  0.00     0.251 C 
ATOM     31  H   UNL A   1      32.968  30.599  26.332  1.00  0.00     0.163 HD
ATOM     32  O   UNL A   1      33.955  31.873  28.109  1.00  0.00    -0.269 OA
BRANCH  30  33
ATOM     33  C   UNL A   1      35.775  30.384  28.146  1.00  0.00     0.039 A 
ATOM     34  C   UNL A   1      35.838  29.766  29.399  1.00  0.00     0.014 A 
ATOM     35  C   UNL A   1      36.954  30.589  27.422  1.00  0.00     0.014 A 
ATOM     36  C   UNL A   1      37.063  29.308  29.897  1.00  0.00     0.010 A 
ATOM     37  C   UNL A   1      38.166  30.071  27.890  1.00  0.00     0.010 A 
ATOM     38  C   UNL A   1      38.236  29.426  29.134  1.00  0.00    -0.014 A 
BRANCH  38  39
ATOM     39  C   UNL A   1      39.533  28.881  29.630  1.00  0.00     0.031 A 
ATOM     40  C   UNL A   1      40.265  29.552  30.763  1.00  0.00     0.074 A 
ATOM     41  C   UNL A   1      40.075  27.798  29.035  1.00  0.00     0.049 A 
ATOM     42  N   UNL A   1      41.425  29.256  31.293  1.00  0.00    -0.248 NA
ATOM     43  C   UNL A   1      39.616  30.726  31.363  1.00  0.00     0.031 C 
ATOM     44  C   UNL A   1      39.482  27.068  27.913  1.00  0.00     0.029 A 
ATOM     45  N   UNL A   1      41.245  27.123  29.287  1.00  0.00    -0.354 N 
ATOM     46  C   UNL A   1      41.652  30.210  32.279  1.00  0.00     0.074 A 
ATOM     47  C   UNL A   1      40.533  31.128  32.231  1.00  0.00     0.031 C 
ATOM     48  C   UNL A   1      40.274  26.032  27.596  1.00  0.00     0.029 A 
ATOM     49  C   UNL A   1      41.457  26.051  28.449  1.00  0.00     0.049 A 
ATOM     50  H   UNL A   1      41.872  27.380  30.001  1.00  0.00     0.167 HD
ATOM     51  C   UNL A   1      42.686  30.303  33.155  1.00  0.00     0.034 A 
ATOM     52  C   UNL A   1      42.493  25.190  28.364  1.00  0.00     0.034 A 
ATOM     53  C   UNL A   1      43.791  29.375  33.198  1.00  0.00     0.049 A 
ATOM     54  C   UNL A   1      43.654  25.343  29.316  1.00  0.00     0.074 A 
ATOM     55  C   UNL A   1      44.858  29.347  34.082  1.00  0.00     0.029 A 
ATOM     56  N   UNL A   1      43.983  28.317  32.317  1.00  0.00    -0.354 N 
ATOM     57  N   UNL A   1      43.829  26.225  30.272  1.00  0.00    -0.248 NA
ATOM     58  C   UNL A   1      44.752  24.376  29.182  1.00  0.00     0.031 C 
ATOM     59  C   UNL A   1      45.735  28.332  33.684  1.00  0.00     0.029 A 
ATOM     60  C   UNL A   1      45.172  27.662  32.610  1.00  0.00     0.049 A 
ATOM     61  H   UNL A   1      43.367  28.070  31.591  1.00  0.00     0.167 HD
ATOM     62  C   UNL A   1      45.041  25.896  30.874  1.00  0.00     0.074 A 
ATOM     63  C   UNL A   1      45.544  24.728  30.183  1.00  0.00     0.031 C 
ATOM     64  C   UNL A   1      45.677  26.503  31.910  1.00  0.00     0.034 A 
BRANCH  51  65
ATOM     65  C   UNL A   1      42.686  31.471  34.115  1.00  0.00     0.023 A 
ATOM     66  C   UNL A   1      42.073  31.394  35.378  1.00  0.00     0.031 A 
ATOM     67  C   UNL A   1      43.295  32.687  33.757  1.00  0.00     0.131 A 
ATOM     68  C   UNL A   1      42.013  32.531  36.200  1.00  0.00     0.055 A 
ATOM     69  C   UNL A   1      43.311  33.788  34.616  1.00  0.00     0.041 A 
ATOM     70  F   UNL A   1      43.878  32.832  32.556  1.00  0.00    -0.206 F 
ATOM     71  C   UNL A   1      42.653  33.718  35.840  1.00  0.00     0.022 A 
BRANCH  68  72
ATOM     72  S   UNL A   1      40.955  32.481  37.672  1.00  0.00     0.124 S 
ATOM     73  O   UNL A   1      39.819  31.697  37.191  1.00  0.00    -0.237 OA
ATOM     74  O   UNL A   1      41.812  31.829  38.655  1.00  0.00    -0.237 OA
ATOM     75  O   UNL A   1      40.664  33.889  37.933  1.00  0.00    -0.744 OA
ENDBRANCH  68  72
ENDBRANCH  51  65
BRANCH  52  76
ATOM     76  C   UNL A   1      42.498  24.114  27.331  1.00  0.00     0.023 A 
ATOM     77  C   UNL A   1      41.849  22.890  27.557  1.00  0.00     0.031 A 
ATOM     78  C   UNL A   1      43.197  24.274  26.120  1.00  0.00     0.131 A 
ATOM     79  C   UNL A   1      41.952  21.857  26.611  1.00  0.00     0.055 A 
ATOM     80  C   UNL A   1      43.245  23.265  25.156  1.00  0.00     0.041 A 
ATOM     81  F   UNL A   1      43.840  25.422  25.853  1.00  0.00    -0.206 F 
ATOM     82  C   UNL A   1      42.632  22.042  25.406  1.00  0.00     0.022 A 
BRANCH  79  83
ATOM     83  S   UNL A   1      41.265  20.229  27.025  1.00  0.00     0.124 S 
ATOM     84  O   UNL A   1      40.218  20.085  26.021  1.00  0.00    -0.237 OA
ATOM     85  O   UNL A   1      42.428  19.362  26.870  1.00  0.00    -0.237 OA
ATOM     86  O   UNL A   1      40.796  20.398  28.399  1.00  0.00    -0.744 OA
ENDBRANCH  79  83
ENDBRANCH  52  76
BRANCH  64  87
ATOM     87  C   UNL A   1      46.967  25.879  32.390  1.00  0.00     0.023 A 
ATOM     88  C   UNL A   1      48.196  26.124  31.753  1.00  0.00     0.031 A 
ATOM     89  C   UNL A   1      46.962  25.013  33.499  1.00  0.00     0.131 A 
ATOM     90  C   UNL A   1      49.356  25.468  32.193  1.00  0.00     0.055 A 
ATOM     91  C   UNL A   1      48.130  24.415  33.974  1.00  0.00     0.041 A 
ATOM     92  F   UNL A   1      45.817  24.737  34.145  1.00  0.00    -0.206 F 
ATOM     93  C   UNL A   1      49.335  24.630  33.311  1.00  0.00     0.022 A 
BRANCH  90  94
ATOM     94  S   UNL A   1      50.879  25.644  31.224  1.00  0.00     0.124 S 
ATOM     95  O   UNL A   1      51.064  27.092  31.208  1.00  0.00    -0.237 OA
ATOM     96  O   UNL A   1      51.843  24.887  32.016  1.00  0.00    -0.237 OA
ATOM     97  O   UNL A   1      50.535  25.049  29.933  1.00  0.00    -0.744 OA
ENDBRANCH  90  94
ENDBRANCH  64  87
ENDBRANCH  38  39
ENDBRANCH  30  33
ENDBRANCH  28  29
ENDBRANCH  27  28
ENDBRANCH   1  27
TORSDOF 19
ENDMDL
MODEL 2
REMARK VINA RESULT:     -11.3      4.447      9.419
REMARK SMILES O=C(C[C@H](CNC(=O)c1ccccn1)c1ccc(Cl)cc1)NCCCCNC(=O)c1ccc(-c2c3nc(c(-c4cc(S(=O)(=O)[O-])ccc4F)c4ccc([nH]4)c(-c4cc(S(=O)(=O)[O-])ccc4F)c4nc(c(-c5cc(S(=O)(=O)[O-])ccc5F)c5ccc2[nH]5)C=C4)C=C3)cc1
REMARK SMILES IDX 24 1 23 2 22 3 1 4 2 5 3 7 4 8 15 9 16 10 21 11 17 12 20 13
REMARK SMILES IDX 18 14 19 15 5 16 6 17 7 18 8 20 9 21 10 22 14 23 11 24 13 25
REMARK SMILES IDX 12 26 25 27 26 28 27 29 28 30 29 32 30 33 31 34 92 35 32 36
REMARK SMILES IDX 91 37 33 38 34 39 35 40 85 41 36 42 90 43 84 44 86 45 37 46
REMARK SMILES IDX 89 47 83 48 82 49 38 51 70 52 50 53 69 54 51 55 54 56 68 57
REMARK SMILES IDX 87 58 52 59 53 60 67 62 88 63 55 64 39 65 40 66 48 67 41 68
REMARK SMILES IDX 47 69 49 70 46 71 42 72 43 73 44 74 45 75 71 76 72 77 80 78
REMARK SMILES IDX 73 79 79 80 81 81 78 82 74 83 75 84 76 85 77 86 56 87 57 88
REMARK SMILES IDX 65 89 58 90 64 91 66 92 63 93 59 94 60 95 61 96 62 97
REMARK H PARENT 22 6 6 19 27 31 86 50 54 61
REMARK Flexibility Score: inf
ROOT
ATOM      1  C   UNL A   1      37.376  20.694  24.453  1.00  0.00     0.023 C 
ENDROOT
BRANCH   1   2
ATOM      2  C   UNL A   1      36.166  21.101  25.296  1.00  0.00     0.116 C 
BRANCH   2   3
ATOM      3  N   UNL A   1      35.339  22.089  24.630  1.00  0.00    -0.356 N 
ATOM      4  O   UNL A   1      36.589  23.899  25.226  1.00  0.00    -0.275 OA
ATOM      5  C   UNL A   1      35.606  23.434  24.651  1.00  0.00     0.220 C 
ATOM      6  H   UNL A   1      34.545  21.778  24.137  1.00  0.00     0.163 HD
BRANCH   5   7
ATOM      7  C   UNL A   1      34.606  24.366  23.971  1.00  0.00     0.110 C 
BRANCH   7   8
ATOM      8  C   UNL A   1      33.164  24.406  24.513  1.00  0.00     0.048 C 
BRANCH   8   9
ATOM      9  C   UNL A   1      32.771  25.627  25.342  1.00  0.00    -0.043 A 
ATOM     10  C   UNL A   1      31.443  25.986  25.608  1.00  0.00     0.005 A 
ATOM     11  C   UNL A   1      33.796  26.483  25.794  1.00  0.00     0.005 A 
ATOM     12  C   UNL A   1      31.147  27.197  26.245  1.00  0.00     0.021 A 
ATOM     13  C   UNL A   1      33.501  27.689  26.432  1.00  0.00     0.021 A 
ATOM     14  C   UNL A   1      32.175  28.053  26.634  1.00  0.00     0.041 A 
ATOM     15  Cl  UNL A   1      31.803  29.586  27.315  1.00  0.00    -0.084 Cl
ENDBRANCH   8   9
BRANCH   8  16
ATOM     16  C   UNL A   1      32.136  24.132  23.394  1.00  0.00     0.125 C 
BRANCH  16  17
ATOM     17  N   UNL A   1      32.665  24.236  22.043  1.00  0.00    -0.350 N 
ATOM     18  C   UNL A   1      32.731  25.368  21.250  1.00  0.00     0.269 C 
ATOM     19  H   UNL A   1      33.016  23.406  21.647  1.00  0.00     0.163 HD
ATOM     20  O   UNL A   1      33.125  25.283  20.092  1.00  0.00    -0.268 OA
BRANCH  18  21
ATOM     21  C   UNL A   1      32.330  26.687  21.828  1.00  0.00     0.128 A 
ATOM     22  C   UNL A   1      33.306  27.566  22.289  1.00  0.00     0.034 A 
ATOM     23  N   UNL A   1      30.998  26.931  21.912  1.00  0.00    -0.251 NA
ATOM     24  C   UNL A   1      32.892  28.742  22.910  1.00  0.00     0.004 A 
ATOM     25  C   UNL A   1      30.633  28.093  22.494  1.00  0.00     0.112 A 
ATOM     26  C   UNL A   1      31.532  29.011  23.016  1.00  0.00     0.020 A 
ENDBRANCH  18  21
ENDBRANCH  16  17
ENDBRANCH   8  16
ENDBRANCH   7   8
ENDBRANCH   5   7
ENDBRANCH   2   3
ENDBRANCH   1   2
BRANCH   1  27
ATOM     27  C   UNL A   1      38.307  19.658  25.092  1.00  0.00     0.023 C 
BRANCH  27  28
ATOM     28  C   UNL A   1      39.344  20.195  26.073  1.00  0.00     0.116 C 
BRANCH  28  29
ATOM     29  N   UNL A   1      40.564  19.409  26.070  1.00  0.00    -0.352 N 
ATOM     30  C   UNL A   1      41.872  19.813  26.201  1.00  0.00     0.251 C 
ATOM     31  H   UNL A   1      40.435  18.440  25.957  1.00  0.00     0.163 HD
ATOM     32  O   UNL A   1      42.767  19.004  25.973  1.00  0.00    -0.269 OA
BRANCH  30  33
ATOM     33  C   UNL A   1      42.214  21.207  26.586  1.00  0.00     0.039 A 
ATOM     34  C   UNL A   1      42.400  22.152  25.571  1.00  0.00     0.014 A 
ATOM     35  C   UNL A   1      42.402  21.586  27.918  1.00  0.00     0.014 A 
ATOM     36  C   UNL A   1      42.716  23.476  25.893  1.00  0.00     0.010 A 
ATOM     37  C   UNL A   1      42.652  22.923  28.241  1.00  0.00     0.010 A 
ATOM     38  C   UNL A   1      42.814  23.885  27.232  1.00  0.00    -0.014 A 
BRANCH  38  39
ATOM     39  C   UNL A   1      43.086  25.309  27.584  1.00  0.00     0.031 A 
ATOM     40  C   UNL A   1      44.467  25.889  27.425  1.00  0.00     0.074 A 
ATOM     41  C   UNL A   1      42.095  26.076  28.083  1.00  0.00     0.049 A 
ATOM     42  N   UNL A   1      44.905  27.085  27.727  1.00  0.00    -0.248 NA
ATOM     43  C   UNL A   1      45.498  24.996  26.876  1.00  0.00     0.031 C 
ATOM     44  C   UNL A   1      40.718  25.631  28.309  1.00  0.00     0.029 A 
ATOM     45  N   UNL A   1      42.089  27.388  28.492  1.00  0.00    -0.354 N 
ATOM     46  C   UNL A   1      46.261  27.088  27.417  1.00  0.00     0.074 A 
ATOM     47  C   UNL A   1      46.583  25.752  26.958  1.00  0.00     0.031 C 
ATOM     48  C   UNL A   1      39.997  26.659  28.785  1.00  0.00     0.029 A 
ATOM     49  C   UNL A   1      40.865  27.820  28.952  1.00  0.00     0.049 A 
ATOM     50  H   UNL A   1      42.885  27.966  28.458  1.00  0.00     0.167 HD
ATOM     51  C   UNL A   1      47.151  28.111  27.490  1.00  0.00     0.034 A 
ATOM     52  C   UNL A   1      40.486  29.008  29.466  1.00  0.00     0.034 A 
ATOM     53  C   UNL A   1      46.814  29.441  27.940  1.00  0.00     0.049 A 
ATOM     54  C   UNL A   1      41.505  30.115  29.583  1.00  0.00     0.074 A 
ATOM     55  C   UNL A   1      47.627  30.562  27.998  1.00  0.00     0.029 A 
ATOM     56  N   UNL A   1      45.571  29.833  28.422  1.00  0.00    -0.354 N 
ATOM     57  N   UNL A   1      42.773  30.113  29.242  1.00  0.00    -0.248 NA
ATOM     58  C   UNL A   1      41.036  31.389  30.145  1.00  0.00     0.031 C 
ATOM     59  C   UNL A   1      46.904  31.602  28.592  1.00  0.00     0.029 A 
ATOM     60  C   UNL A   1      45.610  31.163  28.819  1.00  0.00     0.049 A 
ATOM     61  H   UNL A   1      44.779  29.252  28.475  1.00  0.00     0.167 HD
ATOM     62  C   UNL A   1      43.242  31.394  29.518  1.00  0.00     0.074 A 
ATOM     63  C   UNL A   1      42.119  32.145  30.038  1.00  0.00     0.031 C 
ATOM     64  C   UNL A   1      44.490  31.905  29.350  1.00  0.00     0.034 A 
BRANCH  51  65
ATOM     65  C   UNL A   1      48.584  27.820  27.105  1.00  0.00     0.023 A 
ATOM     66  C   UNL A   1      49.104  28.178  25.848  1.00  0.00     0.031 A 
ATOM     67  C   UNL A   1      49.442  27.160  28.004  1.00  0.00     0.131 A 
ATOM     68  C   UNL A   1      50.410  27.805  25.497  1.00  0.00     0.055 A 
ATOM     69  C   UNL A   1      50.770  26.871  27.681  1.00  0.00     0.041 A 
ATOM     70  F   UNL A   1      49.000  26.771  29.211  1.00  0.00    -0.206 F 
ATOM     71  C   UNL A   1      51.256  27.179  26.415  1.00  0.00     0.022 A 
BRANCH  68  72
ATOM     72  S   UNL A   1      50.934  28.008  23.773  1.00  0.00     0.124 S 
ATOM     73  O   UNL A   1      49.667  27.862  23.061  1.00  0.00    -0.237 OA
ATOM     74  O   UNL A   1      51.516  29.345  23.775  1.00  0.00    -0.237 OA
ATOM     75  O   UNL A   1      51.882  26.914  23.572  1.00  0.00    -0.744 OA
ENDBRANCH  68  72
ENDBRANCH  51  65
BRANCH  52  76
ATOM     76  C   UNL A   1      39.084  29.218  29.930  1.00  0.00     0.023 A 
ATOM     77  C   UNL A   1      38.171  29.960  29.163  1.00  0.00     0.031 A 
ATOM     78  C   UNL A   1      38.649  28.724  31.173  1.00  0.00     0.131 A 
ATOM     79  C   UNL A   1      36.888  30.227  29.666  1.00  0.00     0.055 A 
ATOM     80  C   UNL A   1      37.352  28.942  31.642  1.00  0.00     0.041 A 
ATOM     81  F   UNL A   1      39.481  28.012  31.950  1.00  0.00    -0.206 F 
ATOM     82  C   UNL A   1      36.467  29.710  30.892  1.00  0.00     0.022 A 
BRANCH  79  83
ATOM     83  S   UNL A   1      35.807  31.349  28.735  1.00  0.00     0.124 S 
ATOM     84  O   UNL A   1      35.114  30.424  27.848  1.00  0.00    -0.237 OA
ATOM     85  O   UNL A   1      35.003  31.945  29.797  1.00  0.00    -0.237 OA
ATOM     86  O   UNL A   1      36.744  32.259  28.081  1.00  0.00    -0.744 OA
ENDBRANCH  79  83
ENDBRANCH  52  76
BRANCH  64  87
ATOM     87  C   UNL A   1      44.690  33.365  29.687  1.00  0.00     0.023 A 
ATOM     88  C   UNL A   1      44.626  34.372  28.707  1.00  0.00     0.031 A 
ATOM     89  C   UNL A   1      44.962  33.752  31.012  1.00  0.00     0.131 A 
ATOM     90  C   UNL A   1      44.886  35.706  29.056  1.00  0.00     0.055 A 
ATOM     91  C   UNL A   1      45.155  35.089  31.365  1.00  0.00     0.041 A 
ATOM     92  F   UNL A   1      45.041  32.835  31.990  1.00  0.00    -0.206 F 
ATOM     93  C   UNL A   1      45.132  36.073  30.382  1.00  0.00     0.022 A 
BRANCH  90  94
ATOM     94  S   UNL A   1      45.000  36.946  27.738  1.00  0.00     0.124 S 
ATOM     95  O   UNL A   1      43.599  37.291  27.523  1.00  0.00    -0.237 OA
ATOM     96  O   UNL A   1      45.825  37.981  28.353  1.00  0.00    -0.237 OA
ATOM     97  O   UNL A   1      45.636  36.221  26.638  1.00  0.00    -0.744 OA
ENDBRANCH  90  94
ENDBRANCH  64  87
ENDBRANCH  38  39
ENDBRANCH  30  33
ENDBRANCH  28  29
ENDBRANCH  27  28
ENDBRANCH   1  27
TORSDOF 19
ENDMDL
MODEL 3
REMARK VINA RESULT:     -11.2      4.894      8.329
REMARK SMILES O=C(C[C@H](CNC(=O)c1ccccn1)c1ccc(Cl)cc1)NCCCCNC(=O)c1ccc(-c2c3nc(c(-c4cc(S(=O)(=O)[O-])ccc4F)c4ccc([nH]4)c(-c4cc(S(=O)(=O)[O-])ccc4F)c4nc(c(-c5cc(S(=O)(=O)[O-])ccc5F)c5ccc2[nH]5)C=C4)C=C3)cc1
REMARK SMILES IDX 24 1 23 2 22 3 1 4 2 5 3 7 4 8 15 9 16 10 21 11 17 12 20 13
REMARK SMILES IDX 18 14 19 15 5 16 6 17 7 18 8 20 9 21 10 22 14 23 11 24 13 25
REMARK SMILES IDX 12 26 25 27 26 28 27 29 28 30 29 32 30 33 31 34 92 35 32 36
REMARK SMILES IDX 91 37 33 38 34 39 35 40 85 41 36 42 90 43 84 44 86 45 37 46
REMARK SMILES IDX 89 47 83 48 82 49 38 51 70 52 50 53 69 54 51 55 54 56 68 57
REMARK SMILES IDX 87 58 52 59 53 60 67 62 88 63 55 64 39 65 40 66 48 67 41 68
REMARK SMILES IDX 47 69 49 70 46 71 42 72 43 73 44 74 45 75 71 76 72 77 80 78
REMARK SMILES IDX 73 79 79 80 81 81 78 82 74 83 75 84 76 85 77 86 56 87 57 88
REMARK SMILES IDX 65 89 58 90 64 91 66 92 63 93 59 94 60 95 61 96 62 97
REMARK H PARENT 22 6 6 19 27 31 86 50 54 61
REMARK Flexibility Score: inf
ROOT
ATOM      1  C   UNL A   1      37.329  20.343  24.647  1.00  0.00     0.023 C 
ENDROOT
BRANCH   1   2
ATOM      2  C   UNL A   1      37.317  21.718  25.320  1.00  0.00     0.116 C 
BRANCH   2   3
ATOM      3  N   UNL A   1      36.452  22.658  24.633  1.00  0.00    -0.356 N 
ATOM      4  O   UNL A   1      34.813  22.688  26.217  1.00  0.00    -0.275 OA
ATOM      5  C   UNL A   1      35.244  23.074  25.131  1.00  0.00     0.220 C 
ATOM      6  H   UNL A   1      36.748  23.017  23.766  1.00  0.00     0.163 HD
BRANCH   5   7
ATOM      7  C   UNL A   1      34.402  24.007  24.264  1.00  0.00     0.110 C 
BRANCH   7   8
ATOM      8  C   UNL A   1      32.961  24.315  24.713  1.00  0.00     0.048 C 
BRANCH   8   9
ATOM      9  C   UNL A   1      32.743  25.613  25.489  1.00  0.00    -0.043 A 
ATOM     10  C   UNL A   1      31.490  26.034  25.953  1.00  0.00     0.005 A 
ATOM     11  C   UNL A   1      33.847  26.470  25.678  1.00  0.00     0.005 A 
ATOM     12  C   UNL A   1      31.333  27.303  26.525  1.00  0.00     0.021 A 
ATOM     13  C   UNL A   1      33.690  27.733  26.251  1.00  0.00     0.021 A 
ATOM     14  C   UNL A   1      32.428  28.155  26.651  1.00  0.00     0.041 A 
ATOM     15  Cl  UNL A   1      32.209  29.750  27.251  1.00  0.00    -0.084 Cl
ENDBRANCH   8   9
BRANCH   8  16
ATOM     16  C   UNL A   1      31.968  24.190  23.538  1.00  0.00     0.125 C 
BRANCH  16  17
ATOM     17  N   UNL A   1      32.566  24.318  22.218  1.00  0.00    -0.350 N 
ATOM     18  C   UNL A   1      32.671  25.465  21.451  1.00  0.00     0.269 C 
ATOM     19  H   UNL A   1      32.938  23.497  21.826  1.00  0.00     0.163 HD
ATOM     20  O   UNL A   1      33.124  25.402  20.313  1.00  0.00    -0.268 OA
BRANCH  18  21
ATOM     21  C   UNL A   1      32.239  26.773  22.032  1.00  0.00     0.128 A 
ATOM     22  C   UNL A   1      33.189  27.746  22.331  1.00  0.00     0.034 A 
ATOM     23  N   UNL A   1      30.912  26.916  22.281  1.00  0.00    -0.251 NA
ATOM     24  C   UNL A   1      32.761  28.911  22.961  1.00  0.00     0.004 A 
ATOM     25  C   UNL A   1      30.529  28.070  22.866  1.00  0.00     0.112 A 
ATOM     26  C   UNL A   1      31.408  29.078  23.234  1.00  0.00     0.020 A 
ENDBRANCH  18  21
ENDBRANCH  16  17
ENDBRANCH   8  16
ENDBRANCH   7   8
ENDBRANCH   5   7
ENDBRANCH   2   3
ENDBRANCH   1   2
BRANCH   1  27
ATOM     27  C   UNL A   1      38.383  19.362  25.170  1.00  0.00     0.023 C 
BRANCH  27  28
ATOM     28  C   UNL A   1      39.622  19.978  25.812  1.00  0.00     0.116 C 
BRANCH  28  29
ATOM     29  N   UNL A   1      40.697  19.017  25.969  1.00  0.00    -0.352 N 
ATOM     30  C   UNL A   1      42.041  19.225  26.175  1.00  0.00     0.251 C 
ATOM     31  H   UNL A   1      40.424  18.073  25.920  1.00  0.00     0.163 HD
ATOM     32  O   UNL A   1      42.809  18.271  26.083  1.00  0.00    -0.269 OA
BRANCH  30  33
ATOM     33  C   UNL A   1      42.575  20.578  26.479  1.00  0.00     0.039 A 
ATOM     34  C   UNL A   1      43.059  21.356  25.422  1.00  0.00     0.014 A 
ATOM     35  C   UNL A   1      42.652  21.071  27.784  1.00  0.00     0.014 A 
ATOM     36  C   UNL A   1      43.564  22.638  25.666  1.00  0.00     0.010 A 
ATOM     37  C   UNL A   1      43.093  22.377  28.019  1.00  0.00     0.010 A 
ATOM     38  C   UNL A   1      43.557  23.176  26.962  1.00  0.00    -0.014 A 
BRANCH  38  39
ATOM     39  C   UNL A   1      44.032  24.567  27.220  1.00  0.00     0.031 A 
ATOM     40  C   UNL A   1      43.088  25.613  27.754  1.00  0.00     0.074 A 
ATOM     41  C   UNL A   1      45.307  24.902  26.938  1.00  0.00     0.049 A 
ATOM     42  N   UNL A   1      43.304  26.883  27.989  1.00  0.00    -0.248 NA
ATOM     43  C   UNL A   1      41.713  25.178  28.037  1.00  0.00     0.031 C 
ATOM     44  C   UNL A   1      46.317  23.990  26.395  1.00  0.00     0.029 A 
ATOM     45  N   UNL A   1      45.975  26.095  27.067  1.00  0.00    -0.354 N 
ATOM     46  C   UNL A   1      42.094  27.402  28.437  1.00  0.00     0.074 A 
ATOM     47  C   UNL A   1      41.134  26.319  28.383  1.00  0.00     0.031 C 
ATOM     48  C   UNL A   1      47.479  24.649  26.267  1.00  0.00     0.029 A 
ATOM     49  C   UNL A   1      47.291  26.040  26.664  1.00  0.00     0.049 A 
ATOM     50  H   UNL A   1      45.553  26.914  27.415  1.00  0.00     0.167 HD
ATOM     51  C   UNL A   1      41.813  28.658  28.870  1.00  0.00     0.034 A 
ATOM     52  C   UNL A   1      48.235  27.002  26.604  1.00  0.00     0.034 A 
ATOM     53  C   UNL A   1      42.782  29.727  28.928  1.00  0.00     0.049 A 
ATOM     54  C   UNL A   1      47.885  28.402  27.045  1.00  0.00     0.074 A 
ATOM     55  C   UNL A   1      42.613  31.018  29.403  1.00  0.00     0.029 A 
ATOM     56  N   UNL A   1      44.098  29.639  28.488  1.00  0.00    -0.354 N 
ATOM     57  N   UNL A   1      46.747  28.864  27.508  1.00  0.00    -0.248 NA
ATOM     58  C   UNL A   1      48.953  29.409  26.962  1.00  0.00     0.031 C 
ATOM     59  C   UNL A   1      43.794  31.731  29.172  1.00  0.00     0.029 A 
ATOM     60  C   UNL A   1      44.735  30.864  28.640  1.00  0.00     0.049 A 
ATOM     61  H   UNL A   1      44.516  28.828  28.121  1.00  0.00     0.167 HD
ATOM     62  C   UNL A   1      46.974  30.206  27.804  1.00  0.00     0.074 A 
ATOM     63  C   UNL A   1      48.359  30.473  27.480  1.00  0.00     0.031 C 
ATOM     64  C   UNL A   1      46.114  31.131  28.304  1.00  0.00     0.034 A 
BRANCH  51  65
ATOM     65  C   UNL A   1      40.388  28.953  29.283  1.00  0.00     0.023 A 
ATOM     66  C   UNL A   1      39.981  28.913  30.628  1.00  0.00     0.031 A 
ATOM     67  C   UNL A   1      39.416  29.263  28.315  1.00  0.00     0.131 A 
ATOM     68  C   UNL A   1      38.629  29.100  30.959  1.00  0.00     0.055 A 
ATOM     69  C   UNL A   1      38.090  29.537  28.659  1.00  0.00     0.041 A 
ATOM     70  F   UNL A   1      39.736  29.295  27.011  1.00  0.00    -0.206 F 
ATOM     71  C   UNL A   1      37.687  29.439  29.986  1.00  0.00     0.022 A 
BRANCH  68  72
ATOM     72  S   UNL A   1      38.094  28.737  32.653  1.00  0.00     0.124 S 
ATOM     73  O   UNL A   1      38.255  27.285  32.708  1.00  0.00    -0.237 OA
ATOM     74  O   UNL A   1      39.032  29.516  33.454  1.00  0.00    -0.237 OA
ATOM     75  O   UNL A   1      36.710  29.203  32.683  1.00  0.00    -0.744 OA
ENDBRANCH  68  72
ENDBRANCH  51  65
BRANCH  52  76
ATOM     76  C   UNL A   1      49.601  26.690  26.091  1.00  0.00     0.023 A 
ATOM     77  C   UNL A   1      50.013  27.120  24.819  1.00  0.00     0.031 A 
ATOM     78  C   UNL A   1      50.499  25.912  26.844  1.00  0.00     0.131 A 
ATOM     79  C   UNL A   1      51.265  26.730  24.319  1.00  0.00     0.055 A 
ATOM     80  C   UNL A   1      51.768  25.578  26.367  1.00  0.00     0.041 A 
ATOM     81  F   UNL A   1      50.156  25.471  28.065  1.00  0.00    -0.206 F 
ATOM     82  C   UNL A   1      52.152  25.976  25.091  1.00  0.00     0.022 A 
BRANCH  79  83
ATOM     83  S   UNL A   1      51.681  27.140  22.601  1.00  0.00     0.124 S 
ATOM     84  O   UNL A   1      50.415  26.889  21.923  1.00  0.00    -0.237 OA
ATOM     85  O   UNL A   1      52.085  28.538  22.713  1.00  0.00    -0.237 OA
ATOM     86  O   UNL A   1      52.758  26.206  22.280  1.00  0.00    -0.744 OA
ENDBRANCH  79  83
ENDBRANCH  52  76
BRANCH  64  87
ATOM     87  C   UNL A   1      46.667  32.510  28.580  1.00  0.00     0.023 A 
ATOM     88  C   UNL A   1      46.644  33.530  27.611  1.00  0.00     0.031 A 
ATOM     89  C   UNL A   1      47.238  32.804  29.832  1.00  0.00     0.131 A 
ATOM     90  C   UNL A   1      47.231  34.774  27.890  1.00  0.00     0.055 A 
ATOM     91  C   UNL A   1      47.761  34.065  30.127  1.00  0.00     0.041 A 
ATOM     92  F   UNL A   1      47.293  31.869  30.794  1.00  0.00    -0.206 F 
ATOM     93  C   UNL A   1      47.772  35.054  29.148  1.00  0.00     0.022 A 
BRANCH  90  94
ATOM     94  S   UNL A   1      47.370  35.992  26.554  1.00  0.00     0.124 S 
ATOM     95  O   UNL A   1      47.717  37.207  27.285  1.00  0.00    -0.237 OA
ATOM     96  O   UNL A   1      48.426  35.424  25.722  1.00  0.00    -0.237 OA
ATOM     97  O   UNL A   1      46.038  35.992  25.949  1.00  0.00    -0.744 OA
ENDBRANCH  90  94
ENDBRANCH  64  87
ENDBRANCH  38  39
ENDBRANCH  30  33
ENDBRANCH  28  29
ENDBRANCH  27  28
ENDBRANCH   1  27
TORSDOF 19
ENDMDL
