MODEL 1
REMARK VINA RESULT:     -13.1      0.000      0.000
REMARK SMILES C[NH2+][C@@]1(C(=O)NCCCCNC(=O)c2ccc(-c3c4nc(c(-c5cc(S(=O)(=O)[O-])ccc5F)c5ccc([nH]5)c(-c5cc(S(=O)(=O)[O-])ccc5F)c5nc(c(-c6cc(S(=O)(=O)[O-])ccc6F)c6ccc3[nH]6)C=C5)C=C4)cc2)CC[C@H]([NH+]2CC[NH+](C)CC2)C1
REMARK SMILES IDX 9 1 8 2 7 3 6 4 4 5 5 6 3 8 77 9 87 10 78 11 79 12 2 13 1 14
REMARK SMILES IDX 80 17 81 18 86 19 82 21 85 22 83 23 84 24 10 26 11 27 12 28
REMARK SMILES IDX 13 30 14 31 15 32 76 33 16 34 75 35 17 36 18 37 19 38 69 39
REMARK SMILES IDX 20 40 74 41 68 42 70 43 21 44 73 45 67 46 66 47 22 49 54 50
REMARK SMILES IDX 34 51 53 52 35 53 38 54 52 55 71 56 36 57 37 58 51 60 72 61
REMARK SMILES IDX 39 62 23 63 24 64 32 65 25 66 31 67 33 68 30 69 26 70 27 71
REMARK SMILES IDX 28 72 29 73 55 74 56 75 64 76 57 77 63 78 65 79 62 80 58 81
REMARK SMILES IDX 59 82 60 83 61 84 40 85 41 86 49 87 42 88 48 89 50 90 47 91
REMARK SMILES IDX 43 92 44 93 45 94 46 95
REMARK H PARENT 6 7 2 15 2 16 80 20 83 25 11 29 70 48 38 59
REMARK Flexibility Score: inf
ROOT
ATOM      1  C   UNL A   1      31.666  32.430  26.960  1.00  0.00     0.023 C 
ENDROOT
BRANCH   1   2
ATOM      2  C   UNL A   1      31.793  30.874  26.291  1.00  0.00     0.023 C 
BRANCH   2   3
ATOM      3  C   UNL A   1      33.289  29.545  25.567  1.00  0.00     0.116 C 
BRANCH   3   4
ATOM      4  N   UNL A   1      33.681  29.041  24.109  1.00  0.00    -0.351 N 
ATOM      5  C   UNL A   1      33.119  28.469  23.015  1.00  0.00     0.281 C 
ATOM      6  O   UNL A   1      33.963  28.060  22.206  1.00  0.00    -0.268 OA
ATOM      7  H   UNL A   1      34.641  29.194  23.951  1.00  0.00     0.163 HD
BRANCH   5   8
ATOM      8  C   UNL A   1      31.589  28.321  22.785  1.00  0.00     0.181 C 
ATOM      9  C   UNL A   1      30.841  28.181  24.120  1.00  0.00     0.085 C 
ATOM     10  C   UNL A   1      31.246  27.036  22.003  1.00  0.00     0.144 C 
ATOM     11  C   UNL A   1      30.294  26.756  24.129  1.00  0.00     0.072 C 
ATOM     12  C   UNL A   1      31.087  25.955  23.068  1.00  0.00     0.191 C 
BRANCH   8  13
ATOM     13  N   UNL A   1      31.033  29.467  21.996  1.00  0.00    -0.336 N 
ATOM     14  C   UNL A   1      29.651  29.822  22.309  1.00  0.00     0.331 C 
ATOM     15  H   UNL A   1      31.616  30.286  22.175  1.00  0.00     0.346 HD
ATOM     16  H   UNL A   1      31.037  29.171  21.021  1.00  0.00     0.346 HD
ENDBRANCH   8  13
BRANCH  12  17
ATOM     17  N   UNL A   1      32.318  25.287  23.489  1.00  0.00    -0.323 N 
ATOM     18  C   UNL A   1      32.710  23.731  22.587  1.00  0.00     0.324 C 
ATOM     19  C   UNL A   1      33.003  25.528  25.212  1.00  0.00     0.324 C 
ATOM     20  H   UNL A   1      32.995  25.956  23.121  1.00  0.00     0.348 HD
ATOM     21  C   UNL A   1      33.351  22.172  23.574  1.00  0.00     0.324 C 
ATOM     22  C   UNL A   1      33.693  23.948  26.198  1.00  0.00     0.324 C 
ATOM     23  N   UNL A   1      34.022  22.379  25.273  1.00  0.00    -0.328 N 
ATOM     24  C   UNL A   1      33.796  21.181  26.076  1.00  0.00     0.333 C 
ATOM     25  H   UNL A   1      35.018  22.501  25.093  1.00  0.00     0.348 HD
ENDBRANCH  12  17
ENDBRANCH   5   8
ENDBRANCH   3   4
ENDBRANCH   2   3
ENDBRANCH   1   2
BRANCH   1  26
ATOM     26  C   UNL A   1      32.929  33.255  27.251  1.00  0.00     0.116 C 
BRANCH  26  27
ATOM     27  N   UNL A   1      32.677  34.478  28.002  1.00  0.00    -0.352 N 
ATOM     28  C   UNL A   1      33.371  34.966  29.077  1.00  0.00     0.251 C 
ATOM     29  H   UNL A   1      31.913  35.020  27.699  1.00  0.00     0.163 HD
ATOM     30  O   UNL A   1      33.063  36.027  29.606  1.00  0.00    -0.269 OA
BRANCH  28  31
ATOM     31  C   UNL A   1      34.459  34.137  29.616  1.00  0.00     0.039 A 
ATOM     32  C   UNL A   1      35.771  34.460  29.270  1.00  0.00     0.014 A 
ATOM     33  C   UNL A   1      34.180  33.130  30.542  1.00  0.00     0.014 A 
ATOM     34  C   UNL A   1      36.819  33.800  29.905  1.00  0.00     0.010 A 
ATOM     35  C   UNL A   1      35.226  32.526  31.225  1.00  0.00     0.010 A 
ATOM     36  C   UNL A   1      36.552  32.855  30.909  1.00  0.00    -0.014 A 
BRANCH  36  37
ATOM     37  C   UNL A   1      37.665  32.188  31.624  1.00  0.00     0.031 A 
ATOM     38  C   UNL A   1      38.413  31.076  30.947  1.00  0.00     0.074 A 
ATOM     39  C   UNL A   1      37.961  32.566  32.881  1.00  0.00     0.049 A 
ATOM     40  N   UNL A   1      39.406  30.357  31.395  1.00  0.00    -0.248 NA
ATOM     41  C   UNL A   1      37.956  30.702  29.599  1.00  0.00     0.031 C 
ATOM     42  C   UNL A   1      37.249  33.598  33.642  1.00  0.00     0.029 A 
ATOM     43  N   UNL A   1      38.933  32.134  33.743  1.00  0.00    -0.354 N 
ATOM     44  C   UNL A   1      39.687  29.437  30.389  1.00  0.00     0.074 A 
ATOM     45  C   UNL A   1      38.712  29.646  29.342  1.00  0.00     0.031 C 
ATOM     46  C   UNL A   1      37.831  33.739  34.844  1.00  0.00     0.029 A 
ATOM     47  C   UNL A   1      38.933  32.791  34.953  1.00  0.00     0.049 A 
ATOM     48  H   UNL A   1      39.573  31.420  33.519  1.00  0.00     0.167 HD
ATOM     49  C   UNL A   1      40.687  28.525  30.338  1.00  0.00     0.034 A 
ATOM     50  C   UNL A   1      39.738  32.640  36.023  1.00  0.00     0.034 A 
ATOM     51  C   UNL A   1      41.652  28.353  31.395  1.00  0.00     0.049 A 
ATOM     52  C   UNL A   1      40.853  31.630  35.937  1.00  0.00     0.074 A 
ATOM     53  C   UNL A   1      42.741  27.503  31.444  1.00  0.00     0.029 A 
ATOM     54  N   UNL A   1      41.636  29.048  32.601  1.00  0.00    -0.354 N 
ATOM     55  N   UNL A   1      41.151  30.812  34.953  1.00  0.00    -0.248 NA
ATOM     56  C   UNL A   1      41.751  31.534  37.094  1.00  0.00     0.031 C 
ATOM     57  C   UNL A   1      43.346  27.639  32.699  1.00  0.00     0.029 A 
ATOM     58  C   UNL A   1      42.681  28.628  33.408  1.00  0.00     0.049 A 
ATOM     59  H   UNL A   1      40.977  29.739  32.844  1.00  0.00     0.167 HD
ATOM     60  C   UNL A   1      42.287  30.122  35.363  1.00  0.00     0.074 A 
ATOM     61  C   UNL A   1      42.631  30.636  36.674  1.00  0.00     0.031 C 
ATOM     62  C   UNL A   1      42.989  29.153  34.718  1.00  0.00     0.034 A 
BRANCH  49  63
ATOM     63  C   UNL A   1      40.756  27.640  29.116  1.00  0.00     0.023 A 
ATOM     64  C   UNL A   1      41.695  27.866  28.091  1.00  0.00     0.031 A 
ATOM     65  C   UNL A   1      39.838  26.590  28.942  1.00  0.00     0.131 A 
ATOM     66  C   UNL A   1      41.639  27.114  26.908  1.00  0.00     0.055 A 
ATOM     67  C   UNL A   1      39.844  25.788  27.798  1.00  0.00     0.041 A 
ATOM     68  F   UNL A   1      38.904  26.338  29.872  1.00  0.00    -0.206 F 
ATOM     69  C   UNL A   1      40.736  26.059  26.765  1.00  0.00     0.022 A 
BRANCH  66  70
ATOM     70  S   UNL A   1      42.659  27.636  25.501  1.00  0.00     0.124 S 
ATOM     71  O   UNL A   1      41.902  28.780  24.997  1.00  0.00    -0.237 OA
ATOM     72  O   UNL A   1      43.937  27.941  26.133  1.00  0.00    -0.237 OA
ATOM     73  O   UNL A   1      42.659  26.464  24.626  1.00  0.00    -0.744 OA
ENDBRANCH  66  70
ENDBRANCH  49  63
BRANCH  50  74
ATOM     74  C   UNL A   1      39.529  33.462  37.250  1.00  0.00     0.023 A 
ATOM     75  C   UNL A   1      38.996  32.900  38.421  1.00  0.00     0.031 A 
ATOM     76  C   UNL A   1      39.840  34.833  37.263  1.00  0.00     0.131 A 
ATOM     77  C   UNL A   1      38.750  33.711  39.540  1.00  0.00     0.055 A 
ATOM     78  C   UNL A   1      39.638  35.627  38.394  1.00  0.00     0.041 A 
ATOM     79  F   UNL A   1      40.362  35.421  36.174  1.00  0.00    -0.206 F 
ATOM     80  C   UNL A   1      39.078  35.068  39.538  1.00  0.00     0.022 A 
BRANCH  77  81
ATOM     81  S   UNL A   1      37.921  32.981  40.980  1.00  0.00     0.124 S 
ATOM     82  O   UNL A   1      37.967  31.559  40.661  1.00  0.00    -0.237 OA
ATOM     83  O   UNL A   1      38.776  33.422  42.077  1.00  0.00    -0.237 OA
ATOM     84  O   UNL A   1      36.590  33.586  40.949  1.00  0.00    -0.744 OA
ENDBRANCH  77  81
ENDBRANCH  50  74
BRANCH  62  85
ATOM     85  C   UNL A   1      44.212  28.622  35.418  1.00  0.00     0.023 A 
ATOM     86  C   UNL A   1      44.131  27.575  36.351  1.00  0.00     0.031 A 
ATOM     87  C   UNL A   1      45.476  29.175  35.149  1.00  0.00     0.131 A 
ATOM     88  C   UNL A   1      45.285  27.148  37.023  1.00  0.00     0.055 A 
ATOM     89  C   UNL A   1      46.630  28.706  35.775  1.00  0.00     0.041 A 
ATOM     90  F   UNL A   1      45.609  30.179  34.266  1.00  0.00    -0.206 F 
ATOM     91  C   UNL A   1      46.537  27.696  36.728  1.00  0.00     0.022 A 
BRANCH  88  92
ATOM     92  S   UNL A   1      45.115  25.931  38.355  1.00  0.00     0.124 S 
ATOM     93  O   UNL A   1      43.905  26.389  39.031  1.00  0.00    -0.237 OA
ATOM     94  O   UNL A   1      44.998  24.677  37.619  1.00  0.00    -0.237 OA
ATOM     95  O   UNL A   1      46.349  26.087  39.121  1.00  0.00    -0.744 OA
ENDBRANCH  88  92
ENDBRANCH  62  85
ENDBRANCH  36  37
ENDBRANCH  28  31
ENDBRANCH  26  27
ENDBRANCH   1  26
TORSDOF 16
ENDMDL
MODEL 2
REMARK VINA RESULT:     -13.1      1.224      1.723
REMARK SMILES C[NH2+][C@@]1(C(=O)NCCCCNC(=O)c2ccc(-c3c4nc(c(-c5cc(S(=O)(=O)[O-])ccc5F)c5ccc([nH]5)c(-c5cc(S(=O)(=O)[O-])ccc5F)c5nc(c(-c6cc(S(=O)(=O)[O-])ccc6F)c6ccc3[nH]6)C=C5)C=C4)cc2)CC[C@H]([NH+]2CC[NH+](C)CC2)C1
REMARK SMILES IDX 9 1 8 2 7 3 6 4 4 5 5 6 3 8 77 9 87 10 78 11 79 12 2 13 1 14
REMARK SMILES IDX 80 17 81 18 86 19 82 21 85 22 83 23 84 24 10 26 11 27 12 28
REMARK SMILES IDX 13 30 14 31 15 32 76 33 16 34 75 35 17 36 18 37 19 38 69 39
REMARK SMILES IDX 20 40 74 41 68 42 70 43 21 44 73 45 67 46 66 47 22 49 54 50
REMARK SMILES IDX 34 51 53 52 35 53 38 54 52 55 71 56 36 57 37 58 51 60 72 61
REMARK SMILES IDX 39 62 23 63 24 64 32 65 25 66 31 67 33 68 30 69 26 70 27 71
REMARK SMILES IDX 28 72 29 73 55 74 56 75 64 76 57 77 63 78 65 79 62 80 58 81
REMARK SMILES IDX 59 82 60 83 61 84 40 85 41 86 49 87 42 88 48 89 50 90 47 91
REMARK SMILES IDX 43 92 44 93 45 94 46 95
REMARK H PARENT 6 7 2 15 2 16 80 20 83 25 11 29 70 48 38 59
REMARK Flexibility Score: inf
ROOT
ATOM      1  C   UNL A   1      32.078  31.448  26.914  1.00  0.00     0.023 C 
ENDROOT
BRANCH   1   2
ATOM      2  C   UNL A   1      32.326  29.771  26.810  1.00  0.00     0.023 C 
BRANCH   2   3
ATOM      3  C   UNL A   1      31.504  27.967  27.583  1.00  0.00     0.116 C 
BRANCH   3   4
ATOM      4  N   UNL A   1      31.189  26.550  26.931  1.00  0.00    -0.351 N 
ATOM      5  C   UNL A   1      31.050  25.968  25.713  1.00  0.00     0.281 C 
ATOM      6  O   UNL A   1      30.552  24.836  25.781  1.00  0.00    -0.268 OA
ATOM      7  H   UNL A   1      31.049  25.880  27.639  1.00  0.00     0.163 HD
BRANCH   5   8
ATOM      8  C   UNL A   1      31.454  26.632  24.368  1.00  0.00     0.181 C 
ATOM      9  C   UNL A   1      31.072  25.740  23.176  1.00  0.00     0.085 C 
ATOM     10  C   UNL A   1      32.981  26.817  24.250  1.00  0.00     0.144 C 
ATOM     11  C   UNL A   1      32.398  25.286  22.571  1.00  0.00     0.072 C 
ATOM     12  C   UNL A   1      33.491  25.513  23.643  1.00  0.00     0.191 C 
BRANCH   8  13
ATOM     13  N   UNL A   1      30.842  27.992  24.215  1.00  0.00    -0.336 N 
ATOM     14  C   UNL A   1      29.800  28.092  23.197  1.00  0.00     0.331 C 
ATOM     15  H   UNL A   1      30.434  28.257  25.111  1.00  0.00     0.346 HD
ATOM     16  H   UNL A   1      31.595  28.610  23.913  1.00  0.00     0.346 HD
ENDBRANCH   8  13
BRANCH  12  17
ATOM     17  N   UNL A   1      33.764  24.431  24.588  1.00  0.00    -0.323 N 
ATOM     18  C   UNL A   1      35.379  24.547  25.464  1.00  0.00     0.324 C 
ATOM     19  C   UNL A   1      32.967  22.752  24.383  1.00  0.00     0.324 C 
ATOM     20  H   UNL A   1      33.081  24.673  25.306  1.00  0.00     0.348 HD
ATOM     21  C   UNL A   1      36.476  22.948  25.693  1.00  0.00     0.324 C 
ATOM     22  C   UNL A   1      34.076  21.126  24.657  1.00  0.00     0.324 C 
ATOM     23  N   UNL A   1      35.721  21.285  25.490  1.00  0.00    -0.328 N 
ATOM     24  C   UNL A   1      36.703  20.317  25.008  1.00  0.00     0.333 C 
ATOM     25  H   UNL A   1      35.443  21.061  26.445  1.00  0.00     0.348 HD
ENDBRANCH  12  17
ENDBRANCH   5   8
ENDBRANCH   3   4
ENDBRANCH   2   3
ENDBRANCH   1   2
BRANCH   1  26
ATOM     26  C   UNL A   1      33.168  32.359  27.500  1.00  0.00     0.116 C 
BRANCH  26  27
ATOM     27  N   UNL A   1      32.726  33.725  27.748  1.00  0.00    -0.352 N 
ATOM     28  C   UNL A   1      33.268  34.643  28.609  1.00  0.00     0.251 C 
ATOM     29  H   UNL A   1      31.943  34.026  27.233  1.00  0.00     0.163 HD
ATOM     30  O   UNL A   1      32.807  35.774  28.706  1.00  0.00    -0.269 OA
BRANCH  28  31
ATOM     31  C   UNL A   1      34.380  34.201  29.462  1.00  0.00     0.039 A 
ATOM     32  C   UNL A   1      34.087  33.424  30.583  1.00  0.00     0.014 A 
ATOM     33  C   UNL A   1      35.699  34.458  29.082  1.00  0.00     0.014 A 
ATOM     34  C   UNL A   1      35.134  32.853  31.301  1.00  0.00     0.010 A 
ATOM     35  C   UNL A   1      36.736  33.828  29.756  1.00  0.00     0.010 A 
ATOM     36  C   UNL A   1      36.460  33.024  30.871  1.00  0.00    -0.014 A 
BRANCH  36  37
ATOM     37  C   UNL A   1      37.572  32.374  31.602  1.00  0.00     0.031 A 
ATOM     38  C   UNL A   1      38.319  31.244  30.953  1.00  0.00     0.074 A 
ATOM     39  C   UNL A   1      37.869  32.783  32.850  1.00  0.00     0.049 A 
ATOM     40  N   UNL A   1      39.312  30.535  31.418  1.00  0.00    -0.248 NA
ATOM     41  C   UNL A   1      37.861  30.838  29.615  1.00  0.00     0.031 C 
ATOM     42  C   UNL A   1      37.158  33.834  33.585  1.00  0.00     0.029 A 
ATOM     43  N   UNL A   1      38.841  32.371  33.722  1.00  0.00    -0.354 N 
ATOM     44  C   UNL A   1      39.591  29.591  30.436  1.00  0.00     0.074 A 
ATOM     45  C   UNL A   1      38.616  29.775  29.384  1.00  0.00     0.031 C 
ATOM     46  C   UNL A   1      37.740  34.004  34.782  1.00  0.00     0.029 A 
ATOM     47  C   UNL A   1      38.841  33.057  34.915  1.00  0.00     0.049 A 
ATOM     48  H   UNL A   1      39.480  31.651  33.515  1.00  0.00     0.167 HD
ATOM     49  C   UNL A   1      40.590  28.676  30.406  1.00  0.00     0.034 A 
ATOM     50  C   UNL A   1      39.647  32.932  35.988  1.00  0.00     0.034 A 
ATOM     51  C   UNL A   1      41.555  28.530  31.468  1.00  0.00     0.049 A 
ATOM     52  C   UNL A   1      40.761  31.919  35.927  1.00  0.00     0.074 A 
ATOM     53  C   UNL A   1      42.644  27.680  31.537  1.00  0.00     0.029 A 
ATOM     54  N   UNL A   1      41.540  29.255  32.655  1.00  0.00    -0.354 N 
ATOM     55  N   UNL A   1      41.058  31.077  34.963  1.00  0.00    -0.248 NA
ATOM     56  C   UNL A   1      41.659  31.852  37.085  1.00  0.00     0.031 C 
ATOM     57  C   UNL A   1      43.249  27.848  32.788  1.00  0.00     0.029 A 
ATOM     58  C   UNL A   1      42.585  28.854  33.472  1.00  0.00     0.049 A 
ATOM     59  H   UNL A   1      40.882  29.952  32.881  1.00  0.00     0.167 HD
ATOM     60  C   UNL A   1      42.194  30.396  35.390  1.00  0.00     0.074 A 
ATOM     61  C   UNL A   1      42.538  30.942  36.688  1.00  0.00     0.031 C 
ATOM     62  C   UNL A   1      42.894  29.411  34.769  1.00  0.00     0.034 A 
BRANCH  49  63
ATOM     63  C   UNL A   1      40.658  27.762  29.207  1.00  0.00     0.023 A 
ATOM     64  C   UNL A   1      41.608  27.952  28.185  1.00  0.00     0.031 A 
ATOM     65  C   UNL A   1      39.729  26.719  29.051  1.00  0.00     0.131 A 
ATOM     66  C   UNL A   1      41.552  27.172  27.020  1.00  0.00     0.055 A 
ATOM     67  C   UNL A   1      39.733  25.889  27.927  1.00  0.00     0.041 A 
ATOM     68  F   UNL A   1      38.784  26.501  29.979  1.00  0.00    -0.206 F 
ATOM     69  C   UNL A   1      40.637  26.125  26.895  1.00  0.00     0.022 A 
BRANCH  66  70
ATOM     70  S   UNL A   1      42.590  27.646  25.609  1.00  0.00     0.124 S 
ATOM     71  O   UNL A   1      41.877  28.815  25.100  1.00  0.00    -0.237 OA
ATOM     72  O   UNL A   1      43.879  27.906  26.239  1.00  0.00    -0.237 OA
ATOM     73  O   UNL A   1      42.545  26.471  24.741  1.00  0.00    -0.744 OA
ENDBRANCH  66  70
ENDBRANCH  49  63
BRANCH  50  74
ATOM     74  C   UNL A   1      39.440  33.785  37.194  1.00  0.00     0.023 A 
ATOM     75  C   UNL A   1      38.780  33.290  38.331  1.00  0.00     0.031 A 
ATOM     76  C   UNL A   1      39.880  35.120  37.220  1.00  0.00     0.131 A 
ATOM     77  C   UNL A   1      38.541  34.134  39.427  1.00  0.00     0.055 A 
ATOM     78  C   UNL A   1      39.682  35.943  38.331  1.00  0.00     0.041 A 
ATOM     79  F   UNL A   1      40.525  35.643  36.165  1.00  0.00    -0.206 F 
ATOM     80  C   UNL A   1      38.998  35.454  39.439  1.00  0.00     0.022 A 
BRANCH  77  81
ATOM     81  S   UNL A   1      37.554  33.504  40.814  1.00  0.00     0.124 S 
ATOM     82  O   UNL A   1      36.375  32.988  40.129  1.00  0.00    -0.237 OA
ATOM     83  O   UNL A   1      38.449  32.508  41.392  1.00  0.00    -0.237 OA
ATOM     84  O   UNL A   1      37.329  34.690  41.638  1.00  0.00    -0.744 OA
ENDBRANCH  77  81
ENDBRANCH  50  74
BRANCH  62  85
ATOM     85  C   UNL A   1      44.117  28.897  35.482  1.00  0.00     0.023 A 
ATOM     86  C   UNL A   1      44.045  27.825  36.388  1.00  0.00     0.031 A 
ATOM     87  C   UNL A   1      45.371  29.490  35.252  1.00  0.00     0.131 A 
ATOM     88  C   UNL A   1      45.197  27.414  37.074  1.00  0.00     0.055 A 
ATOM     89  C   UNL A   1      46.524  29.037  35.891  1.00  0.00     0.041 A 
ATOM     90  F   UNL A   1      45.494  30.518  34.396  1.00  0.00    -0.206 F 
ATOM     91  C   UNL A   1      46.439  28.002  36.817  1.00  0.00     0.022 A 
BRANCH  88  92
ATOM     92  S   UNL A   1      45.034  26.161  38.373  1.00  0.00     0.124 S 
ATOM     93  O   UNL A   1      46.292  26.313  39.099  1.00  0.00    -0.237 OA
ATOM     94  O   UNL A   1      43.834  26.597  39.079  1.00  0.00    -0.237 OA
ATOM     95  O   UNL A   1      44.895  24.911  37.629  1.00  0.00    -0.744 OA
ENDBRANCH  88  92
ENDBRANCH  62  85
ENDBRANCH  36  37
ENDBRANCH  28  31
ENDBRANCH  26  27
ENDBRANCH   1  26
TORSDOF 16
ENDMDL
MODEL 3
REMARK VINA RESULT:     -13.1      2.416      8.272
REMARK SMILES C[NH2+][C@@]1(C(=O)NCCCCNC(=O)c2ccc(-c3c4nc(c(-c5cc(S(=O)(=O)[O-])ccc5F)c5ccc([nH]5)c(-c5cc(S(=O)(=O)[O-])ccc5F)c5nc(c(-c6cc(S(=O)(=O)[O-])ccc6F)c6ccc3[nH]6)C=C5)C=C4)cc2)CC[C@H]([NH+]2CC[NH+](C)CC2)C1
REMARK SMILES IDX 9 1 8 2 7 3 6 4 4 5 5 6 3 8 77 9 87 10 78 11 79 12 2 13 1 14
REMARK SMILES IDX 80 17 81 18 86 19 82 21 85 22 83 23 84 24 10 26 11 27 12 28
REMARK SMILES IDX 13 30 14 31 15 32 76 33 16 34 75 35 17 36 18 37 19 38 69 39
REMARK SMILES IDX 20 40 74 41 68 42 70 43 21 44 73 45 67 46 66 47 22 49 54 50
REMARK SMILES IDX 34 51 53 52 35 53 38 54 52 55 71 56 36 57 37 58 51 60 72 61
REMARK SMILES IDX 39 62 23 63 24 64 32 65 25 66 31 67 33 68 30 69 26 70 27 71
REMARK SMILES IDX 28 72 29 73 55 74 56 75 64 76 57 77 63 78 65 79 62 80 58 81
REMARK SMILES IDX 59 82 60 83 61 84 40 85 41 86 49 87 42 88 48 89 50 90 47 91
REMARK SMILES IDX 43 92 44 93 45 94 46 95
REMARK H PARENT 6 7 2 15 2 16 80 20 83 25 11 29 70 48 38 59
REMARK Flexibility Score: inf
ROOT
ATOM      1  C   UNL A   1      33.397  29.099  24.750  1.00  0.00     0.023 C 
ENDROOT
BRANCH   1   2
ATOM      2  C   UNL A   1      32.537  27.899  23.910  1.00  0.00     0.023 C 
BRANCH   2   3
ATOM      3  C   UNL A   1      32.775  26.626  22.221  1.00  0.00     0.116 C 
BRANCH   3   4
ATOM      4  N   UNL A   1      33.475  25.212  22.016  1.00  0.00    -0.351 N 
ATOM      5  C   UNL A   1      33.526  23.980  22.581  1.00  0.00     0.281 C 
ATOM      6  O   UNL A   1      34.452  23.289  22.134  1.00  0.00    -0.268 OA
ATOM      7  H   UNL A   1      34.060  25.241  21.225  1.00  0.00     0.163 HD
BRANCH   5   8
ATOM      8  C   UNL A   1      32.549  23.472  23.678  1.00  0.00     0.181 C 
ATOM      9  C   UNL A   1      32.590  24.381  24.917  1.00  0.00     0.085 C 
ATOM     10  C   UNL A   1      32.945  22.075  24.200  1.00  0.00     0.144 C 
ATOM     11  C   UNL A   1      33.204  23.529  26.023  1.00  0.00     0.072 C 
ATOM     12  C   UNL A   1      33.925  22.341  25.339  1.00  0.00     0.191 C 
BRANCH   8  13
ATOM     13  N   UNL A   1      31.147  23.359  23.163  1.00  0.00    -0.336 N 
ATOM     14  C   UNL A   1      30.266  24.471  23.512  1.00  0.00     0.331 C 
ATOM     15  H   UNL A   1      31.188  23.297  22.145  1.00  0.00     0.346 HD
ATOM     16  H   UNL A   1      30.747  22.531  23.604  1.00  0.00     0.346 HD
ENDBRANCH   8  13
BRANCH  12  17
ATOM     17  N   UNL A   1      35.324  22.516  24.951  1.00  0.00    -0.323 N 
ATOM     18  C   UNL A   1      36.253  20.956  24.652  1.00  0.00     0.324 C 
ATOM     19  C   UNL A   1      36.272  24.052  25.439  1.00  0.00     0.324 C 
ATOM     20  H   UNL A   1      35.182  22.896  24.015  1.00  0.00     0.348 HD
ATOM     21  C   UNL A   1      38.072  20.763  25.336  1.00  0.00     0.324 C 
ATOM     22  C   UNL A   1      38.138  23.857  26.096  1.00  0.00     0.324 C 
ATOM     23  N   UNL A   1      39.025  22.255  25.831  1.00  0.00    -0.328 N 
ATOM     24  C   UNL A   1      39.974  21.942  26.896  1.00  0.00     0.333 C 
ATOM     25  H   UNL A   1      39.522  22.483  24.970  1.00  0.00     0.348 HD
ENDBRANCH  12  17
ENDBRANCH   5   8
ENDBRANCH   3   4
ENDBRANCH   2   3
ENDBRANCH   1   2
BRANCH   1  26
ATOM     26  C   UNL A   1      33.170  29.307  26.256  1.00  0.00     0.116 C 
BRANCH  26  27
ATOM     27  N   UNL A   1      32.818  30.673  26.617  1.00  0.00    -0.352 N 
ATOM     28  C   UNL A   1      33.553  31.567  27.352  1.00  0.00     0.251 C 
ATOM     29  H   UNL A   1      31.946  30.995  26.294  1.00  0.00     0.163 HD
ATOM     30  O   UNL A   1      33.145  32.702  27.566  1.00  0.00    -0.269 OA
BRANCH  28  31
ATOM     31  C   UNL A   1      34.818  31.093  27.930  1.00  0.00     0.039 A 
ATOM     32  C   UNL A   1      35.890  31.982  27.997  1.00  0.00     0.014 A 
ATOM     33  C   UNL A   1      34.893  29.821  28.503  1.00  0.00     0.014 A 
ATOM     34  C   UNL A   1      37.035  31.609  28.695  1.00  0.00     0.010 A 
ATOM     35  C   UNL A   1      36.006  29.481  29.259  1.00  0.00     0.010 A 
ATOM     36  C   UNL A   1      37.085  30.372  29.358  1.00  0.00    -0.014 A 
BRANCH  36  37
ATOM     37  C   UNL A   1      38.280  29.993  30.146  1.00  0.00     0.031 A 
ATOM     38  C   UNL A   1      38.451  30.542  31.533  1.00  0.00     0.074 A 
ATOM     39  C   UNL A   1      39.211  29.194  29.591  1.00  0.00     0.049 A 
ATOM     40  N   UNL A   1      39.422  30.347  32.385  1.00  0.00    -0.248 NA
ATOM     41  C   UNL A   1      37.405  31.461  32.010  1.00  0.00     0.031 C 
ATOM     42  C   UNL A   1      39.158  28.661  28.226  1.00  0.00     0.029 A 
ATOM     43  N   UNL A   1      40.378  28.689  30.097  1.00  0.00    -0.354 N 
ATOM     44  C   UNL A   1      39.111  31.127  33.494  1.00  0.00     0.074 A 
ATOM     45  C   UNL A   1      37.900  31.850  33.174  1.00  0.00     0.031 C 
ATOM     46  C   UNL A   1      40.229  27.878  28.018  1.00  0.00     0.029 A 
ATOM     47  C   UNL A   1      41.058  27.878  29.217  1.00  0.00     0.049 A 
ATOM     48  H   UNL A   1      40.701  28.887  31.006  1.00  0.00     0.167 HD
ATOM     49  C   UNL A   1      39.763  31.206  34.678  1.00  0.00     0.034 A 
ATOM     50  C   UNL A   1      42.218  27.210  29.371  1.00  0.00     0.034 A 
ATOM     51  C   UNL A   1      40.962  30.459  34.968  1.00  0.00     0.049 A 
ATOM     52  C   UNL A   1      42.919  27.299  30.702  1.00  0.00     0.074 A 
ATOM     53  C   UNL A   1      41.689  30.409  36.143  1.00  0.00     0.029 A 
ATOM     54  N   UNL A   1      41.615  29.629  34.061  1.00  0.00    -0.354 N 
ATOM     55  N   UNL A   1      42.578  27.987  31.769  1.00  0.00    -0.248 NA
ATOM     56  C   UNL A   1      44.146  26.510  30.860  1.00  0.00     0.031 C 
ATOM     57  C   UNL A   1      42.811  29.601  35.929  1.00  0.00     0.029 A 
ATOM     58  C   UNL A   1      42.748  29.085  34.643  1.00  0.00     0.049 A 
ATOM     59  H   UNL A   1      41.315  29.456  33.140  1.00  0.00     0.167 HD
ATOM     60  C   UNL A   1      43.537  27.693  32.733  1.00  0.00     0.074 A 
ATOM     61  C   UNL A   1      44.456  26.750  32.126  1.00  0.00     0.031 C 
ATOM     62  C   UNL A   1      43.652  28.155  34.006  1.00  0.00     0.034 A 
BRANCH  49  63
ATOM     63  C   UNL A   1      39.203  32.148  35.717  1.00  0.00     0.023 A 
ATOM     64  C   UNL A   1      39.643  33.481  35.820  1.00  0.00     0.031 A 
ATOM     65  C   UNL A   1      38.256  31.697  36.652  1.00  0.00     0.131 A 
ATOM     66  C   UNL A   1      39.205  34.285  36.884  1.00  0.00     0.055 A 
ATOM     67  C   UNL A   1      37.758  32.530  37.658  1.00  0.00     0.041 A 
ATOM     68  F   UNL A   1      37.814  30.430  36.621  1.00  0.00    -0.206 F 
ATOM     69  C   UNL A   1      38.246  33.827  37.788  1.00  0.00     0.022 A 
BRANCH  66  70
ATOM     70  S   UNL A   1      40.022  35.883  37.155  1.00  0.00     0.124 S 
ATOM     71  O   UNL A   1      39.686  36.597  35.926  1.00  0.00    -0.237 OA
ATOM     72  O   UNL A   1      39.379  36.364  38.372  1.00  0.00    -0.237 OA
ATOM     73  O   UNL A   1      41.433  35.525  37.295  1.00  0.00    -0.744 OA
ENDBRANCH  66  70
ENDBRANCH  49  63
BRANCH  50  74
ATOM     74  C   UNL A   1      42.780  26.398  28.253  1.00  0.00     0.023 A 
ATOM     75  C   UNL A   1      43.887  26.845  27.514  1.00  0.00     0.031 A 
ATOM     76  C   UNL A   1      42.201  25.169  27.889  1.00  0.00     0.131 A 
ATOM     77  C   UNL A   1      44.354  26.093  26.425  1.00  0.00     0.055 A 
ATOM     78  C   UNL A   1      42.698  24.401  26.835  1.00  0.00     0.041 A 
ATOM     79  F   UNL A   1      41.146  24.689  28.567  1.00  0.00    -0.206 F 
ATOM     80  C   UNL A   1      43.775  24.868  26.088  1.00  0.00     0.022 A 
BRANCH  77  81
ATOM     81  S   UNL A   1      45.690  26.775  25.403  1.00  0.00     0.124 S 
ATOM     82  O   UNL A   1      46.631  27.240  26.414  1.00  0.00    -0.237 OA
ATOM     83  O   UNL A   1      46.103  25.610  24.628  1.00  0.00    -0.237 OA
ATOM     84  O   UNL A   1      45.026  27.828  24.635  1.00  0.00    -0.744 OA
ENDBRANCH  77  81
ENDBRANCH  50  74
BRANCH  62  85
ATOM     85  C   UNL A   1      44.794  27.612  34.824  1.00  0.00     0.023 A 
ATOM     86  C   UNL A   1      44.660  26.442  35.591  1.00  0.00     0.031 A 
ATOM     87  C   UNL A   1      46.033  28.277  34.837  1.00  0.00     0.131 A 
ATOM     88  C   UNL A   1      45.729  26.002  36.383  1.00  0.00     0.055 A 
ATOM     89  C   UNL A   1      47.113  27.800  35.579  1.00  0.00     0.041 A 
ATOM     90  F   UNL A   1      46.214  29.399  34.122  1.00  0.00    -0.206 F 
ATOM     91  C   UNL A   1      46.961  26.665  36.368  1.00  0.00     0.022 A 
BRANCH  88  92
ATOM     92  S   UNL A   1      45.462  24.604  37.505  1.00  0.00     0.124 S 
ATOM     93  O   UNL A   1      46.534  24.788  38.479  1.00  0.00    -0.237 OA
ATOM     94  O   UNL A   1      44.109  24.849  37.993  1.00  0.00    -0.237 OA
ATOM     95  O   UNL A   1      45.605  23.436  36.638  1.00  0.00    -0.744 OA
ENDBRANCH  88  92
ENDBRANCH  62  85
ENDBRANCH  36  37
ENDBRANCH  28  31
ENDBRANCH  26  27
ENDBRANCH   1  26
TORSDOF 16
ENDMDL
