MODEL 1
REMARK VINA RESULT:     -13.6      0.000      0.000
REMARK SMILES O=C(NCCCCNC(=O)[C@H]1CC2=c3ccccc3=N[C@H]2[C@@H](c2ccccc2)[NH2+]1)c1ccc(-c2c3nc(c(-c4cc(S(=O)(=O)[O-])ccc4F)c4ccc([nH]4)c(-c4cc(S(=O)(=O)[O-])ccc4F)c4nc(c(-c5cc(S(=O)(=O)[O-])ccc5F)c5ccc2[nH]5)C=C4)C=C3)cc1
REMARK SMILES IDX 4 1 3 2 1 3 2 4 30 6 31 7 92 8 32 9 91 10 33 11 34 12 35 13
REMARK SMILES IDX 85 14 36 15 90 16 84 17 86 18 37 19 89 20 83 21 82 22 38 24
REMARK SMILES IDX 70 25 50 26 69 27 51 28 54 29 68 30 87 31 52 32 53 33 67 35
REMARK SMILES IDX 88 36 55 37 39 38 40 39 48 40 41 41 47 42 49 43 46 44 42 45
REMARK SMILES IDX 43 46 44 47 45 48 71 49 72 50 80 51 73 52 79 53 81 54 78 55
REMARK SMILES IDX 74 56 75 57 76 58 77 59 56 60 57 61 65 62 58 63 64 64 66 65
REMARK SMILES IDX 63 66 59 67 60 68 61 69 62 70 5 71 6 72 7 73 8 74 9 75 10 77
REMARK SMILES IDX 11 78 12 79 29 80 13 81 22 82 14 85 21 86 15 87 19 88 20 89
REMARK SMILES IDX 16 90 18 91 17 92 23 93 24 94 28 95 25 96 27 97 26 98
REMARK H PARENT 3 5 86 23 54 34 8 76 29 83 29 84
REMARK Flexibility Score: inf
ROOT
ATOM      1  C   UNL A   1      32.523  29.390  25.660  1.00  0.00     0.116 C 
ENDROOT
BRANCH   1   2
ATOM      2  N   UNL A   1      32.238  30.733  26.138  1.00  0.00    -0.352 N 
ATOM      3  O   UNL A   1      32.371  32.604  27.358  1.00  0.00    -0.269 OA
ATOM      4  C   UNL A   1      32.901  31.541  27.029  1.00  0.00     0.251 C 
ATOM      5  H   UNL A   1      31.426  31.136  25.755  1.00  0.00     0.163 HD
BRANCH   4   6
ATOM      6  C   UNL A   1      34.218  31.176  27.611  1.00  0.00     0.039 A 
ATOM      7  C   UNL A   1      34.423  29.848  28.007  1.00  0.00     0.014 A 
ATOM      8  C   UNL A   1      35.218  32.119  27.855  1.00  0.00     0.014 A 
ATOM      9  C   UNL A   1      35.620  29.471  28.625  1.00  0.00     0.010 A 
ATOM     10  C   UNL A   1      36.450  31.723  28.383  1.00  0.00     0.010 A 
ATOM     11  C   UNL A   1      36.652  30.403  28.815  1.00  0.00    -0.014 A 
BRANCH  11  12
ATOM     12  C   UNL A   1      37.902  30.033  29.540  1.00  0.00     0.031 A 
ATOM     13  C   UNL A   1      38.148  30.559  30.933  1.00  0.00     0.074 A 
ATOM     14  C   UNL A   1      38.817  29.231  28.957  1.00  0.00     0.049 A 
ATOM     15  N   UNL A   1      39.163  30.339  31.730  1.00  0.00    -0.248 NA
ATOM     16  C   UNL A   1      37.136  31.466  31.500  1.00  0.00     0.031 C 
ATOM     17  C   UNL A   1      38.713  28.681  27.606  1.00  0.00     0.029 A 
ATOM     18  N   UNL A   1      40.009  28.730  29.428  1.00  0.00    -0.354 N 
ATOM     19  C   UNL A   1      38.918  31.091  32.875  1.00  0.00     0.074 A 
ATOM     20  C   UNL A   1      37.695  31.823  32.646  1.00  0.00     0.031 C 
ATOM     21  C   UNL A   1      39.767  27.883  27.375  1.00  0.00     0.029 A 
ATOM     22  C   UNL A   1      40.647  27.892  28.541  1.00  0.00     0.049 A 
ATOM     23  H   UNL A   1      40.370  28.950  30.316  1.00  0.00     0.167 HD
ATOM     24  C   UNL A   1      39.627  31.138  34.027  1.00  0.00     0.034 A 
ATOM     25  C   UNL A   1      41.802  27.200  28.656  1.00  0.00     0.034 A 
ATOM     26  C   UNL A   1      40.819  30.366  34.267  1.00  0.00     0.049 A 
ATOM     27  C   UNL A   1      42.570  27.265  29.956  1.00  0.00     0.074 A 
ATOM     28  C   UNL A   1      41.572  30.301  35.425  1.00  0.00     0.029 A 
ATOM     29  N   UNL A   1      41.423  29.520  33.349  1.00  0.00    -0.354 N 
ATOM     30  N   UNL A   1      42.276  27.914  31.059  1.00  0.00    -0.248 NA
ATOM     31  C   UNL A   1      43.817  26.488  30.039  1.00  0.00     0.031 C 
ATOM     32  C   UNL A   1      42.672  29.481  35.185  1.00  0.00     0.029 A 
ATOM     33  C   UNL A   1      42.553  28.950  33.911  1.00  0.00     0.049 A 
ATOM     34  H   UNL A   1      41.098  29.351  32.436  1.00  0.00     0.167 HD
ATOM     35  C   UNL A   1      43.268  27.578  31.979  1.00  0.00     0.074 A 
ATOM     36  C   UNL A   1      44.163  26.661  31.308  1.00  0.00     0.031 C 
ATOM     37  C   UNL A   1      43.418  27.993  33.262  1.00  0.00     0.034 A 
BRANCH  24  38
ATOM     38  C   UNL A   1      39.140  32.020  35.153  1.00  0.00     0.023 A 
ATOM     39  C   UNL A   1      39.641  33.330  35.280  1.00  0.00     0.031 A 
ATOM     40  C   UNL A   1      38.322  31.519  36.181  1.00  0.00     0.131 A 
ATOM     41  C   UNL A   1      39.366  34.072  36.435  1.00  0.00     0.055 A 
ATOM     42  C   UNL A   1      38.005  32.284  37.304  1.00  0.00     0.041 A 
ATOM     43  F   UNL A   1      37.820  30.275  36.110  1.00  0.00    -0.206 F 
ATOM     44  C   UNL A   1      38.544  33.559  37.444  1.00  0.00     0.022 A 
BRANCH  41  45
ATOM     45  S   UNL A   1      40.139  35.689  36.710  1.00  0.00     0.124 S 
ATOM     46  O   UNL A   1      39.655  36.451  35.559  1.00  0.00    -0.237 OA
ATOM     47  O   UNL A   1      39.570  36.080  37.999  1.00  0.00    -0.237 OA
ATOM     48  O   UNL A   1      41.566  35.403  36.708  1.00  0.00    -0.744 OA
ENDBRANCH  41  45
ENDBRANCH  24  38
BRANCH  25  49
ATOM     49  C   UNL A   1      42.245  26.311  27.538  1.00  0.00     0.023 A 
ATOM     50  C   UNL A   1      41.810  24.976  27.446  1.00  0.00     0.031 A 
ATOM     51  C   UNL A   1      43.176  26.766  26.586  1.00  0.00     0.131 A 
ATOM     52  C   UNL A   1      42.346  24.133  26.462  1.00  0.00     0.055 A 
ATOM     53  C   UNL A   1      43.649  25.943  25.562  1.00  0.00     0.041 A 
ATOM     54  F   UNL A   1      43.637  28.024  26.639  1.00  0.00    -0.206 F 
ATOM     55  C   UNL A   1      43.245  24.614  25.506  1.00  0.00     0.022 A 
BRANCH  52  56
ATOM     56  S   UNL A   1      41.987  22.354  26.469  1.00  0.00     0.124 S 
ATOM     57  O   UNL A   1      42.657  21.904  25.249  1.00  0.00    -0.237 OA
ATOM     58  O   UNL A   1      42.614  21.931  27.722  1.00  0.00    -0.237 OA
ATOM     59  O   UNL A   1      40.535  22.293  26.451  1.00  0.00    -0.744 OA
ENDBRANCH  52  56
ENDBRANCH  25  49
BRANCH  37  60
ATOM     60  C   UNL A   1      44.551  27.436  34.094  1.00  0.00     0.023 A 
ATOM     61  C   UNL A   1      44.360  26.237  34.810  1.00  0.00     0.031 A 
ATOM     62  C   UNL A   1      45.736  28.157  34.319  1.00  0.00     0.131 A 
ATOM     63  C   UNL A   1      45.311  25.821  35.749  1.00  0.00     0.055 A 
ATOM     64  C   UNL A   1      46.711  27.707  35.212  1.00  0.00     0.041 A 
ATOM     65  F   UNL A   1      45.961  29.318  33.681  1.00  0.00    -0.206 F 
ATOM     66  C   UNL A   1      46.492  26.544  35.945  1.00  0.00     0.022 A 
BRANCH  63  67
ATOM     67  S   UNL A   1      44.999  24.398  36.833  1.00  0.00     0.124 S 
ATOM     68  O   UNL A   1      44.344  23.464  35.920  1.00  0.00    -0.237 OA
ATOM     69  O   UNL A   1      46.349  24.024  37.244  1.00  0.00    -0.237 OA
ATOM     70  O   UNL A   1      44.149  24.938  37.889  1.00  0.00    -0.744 OA
ENDBRANCH  63  67
ENDBRANCH  37  60
ENDBRANCH  11  12
ENDBRANCH   4   6
ENDBRANCH   1   2
BRANCH   1  71
ATOM     71  C   UNL A   1      31.597  28.328  26.256  1.00  0.00     0.023 C 
BRANCH  71  72
ATOM     72  C   UNL A   1      30.997  27.340  25.252  1.00  0.00     0.023 C 
BRANCH  72  73
ATOM     73  C   UNL A   1      30.334  26.110  25.883  1.00  0.00     0.116 C 
BRANCH  73  74
ATOM     74  N   UNL A   1      31.329  25.202  26.449  1.00  0.00    -0.351 N 
ATOM     75  C   UNL A   1      31.447  23.843  26.511  1.00  0.00     0.278 C 
ATOM     76  H   UNL A   1      32.077  25.673  26.883  1.00  0.00     0.163 HD
ATOM     77  O   UNL A   1      32.162  23.416  27.431  1.00  0.00    -0.268 OA
BRANCH  75  78
ATOM     78  C   UNL A   1      30.911  22.828  25.457  1.00  0.00     0.277 C 
ATOM     79  C   UNL A   1      30.821  23.416  23.992  1.00  0.00     0.109 C 
ATOM     80  N   UNL A   1      31.461  21.464  25.558  1.00  0.00    -0.327 N 
ATOM     81  C   UNL A   1      32.131  23.281  23.218  1.00  0.00    -0.024 C 
ATOM     82  C   UNL A   1      32.214  21.107  24.351  1.00  0.00     0.243 C 
ATOM     83  H   UNL A   1      30.692  20.804  25.678  1.00  0.00     0.347 HD
ATOM     84  H   UNL A   1      32.093  21.428  26.357  1.00  0.00     0.347 HD
ATOM     85  C   UNL A   1      32.837  24.342  22.849  1.00  0.00     0.002 A 
ATOM     86  C   UNL A   1      33.090  22.230  23.710  1.00  0.00     0.196 C 
ATOM     87  C   UNL A   1      32.473  25.576  22.237  1.00  0.00     0.010 A 
ATOM     88  C   UNL A   1      33.846  24.255  23.943  1.00  0.00     0.066 A 
ATOM     89  N   UNL A   1      34.021  23.085  24.515  1.00  0.00    -0.270 NA
ATOM     90  C   UNL A   1      33.094  26.701  22.613  1.00  0.00     0.001 A 
ATOM     91  C   UNL A   1      34.409  25.570  24.365  1.00  0.00     0.028 A 
ATOM     92  C   UNL A   1      34.022  26.693  23.729  1.00  0.00     0.002 A 
BRANCH  82  93
ATOM     93  C   UNL A   1      32.592  19.634  24.207  1.00  0.00     0.012 A 
ATOM     94  C   UNL A   1      33.689  19.163  24.962  1.00  0.00     0.010 A 
ATOM     95  C   UNL A   1      32.154  18.853  23.127  1.00  0.00     0.010 A 
ATOM     96  C   UNL A   1      34.390  18.019  24.581  1.00  0.00     0.001 A 
ATOM     97  C   UNL A   1      32.854  17.701  22.754  1.00  0.00     0.001 A 
ATOM     98  C   UNL A   1      33.987  17.302  23.461  1.00  0.00     0.000 A 
ENDBRANCH  82  93
ENDBRANCH  75  78
ENDBRANCH  73  74
ENDBRANCH  72  73
ENDBRANCH  71  72
ENDBRANCH   1  71
TORSDOF 15
ENDMDL
MODEL 2
REMARK VINA RESULT:     -13.5      1.326      1.638
REMARK SMILES O=C(NCCCCNC(=O)[C@H]1CC2=c3ccccc3=N[C@H]2[C@@H](c2ccccc2)[NH2+]1)c1ccc(-c2c3nc(c(-c4cc(S(=O)(=O)[O-])ccc4F)c4ccc([nH]4)c(-c4cc(S(=O)(=O)[O-])ccc4F)c4nc(c(-c5cc(S(=O)(=O)[O-])ccc5F)c5ccc2[nH]5)C=C4)C=C3)cc1
REMARK SMILES IDX 4 1 3 2 1 3 2 4 30 6 31 7 92 8 32 9 91 10 33 11 34 12 35 13
REMARK SMILES IDX 85 14 36 15 90 16 84 17 86 18 37 19 89 20 83 21 82 22 38 24
REMARK SMILES IDX 70 25 50 26 69 27 51 28 54 29 68 30 87 31 52 32 53 33 67 35
REMARK SMILES IDX 88 36 55 37 39 38 40 39 48 40 41 41 47 42 49 43 46 44 42 45
REMARK SMILES IDX 43 46 44 47 45 48 71 49 72 50 80 51 73 52 79 53 81 54 78 55
REMARK SMILES IDX 74 56 75 57 76 58 77 59 56 60 57 61 65 62 58 63 64 64 66 65
REMARK SMILES IDX 63 66 59 67 60 68 61 69 62 70 5 71 6 72 7 73 8 74 9 75 10 77
REMARK SMILES IDX 11 78 12 79 29 80 13 81 22 82 14 85 21 86 15 87 19 88 20 89
REMARK SMILES IDX 16 90 18 91 17 92 23 93 24 94 28 95 25 96 27 97 26 98
REMARK H PARENT 3 5 86 23 54 34 8 76 29 83 29 84
REMARK Flexibility Score: inf
ROOT
ATOM      1  C   UNL A   1      32.761  29.323  25.933  1.00  0.00     0.116 C 
ENDROOT
BRANCH   1   2
ATOM      2  N   UNL A   1      32.542  30.685  26.392  1.00  0.00    -0.352 N 
ATOM      3  O   UNL A   1      32.790  32.577  27.561  1.00  0.00    -0.269 OA
ATOM      4  C   UNL A   1      33.270  31.490  27.233  1.00  0.00     0.251 C 
ATOM      5  H   UNL A   1      31.725  31.106  26.038  1.00  0.00     0.163 HD
BRANCH   4   6
ATOM      6  C   UNL A   1      34.601  31.095  27.762  1.00  0.00     0.039 A 
ATOM      7  C   UNL A   1      34.804  29.754  28.112  1.00  0.00     0.014 A 
ATOM      8  C   UNL A   1      35.619  32.021  28.001  1.00  0.00     0.014 A 
ATOM      9  C   UNL A   1      36.016  29.348  28.681  1.00  0.00     0.010 A 
ATOM     10  C   UNL A   1      36.862  31.597  28.478  1.00  0.00     0.010 A 
ATOM     11  C   UNL A   1      37.063  30.264  28.865  1.00  0.00    -0.014 A 
BRANCH  11  12
ATOM     12  C   UNL A   1      38.331  29.860  29.539  1.00  0.00     0.031 A 
ATOM     13  C   UNL A   1      38.668  30.412  30.903  1.00  0.00     0.074 A 
ATOM     14  C   UNL A   1      39.183  29.004  28.936  1.00  0.00     0.049 A 
ATOM     15  N   UNL A   1      39.711  30.170  31.655  1.00  0.00    -0.248 NA
ATOM     16  C   UNL A   1      37.723  31.376  31.492  1.00  0.00     0.031 C 
ATOM     17  C   UNL A   1      38.989  28.424  27.608  1.00  0.00     0.029 A 
ATOM     18  N   UNL A   1      40.374  28.466  29.362  1.00  0.00    -0.354 N 
ATOM     19  C   UNL A   1      39.554  30.962  32.790  1.00  0.00     0.074 A 
ATOM     20  C   UNL A   1      38.352  31.739  32.599  1.00  0.00     0.031 C 
ATOM     21  C   UNL A   1      39.996  27.576  27.348  1.00  0.00     0.029 A 
ATOM     22  C   UNL A   1      40.934  27.578  28.470  1.00  0.00     0.049 A 
ATOM     23  H   UNL A   1      40.789  28.693  30.225  1.00  0.00     0.167 HD
ATOM     24  C   UNL A   1      40.321  31.009  33.904  1.00  0.00     0.034 A 
ATOM     25  C   UNL A   1      42.063  26.841  28.548  1.00  0.00     0.034 A 
ATOM     26  C   UNL A   1      41.490  30.193  34.107  1.00  0.00     0.049 A 
ATOM     27  C   UNL A   1      42.896  26.908  29.807  1.00  0.00     0.074 A 
ATOM     28  C   UNL A   1      42.296  30.127  35.229  1.00  0.00     0.029 A 
ATOM     29  N   UNL A   1      42.013  29.299  33.186  1.00  0.00    -0.354 N 
ATOM     30  N   UNL A   1      42.685  27.598  30.904  1.00  0.00    -0.248 NA
ATOM     31  C   UNL A   1      44.113  26.082  29.852  1.00  0.00     0.031 C 
ATOM     32  C   UNL A   1      43.348  29.255  34.960  1.00  0.00     0.029 A 
ATOM     33  C   UNL A   1      43.144  28.696  33.708  1.00  0.00     0.049 A 
ATOM     34  H   UNL A   1      41.636  29.120  32.295  1.00  0.00     0.167 HD
ATOM     35  C   UNL A   1      43.706  27.245  31.785  1.00  0.00     0.074 A 
ATOM     36  C   UNL A   1      44.528  26.273  31.097  1.00  0.00     0.031 C 
ATOM     37  C   UNL A   1      43.936  27.686  33.046  1.00  0.00     0.034 A 
BRANCH  24  38
ATOM     38  C   UNL A   1      39.927  31.940  35.027  1.00  0.00     0.023 A 
ATOM     39  C   UNL A   1      39.128  31.460  36.082  1.00  0.00     0.031 A 
ATOM     40  C   UNL A   1      40.196  33.319  34.971  1.00  0.00     0.131 A 
ATOM     41  C   UNL A   1      38.579  32.360  37.005  1.00  0.00     0.055 A 
ATOM     42  C   UNL A   1      39.692  34.203  35.925  1.00  0.00     0.041 A 
ATOM     43  F   UNL A   1      40.951  33.827  33.983  1.00  0.00    -0.206 F 
ATOM     44  C   UNL A   1      38.863  33.727  36.936  1.00  0.00     0.022 A 
BRANCH  41  45
ATOM     45  S   UNL A   1      37.404  31.799  38.267  1.00  0.00     0.124 S 
ATOM     46  O   UNL A   1      37.155  30.418  37.852  1.00  0.00    -0.237 OA
ATOM     47  O   UNL A   1      38.185  31.948  39.494  1.00  0.00    -0.237 OA
ATOM     48  O   UNL A   1      36.273  32.702  38.123  1.00  0.00    -0.744 OA
ENDBRANCH  41  45
ENDBRANCH  24  38
BRANCH  25  49
ATOM     49  C   UNL A   1      42.413  25.905  27.436  1.00  0.00     0.023 A 
ATOM     50  C   UNL A   1      41.898  24.597  27.389  1.00  0.00     0.031 A 
ATOM     51  C   UNL A   1      43.335  26.285  26.443  1.00  0.00     0.131 A 
ATOM     52  C   UNL A   1      42.348  23.704  26.406  1.00  0.00     0.055 A 
ATOM     53  C   UNL A   1      43.722  25.415  25.421  1.00  0.00     0.041 A 
ATOM     54  F   UNL A   1      43.870  27.514  26.451  1.00  0.00    -0.206 F 
ATOM     55  C   UNL A   1      43.240  24.111  25.409  1.00  0.00     0.022 A 
BRANCH  52  56
ATOM     56  S   UNL A   1      41.887  21.950  26.466  1.00  0.00     0.124 S 
ATOM     57  O   UNL A   1      42.290  21.574  27.820  1.00  0.00    -0.237 OA
ATOM     58  O   UNL A   1      40.443  22.015  26.236  1.00  0.00    -0.237 OA
ATOM     59  O   UNL A   1      42.658  21.351  25.388  1.00  0.00    -0.744 OA
ENDBRANCH  52  56
ENDBRANCH  25  49
BRANCH  37  60
ATOM     60  C   UNL A   1      45.086  27.104  33.838  1.00  0.00     0.023 A 
ATOM     61  C   UNL A   1      44.874  25.949  34.617  1.00  0.00     0.031 A 
ATOM     62  C   UNL A   1      46.317  27.768  33.963  1.00  0.00     0.131 A 
ATOM     63  C   UNL A   1      45.855  25.522  35.519  1.00  0.00     0.055 A 
ATOM     64  C   UNL A   1      47.318  27.304  34.820  1.00  0.00     0.041 A 
ATOM     65  F   UNL A   1      46.565  28.887  33.262  1.00  0.00    -0.206 F 
ATOM     66  C   UNL A   1      47.082  26.187  35.616  1.00  0.00     0.022 A 
BRANCH  63  67
ATOM     67  S   UNL A   1      45.533  24.165  36.681  1.00  0.00     0.124 S 
ATOM     68  O   UNL A   1      45.006  24.880  37.841  1.00  0.00    -0.237 OA
ATOM     69  O   UNL A   1      44.559  23.359  35.951  1.00  0.00    -0.237 OA
ATOM     70  O   UNL A   1      46.841  23.545  36.872  1.00  0.00    -0.744 OA
ENDBRANCH  63  67
ENDBRANCH  37  60
ENDBRANCH  11  12
ENDBRANCH   4   6
ENDBRANCH   1   2
BRANCH   1  71
ATOM     71  C   UNL A   1      31.463  28.554  25.683  1.00  0.00     0.023 C 
BRANCH  71  72
ATOM     72  C   UNL A   1      31.173  27.416  26.665  1.00  0.00     0.023 C 
BRANCH  72  73
ATOM     73  C   UNL A   1      30.967  26.044  26.013  1.00  0.00     0.116 C 
BRANCH  73  74
ATOM     74  N   UNL A   1      31.770  25.017  26.672  1.00  0.00    -0.351 N 
ATOM     75  C   UNL A   1      31.662  23.661  26.795  1.00  0.00     0.278 C 
ATOM     76  H   UNL A   1      32.563  25.382  27.129  1.00  0.00     0.163 HD
ATOM     77  O   UNL A   1      32.250  23.171  27.771  1.00  0.00    -0.268 OA
BRANCH  75  78
ATOM     78  C   UNL A   1      31.021  22.695  25.754  1.00  0.00     0.277 C 
ATOM     79  C   UNL A   1      30.814  23.342  24.326  1.00  0.00     0.109 C 
ATOM     80  N   UNL A   1      31.557  21.321  25.753  1.00  0.00    -0.327 N 
ATOM     81  C   UNL A   1      32.049  23.223  23.436  1.00  0.00    -0.024 C 
ATOM     82  C   UNL A   1      32.197  21.005  24.472  1.00  0.00     0.243 C 
ATOM     83  H   UNL A   1      30.792  20.666  25.914  1.00  0.00     0.347 HD
ATOM     84  H   UNL A   1      32.256  21.247  26.492  1.00  0.00     0.347 HD
ATOM     85  C   UNL A   1      32.736  24.290  23.048  1.00  0.00     0.002 A 
ATOM     86  C   UNL A   1      33.031  22.142  23.801  1.00  0.00     0.196 C 
ATOM     87  C   UNL A   1      32.338  25.551  22.518  1.00  0.00     0.010 A 
ATOM     88  C   UNL A   1      33.834  24.147  24.045  1.00  0.00     0.066 A 
ATOM     89  N   UNL A   1      34.042  22.954  24.554  1.00  0.00    -0.270 NA
ATOM     90  C   UNL A   1      33.006  26.653  22.882  1.00  0.00     0.001 A 
ATOM     91  C   UNL A   1      34.451  25.438  24.468  1.00  0.00     0.028 A 
ATOM     92  C   UNL A   1      34.027  26.590  23.912  1.00  0.00     0.002 A 
BRANCH  82  93
ATOM     93  C   UNL A   1      32.539  19.534  24.239  1.00  0.00     0.012 A 
ATOM     94  C   UNL A   1      33.567  18.969  25.025  1.00  0.00     0.010 A 
ATOM     95  C   UNL A   1      32.153  18.854  23.074  1.00  0.00     0.010 A 
ATOM     96  C   UNL A   1      34.258  17.833  24.604  1.00  0.00     0.001 A 
ATOM     97  C   UNL A   1      32.842  17.709  22.660  1.00  0.00     0.001 A 
ATOM     98  C   UNL A   1      33.911  17.218  23.406  1.00  0.00     0.000 A 
ENDBRANCH  82  93
ENDBRANCH  75  78
ENDBRANCH  73  74
ENDBRANCH  72  73
ENDBRANCH  71  72
ENDBRANCH   1  71
TORSDOF 15
ENDMDL
MODEL 3
REMARK VINA RESULT:     -13.5      1.565      1.958
REMARK SMILES O=C(NCCCCNC(=O)[C@H]1CC2=c3ccccc3=N[C@H]2[C@@H](c2ccccc2)[NH2+]1)c1ccc(-c2c3nc(c(-c4cc(S(=O)(=O)[O-])ccc4F)c4ccc([nH]4)c(-c4cc(S(=O)(=O)[O-])ccc4F)c4nc(c(-c5cc(S(=O)(=O)[O-])ccc5F)c5ccc2[nH]5)C=C4)C=C3)cc1
REMARK SMILES IDX 4 1 3 2 1 3 2 4 30 6 31 7 92 8 32 9 91 10 33 11 34 12 35 13
REMARK SMILES IDX 85 14 36 15 90 16 84 17 86 18 37 19 89 20 83 21 82 22 38 24
REMARK SMILES IDX 70 25 50 26 69 27 51 28 54 29 68 30 87 31 52 32 53 33 67 35
REMARK SMILES IDX 88 36 55 37 39 38 40 39 48 40 41 41 47 42 49 43 46 44 42 45
REMARK SMILES IDX 43 46 44 47 45 48 71 49 72 50 80 51 73 52 79 53 81 54 78 55
REMARK SMILES IDX 74 56 75 57 76 58 77 59 56 60 57 61 65 62 58 63 64 64 66 65
REMARK SMILES IDX 63 66 59 67 60 68 61 69 62 70 5 71 6 72 7 73 8 74 9 75 10 77
REMARK SMILES IDX 11 78 12 79 29 80 13 81 22 82 14 85 21 86 15 87 19 88 20 89
REMARK SMILES IDX 16 90 18 91 17 92 23 93 24 94 28 95 25 96 27 97 26 98
REMARK H PARENT 3 5 86 23 54 34 8 76 29 83 29 84
REMARK Flexibility Score: inf
ROOT
ATOM      1  C   UNL A   1      32.281  29.593  26.908  1.00  0.00     0.116 C 
ENDROOT
BRANCH   1   2
ATOM      2  N   UNL A   1      32.315  31.046  26.928  1.00  0.00    -0.352 N 
ATOM      3  O   UNL A   1      32.976  33.129  27.409  1.00  0.00    -0.269 OA
ATOM      4  C   UNL A   1      33.254  31.929  27.404  1.00  0.00     0.251 C 
ATOM      5  H   UNL A   1      31.524  31.475  26.529  1.00  0.00     0.163 HD
BRANCH   4   6
ATOM      6  C   UNL A   1      34.576  31.487  27.916  1.00  0.00     0.039 A 
ATOM      7  C   UNL A   1      34.718  30.156  28.328  1.00  0.00     0.014 A 
ATOM      8  C   UNL A   1      35.649  32.365  28.080  1.00  0.00     0.014 A 
ATOM      9  C   UNL A   1      35.922  29.711  28.884  1.00  0.00     0.010 A 
ATOM     10  C   UNL A   1      36.881  31.898  28.545  1.00  0.00     0.010 A 
ATOM     11  C   UNL A   1      37.022  30.576  28.992  1.00  0.00    -0.014 A 
BRANCH  11  12
ATOM     12  C   UNL A   1      38.286  30.136  29.651  1.00  0.00     0.031 A 
ATOM     13  C   UNL A   1      38.630  30.639  31.032  1.00  0.00     0.074 A 
ATOM     14  C   UNL A   1      39.127  29.290  29.020  1.00  0.00     0.049 A 
ATOM     15  N   UNL A   1      39.671  30.362  31.775  1.00  0.00    -0.248 NA
ATOM     16  C   UNL A   1      37.697  31.595  31.653  1.00  0.00     0.031 C 
ATOM     17  C   UNL A   1      38.926  28.755  27.674  1.00  0.00     0.029 A 
ATOM     18  N   UNL A   1      40.313  28.725  29.427  1.00  0.00    -0.354 N 
ATOM     19  C   UNL A   1      39.524  31.118  32.934  1.00  0.00     0.074 A 
ATOM     20  C   UNL A   1      38.332  31.915  32.771  1.00  0.00     0.031 C 
ATOM     21  C   UNL A   1      39.923  27.905  27.386  1.00  0.00     0.029 A 
ATOM     22  C   UNL A   1      40.861  27.860  28.506  1.00  0.00     0.049 A 
ATOM     23  H   UNL A   1      40.730  28.920  30.297  1.00  0.00     0.167 HD
ATOM     24  C   UNL A   1      40.293  31.121  34.049  1.00  0.00     0.034 A 
ATOM     25  C   UNL A   1      41.981  27.108  28.559  1.00  0.00     0.034 A 
ATOM     26  C   UNL A   1      41.452  30.286  34.224  1.00  0.00     0.049 A 
ATOM     27  C   UNL A   1      42.817  27.125  29.818  1.00  0.00     0.074 A 
ATOM     28  C   UNL A   1      42.259  30.174  35.342  1.00  0.00     0.029 A 
ATOM     29  N   UNL A   1      41.964  29.415  33.274  1.00  0.00    -0.354 N 
ATOM     30  N   UNL A   1      42.614  27.781  30.937  1.00  0.00    -0.248 NA
ATOM     31  C   UNL A   1      44.024  26.283  29.835  1.00  0.00     0.031 C 
ATOM     32  C   UNL A   1      43.301  29.299  35.044  1.00  0.00     0.029 A 
ATOM     33  C   UNL A   1      43.089  28.783  33.775  1.00  0.00     0.049 A 
ATOM     34  H   UNL A   1      41.584  29.270  32.378  1.00  0.00     0.167 HD
ATOM     35  C   UNL A   1      43.632  27.388  31.805  1.00  0.00     0.074 A 
ATOM     36  C   UNL A   1      44.443  26.430  31.085  1.00  0.00     0.031 C 
ATOM     37  C   UNL A   1      43.869  27.786  33.080  1.00  0.00     0.034 A 
BRANCH  24  38
ATOM     38  C   UNL A   1      39.910  32.020  35.202  1.00  0.00     0.023 A 
ATOM     39  C   UNL A   1      39.107  31.515  36.242  1.00  0.00     0.031 A 
ATOM     40  C   UNL A   1      40.196  33.396  35.190  1.00  0.00     0.131 A 
ATOM     41  C   UNL A   1      38.569  32.391  37.193  1.00  0.00     0.055 A 
ATOM     42  C   UNL A   1      39.703  34.256  36.172  1.00  0.00     0.041 A 
ATOM     43  F   UNL A   1      40.956  33.928  34.218  1.00  0.00    -0.206 F 
ATOM     44  C   UNL A   1      38.869  33.756  37.169  1.00  0.00     0.022 A 
BRANCH  41  45
ATOM     45  S   UNL A   1      37.389  31.804  38.438  1.00  0.00     0.124 S 
ATOM     46  O   UNL A   1      36.292  32.760  38.285  1.00  0.00    -0.237 OA
ATOM     47  O   UNL A   1      37.102  30.449  37.968  1.00  0.00    -0.237 OA
ATOM     48  O   UNL A   1      38.121  31.898  39.692  1.00  0.00    -0.744 OA
ENDBRANCH  41  45
ENDBRANCH  24  38
BRANCH  25  49
ATOM     49  C   UNL A   1      42.320  26.204  27.417  1.00  0.00     0.023 A 
ATOM     50  C   UNL A   1      41.853  24.878  27.368  1.00  0.00     0.031 A 
ATOM     51  C   UNL A   1      43.184  26.635  26.394  1.00  0.00     0.131 A 
ATOM     52  C   UNL A   1      42.295  24.019  26.352  1.00  0.00     0.055 A 
ATOM     53  C   UNL A   1      43.561  25.797  25.342  1.00  0.00     0.041 A 
ATOM     54  F   UNL A   1      43.672  27.884  26.402  1.00  0.00    -0.206 F 
ATOM     55  C   UNL A   1      43.128  24.476  25.326  1.00  0.00     0.022 A 
BRANCH  52  56
ATOM     56  S   UNL A   1      41.903  22.248  26.399  1.00  0.00     0.124 S 
ATOM     57  O   UNL A   1      42.407  21.859  27.716  1.00  0.00    -0.237 OA
ATOM     58  O   UNL A   1      40.446  22.263  26.264  1.00  0.00    -0.237 OA
ATOM     59  O   UNL A   1      42.625  21.702  25.261  1.00  0.00    -0.744 OA
ENDBRANCH  52  56
ENDBRANCH  25  49
BRANCH  37  60
ATOM     60  C   UNL A   1      45.012  27.166  33.851  1.00  0.00     0.023 A 
ATOM     61  C   UNL A   1      44.761  26.064  34.693  1.00  0.00     0.031 A 
ATOM     62  C   UNL A   1      46.289  27.752  33.893  1.00  0.00     0.131 A 
ATOM     63  C   UNL A   1      45.752  25.614  35.574  1.00  0.00     0.055 A 
ATOM     64  C   UNL A   1      47.294  27.262  34.729  1.00  0.00     0.041 A 
ATOM     65  F   UNL A   1      46.576  28.818  33.129  1.00  0.00    -0.206 F 
ATOM     66  C   UNL A   1      47.022  26.200  35.587  1.00  0.00     0.022 A 
BRANCH  63  67
ATOM     67  S   UNL A   1      45.395  24.336  36.813  1.00  0.00     0.124 S 
ATOM     68  O   UNL A   1      45.028  23.198  35.973  1.00  0.00    -0.237 OA
ATOM     69  O   UNL A   1      46.675  24.212  37.504  1.00  0.00    -0.237 OA
ATOM     70  O   UNL A   1      44.308  24.904  37.603  1.00  0.00    -0.744 OA
ENDBRANCH  63  67
ENDBRANCH  37  60
ENDBRANCH  11  12
ENDBRANCH   4   6
ENDBRANCH   1   2
BRANCH   1  71
ATOM     71  C   UNL A   1      32.454  29.004  25.507  1.00  0.00     0.023 C 
BRANCH  71  72
ATOM     72  C   UNL A   1      33.665  28.085  25.324  1.00  0.00     0.023 C 
BRANCH  72  73
ATOM     73  C   UNL A   1      33.435  26.630  25.747  1.00  0.00     0.116 C 
BRANCH  73  74
ATOM     74  N   UNL A   1      34.258  25.712  24.962  1.00  0.00    -0.351 N 
ATOM     75  C   UNL A   1      34.555  24.383  25.061  1.00  0.00     0.278 C 
ATOM     76  H   UNL A   1      34.694  26.148  24.194  1.00  0.00     0.163 HD
ATOM     77  O   UNL A   1      35.611  24.036  24.511  1.00  0.00    -0.268 OA
BRANCH  75  78
ATOM     78  C   UNL A   1      33.626  23.278  25.646  1.00  0.00     0.277 C 
ATOM     79  C   UNL A   1      32.098  23.685  25.691  1.00  0.00     0.109 C 
ATOM     80  N   UNL A   1      33.900  21.908  25.175  1.00  0.00    -0.327 N 
ATOM     81  C   UNL A   1      31.366  23.384  24.385  1.00  0.00    -0.024 C 
ATOM     82  C   UNL A   1      32.758  21.365  24.434  1.00  0.00     0.243 C 
ATOM     83  H   UNL A   1      34.089  21.311  25.981  1.00  0.00     0.347 HD
ATOM     84  H   UNL A   1      34.707  21.936  24.553  1.00  0.00     0.347 HD
ATOM     85  C   UNL A   1      30.881  24.351  23.616  1.00  0.00     0.002 A 
ATOM     86  C   UNL A   1      31.997  22.350  23.491  1.00  0.00     0.196 C 
ATOM     87  C   UNL A   1      30.117  25.518  23.905  1.00  0.00     0.010 A 
ATOM     88  C   UNL A   1      31.992  24.343  22.623  1.00  0.00     0.066 A 
ATOM     89  N   UNL A   1      32.705  23.244  22.519  1.00  0.00    -0.270 NA
ATOM     90  C   UNL A   1      30.361  26.644  23.225  1.00  0.00     0.001 A 
ATOM     91  C   UNL A   1      32.259  25.667  21.990  1.00  0.00     0.028 A 
ATOM     92  C   UNL A   1      31.484  26.723  22.308  1.00  0.00     0.002 A 
BRANCH  82  93
ATOM     93  C   UNL A   1      32.801  19.866  24.139  1.00  0.00     0.012 A 
ATOM     94  C   UNL A   1      33.792  19.100  24.790  1.00  0.00     0.010 A 
ATOM     95  C   UNL A   1      32.169  19.308  23.018  1.00  0.00     0.010 A 
ATOM     96  C   UNL A   1      34.215  17.875  24.273  1.00  0.00     0.001 A 
ATOM     97  C   UNL A   1      32.590  18.074  22.507  1.00  0.00     0.001 A 
ATOM     98  C   UNL A   1      33.631  17.375  23.115  1.00  0.00     0.000 A 
ENDBRANCH  82  93
ENDBRANCH  75  78
ENDBRANCH  73  74
ENDBRANCH  72  73
ENDBRANCH  71  72
ENDBRANCH   1  71
TORSDOF 15
ENDMDL
