MODEL 1
REMARK VINA RESULT:     -12.0      0.000      0.000
REMARK SMILES C[C@@H](Nc1ccc(C(=O)NCCCCNC(=O)c2ccc(-c3c4nc(c(-c5cc(S(=O)(=O)[O-])ccc5F)c5ccc([nH]5)c(-c5cc(S(=O)(=O)[O-])ccc5F)c5nc(c(-c6cc(S(=O)(=O)[O-])ccc6F)c6ccc3[nH]6)C=C5)C=C4)cc2)c(F)c1F)C(N)=O
REMARK SMILES IDX 12 1 11 2 10 3 8 4 9 5 7 7 4 8 5 9 83 10 6 11 81 12 84 13
REMARK SMILES IDX 82 14 3 15 2 17 1 18 85 19 86 20 87 21 13 24 14 25 15 26
REMARK SMILES IDX 16 27 17 29 18 30 19 31 80 32 20 33 79 34 21 35 22 36 23 37
REMARK SMILES IDX 73 38 24 39 78 40 72 41 74 42 25 43 77 44 71 45 70 46 26 48
REMARK SMILES IDX 58 49 38 50 57 51 39 52 42 53 56 54 75 55 40 56 41 57 55 59
REMARK SMILES IDX 76 60 43 61 27 62 28 63 36 64 29 65 35 66 37 67 34 68 30 69
REMARK SMILES IDX 31 70 32 71 33 72 59 73 60 74 68 75 61 76 67 77 69 78 66 79
REMARK SMILES IDX 62 80 63 81 64 82 65 83 44 84 45 85 53 86 46 87 52 88 54 89
REMARK SMILES IDX 51 90 47 91 48 92 49 93 50 94
REMARK H PARENT 10 6 3 16 86 22 86 23 15 28 74 47 42 58
REMARK Flexibility Score: inf
ROOT
ATOM      1  C   UNL A   1      35.606  23.652  23.603  1.00  0.00     0.023 C 
ENDROOT
BRANCH   1   2
ATOM      2  C   UNL A   1      34.734  24.117  24.765  1.00  0.00     0.116 C 
BRANCH   2   3
ATOM      3  N   UNL A   1      33.379  24.470  24.382  1.00  0.00    -0.352 N 
ATOM      4  C   UNL A   1      32.284  23.677  24.151  1.00  0.00     0.254 C 
ATOM      5  O   UNL A   1      31.216  24.208  23.849  1.00  0.00    -0.269 OA
ATOM      6  H   UNL A   1      33.221  25.435  24.270  1.00  0.00     0.163 HD
BRANCH   4   7
ATOM      7  C   UNL A   1      32.352  22.199  24.165  1.00  0.00     0.078 A 
ATOM      8  C   UNL A   1      32.519  19.365  23.982  1.00  0.00     0.074 A 
ATOM      9  C   UNL A   1      32.207  20.142  22.868  1.00  0.00     0.030 A 
ATOM     10  C   UNL A   1      32.662  20.048  25.205  1.00  0.00     0.182 A 
ATOM     11  C   UNL A   1      32.132  21.540  22.950  1.00  0.00     0.019 A 
ATOM     12  C   UNL A   1      32.556  21.436  25.305  1.00  0.00     0.173 A 
ATOM     13  F   UNL A   1      32.916  19.334  26.317  1.00  0.00    -0.201 F 
ATOM     14  F   UNL A   1      32.641  22.001  26.518  1.00  0.00    -0.203 F 
BRANCH   8  15
ATOM     15  N   UNL A   1      32.666  17.987  23.948  1.00  0.00    -0.371 N 
ATOM     16  H   UNL A   1      31.849  17.476  23.745  1.00  0.00     0.161 HD
BRANCH  15  17
ATOM     17  C   UNL A   1      33.883  17.184  24.179  1.00  0.00     0.165 C 
ATOM     18  C   UNL A   1      34.364  16.605  22.848  1.00  0.00     0.041 C 
BRANCH  17  19
ATOM     19  C   UNL A   1      33.783  16.047  25.209  1.00  0.00     0.239 C 
ATOM     20  N   UNL A   1      32.742  16.147  26.095  1.00  0.00    -0.368 N 
ATOM     21  O   UNL A   1      34.559  15.098  25.283  1.00  0.00    -0.273 OA
ATOM     22  H   UNL A   1      32.119  16.907  26.038  1.00  0.00     0.159 HD
ATOM     23  H   UNL A   1      32.617  15.459  26.788  1.00  0.00     0.159 HD
ENDBRANCH  17  19
ENDBRANCH  15  17
ENDBRANCH   8  15
ENDBRANCH   4   7
ENDBRANCH   2   3
ENDBRANCH   1   2
BRANCH   1  24
ATOM     24  C   UNL A   1      36.371  22.345  23.804  1.00  0.00     0.023 C 
BRANCH  24  25
ATOM     25  C   UNL A   1      36.704  21.972  25.244  1.00  0.00     0.116 C 
BRANCH  25  26
ATOM     26  N   UNL A   1      37.678  20.898  25.360  1.00  0.00    -0.352 N 
ATOM     27  C   UNL A   1      38.951  20.918  25.888  1.00  0.00     0.251 C 
ATOM     28  H   UNL A   1      37.384  20.027  25.010  1.00  0.00     0.163 HD
ATOM     29  O   UNL A   1      39.657  19.921  25.815  1.00  0.00    -0.269 OA
BRANCH  27  30
ATOM     30  C   UNL A   1      39.476  22.163  26.496  1.00  0.00     0.039 A 
ATOM     31  C   UNL A   1      40.487  22.072  27.456  1.00  0.00     0.014 A 
ATOM     32  C   UNL A   1      39.004  23.413  26.091  1.00  0.00     0.014 A 
ATOM     33  C   UNL A   1      41.098  23.236  27.932  1.00  0.00     0.010 A 
ATOM     34  C   UNL A   1      39.666  24.566  26.506  1.00  0.00     0.010 A 
ATOM     35  C   UNL A   1      40.730  24.489  27.420  1.00  0.00    -0.014 A 
BRANCH  35  36
ATOM     36  C   UNL A   1      41.439  25.738  27.808  1.00  0.00     0.031 A 
ATOM     37  C   UNL A   1      40.706  26.807  28.571  1.00  0.00     0.074 A 
ATOM     38  C   UNL A   1      42.703  25.953  27.388  1.00  0.00     0.049 A 
ATOM     39  N   UNL A   1      41.078  28.028  28.856  1.00  0.00    -0.248 NA
ATOM     40  C   UNL A   1      39.355  26.463  29.040  1.00  0.00     0.031 C 
ATOM     41  C   UNL A   1      43.511  25.009  26.612  1.00  0.00     0.029 A 
ATOM     42  N   UNL A   1      43.523  27.045  27.536  1.00  0.00    -0.354 N 
ATOM     43  C   UNL A   1      39.998  28.610  29.510  1.00  0.00     0.074 A 
ATOM     44  C   UNL A   1      38.940  27.621  29.530  1.00  0.00     0.031 C 
ATOM     45  C   UNL A   1      44.711  25.557  26.362  1.00  0.00     0.029 A 
ATOM     46  C   UNL A   1      44.744  26.908  26.915  1.00  0.00     0.049 A 
ATOM     47  H   UNL A   1      43.263  27.850  28.039  1.00  0.00     0.167 HD
ATOM     48  C   UNL A   1      39.903  29.847  30.059  1.00  0.00     0.034 A 
ATOM     49  C   UNL A   1      45.766  27.779  26.784  1.00  0.00     0.034 A 
ATOM     50  C   UNL A   1      40.976  30.810  30.052  1.00  0.00     0.049 A 
ATOM     51  C   UNL A   1      45.637  29.151  27.396  1.00  0.00     0.074 A 
ATOM     52  C   UNL A   1      41.010  32.070  30.628  1.00  0.00     0.029 A 
ATOM     53  N   UNL A   1      42.209  30.623  29.439  1.00  0.00    -0.354 N 
ATOM     54  N   UNL A   1      44.620  29.676  28.040  1.00  0.00    -0.248 NA
ATOM     55  C   UNL A   1      46.794  30.046  27.268  1.00  0.00     0.031 C 
ATOM     56  C   UNL A   1      42.238  32.663  30.316  1.00  0.00     0.029 A 
ATOM     57  C   UNL A   1      42.999  31.750  29.604  1.00  0.00     0.049 A 
ATOM     58  H   UNL A   1      42.481  29.809  28.957  1.00  0.00     0.167 HD
ATOM     59  C   UNL A   1      45.031  30.949  28.424  1.00  0.00     0.074 A 
ATOM     60  C   UNL A   1      46.388  31.112  27.943  1.00  0.00     0.031 C 
ATOM     61  C   UNL A   1      44.351  31.895  29.118  1.00  0.00     0.034 A 
BRANCH  48  62
ATOM     62  C   UNL A   1      38.583  30.226  30.685  1.00  0.00     0.023 A 
ATOM     63  C   UNL A   1      37.571  30.863  29.946  1.00  0.00     0.031 A 
ATOM     64  C   UNL A   1      38.347  29.987  32.051  1.00  0.00     0.131 A 
ATOM     65  C   UNL A   1      36.411  31.315  30.590  1.00  0.00     0.055 A 
ATOM     66  C   UNL A   1      37.152  30.362  32.669  1.00  0.00     0.041 A 
ATOM     67  F   UNL A   1      39.283  29.399  32.814  1.00  0.00    -0.206 F 
ATOM     68  C   UNL A   1      36.183  31.046  31.942  1.00  0.00     0.022 A 
BRANCH  65  69
ATOM     69  S   UNL A   1      35.276  32.391  29.672  1.00  0.00     0.124 S 
ATOM     70  O   UNL A   1      34.377  32.842  30.731  1.00  0.00    -0.237 OA
ATOM     71  O   UNL A   1      36.174  33.400  29.122  1.00  0.00    -0.237 OA
ATOM     72  O   UNL A   1      34.671  31.492  28.691  1.00  0.00    -0.744 OA
ENDBRANCH  65  69
ENDBRANCH  48  62
BRANCH  49  73
ATOM     73  C   UNL A   1      46.995  27.395  26.034  1.00  0.00     0.023 A 
ATOM     74  C   UNL A   1      47.151  27.738  24.681  1.00  0.00     0.031 A 
ATOM     75  C   UNL A   1      48.014  26.643  26.644  1.00  0.00     0.131 A 
ATOM     76  C   UNL A   1      48.276  27.292  23.971  1.00  0.00     0.055 A 
ATOM     77  C   UNL A   1      49.156  26.244  25.946  1.00  0.00     0.041 A 
ATOM     78  F   UNL A   1      47.918  26.295  27.937  1.00  0.00    -0.206 F 
ATOM     79  C   UNL A   1      49.285  26.558  24.596  1.00  0.00     0.022 A 
BRANCH  76  80
ATOM     80  S   UNL A   1      48.363  27.621  22.188  1.00  0.00     0.124 S 
ATOM     81  O   UNL A   1      49.503  28.528  22.109  1.00  0.00    -0.237 OA
ATOM     82  O   UNL A   1      48.568  26.284  21.643  1.00  0.00    -0.237 OA
ATOM     83  O   UNL A   1      47.064  28.222  21.889  1.00  0.00    -0.744 OA
ENDBRANCH  76  80
ENDBRANCH  49  73
BRANCH  61  84
ATOM     84  C   UNL A   1      45.090  33.166  29.453  1.00  0.00     0.023 A 
ATOM     85  C   UNL A   1      45.044  34.294  28.617  1.00  0.00     0.031 A 
ATOM     86  C   UNL A   1      45.848  33.245  30.636  1.00  0.00     0.131 A 
ATOM     87  C   UNL A   1      45.777  35.443  28.956  1.00  0.00     0.055 A 
ATOM     88  C   UNL A   1      46.533  34.406  30.992  1.00  0.00     0.041 A 
ATOM     89  F   UNL A   1      45.925  32.194  31.467  1.00  0.00    -0.206 F 
ATOM     90  C   UNL A   1      46.508  35.510  30.145  1.00  0.00     0.022 A 
BRANCH  87  91
ATOM     91  S   UNL A   1      45.813  36.831  27.790  1.00  0.00     0.124 S 
ATOM     92  O   UNL A   1      47.240  37.125  27.711  1.00  0.00    -0.237 OA
ATOM     93  O   UNL A   1      45.215  36.250  26.591  1.00  0.00    -0.237 OA
ATOM     94  O   UNL A   1      45.005  37.855  28.449  1.00  0.00    -0.744 OA
ENDBRANCH  87  91
ENDBRANCH  61  84
ENDBRANCH  35  36
ENDBRANCH  27  30
ENDBRANCH  25  26
ENDBRANCH  24  25
ENDBRANCH   1  24
TORSDOF 17
ENDMDL
MODEL 2
REMARK VINA RESULT:     -11.8      0.573      7.570
REMARK SMILES C[C@@H](Nc1ccc(C(=O)NCCCCNC(=O)c2ccc(-c3c4nc(c(-c5cc(S(=O)(=O)[O-])ccc5F)c5ccc([nH]5)c(-c5cc(S(=O)(=O)[O-])ccc5F)c5nc(c(-c6cc(S(=O)(=O)[O-])ccc6F)c6ccc3[nH]6)C=C5)C=C4)cc2)c(F)c1F)C(N)=O
REMARK SMILES IDX 12 1 11 2 10 3 8 4 9 5 7 7 4 8 5 9 83 10 6 11 81 12 84 13
REMARK SMILES IDX 82 14 3 15 2 17 1 18 85 19 86 20 87 21 13 24 14 25 15 26
REMARK SMILES IDX 16 27 17 29 18 30 19 31 80 32 20 33 79 34 21 35 22 36 23 37
REMARK SMILES IDX 73 38 24 39 78 40 72 41 74 42 25 43 77 44 71 45 70 46 26 48
REMARK SMILES IDX 58 49 38 50 57 51 39 52 42 53 56 54 75 55 40 56 41 57 55 59
REMARK SMILES IDX 76 60 43 61 27 62 28 63 36 64 29 65 35 66 37 67 34 68 30 69
REMARK SMILES IDX 31 70 32 71 33 72 59 73 60 74 68 75 61 76 67 77 69 78 66 79
REMARK SMILES IDX 62 80 63 81 64 82 65 83 44 84 45 85 53 86 46 87 52 88 54 89
REMARK SMILES IDX 51 90 47 91 48 92 49 93 50 94
REMARK H PARENT 10 6 3 16 86 22 86 23 15 28 74 47 42 58
REMARK Flexibility Score: inf
ROOT
ATOM      1  C   UNL A   1      36.077  23.275  23.582  1.00  0.00     0.023 C 
ENDROOT
BRANCH   1   2
ATOM      2  C   UNL A   1      35.341  24.007  24.700  1.00  0.00     0.116 C 
BRANCH   2   3
ATOM      3  N   UNL A   1      34.023  24.485  24.325  1.00  0.00    -0.352 N 
ATOM      4  C   UNL A   1      32.843  23.806  24.164  1.00  0.00     0.254 C 
ATOM      5  O   UNL A   1      31.831  24.435  23.854  1.00  0.00    -0.269 OA
ATOM      6  H   UNL A   1      33.968  25.455  24.159  1.00  0.00     0.163 HD
BRANCH   4   7
ATOM      7  C   UNL A   1      32.750  22.334  24.264  1.00  0.00     0.078 A 
ATOM      8  C   UNL A   1      32.595  19.493  24.243  1.00  0.00     0.074 A 
ATOM      9  C   UNL A   1      32.307  20.239  23.102  1.00  0.00     0.030 A 
ATOM     10  C   UNL A   1      32.881  20.221  25.414  1.00  0.00     0.182 A 
ATOM     11  C   UNL A   1      32.390  21.638  23.103  1.00  0.00     0.019 A 
ATOM     12  C   UNL A   1      32.933  21.615  25.436  1.00  0.00     0.173 A 
ATOM     13  F   UNL A   1      33.118  19.544  26.553  1.00  0.00    -0.201 F 
ATOM     14  F   UNL A   1      33.149  22.233  26.607  1.00  0.00    -0.203 F 
BRANCH   8  15
ATOM     15  N   UNL A   1      32.588  18.107  24.286  1.00  0.00    -0.371 N 
ATOM     16  H   UNL A   1      31.699  17.686  24.320  1.00  0.00     0.161 HD
BRANCH  15  17
ATOM     17  C   UNL A   1      33.737  17.179  24.288  1.00  0.00     0.165 C 
ATOM     18  C   UNL A   1      34.161  16.900  22.846  1.00  0.00     0.041 C 
BRANCH  17  19
ATOM     19  C   UNL A   1      33.550  15.841  25.021  1.00  0.00     0.239 C 
ATOM     20  N   UNL A   1      32.254  15.513  25.325  1.00  0.00    -0.368 N 
ATOM     21  O   UNL A   1      34.463  15.086  25.343  1.00  0.00    -0.273 OA
ATOM     22  H   UNL A   1      31.521  16.118  25.068  1.00  0.00     0.159 HD
ATOM     23  H   UNL A   1      32.057  14.674  25.800  1.00  0.00     0.159 HD
ENDBRANCH  17  19
ENDBRANCH  15  17
ENDBRANCH   8  15
ENDBRANCH   4   7
ENDBRANCH   2   3
ENDBRANCH   1   2
BRANCH   1  24
ATOM     24  C   UNL A   1      36.689  21.922  23.940  1.00  0.00     0.023 C 
BRANCH  24  25
ATOM     25  C   UNL A   1      37.000  21.690  25.414  1.00  0.00     0.116 C 
BRANCH  25  26
ATOM     26  N   UNL A   1      38.080  20.742  25.642  1.00  0.00    -0.352 N 
ATOM     27  C   UNL A   1      39.340  20.951  26.160  1.00  0.00     0.251 C 
ATOM     28  H   UNL A   1      37.881  19.813  25.388  1.00  0.00     0.163 HD
ATOM     29  O   UNL A   1      40.146  20.030  26.192  1.00  0.00    -0.269 OA
BRANCH  27  30
ATOM     30  C   UNL A   1      39.728  22.301  26.628  1.00  0.00     0.039 A 
ATOM     31  C   UNL A   1      40.767  22.423  27.554  1.00  0.00     0.014 A 
ATOM     32  C   UNL A   1      39.100  23.443  26.125  1.00  0.00     0.014 A 
ATOM     33  C   UNL A   1      41.246  23.691  27.896  1.00  0.00     0.010 A 
ATOM     34  C   UNL A   1      39.630  24.699  26.405  1.00  0.00     0.010 A 
ATOM     35  C   UNL A   1      40.719  24.836  27.282  1.00  0.00    -0.014 A 
BRANCH  35  36
ATOM     36  C   UNL A   1      41.284  26.191  27.525  1.00  0.00     0.031 A 
ATOM     37  C   UNL A   1      42.670  26.520  27.043  1.00  0.00     0.074 A 
ATOM     38  C   UNL A   1      40.595  27.085  28.265  1.00  0.00     0.049 A 
ATOM     39  N   UNL A   1      43.411  27.568  27.296  1.00  0.00    -0.248 NA
ATOM     40  C   UNL A   1      43.322  25.511  26.195  1.00  0.00     0.031 C 
ATOM     41  C   UNL A   1      39.256  26.875  28.819  1.00  0.00     0.029 A 
ATOM     42  N   UNL A   1      40.936  28.344  28.696  1.00  0.00    -0.354 N 
ATOM     43  C   UNL A   1      44.627  27.332  26.664  1.00  0.00     0.074 A 
ATOM     44  C   UNL A   1      44.537  26.017  26.063  1.00  0.00     0.031 C 
ATOM     45  C   UNL A   1      38.886  27.968  29.506  1.00  0.00     0.029 A 
ATOM     46  C   UNL A   1      39.977  28.938  29.485  1.00  0.00     0.049 A 
ATOM     47  H   UNL A   1      41.787  28.781  28.463  1.00  0.00     0.167 HD
ATOM     48  C   UNL A   1      45.711  28.144  26.577  1.00  0.00     0.034 A 
ATOM     49  C   UNL A   1      39.983  30.119  30.137  1.00  0.00     0.034 A 
ATOM     50  C   UNL A   1      45.773  29.461  27.160  1.00  0.00     0.049 A 
ATOM     51  C   UNL A   1      41.201  31.002  30.033  1.00  0.00     0.074 A 
ATOM     52  C   UNL A   1      46.797  30.391  27.086  1.00  0.00     0.029 A 
ATOM     53  N   UNL A   1      44.769  30.040  27.928  1.00  0.00    -0.354 N 
ATOM     54  N   UNL A   1      42.332  30.779  29.405  1.00  0.00    -0.248 NA
ATOM     55  C   UNL A   1      41.141  32.298  30.722  1.00  0.00     0.031 C 
ATOM     56  C   UNL A   1      46.435  31.505  27.852  1.00  0.00     0.029 A 
ATOM     57  C   UNL A   1      45.159  31.302  28.349  1.00  0.00     0.049 A 
ATOM     58  H   UNL A   1      43.907  29.615  28.141  1.00  0.00     0.167 HD
ATOM     59  C   UNL A   1      43.102  31.923  29.594  1.00  0.00     0.074 A 
ATOM     60  C   UNL A   1      42.307  32.834  30.391  1.00  0.00     0.031 C 
ATOM     61  C   UNL A   1      44.351  32.198  29.143  1.00  0.00     0.034 A 
BRANCH  48  62
ATOM     62  C   UNL A   1      46.918  27.610  25.847  1.00  0.00     0.023 A 
ATOM     63  C   UNL A   1      47.190  27.964  24.514  1.00  0.00     0.031 A 
ATOM     64  C   UNL A   1      47.788  26.701  26.475  1.00  0.00     0.131 A 
ATOM     65  C   UNL A   1      48.247  27.350  23.826  1.00  0.00     0.055 A 
ATOM     66  C   UNL A   1      48.891  26.158  25.812  1.00  0.00     0.041 A 
ATOM     67  F   UNL A   1      47.570  26.310  27.741  1.00  0.00    -0.206 F 
ATOM     68  C   UNL A   1      49.115  26.468  24.474  1.00  0.00     0.022 A 
BRANCH  65  69
ATOM     69  S   UNL A   1      48.377  27.604  22.035  1.00  0.00     0.124 S 
ATOM     70  O   UNL A   1      49.579  28.428  21.942  1.00  0.00    -0.237 OA
ATOM     71  O   UNL A   1      48.495  26.241  21.531  1.00  0.00    -0.237 OA
ATOM     72  O   UNL A   1      47.131  28.290  21.696  1.00  0.00    -0.744 OA
ENDBRANCH  65  69
ENDBRANCH  48  62
BRANCH  49  73
ATOM     73  C   UNL A   1      38.811  30.535  30.959  1.00  0.00     0.023 A 
ATOM     74  C   UNL A   1      37.842  31.410  30.442  1.00  0.00     0.031 A 
ATOM     75  C   UNL A   1      38.664  30.099  32.288  1.00  0.00     0.131 A 
ATOM     76  C   UNL A   1      36.795  31.856  31.262  1.00  0.00     0.055 A 
ATOM     77  C   UNL A   1      37.593  30.507  33.084  1.00  0.00     0.041 A 
ATOM     78  F   UNL A   1      39.559  29.256  32.828  1.00  0.00    -0.206 F 
ATOM     79  C   UNL A   1      36.656  31.402  32.575  1.00  0.00     0.022 A 
BRANCH  76  80
ATOM     80  S   UNL A   1      35.654  33.107  30.608  1.00  0.00     0.124 S 
ATOM     81  O   UNL A   1      35.597  34.062  31.708  1.00  0.00    -0.237 OA
ATOM     82  O   UNL A   1      36.350  33.553  29.405  1.00  0.00    -0.237 OA
ATOM     83  O   UNL A   1      34.424  32.353  30.369  1.00  0.00    -0.744 OA
ENDBRANCH  76  80
ENDBRANCH  49  73
BRANCH  61  84
ATOM     84  C   UNL A   1      44.907  33.566  29.449  1.00  0.00     0.023 A 
ATOM     85  C   UNL A   1      44.814  34.627  28.534  1.00  0.00     0.031 A 
ATOM     86  C   UNL A   1      45.534  33.806  30.685  1.00  0.00     0.131 A 
ATOM     87  C   UNL A   1      45.377  35.874  28.852  1.00  0.00     0.055 A 
ATOM     88  C   UNL A   1      46.048  35.060  31.016  1.00  0.00     0.041 A 
ATOM     89  F   UNL A   1      45.650  32.824  31.593  1.00  0.00    -0.206 F 
ATOM     90  C   UNL A   1      45.980  36.100  30.093  1.00  0.00     0.022 A 
BRANCH  87  91
ATOM     91  S   UNL A   1      45.368  37.182  27.597  1.00  0.00     0.124 S 
ATOM     92  O   UNL A   1      45.784  36.459  26.400  1.00  0.00    -0.237 OA
ATOM     93  O   UNL A   1      43.980  37.631  27.621  1.00  0.00    -0.237 OA
ATOM     94  O   UNL A   1      46.339  38.151  28.104  1.00  0.00    -0.744 OA
ENDBRANCH  87  91
ENDBRANCH  61  84
ENDBRANCH  35  36
ENDBRANCH  27  30
ENDBRANCH  25  26
ENDBRANCH  24  25
ENDBRANCH   1  24
TORSDOF 17
ENDMDL
MODEL 3
REMARK VINA RESULT:     -11.7      1.842      3.899
REMARK SMILES C[C@@H](Nc1ccc(C(=O)NCCCCNC(=O)c2ccc(-c3c4nc(c(-c5cc(S(=O)(=O)[O-])ccc5F)c5ccc([nH]5)c(-c5cc(S(=O)(=O)[O-])ccc5F)c5nc(c(-c6cc(S(=O)(=O)[O-])ccc6F)c6ccc3[nH]6)C=C5)C=C4)cc2)c(F)c1F)C(N)=O
REMARK SMILES IDX 12 1 11 2 10 3 8 4 9 5 7 7 4 8 5 9 83 10 6 11 81 12 84 13
REMARK SMILES IDX 82 14 3 15 2 17 1 18 85 19 86 20 87 21 13 24 14 25 15 26
REMARK SMILES IDX 16 27 17 29 18 30 19 31 80 32 20 33 79 34 21 35 22 36 23 37
REMARK SMILES IDX 73 38 24 39 78 40 72 41 74 42 25 43 77 44 71 45 70 46 26 48
REMARK SMILES IDX 58 49 38 50 57 51 39 52 42 53 56 54 75 55 40 56 41 57 55 59
REMARK SMILES IDX 76 60 43 61 27 62 28 63 36 64 29 65 35 66 37 67 34 68 30 69
REMARK SMILES IDX 31 70 32 71 33 72 59 73 60 74 68 75 61 76 67 77 69 78 66 79
REMARK SMILES IDX 62 80 63 81 64 82 65 83 44 84 45 85 53 86 46 87 52 88 54 89
REMARK SMILES IDX 51 90 47 91 48 92 49 93 50 94
REMARK H PARENT 10 6 3 16 86 22 86 23 15 28 74 47 42 58
REMARK Flexibility Score: inf
ROOT
ATOM      1  C   UNL A   1      34.726  21.278  25.124  1.00  0.00     0.023 C 
ENDROOT
BRANCH   1   2
ATOM      2  C   UNL A   1      33.205  21.199  25.020  1.00  0.00     0.116 C 
BRANCH   2   3
ATOM      3  N   UNL A   1      32.509  21.630  26.219  1.00  0.00    -0.352 N 
ATOM      4  C   UNL A   1      31.961  22.846  26.541  1.00  0.00     0.254 C 
ATOM      5  O   UNL A   1      31.395  22.975  27.626  1.00  0.00    -0.269 OA
ATOM      6  H   UNL A   1      32.416  20.938  26.913  1.00  0.00     0.163 HD
BRANCH   4   7
ATOM      7  C   UNL A   1      32.095  24.036  25.674  1.00  0.00     0.078 A 
ATOM      8  C   UNL A   1      32.537  26.369  24.107  1.00  0.00     0.074 A 
ATOM      9  C   UNL A   1      33.131  26.218  25.358  1.00  0.00     0.030 A 
ATOM     10  C   UNL A   1      31.649  25.353  23.706  1.00  0.00     0.182 A 
ATOM     11  C   UNL A   1      32.925  25.067  26.131  1.00  0.00     0.019 A 
ATOM     12  C   UNL A   1      31.410  24.218  24.482  1.00  0.00     0.173 A 
ATOM     13  F   UNL A   1      31.013  25.479  22.526  1.00  0.00    -0.201 F 
ATOM     14  F   UNL A   1      30.500  23.328  24.056  1.00  0.00    -0.203 F 
BRANCH   8  15
ATOM     15  N   UNL A   1      32.751  27.456  23.273  1.00  0.00    -0.371 N 
ATOM     16  H   UNL A   1      33.433  27.330  22.574  1.00  0.00     0.161 HD
BRANCH  15  17
ATOM     17  C   UNL A   1      32.093  28.778  23.294  1.00  0.00     0.165 C 
ATOM     18  C   UNL A   1      31.726  29.135  24.735  1.00  0.00     0.041 C 
BRANCH  17  19
ATOM     19  C   UNL A   1      30.849  28.951  22.406  1.00  0.00     0.239 C 
ATOM     20  N   UNL A   1      30.837  30.078  21.626  1.00  0.00    -0.368 N 
ATOM     21  O   UNL A   1      29.903  28.171  22.367  1.00  0.00    -0.273 OA
ATOM     22  H   UNL A   1      31.595  30.706  21.657  1.00  0.00     0.159 HD
ATOM     23  H   UNL A   1      30.070  30.260  21.036  1.00  0.00     0.159 HD
ENDBRANCH  17  19
ENDBRANCH  15  17
ENDBRANCH   8  15
ENDBRANCH   4   7
ENDBRANCH   2   3
ENDBRANCH   1   2
BRANCH   1  24
ATOM     24  C   UNL A   1      35.386  22.524  24.536  1.00  0.00     0.023 C 
BRANCH  24  25
ATOM     25  C   UNL A   1      36.861  22.401  24.175  1.00  0.00     0.116 C 
BRANCH  25  26
ATOM     26  N   UNL A   1      37.479  21.174  24.653  1.00  0.00    -0.352 N 
ATOM     27  C   UNL A   1      38.533  21.000  25.525  1.00  0.00     0.251 C 
ATOM     28  H   UNL A   1      37.087  20.343  24.300  1.00  0.00     0.163 HD
ATOM     29  O   UNL A   1      38.969  19.877  25.738  1.00  0.00    -0.269 OA
BRANCH  27  30
ATOM     30  C   UNL A   1      39.163  22.181  26.161  1.00  0.00     0.039 A 
ATOM     31  C   UNL A   1      40.401  22.029  26.789  1.00  0.00     0.014 A 
ATOM     32  C   UNL A   1      38.557  23.437  26.100  1.00  0.00     0.014 A 
ATOM     33  C   UNL A   1      41.080  23.155  27.264  1.00  0.00     0.010 A 
ATOM     34  C   UNL A   1      39.268  24.564  26.501  1.00  0.00     0.010 A 
ATOM     35  C   UNL A   1      40.544  24.437  27.074  1.00  0.00    -0.014 A 
BRANCH  35  36
ATOM     36  C   UNL A   1      41.291  25.667  27.452  1.00  0.00     0.031 A 
ATOM     37  C   UNL A   1      40.617  26.725  28.283  1.00  0.00     0.074 A 
ATOM     38  C   UNL A   1      42.531  25.879  26.965  1.00  0.00     0.049 A 
ATOM     39  N   UNL A   1      41.021  27.934  28.577  1.00  0.00    -0.248 NA
ATOM     40  C   UNL A   1      39.291  26.385  28.820  1.00  0.00     0.031 C 
ATOM     41  C   UNL A   1      43.281  24.946  26.120  1.00  0.00     0.029 A 
ATOM     42  N   UNL A   1      43.373  26.956  27.093  1.00  0.00    -0.354 N 
ATOM     43  C   UNL A   1      39.988  28.511  29.307  1.00  0.00     0.074 A 
ATOM     44  C   UNL A   1      38.920  27.534  29.363  1.00  0.00     0.031 C 
ATOM     45  C   UNL A   1      44.472  25.486  25.816  1.00  0.00     0.029 A 
ATOM     46  C   UNL A   1      44.555  26.821  26.399  1.00  0.00     0.049 A 
ATOM     47  H   UNL A   1      43.153  27.751  27.631  1.00  0.00     0.167 HD
ATOM     48  C   UNL A   1      39.941  29.734  29.892  1.00  0.00     0.034 A 
ATOM     49  C   UNL A   1      45.578  27.684  26.232  1.00  0.00     0.034 A 
ATOM     50  C   UNL A   1      41.025  30.685  29.848  1.00  0.00     0.049 A 
ATOM     51  C   UNL A   1      45.503  29.041  26.885  1.00  0.00     0.074 A 
ATOM     52  C   UNL A   1      41.108  31.928  30.452  1.00  0.00     0.029 A 
ATOM     53  N   UNL A   1      42.218  30.499  29.159  1.00  0.00    -0.354 N 
ATOM     54  N   UNL A   1      44.531  29.560  27.600  1.00  0.00    -0.248 NA
ATOM     55  C   UNL A   1      46.663  29.926  26.713  1.00  0.00     0.031 C 
ATOM     56  C   UNL A   1      42.324  32.515  30.085  1.00  0.00     0.029 A 
ATOM     57  C   UNL A   1      43.031  31.612  29.308  1.00  0.00     0.049 A 
ATOM     58  H   UNL A   1      42.451  29.695  28.642  1.00  0.00     0.167 HD
ATOM     59  C   UNL A   1      44.981  30.818  27.992  1.00  0.00     0.074 A 
ATOM     60  C   UNL A   1      46.310  30.978  27.437  1.00  0.00     0.031 C 
ATOM     61  C   UNL A   1      44.355  31.754  28.748  1.00  0.00     0.034 A 
BRANCH  48  62
ATOM     62  C   UNL A   1      38.665  30.112  30.603  1.00  0.00     0.023 A 
ATOM     63  C   UNL A   1      37.635  30.811  29.949  1.00  0.00     0.031 A 
ATOM     64  C   UNL A   1      38.490  29.807  31.965  1.00  0.00     0.131 A 
ATOM     65  C   UNL A   1      36.520  31.257  30.674  1.00  0.00     0.055 A 
ATOM     66  C   UNL A   1      37.337  30.179  32.660  1.00  0.00     0.041 A 
ATOM     67  F   UNL A   1      39.446  29.158  32.648  1.00  0.00    -0.206 F 
ATOM     68  C   UNL A   1      36.352  30.924  32.019  1.00  0.00     0.022 A 
BRANCH  65  69
ATOM     69  S   UNL A   1      35.371  32.407  29.870  1.00  0.00     0.124 S 
ATOM     70  O   UNL A   1      36.259  33.515  29.524  1.00  0.00    -0.237 OA
ATOM     71  O   UNL A   1      34.867  31.619  28.751  1.00  0.00    -0.237 OA
ATOM     72  O   UNL A   1      34.395  32.703  30.916  1.00  0.00    -0.744 OA
ENDBRANCH  65  69
ENDBRANCH  48  62
BRANCH  49  73
ATOM     73  C   UNL A   1      46.758  27.305  25.402  1.00  0.00     0.023 A 
ATOM     74  C   UNL A   1      46.920  27.816  24.104  1.00  0.00     0.031 A 
ATOM     75  C   UNL A   1      47.718  26.395  25.877  1.00  0.00     0.131 A 
ATOM     76  C   UNL A   1      47.990  27.380  23.309  1.00  0.00     0.055 A 
ATOM     77  C   UNL A   1      48.808  26.001  25.100  1.00  0.00     0.041 A 
ATOM     78  F   UNL A   1      47.613  25.882  27.113  1.00  0.00    -0.206 F 
ATOM     79  C   UNL A   1      48.943  26.485  23.801  1.00  0.00     0.022 A 
BRANCH  76  80
ATOM     80  S   UNL A   1      48.076  27.942  21.586  1.00  0.00     0.124 S 
ATOM     81  O   UNL A   1      49.217  28.850  21.626  1.00  0.00    -0.237 OA
ATOM     82  O   UNL A   1      48.278  26.688  20.868  1.00  0.00    -0.237 OA
ATOM     83  O   UNL A   1      46.778  28.578  21.371  1.00  0.00    -0.744 OA
ENDBRANCH  76  80
ENDBRANCH  49  73
BRANCH  61  84
ATOM     84  C   UNL A   1      45.128  33.006  29.072  1.00  0.00     0.023 A 
ATOM     85  C   UNL A   1      45.025  34.167  28.287  1.00  0.00     0.031 A 
ATOM     86  C   UNL A   1      45.978  33.035  30.192  1.00  0.00     0.131 A 
ATOM     87  C   UNL A   1      45.792  35.298  28.610  1.00  0.00     0.055 A 
ATOM     88  C   UNL A   1      46.699  34.178  30.538  1.00  0.00     0.041 A 
ATOM     89  F   UNL A   1      46.112  31.952  30.974  1.00  0.00    -0.206 F 
ATOM     90  C   UNL A   1      46.616  35.315  29.739  1.00  0.00     0.022 A 
BRANCH  87  91
ATOM     91  S   UNL A   1      45.747  36.730  27.499  1.00  0.00     0.124 S 
ATOM     92  O   UNL A   1      46.890  36.475  26.627  1.00  0.00    -0.237 OA
ATOM     93  O   UNL A   1      44.432  36.605  26.878  1.00  0.00    -0.237 OA
ATOM     94  O   UNL A   1      45.899  37.870  28.401  1.00  0.00    -0.744 OA
ENDBRANCH  87  91
ENDBRANCH  61  84
ENDBRANCH  35  36
ENDBRANCH  27  30
ENDBRANCH  25  26
ENDBRANCH  24  25
ENDBRANCH   1  24
TORSDOF 17
ENDMDL
