MODEL 1
REMARK VINA RESULT:     -11.7      0.000      0.000
REMARK SMILES O=C(NCCCCNC(=O)[C@H](C[NH+]1CCCC1)c1ccc(Br)cc1)c1ccc(-c2c3nc(c(-c4cc(S(=O)(=O)[O-])ccc4F)c4ccc([nH]4)c(-c4cc(S(=O)(=O)[O-])ccc4F)c4nc(c(-c5cc(S(=O)(=O)[O-])ccc5F)c5ccc2[nH]5)C=C4)C=C3)cc1
REMARK SMILES IDX 5 1 4 2 3 3 1 4 2 5 25 7 26 8 87 9 27 10 86 11 28 12 29 13
REMARK SMILES IDX 30 14 80 15 31 16 85 17 79 18 81 19 32 20 84 21 78 22 77 23
REMARK SMILES IDX 33 25 65 26 45 27 64 28 46 29 49 30 63 31 82 32 47 33 48 34
REMARK SMILES IDX 62 36 83 37 50 38 34 39 35 40 43 41 36 42 42 43 44 44 41 45
REMARK SMILES IDX 37 46 38 47 39 48 40 49 66 50 67 51 75 52 68 53 74 54 76 55
REMARK SMILES IDX 73 56 69 57 70 58 71 59 72 60 51 61 52 62 60 63 53 64 59 65
REMARK SMILES IDX 61 66 58 67 54 68 55 69 56 70 57 71 6 72 7 73 8 74 9 75
REMARK SMILES IDX 10 77 11 78 18 79 19 80 24 81 20 82 23 83 21 84 22 85 12 86
REMARK SMILES IDX 13 87 14 88 17 89 15 91 16 92
REMARK H PARENT 3 6 81 24 49 35 8 76 13 90
REMARK Flexibility Score: inf
ROOT
ATOM      1  C   UNL A   1      31.494  29.316  26.244  1.00  0.00     0.023 C 
ENDROOT
BRANCH   1   2
ATOM      2  C   UNL A   1      32.630  30.314  26.063  1.00  0.00     0.116 C 
BRANCH   2   3
ATOM      3  N   UNL A   1      32.363  31.630  26.638  1.00  0.00    -0.352 N 
ATOM      4  O   UNL A   1      32.746  33.453  27.925  1.00  0.00    -0.269 OA
ATOM      5  C   UNL A   1      33.160  32.397  27.464  1.00  0.00     0.251 C 
ATOM      6  H   UNL A   1      31.494  32.026  26.403  1.00  0.00     0.163 HD
BRANCH   5   7
ATOM      7  C   UNL A   1      34.505  31.898  27.818  1.00  0.00     0.039 A 
ATOM      8  C   UNL A   1      34.678  30.555  28.150  1.00  0.00     0.014 A 
ATOM      9  C   UNL A   1      35.567  32.799  27.934  1.00  0.00     0.014 A 
ATOM     10  C   UNL A   1      35.825  30.170  28.827  1.00  0.00     0.010 A 
ATOM     11  C   UNL A   1      36.772  32.371  28.501  1.00  0.00     0.010 A 
ATOM     12  C   UNL A   1      36.886  31.072  29.020  1.00  0.00    -0.014 A 
BRANCH  12  13
ATOM     13  C   UNL A   1      38.079  30.623  29.789  1.00  0.00     0.031 A 
ATOM     14  C   UNL A   1      38.270  31.013  31.234  1.00  0.00     0.074 A 
ATOM     15  C   UNL A   1      38.953  29.785  29.197  1.00  0.00     0.049 A 
ATOM     16  N   UNL A   1      39.233  30.683  32.059  1.00  0.00    -0.248 NA
ATOM     17  C   UNL A   1      37.259  31.902  31.826  1.00  0.00     0.031 C 
ATOM     18  C   UNL A   1      38.872  29.334  27.805  1.00  0.00     0.029 A 
ATOM     19  N   UNL A   1      40.050  29.128  29.693  1.00  0.00    -0.354 N 
ATOM     20  C   UNL A   1      38.973  31.358  33.248  1.00  0.00     0.074 A 
ATOM     21  C   UNL A   1      37.768  32.132  33.029  1.00  0.00     0.031 C 
ATOM     22  C   UNL A   1      39.817  28.409  27.585  1.00  0.00     0.029 A 
ATOM     23  C   UNL A   1      40.626  28.267  28.789  1.00  0.00     0.049 A 
ATOM     24  H   UNL A   1      40.391  29.260  30.607  1.00  0.00     0.167 HD
ATOM     25  C   UNL A   1      39.672  31.333  34.412  1.00  0.00     0.034 A 
ATOM     26  C   UNL A   1      41.695  27.457  28.907  1.00  0.00     0.034 A 
ATOM     27  C   UNL A   1      40.849  30.523  34.624  1.00  0.00     0.049 A 
ATOM     28  C   UNL A   1      42.442  27.435  30.209  1.00  0.00     0.074 A 
ATOM     29  C   UNL A   1      41.617  30.397  35.771  1.00  0.00     0.029 A 
ATOM     30  N   UNL A   1      41.428  29.695  33.671  1.00  0.00    -0.354 N 
ATOM     31  N   UNL A   1      42.192  28.098  31.314  1.00  0.00    -0.248 NA
ATOM     32  C   UNL A   1      43.617  26.559  30.277  1.00  0.00     0.031 C 
ATOM     33  C   UNL A   1      42.688  29.538  35.494  1.00  0.00     0.029 A 
ATOM     34  C   UNL A   1      42.554  29.074  34.196  1.00  0.00     0.049 A 
ATOM     35  H   UNL A   1      41.090  29.566  32.756  1.00  0.00     0.167 HD
ATOM     36  C   UNL A   1      43.179  27.711  32.215  1.00  0.00     0.074 A 
ATOM     37  C   UNL A   1      44.007  26.738  31.531  1.00  0.00     0.031 C 
ATOM     38  C   UNL A   1      43.381  28.123  33.493  1.00  0.00     0.034 A 
BRANCH  25  39
ATOM     39  C   UNL A   1      39.212  32.253  35.521  1.00  0.00     0.023 A 
ATOM     40  C   UNL A   1      39.636  33.590  35.611  1.00  0.00     0.031 A 
ATOM     41  C   UNL A   1      38.357  31.767  36.528  1.00  0.00     0.131 A 
ATOM     42  C   UNL A   1      39.266  34.370  36.719  1.00  0.00     0.055 A 
ATOM     43  C   UNL A   1      37.929  32.572  37.587  1.00  0.00     0.041 A 
ATOM     44  F   UNL A   1      37.934  30.493  36.509  1.00  0.00    -0.206 F 
ATOM     45  C   UNL A   1      38.397  33.878  37.695  1.00  0.00     0.022 A 
BRANCH  42  46
ATOM     46  S   UNL A   1      40.058  35.987  36.946  1.00  0.00     0.124 S 
ATOM     47  O   UNL A   1      39.802  36.626  35.657  1.00  0.00    -0.237 OA
ATOM     48  O   UNL A   1      39.333  36.535  38.086  1.00  0.00    -0.237 OA
ATOM     49  O   UNL A   1      41.458  35.652  37.198  1.00  0.00    -0.744 OA
ENDBRANCH  42  46
ENDBRANCH  25  39
BRANCH  26  50
ATOM     50  C   UNL A   1      42.132  26.627  27.751  1.00  0.00     0.023 A 
ATOM     51  C   UNL A   1      41.739  25.285  27.635  1.00  0.00     0.031 A 
ATOM     52  C   UNL A   1      42.950  27.167  26.743  1.00  0.00     0.131 A 
ATOM     53  C   UNL A   1      42.187  24.519  26.547  1.00  0.00     0.055 A 
ATOM     54  C   UNL A   1      43.352  26.416  25.639  1.00  0.00     0.041 A 
ATOM     55  F   UNL A   1      43.346  28.449  26.805  1.00  0.00    -0.206 F 
ATOM     56  C   UNL A   1      42.978  25.081  25.541  1.00  0.00     0.022 A 
BRANCH  53  57
ATOM     57  S   UNL A   1      41.762  22.758  26.492  1.00  0.00     0.124 S 
ATOM     58  O   UNL A   1      40.304  22.801  26.522  1.00  0.00    -0.237 OA
ATOM     59  O   UNL A   1      42.366  22.340  25.230  1.00  0.00    -0.237 OA
ATOM     60  O   UNL A   1      42.397  22.217  27.692  1.00  0.00    -0.744 OA
ENDBRANCH  53  57
ENDBRANCH  26  50
BRANCH  38  61
ATOM     61  C   UNL A   1      44.533  27.486  34.227  1.00  0.00     0.023 A 
ATOM     62  C   UNL A   1      44.371  26.293  34.953  1.00  0.00     0.031 A 
ATOM     63  C   UNL A   1      45.793  28.106  34.238  1.00  0.00     0.131 A 
ATOM     64  C   UNL A   1      45.438  25.791  35.715  1.00  0.00     0.055 A 
ATOM     65  C   UNL A   1      46.866  27.573  34.953  1.00  0.00     0.041 A 
ATOM     66  F   UNL A   1      45.998  29.248  33.563  1.00  0.00    -0.206 F 
ATOM     67  C   UNL A   1      46.687  26.417  35.709  1.00  0.00     0.022 A 
BRANCH  64  68
ATOM     68  S   UNL A   1      45.139  24.367  36.798  1.00  0.00     0.124 S 
ATOM     69  O   UNL A   1      44.537  23.406  35.878  1.00  0.00    -0.237 OA
ATOM     70  O   UNL A   1      46.482  24.046  37.268  1.00  0.00    -0.237 OA
ATOM     71  O   UNL A   1      44.235  24.896  37.818  1.00  0.00    -0.744 OA
ENDBRANCH  64  68
ENDBRANCH  38  61
ENDBRANCH  12  13
ENDBRANCH   5   7
ENDBRANCH   2   3
ENDBRANCH   1   2
BRANCH   1  72
ATOM     72  C   UNL A   1      31.783  28.185  27.218  1.00  0.00     0.023 C 
BRANCH  72  73
ATOM     73  C   UNL A   1      31.842  26.799  26.585  1.00  0.00     0.116 C 
BRANCH  73  74
ATOM     74  N   UNL A   1      32.862  26.704  25.558  1.00  0.00    -0.355 N 
ATOM     75  C   UNL A   1      32.729  26.370  24.235  1.00  0.00     0.233 C 
ATOM     76  H   UNL A   1      33.778  26.906  25.852  1.00  0.00     0.163 HD
ATOM     77  O   UNL A   1      33.744  26.341  23.538  1.00  0.00    -0.274 OA
BRANCH  75  78
ATOM     78  C   UNL A   1      31.338  26.021  23.683  1.00  0.00     0.163 C 
BRANCH  78  79
ATOM     79  C   UNL A   1      30.591  27.281  23.227  1.00  0.00    -0.030 A 
ATOM     80  C   UNL A   1      29.200  27.343  23.447  1.00  0.00     0.006 A 
ATOM     81  C   UNL A   1      31.211  28.389  22.632  1.00  0.00     0.006 A 
ATOM     82  C   UNL A   1      28.453  28.458  23.059  1.00  0.00     0.016 A 
ATOM     83  C   UNL A   1      30.464  29.503  22.234  1.00  0.00     0.016 A 
ATOM     84  C   UNL A   1      29.089  29.532  22.445  1.00  0.00     0.017 A 
ATOM     85  Br  UNL A   1      28.086  31.039  21.903  1.00  0.00    -0.051 Br
ENDBRANCH  78  79
BRANCH  78  86
ATOM     86  C   UNL A   1      31.508  24.855  22.663  1.00  0.00     0.280 C 
BRANCH  86  87
ATOM     87  N   UNL A   1      31.387  23.457  23.121  1.00  0.00    -0.334 N 
ATOM     88  C   UNL A   1      31.063  23.214  24.522  1.00  0.00     0.262 C 
ATOM     89  C   UNL A   1      32.507  22.592  22.744  1.00  0.00     0.262 C 
ATOM     90  H   UNL A   1      30.550  23.202  22.597  1.00  0.00     0.348 HD
ATOM     91  C   UNL A   1      32.339  22.676  25.145  1.00  0.00     0.067 C 
ATOM     92  C   UNL A   1      32.997  21.913  24.014  1.00  0.00     0.067 C 
ENDBRANCH  86  87
ENDBRANCH  78  86
ENDBRANCH  75  78
ENDBRANCH  73  74
ENDBRANCH  72  73
ENDBRANCH   1  72
TORSDOF 17
ENDMDL
MODEL 2
REMARK VINA RESULT:     -11.5      1.801      3.035
REMARK SMILES O=C(NCCCCNC(=O)[C@H](C[NH+]1CCCC1)c1ccc(Br)cc1)c1ccc(-c2c3nc(c(-c4cc(S(=O)(=O)[O-])ccc4F)c4ccc([nH]4)c(-c4cc(S(=O)(=O)[O-])ccc4F)c4nc(c(-c5cc(S(=O)(=O)[O-])ccc5F)c5ccc2[nH]5)C=C4)C=C3)cc1
REMARK SMILES IDX 5 1 4 2 3 3 1 4 2 5 25 7 26 8 87 9 27 10 86 11 28 12 29 13
REMARK SMILES IDX 30 14 80 15 31 16 85 17 79 18 81 19 32 20 84 21 78 22 77 23
REMARK SMILES IDX 33 25 65 26 45 27 64 28 46 29 49 30 63 31 82 32 47 33 48 34
REMARK SMILES IDX 62 36 83 37 50 38 34 39 35 40 43 41 36 42 42 43 44 44 41 45
REMARK SMILES IDX 37 46 38 47 39 48 40 49 66 50 67 51 75 52 68 53 74 54 76 55
REMARK SMILES IDX 73 56 69 57 70 58 71 59 72 60 51 61 52 62 60 63 53 64 59 65
REMARK SMILES IDX 61 66 58 67 54 68 55 69 56 70 57 71 6 72 7 73 8 74 9 75
REMARK SMILES IDX 10 77 11 78 18 79 19 80 24 81 20 82 23 83 21 84 22 85 12 86
REMARK SMILES IDX 13 87 14 88 17 89 15 91 16 92
REMARK H PARENT 3 6 81 24 49 35 8 76 13 90
REMARK Flexibility Score: inf
ROOT
ATOM      1  C   UNL A   1      31.549  29.698  27.030  1.00  0.00     0.023 C 
ENDROOT
BRANCH   1   2
ATOM      2  C   UNL A   1      32.417  30.736  26.332  1.00  0.00     0.116 C 
BRANCH   2   3
ATOM      3  N   UNL A   1      32.260  32.091  26.854  1.00  0.00    -0.352 N 
ATOM      4  O   UNL A   1      32.811  33.940  28.037  1.00  0.00    -0.269 OA
ATOM      5  C   UNL A   1      33.137  32.840  27.613  1.00  0.00     0.251 C 
ATOM      6  H   UNL A   1      31.409  32.534  26.632  1.00  0.00     0.163 HD
BRANCH   5   7
ATOM      7  C   UNL A   1      34.460  32.268  27.939  1.00  0.00     0.039 A 
ATOM      8  C   UNL A   1      34.558  30.933  28.328  1.00  0.00     0.014 A 
ATOM      9  C   UNL A   1      35.582  33.101  27.974  1.00  0.00     0.014 A 
ATOM     10  C   UNL A   1      35.704  30.503  28.980  1.00  0.00     0.010 A 
ATOM     11  C   UNL A   1      36.778  32.620  28.516  1.00  0.00     0.010 A 
ATOM     12  C   UNL A   1      36.828  31.341  29.091  1.00  0.00    -0.014 A 
BRANCH  12  13
ATOM     13  C   UNL A   1      38.020  30.847  29.836  1.00  0.00     0.031 A 
ATOM     14  C   UNL A   1      38.237  31.203  31.286  1.00  0.00     0.074 A 
ATOM     15  C   UNL A   1      38.866  30.001  29.217  1.00  0.00     0.049 A 
ATOM     16  N   UNL A   1      39.201  30.834  32.092  1.00  0.00    -0.248 NA
ATOM     17  C   UNL A   1      37.255  32.104  31.908  1.00  0.00     0.031 C 
ATOM     18  C   UNL A   1      38.757  29.580  27.817  1.00  0.00     0.029 A 
ATOM     19  N   UNL A   1      39.952  29.308  29.685  1.00  0.00    -0.354 N 
ATOM     20  C   UNL A   1      38.972  31.491  33.297  1.00  0.00     0.074 A 
ATOM     21  C   UNL A   1      37.784  32.298  33.109  1.00  0.00     0.031 C 
ATOM     22  C   UNL A   1      39.677  28.638  27.567  1.00  0.00     0.029 A 
ATOM     23  C   UNL A   1      40.497  28.452  28.757  1.00  0.00     0.049 A 
ATOM     24  H   UNL A   1      40.307  29.413  30.597  1.00  0.00     0.167 HD
ATOM     25  C   UNL A   1      39.684  31.426  34.452  1.00  0.00     0.034 A 
ATOM     26  C   UNL A   1      41.547  27.615  28.846  1.00  0.00     0.034 A 
ATOM     27  C   UNL A   1      40.844  30.584  34.633  1.00  0.00     0.049 A 
ATOM     28  C   UNL A   1      42.309  27.548  30.137  1.00  0.00     0.074 A 
ATOM     29  C   UNL A   1      41.623  30.417  35.767  1.00  0.00     0.029 A 
ATOM     30  N   UNL A   1      41.392  29.762  33.656  1.00  0.00    -0.354 N 
ATOM     31  N   UNL A   1      42.089  28.195  31.259  1.00  0.00    -0.248 NA
ATOM     32  C   UNL A   1      43.464  26.644  30.173  1.00  0.00     0.031 C 
ATOM     33  C   UNL A   1      42.669  29.538  35.459  1.00  0.00     0.029 A 
ATOM     34  C   UNL A   1      42.508  29.103  34.155  1.00  0.00     0.049 A 
ATOM     35  H   UNL A   1      41.040  29.660  32.743  1.00  0.00     0.167 HD
ATOM     36  C   UNL A   1      43.076  27.766  32.140  1.00  0.00     0.074 A 
ATOM     37  C   UNL A   1      43.872  26.788  31.425  1.00  0.00     0.031 C 
ATOM     38  C   UNL A   1      43.304  28.148  33.422  1.00  0.00     0.034 A 
BRANCH  25  39
ATOM     39  C   UNL A   1      39.261  32.334  35.585  1.00  0.00     0.023 A 
ATOM     40  C   UNL A   1      39.674  33.675  35.666  1.00  0.00     0.031 A 
ATOM     41  C   UNL A   1      38.451  31.832  36.621  1.00  0.00     0.131 A 
ATOM     42  C   UNL A   1      39.341  34.444  36.793  1.00  0.00     0.055 A 
ATOM     43  C   UNL A   1      38.058  32.627  37.702  1.00  0.00     0.041 A 
ATOM     44  F   UNL A   1      38.040  30.555  36.611  1.00  0.00    -0.206 F 
ATOM     45  C   UNL A   1      38.517  33.936  37.800  1.00  0.00     0.022 A 
BRANCH  42  46
ATOM     46  S   UNL A   1      40.125  36.067  37.000  1.00  0.00     0.124 S 
ATOM     47  O   UNL A   1      41.516  35.695  37.253  1.00  0.00    -0.237 OA
ATOM     48  O   UNL A   1      39.860  36.709  35.718  1.00  0.00    -0.237 OA
ATOM     49  O   UNL A   1      39.425  36.645  38.145  1.00  0.00    -0.744 OA
ENDBRANCH  42  46
ENDBRANCH  25  39
BRANCH  26  50
ATOM     50  C   UNL A   1      41.950  26.798  27.668  1.00  0.00     0.023 A 
ATOM     51  C   UNL A   1      41.628  25.434  27.590  1.00  0.00     0.031 A 
ATOM     52  C   UNL A   1      42.663  27.373  26.601  1.00  0.00     0.131 A 
ATOM     53  C   UNL A   1      42.043  24.684  26.478  1.00  0.00     0.055 A 
ATOM     54  C   UNL A   1      43.031  26.634  25.477  1.00  0.00     0.041 A 
ATOM     55  F   UNL A   1      42.987  28.676  26.625  1.00  0.00    -0.206 F 
ATOM     56  C   UNL A   1      42.729  25.278  25.416  1.00  0.00     0.022 A 
BRANCH  53  57
ATOM     57  S   UNL A   1      41.719  22.900  26.466  1.00  0.00     0.124 S 
ATOM     58  O   UNL A   1      42.397  22.465  27.682  1.00  0.00    -0.237 OA
ATOM     59  O   UNL A   1      40.260  22.857  26.493  1.00  0.00    -0.237 OA
ATOM     60  O   UNL A   1      42.329  22.453  25.215  1.00  0.00    -0.744 OA
ENDBRANCH  53  57
ENDBRANCH  26  50
BRANCH  38  61
ATOM     61  C   UNL A   1      44.449  27.468  34.130  1.00  0.00     0.023 A 
ATOM     62  C   UNL A   1      44.257  26.294  34.876  1.00  0.00     0.031 A 
ATOM     63  C   UNL A   1      45.735  28.032  34.092  1.00  0.00     0.131 A 
ATOM     64  C   UNL A   1      45.324  25.754  35.611  1.00  0.00     0.055 A 
ATOM     65  C   UNL A   1      46.805  27.460  34.781  1.00  0.00     0.041 A 
ATOM     66  F   UNL A   1      45.969  29.155  33.395  1.00  0.00    -0.206 F 
ATOM     67  C   UNL A   1      46.599  26.323  35.559  1.00  0.00     0.022 A 
BRANCH  64  68
ATOM     68  S   UNL A   1      44.996  24.358  36.723  1.00  0.00     0.124 S 
ATOM     69  O   UNL A   1      46.339  24.006  37.174  1.00  0.00    -0.237 OA
ATOM     70  O   UNL A   1      44.122  24.958  37.726  1.00  0.00    -0.237 OA
ATOM     71  O   UNL A   1      44.356  23.371  35.854  1.00  0.00    -0.744 OA
ENDBRANCH  64  68
ENDBRANCH  38  61
ENDBRANCH  12  13
ENDBRANCH   5   7
ENDBRANCH   2   3
ENDBRANCH   1   2
BRANCH   1  72
ATOM     72  C   UNL A   1      32.243  28.380  27.332  1.00  0.00     0.023 C 
BRANCH  72  73
ATOM     73  C   UNL A   1      31.909  27.248  26.366  1.00  0.00     0.116 C 
BRANCH  73  74
ATOM     74  N   UNL A   1      31.660  25.993  27.050  1.00  0.00    -0.355 N 
ATOM     75  C   UNL A   1      31.778  24.712  26.576  1.00  0.00     0.233 C 
ATOM     76  H   UNL A   1      31.365  26.073  27.985  1.00  0.00     0.163 HD
ATOM     77  O   UNL A   1      31.502  23.783  27.337  1.00  0.00    -0.274 OA
BRANCH  75  78
ATOM     78  C   UNL A   1      32.217  24.484  25.122  1.00  0.00     0.163 C 
BRANCH  78  79
ATOM     79  C   UNL A   1      33.458  23.586  25.053  1.00  0.00    -0.030 A 
ATOM     80  C   UNL A   1      34.678  24.102  25.535  1.00  0.00     0.006 A 
ATOM     81  C   UNL A   1      33.449  22.272  24.566  1.00  0.00     0.006 A 
ATOM     82  C   UNL A   1      35.851  23.342  25.504  1.00  0.00     0.016 A 
ATOM     83  C   UNL A   1      34.623  21.511  24.525  1.00  0.00     0.016 A 
ATOM     84  C   UNL A   1      35.819  22.050  24.990  1.00  0.00     0.017 A 
ATOM     85  Br  UNL A   1      37.401  21.019  24.930  1.00  0.00    -0.051 Br
ENDBRANCH  78  79
BRANCH  78  86
ATOM     86  C   UNL A   1      30.959  24.068  24.302  1.00  0.00     0.280 C 
BRANCH  86  87
ATOM     87  N   UNL A   1      30.433  24.970  23.257  1.00  0.00    -0.334 N 
ATOM     88  C   UNL A   1      31.380  25.585  22.335  1.00  0.00     0.262 C 
ATOM     89  C   UNL A   1      29.521  26.004  23.748  1.00  0.00     0.262 C 
ATOM     90  H   UNL A   1      29.923  24.278  22.709  1.00  0.00     0.348 HD
ATOM     91  C   UNL A   1      31.435  27.051  22.728  1.00  0.00     0.067 C 
ATOM     92  C   UNL A   1      30.035  27.340  23.233  1.00  0.00     0.067 C 
ENDBRANCH  86  87
ENDBRANCH  78  86
ENDBRANCH  75  78
ENDBRANCH  73  74
ENDBRANCH  72  73
ENDBRANCH   1  72
TORSDOF 17
ENDMDL
MODEL 3
REMARK VINA RESULT:     -11.5      5.000      9.949
REMARK SMILES O=C(NCCCCNC(=O)[C@H](C[NH+]1CCCC1)c1ccc(Br)cc1)c1ccc(-c2c3nc(c(-c4cc(S(=O)(=O)[O-])ccc4F)c4ccc([nH]4)c(-c4cc(S(=O)(=O)[O-])ccc4F)c4nc(c(-c5cc(S(=O)(=O)[O-])ccc5F)c5ccc2[nH]5)C=C4)C=C3)cc1
REMARK SMILES IDX 5 1 4 2 3 3 1 4 2 5 25 7 26 8 87 9 27 10 86 11 28 12 29 13
REMARK SMILES IDX 30 14 80 15 31 16 85 17 79 18 81 19 32 20 84 21 78 22 77 23
REMARK SMILES IDX 33 25 65 26 45 27 64 28 46 29 49 30 63 31 82 32 47 33 48 34
REMARK SMILES IDX 62 36 83 37 50 38 34 39 35 40 43 41 36 42 42 43 44 44 41 45
REMARK SMILES IDX 37 46 38 47 39 48 40 49 66 50 67 51 75 52 68 53 74 54 76 55
REMARK SMILES IDX 73 56 69 57 70 58 71 59 72 60 51 61 52 62 60 63 53 64 59 65
REMARK SMILES IDX 61 66 58 67 54 68 55 69 56 70 57 71 6 72 7 73 8 74 9 75
REMARK SMILES IDX 10 77 11 78 18 79 19 80 24 81 20 82 23 83 21 84 22 85 12 86
REMARK SMILES IDX 13 87 14 88 17 89 15 91 16 92
REMARK H PARENT 3 6 81 24 49 35 8 76 13 90
REMARK Flexibility Score: inf
ROOT
ATOM      1  C   UNL A   1      36.245  22.380  23.918  1.00  0.00     0.023 C 
ENDROOT
BRANCH   1   2
ATOM      2  C   UNL A   1      36.739  22.055  25.320  1.00  0.00     0.116 C 
BRANCH   2   3
ATOM      3  N   UNL A   1      37.789  21.041  25.362  1.00  0.00    -0.352 N 
ATOM      4  O   UNL A   1      39.849  20.197  25.773  1.00  0.00    -0.269 OA
ATOM      5  C   UNL A   1      39.059  21.124  25.897  1.00  0.00     0.251 C 
ATOM      6  H   UNL A   1      37.560  20.177  24.950  1.00  0.00     0.163 HD
BRANCH   5   7
ATOM      7  C   UNL A   1      39.461  22.369  26.584  1.00  0.00     0.039 A 
ATOM      8  C   UNL A   1      38.928  23.589  26.169  1.00  0.00     0.014 A 
ATOM      9  C   UNL A   1      40.460  22.327  27.559  1.00  0.00     0.014 A 
ATOM     10  C   UNL A   1      39.562  24.763  26.542  1.00  0.00     0.010 A 
ATOM     11  C   UNL A   1      41.011  23.524  28.030  1.00  0.00     0.010 A 
ATOM     12  C   UNL A   1      40.617  24.750  27.472  1.00  0.00    -0.014 A 
BRANCH  12  13
ATOM     13  C   UNL A   1      41.293  26.033  27.810  1.00  0.00     0.031 A 
ATOM     14  C   UNL A   1      42.634  26.390  27.216  1.00  0.00     0.074 A 
ATOM     15  C   UNL A   1      40.647  26.919  28.594  1.00  0.00     0.049 A 
ATOM     16  N   UNL A   1      43.346  27.477  27.378  1.00  0.00    -0.248 NA
ATOM     17  C   UNL A   1      43.266  25.391  26.341  1.00  0.00     0.031 C 
ATOM     18  C   UNL A   1      39.344  26.688  29.223  1.00  0.00     0.029 A 
ATOM     19  N   UNL A   1      40.967  28.200  28.961  1.00  0.00    -0.354 N 
ATOM     20  C   UNL A   1      44.526  27.277  26.668  1.00  0.00     0.074 A 
ATOM     21  C   UNL A   1      44.440  25.952  26.089  1.00  0.00     0.031 C 
ATOM     22  C   UNL A   1      38.936  27.816  29.820  1.00  0.00     0.029 A 
ATOM     23  C   UNL A   1      39.983  28.821  29.694  1.00  0.00     0.049 A 
ATOM     24  H   UNL A   1      41.819  28.633  28.722  1.00  0.00     0.167 HD
ATOM     25  C   UNL A   1      45.581  28.119  26.514  1.00  0.00     0.034 A 
ATOM     26  C   UNL A   1      39.930  30.060  30.219  1.00  0.00     0.034 A 
ATOM     27  C   UNL A   1      45.631  29.453  27.066  1.00  0.00     0.049 A 
ATOM     28  C   UNL A   1      41.101  30.978  30.021  1.00  0.00     0.074 A 
ATOM     29  C   UNL A   1      46.634  30.401  26.947  1.00  0.00     0.029 A 
ATOM     30  N   UNL A   1      44.633  30.032  27.839  1.00  0.00    -0.354 N 
ATOM     31  N   UNL A   1      42.218  30.760  29.365  1.00  0.00    -0.248 NA
ATOM     32  C   UNL A   1      41.007  32.305  30.639  1.00  0.00     0.031 C 
ATOM     33  C   UNL A   1      46.266  31.529  27.691  1.00  0.00     0.029 A 
ATOM     34  C   UNL A   1      45.005  31.314  28.221  1.00  0.00     0.049 A 
ATOM     35  H   UNL A   1      43.784  29.598  28.082  1.00  0.00     0.167 HD
ATOM     36  C   UNL A   1      42.958  31.932  29.484  1.00  0.00     0.074 A 
ATOM     37  C   UNL A   1      42.147  32.857  30.251  1.00  0.00     0.031 C 
ATOM     38  C   UNL A   1      44.195  32.216  29.004  1.00  0.00     0.034 A 
BRANCH  25  39
ATOM     39  C   UNL A   1      46.786  27.596  25.766  1.00  0.00     0.023 A 
ATOM     40  C   UNL A   1      47.066  27.968  24.439  1.00  0.00     0.031 A 
ATOM     41  C   UNL A   1      47.655  26.679  26.387  1.00  0.00     0.131 A 
ATOM     42  C   UNL A   1      48.138  27.372  23.755  1.00  0.00     0.055 A 
ATOM     43  C   UNL A   1      48.766  26.149  25.726  1.00  0.00     0.041 A 
ATOM     44  F   UNL A   1      47.431  26.270  27.645  1.00  0.00    -0.206 F 
ATOM     45  C   UNL A   1      49.003  26.482  24.396  1.00  0.00     0.022 A 
BRANCH  42  46
ATOM     46  S   UNL A   1      48.295  27.658  21.970  1.00  0.00     0.124 S 
ATOM     47  O   UNL A   1      47.043  28.348  21.668  1.00  0.00    -0.237 OA
ATOM     48  O   UNL A   1      49.506  28.467  21.887  1.00  0.00    -0.237 OA
ATOM     49  O   UNL A   1      48.404  26.311  21.414  1.00  0.00    -0.744 OA
ENDBRANCH  42  46
ENDBRANCH  25  39
BRANCH  26  50
ATOM     50  C   UNL A   1      38.737  30.486  31.002  1.00  0.00     0.023 A 
ATOM     51  C   UNL A   1      37.672  31.161  30.386  1.00  0.00     0.031 A 
ATOM     52  C   UNL A   1      38.647  30.221  32.380  1.00  0.00     0.131 A 
ATOM     53  C   UNL A   1      36.572  31.573  31.155  1.00  0.00     0.055 A 
ATOM     54  C   UNL A   1      37.530  30.589  33.129  1.00  0.00     0.041 A 
ATOM     55  F   UNL A   1      39.637  29.571  33.013  1.00  0.00    -0.206 F 
ATOM     56  C   UNL A   1      36.488  31.279  32.518  1.00  0.00     0.022 A 
BRANCH  53  57
ATOM     57  S   UNL A   1      35.272  32.550  30.355  1.00  0.00     0.124 S 
ATOM     58  O   UNL A   1      34.290  32.674  31.426  1.00  0.00    -0.237 OA
ATOM     59  O   UNL A   1      35.987  33.770  29.995  1.00  0.00    -0.237 OA
ATOM     60  O   UNL A   1      34.865  31.714  29.227  1.00  0.00    -0.744 OA
ENDBRANCH  53  57
ENDBRANCH  26  50
BRANCH  38  61
ATOM     61  C   UNL A   1      44.718  33.603  29.279  1.00  0.00     0.023 A 
ATOM     62  C   UNL A   1      44.336  34.701  28.489  1.00  0.00     0.031 A 
ATOM     63  C   UNL A   1      45.643  33.816  30.314  1.00  0.00     0.131 A 
ATOM     64  C   UNL A   1      44.930  35.954  28.706  1.00  0.00     0.055 A 
ATOM     65  C   UNL A   1      46.189  35.076  30.560  1.00  0.00     0.041 A 
ATOM     66  F   UNL A   1      46.042  32.799  31.094  1.00  0.00    -0.206 F 
ATOM     67  C   UNL A   1      45.845  36.151  29.743  1.00  0.00     0.022 A 
BRANCH  64  68
ATOM     68  S   UNL A   1      44.570  37.300  27.543  1.00  0.00     0.124 S 
ATOM     69  O   UNL A   1      45.851  37.466  26.863  1.00  0.00    -0.237 OA
ATOM     70  O   UNL A   1      43.489  36.736  26.740  1.00  0.00    -0.237 OA
ATOM     71  O   UNL A   1      44.181  38.409  28.413  1.00  0.00    -0.744 OA
ENDBRANCH  64  68
ENDBRANCH  38  61
ENDBRANCH  12  13
ENDBRANCH   5   7
ENDBRANCH   2   3
ENDBRANCH   1   2
BRANCH   1  72
ATOM     72  C   UNL A   1      34.762  22.704  23.819  1.00  0.00     0.023 C 
BRANCH  72  73
ATOM     73  C   UNL A   1      34.433  24.193  23.850  1.00  0.00     0.116 C 
BRANCH  73  74
ATOM     74  N   UNL A   1      33.855  24.657  22.603  1.00  0.00    -0.355 N 
ATOM     75  C   UNL A   1      32.625  25.219  22.376  1.00  0.00     0.233 C 
ATOM     76  H   UNL A   1      34.425  24.552  21.808  1.00  0.00     0.163 HD
ATOM     77  O   UNL A   1      32.334  25.532  21.221  1.00  0.00    -0.274 OA
BRANCH  75  78
ATOM     78  C   UNL A   1      31.656  25.409  23.552  1.00  0.00     0.163 C 
BRANCH  78  79
ATOM     79  C   UNL A   1      30.961  26.775  23.482  1.00  0.00    -0.030 A 
ATOM     80  C   UNL A   1      29.553  26.800  23.417  1.00  0.00     0.006 A 
ATOM     81  C   UNL A   1      31.638  28.002  23.508  1.00  0.00     0.006 A 
ATOM     82  C   UNL A   1      28.851  28.007  23.351  1.00  0.00     0.016 A 
ATOM     83  C   UNL A   1      30.939  29.212  23.433  1.00  0.00     0.016 A 
ATOM     84  C   UNL A   1      29.549  29.209  23.351  1.00  0.00     0.017 A 
ATOM     85  Br  UNL A   1      28.610  30.845  23.247  1.00  0.00    -0.051 Br
ENDBRANCH  78  79
BRANCH  78  86
ATOM     86  C   UNL A   1      30.767  24.133  23.650  1.00  0.00     0.280 C 
BRANCH  86  87
ATOM     87  N   UNL A   1      30.580  23.468  24.955  1.00  0.00    -0.334 N 
ATOM     88  C   UNL A   1      30.586  24.292  26.158  1.00  0.00     0.262 C 
ATOM     89  C   UNL A   1      31.447  22.310  25.178  1.00  0.00     0.262 C 
ATOM     90  H   UNL A   1      29.613  23.169  24.831  1.00  0.00     0.348 HD
ATOM     91  C   UNL A   1      31.894  23.975  26.860  1.00  0.00     0.067 C 
ATOM     92  C   UNL A   1      32.144  22.521  26.514  1.00  0.00     0.067 C 
ENDBRANCH  86  87
ENDBRANCH  78  86
ENDBRANCH  75  78
ENDBRANCH  73  74
ENDBRANCH  72  73
ENDBRANCH   1  72
TORSDOF 17
ENDMDL
