MODEL 1
REMARK VINA RESULT:     -12.8      0.000      0.000
REMARK SMILES Cc1cc(OC(F)(F)F)cc2c1O[C@@H](C(F)(F)F)C(C(=O)NCCCCNC(=O)c1ccc(-c3c4nc(c(-c5cc(S(=O)(=O)[O-])ccc5F)c5ccc([nH]5)c(-c5cc(S(=O)(=O)[O-])ccc5F)c5nc(c(-c6cc(S(=O)(=O)[O-])ccc6F)c6ccc3[nH]6)C=C5)C=C4)cc1)=C2
REMARK SMILES IDX 25 1 24 2 23 3 22 4 20 5 21 6 19 8 1 9 2 10 3 11 12 12 4 13
REMARK SMILES IDX 11 14 13 15 10 16 93 17 14 18 5 19 6 20 7 21 8 22 9 23 15 24
REMARK SMILES IDX 16 25 17 26 18 27 26 28 27 29 28 30 29 32 30 33 31 34 92 35
REMARK SMILES IDX 32 36 91 37 33 38 34 39 35 40 85 41 36 42 90 43 84 44 86 45
REMARK SMILES IDX 37 46 89 47 83 48 82 49 38 51 70 52 50 53 69 54 51 55 54 56
REMARK SMILES IDX 68 57 87 58 52 59 53 60 67 62 88 63 55 64 39 65 40 66 48 67
REMARK SMILES IDX 41 68 47 69 49 70 46 71 42 72 43 73 44 74 45 75 71 76 72 77
REMARK SMILES IDX 80 78 73 79 79 80 81 81 78 82 74 83 75 84 76 85 77 86 56 87
REMARK SMILES IDX 57 88 65 89 58 90 64 91 66 92 63 93 59 94 60 95 61 96 62 97
REMARK H PARENT 22 7 27 31 86 50 54 61
REMARK Flexibility Score: inf
ROOT
ATOM      1  C   UNL A   1      35.262  21.394  25.109  1.00  0.00     0.023 C 
ENDROOT
BRANCH   1   2
ATOM      2  C   UNL A   1      34.130  21.092  26.092  1.00  0.00     0.023 C 
BRANCH   2   3
ATOM      3  C   UNL A   1      32.732  21.184  25.484  1.00  0.00     0.116 C 
BRANCH   3   4
ATOM      4  N   UNL A   1      31.843  21.949  26.334  1.00  0.00    -0.352 N 
ATOM      5  C   UNL A   1      31.343  23.204  26.356  1.00  0.00     0.251 C 
ATOM      6  O   UNL A   1      30.533  23.431  27.261  1.00  0.00    -0.270 OA
ATOM      7  H   UNL A   1      31.516  21.414  27.093  1.00  0.00     0.163 HD
BRANCH   5   8
ATOM      8  C   UNL A   1      31.695  24.294  25.399  1.00  0.00     0.067 C 
ATOM      9  C   UNL A   1      33.672  27.588  21.951  1.00  0.00     0.048 C 
ATOM     10  C   UNL A   1      32.451  27.531  22.825  1.00  0.00    -0.005 A 
ATOM     11  C   UNL A   1      31.569  28.626  22.835  1.00  0.00     0.054 A 
ATOM     12  C   UNL A   1      32.158  26.417  23.619  1.00  0.00     0.131 A 
ATOM     13  C   UNL A   1      30.415  28.608  23.625  1.00  0.00     0.130 A 
ATOM     14  C   UNL A   1      31.011  26.390  24.413  1.00  0.00     0.021 A 
ATOM     15  O   UNL A   1      33.000  25.342  23.557  1.00  0.00    -0.475 OA
ATOM     16  C   UNL A   1      30.145  27.486  24.414  1.00  0.00     0.058 A 
ATOM     17  C   UNL A   1      30.728  25.214  25.224  1.00  0.00     0.025 C 
ATOM     18  C   UNL A   1      33.033  24.488  24.737  1.00  0.00     0.314 C 
BRANCH  13  19
ATOM     19  O   UNL A   1      29.483  29.601  23.722  1.00  0.00    -0.406 OA
BRANCH  19  20
ATOM     20  C   UNL A   1      28.426  29.608  22.780  1.00  0.00     0.573 C 
ATOM     21  F   UNL A   1      28.885  29.837  21.531  1.00  0.00    -0.132 F 
ATOM     22  F   UNL A   1      27.741  28.444  22.802  1.00  0.00    -0.132 F 
ATOM     23  F   UNL A   1      27.568  30.603  23.098  1.00  0.00    -0.132 F 
ENDBRANCH  19  20
ENDBRANCH  13  19
BRANCH  18  24
ATOM     24  C   UNL A   1      34.152  24.949  25.690  1.00  0.00     0.429 C 
ATOM     25  F   UNL A   1      35.378  24.928  25.120  1.00  0.00    -0.167 F 
ATOM     26  F   UNL A   1      33.924  26.223  26.100  1.00  0.00    -0.167 F 
ATOM     27  F   UNL A   1      34.226  24.194  26.813  1.00  0.00    -0.167 F 
ENDBRANCH  18  24
ENDBRANCH   5   8
ENDBRANCH   3   4
ENDBRANCH   2   3
ENDBRANCH   1   2
BRANCH   1  28
ATOM     28  C   UNL A   1      36.579  21.824  25.749  1.00  0.00     0.116 C 
BRANCH  28  29
ATOM     29  N   UNL A   1      37.628  20.818  25.653  1.00  0.00    -0.352 N 
ATOM     30  C   UNL A   1      38.965  20.962  25.954  1.00  0.00     0.251 C 
ATOM     31  H   UNL A   1      37.348  19.929  25.336  1.00  0.00     0.163 HD
ATOM     32  O   UNL A   1      39.756  20.059  25.770  1.00  0.00    -0.269 OA
BRANCH  30  33
ATOM     33  C   UNL A   1      39.407  22.270  26.478  1.00  0.00     0.039 A 
ATOM     34  C   UNL A   1      40.418  22.301  27.440  1.00  0.00     0.014 A 
ATOM     35  C   UNL A   1      38.895  23.448  25.926  1.00  0.00     0.014 A 
ATOM     36  C   UNL A   1      40.968  23.528  27.808  1.00  0.00     0.010 A 
ATOM     37  C   UNL A   1      39.480  24.663  26.257  1.00  0.00     0.010 A 
ATOM     38  C   UNL A   1      40.522  24.711  27.196  1.00  0.00    -0.014 A 
BRANCH  38  39
ATOM     39  C   UNL A   1      41.132  26.018  27.530  1.00  0.00     0.031 A 
ATOM     40  C   UNL A   1      42.528  26.320  27.073  1.00  0.00     0.074 A 
ATOM     41  C   UNL A   1      40.457  26.893  28.301  1.00  0.00     0.049 A 
ATOM     42  N   UNL A   1      43.259  27.377  27.304  1.00  0.00    -0.248 NA
ATOM     43  C   UNL A   1      43.201  25.285  26.270  1.00  0.00     0.031 C 
ATOM     44  C   UNL A   1      39.117  26.675  28.848  1.00  0.00     0.029 A 
ATOM     45  N   UNL A   1      40.812  28.132  28.772  1.00  0.00    -0.354 N 
ATOM     46  C   UNL A   1      44.478  27.132  26.688  1.00  0.00     0.074 A 
ATOM     47  C   UNL A   1      44.410  25.806  26.117  1.00  0.00     0.031 C 
ATOM     48  C   UNL A   1      38.758  27.749  29.570  1.00  0.00     0.029 A 
ATOM     49  C   UNL A   1      39.849  28.721  29.557  1.00  0.00     0.049 A 
ATOM     50  H   UNL A   1      41.676  28.558  28.567  1.00  0.00     0.167 HD
ATOM     51  C   UNL A   1      45.550  27.952  26.586  1.00  0.00     0.034 A 
ATOM     52  C   UNL A   1      39.846  29.913  30.189  1.00  0.00     0.034 A 
ATOM     53  C   UNL A   1      45.594  29.280  27.133  1.00  0.00     0.049 A 
ATOM     54  C   UNL A   1      41.038  30.823  30.033  1.00  0.00     0.074 A 
ATOM     55  C   UNL A   1      46.610  30.213  27.033  1.00  0.00     0.029 A 
ATOM     56  N   UNL A   1      44.578  29.867  27.872  1.00  0.00    -0.354 N 
ATOM     57  N   UNL A   1      42.148  30.616  29.365  1.00  0.00    -0.248 NA
ATOM     58  C   UNL A   1      40.976  32.131  30.700  1.00  0.00     0.031 C 
ATOM     59  C   UNL A   1      46.220  31.356  27.735  1.00  0.00     0.029 A 
ATOM     60  C   UNL A   1      44.946  31.148  28.242  1.00  0.00     0.049 A 
ATOM     61  H   UNL A   1      43.723  29.437  28.101  1.00  0.00     0.167 HD
ATOM     62  C   UNL A   1      42.903  31.775  29.508  1.00  0.00     0.074 A 
ATOM     63  C   UNL A   1      42.119  32.686  30.315  1.00  0.00     0.031 C 
ATOM     64  C   UNL A   1      44.137  32.056  29.019  1.00  0.00     0.034 A 
BRANCH  51  65
ATOM     65  C   UNL A   1      46.749  27.457  25.826  1.00  0.00     0.023 A 
ATOM     66  C   UNL A   1      46.947  27.839  24.489  1.00  0.00     0.031 A 
ATOM     67  C   UNL A   1      47.647  26.543  26.406  1.00  0.00     0.131 A 
ATOM     68  C   UNL A   1      48.016  27.294  23.767  1.00  0.00     0.055 A 
ATOM     69  C   UNL A   1      48.727  26.027  25.691  1.00  0.00     0.041 A 
ATOM     70  F   UNL A   1      47.498  26.159  27.683  1.00  0.00    -0.206 F 
ATOM     71  C   UNL A   1      48.911  26.397  24.362  1.00  0.00     0.022 A 
BRANCH  68  72
ATOM     72  S   UNL A   1      48.282  27.718  22.024  1.00  0.00     0.124 S 
ATOM     73  O   UNL A   1      47.034  28.395  21.683  1.00  0.00    -0.237 OA
ATOM     74  O   UNL A   1      49.460  28.578  22.098  1.00  0.00    -0.237 OA
ATOM     75  O   UNL A   1      48.479  26.425  21.377  1.00  0.00    -0.744 OA
ENDBRANCH  68  72
ENDBRANCH  51  65
BRANCH  52  76
ATOM     76  C   UNL A   1      38.638  30.330  30.956  1.00  0.00     0.023 A 
ATOM     77  C   UNL A   1      37.598  31.050  30.343  1.00  0.00     0.031 A 
ATOM     78  C   UNL A   1      38.553  30.085  32.337  1.00  0.00     0.131 A 
ATOM     79  C   UNL A   1      36.537  31.535  31.120  1.00  0.00     0.055 A 
ATOM     80  C   UNL A   1      37.469  30.525  33.097  1.00  0.00     0.041 A 
ATOM     81  F   UNL A   1      39.531  29.414  32.964  1.00  0.00    -0.206 F 
ATOM     82  C   UNL A   1      36.458  31.263  32.491  1.00  0.00     0.022 A 
BRANCH  79  83
ATOM     83  S   UNL A   1      35.265  32.607  30.398  1.00  0.00     0.124 S 
ATOM     84  O   UNL A   1      36.036  33.790  30.025  1.00  0.00    -0.237 OA
ATOM     85  O   UNL A   1      34.785  31.790  29.287  1.00  0.00    -0.237 OA
ATOM     86  O   UNL A   1      34.314  32.795  31.489  1.00  0.00    -0.744 OA
ENDBRANCH  79  83
ENDBRANCH  52  76
BRANCH  64  87
ATOM     87  C   UNL A   1      44.736  33.406  29.309  1.00  0.00     0.023 A 
ATOM     88  C   UNL A   1      44.518  34.475  28.419  1.00  0.00     0.031 A 
ATOM     89  C   UNL A   1      45.648  33.586  30.363  1.00  0.00     0.131 A 
ATOM     90  C   UNL A   1      45.237  35.665  28.576  1.00  0.00     0.055 A 
ATOM     91  C   UNL A   1      46.334  34.787  30.536  1.00  0.00     0.041 A 
ATOM     92  F   UNL A   1      45.892  32.588  31.228  1.00  0.00    -0.206 F 
ATOM     93  C   UNL A   1      46.140  35.829  29.632  1.00  0.00     0.022 A 
BRANCH  90  94
ATOM     94  S   UNL A   1      45.080  37.016  27.376  1.00  0.00     0.124 S 
ATOM     95  O   UNL A   1      45.216  38.196  28.229  1.00  0.00    -0.237 OA
ATOM     96  O   UNL A   1      46.204  36.762  26.479  1.00  0.00    -0.237 OA
ATOM     97  O   UNL A   1      43.756  36.821  26.796  1.00  0.00    -0.744 OA
ENDBRANCH  90  94
ENDBRANCH  64  87
ENDBRANCH  38  39
ENDBRANCH  30  33
ENDBRANCH  28  29
ENDBRANCH   1  28
TORSDOF 17
ENDMDL
MODEL 2
REMARK VINA RESULT:     -12.7      1.583      2.501
REMARK SMILES Cc1cc(OC(F)(F)F)cc2c1O[C@@H](C(F)(F)F)C(C(=O)NCCCCNC(=O)c1ccc(-c3c4nc(c(-c5cc(S(=O)(=O)[O-])ccc5F)c5ccc([nH]5)c(-c5cc(S(=O)(=O)[O-])ccc5F)c5nc(c(-c6cc(S(=O)(=O)[O-])ccc6F)c6ccc3[nH]6)C=C5)C=C4)cc1)=C2
REMARK SMILES IDX 25 1 24 2 23 3 22 4 20 5 21 6 19 8 1 9 2 10 3 11 12 12 4 13
REMARK SMILES IDX 11 14 13 15 10 16 93 17 14 18 5 19 6 20 7 21 8 22 9 23 15 24
REMARK SMILES IDX 16 25 17 26 18 27 26 28 27 29 28 30 29 32 30 33 31 34 92 35
REMARK SMILES IDX 32 36 91 37 33 38 34 39 35 40 85 41 36 42 90 43 84 44 86 45
REMARK SMILES IDX 37 46 89 47 83 48 82 49 38 51 70 52 50 53 69 54 51 55 54 56
REMARK SMILES IDX 68 57 87 58 52 59 53 60 67 62 88 63 55 64 39 65 40 66 48 67
REMARK SMILES IDX 41 68 47 69 49 70 46 71 42 72 43 73 44 74 45 75 71 76 72 77
REMARK SMILES IDX 80 78 73 79 79 80 81 81 78 82 74 83 75 84 76 85 77 86 56 87
REMARK SMILES IDX 57 88 65 89 58 90 64 91 66 92 63 93 59 94 60 95 61 96 62 97
REMARK H PARENT 22 7 27 31 86 50 54 61
REMARK Flexibility Score: inf
ROOT
ATOM      1  C   UNL A   1      35.540  21.633  25.111  1.00  0.00     0.023 C 
ENDROOT
BRANCH   1   2
ATOM      2  C   UNL A   1      34.384  22.116  25.988  1.00  0.00     0.023 C 
BRANCH   2   3
ATOM      3  C   UNL A   1      33.017  22.061  25.309  1.00  0.00     0.116 C 
BRANCH   3   4
ATOM      4  N   UNL A   1      31.951  22.281  26.264  1.00  0.00    -0.352 N 
ATOM      5  C   UNL A   1      31.153  23.309  26.625  1.00  0.00     0.251 C 
ATOM      6  O   UNL A   1      30.297  23.036  27.473  1.00  0.00    -0.270 OA
ATOM      7  H   UNL A   1      31.756  21.469  26.785  1.00  0.00     0.163 HD
BRANCH   5   8
ATOM      8  C   UNL A   1      31.236  24.701  26.092  1.00  0.00     0.067 C 
ATOM      9  C   UNL A   1      30.794  29.285  23.760  1.00  0.00     0.048 C 
ATOM     10  C   UNL A   1      31.757  28.639  24.715  1.00  0.00    -0.005 A 
ATOM     11  C   UNL A   1      32.905  29.348  25.109  1.00  0.00     0.054 A 
ATOM     12  C   UNL A   1      31.539  27.359  25.237  1.00  0.00     0.131 A 
ATOM     13  C   UNL A   1      33.820  28.789  26.006  1.00  0.00     0.130 A 
ATOM     14  C   UNL A   1      32.447  26.790  26.130  1.00  0.00     0.021 A 
ATOM     15  O   UNL A   1      30.391  26.706  24.883  1.00  0.00    -0.475 OA
ATOM     16  C   UNL A   1      33.584  27.507  26.510  1.00  0.00     0.058 A 
ATOM     17  C   UNL A   1      32.191  25.459  26.663  1.00  0.00     0.025 C 
ATOM     18  C   UNL A   1      30.443  25.251  24.936  1.00  0.00     0.314 C 
BRANCH  13  19
ATOM     19  O   UNL A   1      34.967  29.371  26.464  1.00  0.00    -0.406 OA
BRANCH  19  20
ATOM     20  C   UNL A   1      34.881  30.166  27.633  1.00  0.00     0.573 C 
ATOM     21  F   UNL A   1      35.578  31.315  27.496  1.00  0.00    -0.132 F 
ATOM     22  F   UNL A   1      33.597  30.452  27.939  1.00  0.00    -0.132 F 
ATOM     23  F   UNL A   1      35.413  29.476  28.667  1.00  0.00    -0.132 F 
ENDBRANCH  19  20
ENDBRANCH  13  19
BRANCH  18  24
ATOM     24  C   UNL A   1      30.849  24.688  23.561  1.00  0.00     0.429 C 
ATOM     25  F   UNL A   1      30.210  23.539  23.247  1.00  0.00    -0.167 F 
ATOM     26  F   UNL A   1      30.562  25.585  22.583  1.00  0.00    -0.167 F 
ATOM     27  F   UNL A   1      32.178  24.438  23.471  1.00  0.00    -0.167 F 
ENDBRANCH  18  24
ENDBRANCH   5   8
ENDBRANCH   3   4
ENDBRANCH   2   3
ENDBRANCH   1   2
BRANCH   1  28
ATOM     28  C   UNL A   1      36.920  22.139  25.520  1.00  0.00     0.116 C 
BRANCH  28  29
ATOM     29  N   UNL A   1      37.920  21.085  25.621  1.00  0.00    -0.352 N 
ATOM     30  C   UNL A   1      39.209  21.188  26.097  1.00  0.00     0.251 C 
ATOM     31  H   UNL A   1      37.642  20.192  25.314  1.00  0.00     0.163 HD
ATOM     32  O   UNL A   1      39.971  20.242  26.069  1.00  0.00    -0.269 OA
BRANCH  30  33
ATOM     33  C   UNL A   1      39.642  22.503  26.610  1.00  0.00     0.039 A 
ATOM     34  C   UNL A   1      40.644  22.548  27.581  1.00  0.00     0.014 A 
ATOM     35  C   UNL A   1      39.131  23.673  26.041  1.00  0.00     0.014 A 
ATOM     36  C   UNL A   1      41.186  23.781  27.941  1.00  0.00     0.010 A 
ATOM     37  C   UNL A   1      39.709  24.893  26.364  1.00  0.00     0.010 A 
ATOM     38  C   UNL A   1      40.742  24.955  27.312  1.00  0.00    -0.014 A 
BRANCH  38  39
ATOM     39  C   UNL A   1      41.344  26.269  27.637  1.00  0.00     0.031 A 
ATOM     40  C   UNL A   1      42.746  26.568  27.196  1.00  0.00     0.074 A 
ATOM     41  C   UNL A   1      40.656  27.152  28.387  1.00  0.00     0.049 A 
ATOM     42  N   UNL A   1      43.471  27.629  27.424  1.00  0.00    -0.248 NA
ATOM     43  C   UNL A   1      43.433  25.523  26.417  1.00  0.00     0.031 C 
ATOM     44  C   UNL A   1      39.309  26.938  28.917  1.00  0.00     0.029 A 
ATOM     45  N   UNL A   1      41.001  28.398  28.846  1.00  0.00    -0.354 N 
ATOM     46  C   UNL A   1      44.700  27.379  26.828  1.00  0.00     0.074 A 
ATOM     47  C   UNL A   1      44.642  26.045  26.274  1.00  0.00     0.031 C 
ATOM     48  C   UNL A   1      38.938  28.021  29.619  1.00  0.00     0.029 A 
ATOM     49  C   UNL A   1      40.027  28.995  29.609  1.00  0.00     0.049 A 
ATOM     50  H   UNL A   1      41.867  28.823  28.648  1.00  0.00     0.167 HD
ATOM     51  C   UNL A   1      45.771  28.200  26.731  1.00  0.00     0.034 A 
ATOM     52  C   UNL A   1      40.011  30.195  30.225  1.00  0.00     0.034 A 
ATOM     53  C   UNL A   1      45.805  29.535  27.261  1.00  0.00     0.049 A 
ATOM     54  C   UNL A   1      41.204  31.106  30.074  1.00  0.00     0.074 A 
ATOM     55  C   UNL A   1      46.820  30.469  27.163  1.00  0.00     0.029 A 
ATOM     56  N   UNL A   1      44.776  30.130  27.977  1.00  0.00    -0.354 N 
ATOM     57  N   UNL A   1      42.324  30.893  29.425  1.00  0.00    -0.248 NA
ATOM     58  C   UNL A   1      41.130  32.422  30.723  1.00  0.00     0.031 C 
ATOM     59  C   UNL A   1      46.417  31.620  27.844  1.00  0.00     0.029 A 
ATOM     60  C   UNL A   1      45.136  31.417  28.336  1.00  0.00     0.049 A 
ATOM     61  H   UNL A   1      43.919  29.700  28.199  1.00  0.00     0.167 HD
ATOM     62  C   UNL A   1      43.074  32.056  29.563  1.00  0.00     0.074 A 
ATOM     63  C   UNL A   1      42.276  32.975  30.346  1.00  0.00     0.031 C 
ATOM     64  C   UNL A   1      44.314  32.333  29.088  1.00  0.00     0.034 A 
BRANCH  51  65
ATOM     65  C   UNL A   1      46.982  27.698  25.995  1.00  0.00     0.023 A 
ATOM     66  C   UNL A   1      47.133  27.954  24.622  1.00  0.00     0.031 A 
ATOM     67  C   UNL A   1      47.941  26.897  26.641  1.00  0.00     0.131 A 
ATOM     68  C   UNL A   1      48.218  27.399  23.932  1.00  0.00     0.055 A 
ATOM     69  C   UNL A   1      49.035  26.371  25.955  1.00  0.00     0.041 A 
ATOM     70  F   UNL A   1      47.838  26.635  27.953  1.00  0.00    -0.206 F 
ATOM     71  C   UNL A   1      49.174  26.616  24.592  1.00  0.00     0.022 A 
BRANCH  68  72
ATOM     72  S   UNL A   1      48.427  27.660  22.150  1.00  0.00     0.124 S 
ATOM     73  O   UNL A   1      47.128  28.210  21.769  1.00  0.00    -0.237 OA
ATOM     74  O   UNL A   1      49.541  28.603  22.111  1.00  0.00    -0.237 OA
ATOM     75  O   UNL A   1      48.707  26.325  21.633  1.00  0.00    -0.744 OA
ENDBRANCH  68  72
ENDBRANCH  51  65
BRANCH  52  76
ATOM     76  C   UNL A   1      38.792  30.620  30.968  1.00  0.00     0.023 A 
ATOM     77  C   UNL A   1      37.854  31.495  30.392  1.00  0.00     0.031 A 
ATOM     78  C   UNL A   1      38.597  30.220  32.301  1.00  0.00     0.131 A 
ATOM     79  C   UNL A   1      36.786  31.972  31.163  1.00  0.00     0.055 A 
ATOM     80  C   UNL A   1      37.502  30.657  33.048  1.00  0.00     0.041 A 
ATOM     81  F   UNL A   1      39.475  29.397  32.894  1.00  0.00    -0.206 F 
ATOM     82  C   UNL A   1      36.595  31.546  32.483  1.00  0.00     0.022 A 
BRANCH  79  83
ATOM     83  S   UNL A   1      35.652  33.229  30.510  1.00  0.00     0.124 S 
ATOM     84  O   UNL A   1      34.419  32.466  30.331  1.00  0.00    -0.237 OA
ATOM     85  O   UNL A   1      35.637  34.206  31.595  1.00  0.00    -0.237 OA
ATOM     86  O   UNL A   1      36.301  33.673  29.281  1.00  0.00    -0.744 OA
ENDBRANCH  79  83
ENDBRANCH  52  76
BRANCH  64  87
ATOM     87  C   UNL A   1      44.906  33.688  29.369  1.00  0.00     0.023 A 
ATOM     88  C   UNL A   1      44.571  34.782  28.548  1.00  0.00     0.031 A 
ATOM     89  C   UNL A   1      45.917  33.855  30.330  1.00  0.00     0.131 A 
ATOM     90  C   UNL A   1      45.273  35.985  28.678  1.00  0.00     0.055 A 
ATOM     91  C   UNL A   1      46.588  35.069  30.479  1.00  0.00     0.041 A 
ATOM     92  F   UNL A   1      46.274  32.834  31.126  1.00  0.00    -0.206 F 
ATOM     93  C   UNL A   1      46.275  36.137  29.642  1.00  0.00     0.022 A 
BRANCH  90  94
ATOM     94  S   UNL A   1      44.959  37.375  27.555  1.00  0.00     0.124 S 
ATOM     95  O   UNL A   1      43.716  36.965  26.903  1.00  0.00    -0.237 OA
ATOM     96  O   UNL A   1      44.836  38.496  28.483  1.00  0.00    -0.237 OA
ATOM     97  O   UNL A   1      46.133  37.401  26.689  1.00  0.00    -0.744 OA
ENDBRANCH  90  94
ENDBRANCH  64  87
ENDBRANCH  38  39
ENDBRANCH  30  33
ENDBRANCH  28  29
ENDBRANCH   1  28
TORSDOF 17
ENDMDL
MODEL 3
REMARK VINA RESULT:     -12.7      0.568      7.365
REMARK SMILES Cc1cc(OC(F)(F)F)cc2c1O[C@@H](C(F)(F)F)C(C(=O)NCCCCNC(=O)c1ccc(-c3c4nc(c(-c5cc(S(=O)(=O)[O-])ccc5F)c5ccc([nH]5)c(-c5cc(S(=O)(=O)[O-])ccc5F)c5nc(c(-c6cc(S(=O)(=O)[O-])ccc6F)c6ccc3[nH]6)C=C5)C=C4)cc1)=C2
REMARK SMILES IDX 25 1 24 2 23 3 22 4 20 5 21 6 19 8 1 9 2 10 3 11 12 12 4 13
REMARK SMILES IDX 11 14 13 15 10 16 93 17 14 18 5 19 6 20 7 21 8 22 9 23 15 24
REMARK SMILES IDX 16 25 17 26 18 27 26 28 27 29 28 30 29 32 30 33 31 34 92 35
REMARK SMILES IDX 32 36 91 37 33 38 34 39 35 40 85 41 36 42 90 43 84 44 86 45
REMARK SMILES IDX 37 46 89 47 83 48 82 49 38 51 70 52 50 53 69 54 51 55 54 56
REMARK SMILES IDX 68 57 87 58 52 59 53 60 67 62 88 63 55 64 39 65 40 66 48 67
REMARK SMILES IDX 41 68 47 69 49 70 46 71 42 72 43 73 44 74 45 75 71 76 72 77
REMARK SMILES IDX 80 78 73 79 79 80 81 81 78 82 74 83 75 84 76 85 77 86 56 87
REMARK SMILES IDX 57 88 65 89 58 90 64 91 66 92 63 93 59 94 60 95 61 96 62 97
REMARK H PARENT 22 7 27 31 86 50 54 61
REMARK Flexibility Score: inf
ROOT
ATOM      1  C   UNL A   1      34.777  21.678  24.920  1.00  0.00     0.023 C 
ENDROOT
BRANCH   1   2
ATOM      2  C   UNL A   1      33.644  21.166  25.810  1.00  0.00     0.023 C 
BRANCH   2   3
ATOM      3  C   UNL A   1      32.247  21.383  25.233  1.00  0.00     0.116 C 
BRANCH   3   4
ATOM      4  N   UNL A   1      31.430  22.175  26.128  1.00  0.00    -0.352 N 
ATOM      5  C   UNL A   1      31.037  23.465  26.217  1.00  0.00     0.251 C 
ATOM      6  O   UNL A   1      30.254  23.712  27.141  1.00  0.00    -0.270 OA
ATOM      7  H   UNL A   1      31.064  21.632  26.863  1.00  0.00     0.163 HD
BRANCH   5   8
ATOM      8  C   UNL A   1      31.473  24.569  25.313  1.00  0.00     0.067 C 
ATOM      9  C   UNL A   1      33.735  27.890  22.072  1.00  0.00     0.048 C 
ATOM     10  C   UNL A   1      32.468  27.850  22.879  1.00  0.00    -0.005 A 
ATOM     11  C   UNL A   1      31.620  28.972  22.875  1.00  0.00     0.054 A 
ATOM     12  C   UNL A   1      32.098  26.724  23.623  1.00  0.00     0.131 A 
ATOM     13  C   UNL A   1      30.427  28.970  23.601  1.00  0.00     0.130 A 
ATOM     14  C   UNL A   1      30.910  26.713  24.355  1.00  0.00     0.021 A 
ATOM     15  O   UNL A   1      32.908  25.624  23.574  1.00  0.00    -0.475 OA
ATOM     16  C   UNL A   1      30.080  27.836  24.341  1.00  0.00     0.058 A 
ATOM     17  C   UNL A   1      30.546  25.525  25.114  1.00  0.00     0.025 C 
ATOM     18  C   UNL A   1      32.851  24.737  24.729  1.00  0.00     0.314 C 
BRANCH  13  19
ATOM     19  O   UNL A   1      29.522  29.990  23.678  1.00  0.00    -0.406 OA
BRANCH  19  20
ATOM     20  C   UNL A   1      28.376  29.920  22.849  1.00  0.00     0.573 C 
ATOM     21  F   UNL A   1      28.654  29.298  21.683  1.00  0.00    -0.132 F 
ATOM     22  F   UNL A   1      27.360  29.281  23.469  1.00  0.00    -0.132 F 
ATOM     23  F   UNL A   1      27.968  31.177  22.566  1.00  0.00    -0.132 F 
ENDBRANCH  19  20
ENDBRANCH  13  19
BRANCH  18  24
ATOM     24  C   UNL A   1      33.931  25.135  25.753  1.00  0.00     0.429 C 
ATOM     25  F   UNL A   1      33.751  26.374  26.261  1.00  0.00    -0.167 F 
ATOM     26  F   UNL A   1      33.928  24.269  26.798  1.00  0.00    -0.167 F 
ATOM     27  F   UNL A   1      35.182  25.100  25.232  1.00  0.00    -0.167 F 
ENDBRANCH  18  24
ENDBRANCH   5   8
ENDBRANCH   3   4
ENDBRANCH   2   3
ENDBRANCH   1   2
BRANCH   1  28
ATOM     28  C   UNL A   1      36.107  21.909  25.632  1.00  0.00     0.116 C 
BRANCH  28  29
ATOM     29  N   UNL A   1      37.070  20.835  25.428  1.00  0.00    -0.352 N 
ATOM     30  C   UNL A   1      38.429  20.867  25.652  1.00  0.00     0.251 C 
ATOM     31  H   UNL A   1      36.706  19.985  25.091  1.00  0.00     0.163 HD
ATOM     32  O   UNL A   1      39.138  19.918  25.380  1.00  0.00    -0.269 OA
BRANCH  30  33
ATOM     33  C   UNL A   1      38.999  22.113  26.203  1.00  0.00     0.039 A 
ATOM     34  C   UNL A   1      40.106  22.027  27.048  1.00  0.00     0.014 A 
ATOM     35  C   UNL A   1      38.499  23.349  25.785  1.00  0.00     0.014 A 
ATOM     36  C   UNL A   1      40.762  23.198  27.429  1.00  0.00     0.010 A 
ATOM     37  C   UNL A   1      39.185  24.508  26.123  1.00  0.00     0.010 A 
ATOM     38  C   UNL A   1      40.322  24.440  26.943  1.00  0.00    -0.014 A 
BRANCH  38  39
ATOM     39  C   UNL A   1      41.037  25.690  27.287  1.00  0.00     0.031 A 
ATOM     40  C   UNL A   1      40.340  26.740  28.102  1.00  0.00     0.074 A 
ATOM     41  C   UNL A   1      42.277  25.905  26.806  1.00  0.00     0.049 A 
ATOM     42  N   UNL A   1      40.768  27.919  28.462  1.00  0.00    -0.248 NA
ATOM     43  C   UNL A   1      38.971  26.431  28.547  1.00  0.00     0.031 C 
ATOM     44  C   UNL A   1      43.024  24.977  25.956  1.00  0.00     0.029 A 
ATOM     45  N   UNL A   1      43.120  26.978  26.948  1.00  0.00    -0.354 N 
ATOM     46  C   UNL A   1      39.721  28.498  29.166  1.00  0.00     0.074 A 
ATOM     47  C   UNL A   1      38.619  27.564  29.138  1.00  0.00     0.031 C 
ATOM     48  C   UNL A   1      44.218  25.515  25.662  1.00  0.00     0.029 A 
ATOM     49  C   UNL A   1      44.314  26.835  26.282  1.00  0.00     0.049 A 
ATOM     50  H   UNL A   1      42.890  27.776  27.477  1.00  0.00     0.167 HD
ATOM     51  C   UNL A   1      39.692  29.692  29.801  1.00  0.00     0.034 A 
ATOM     52  C   UNL A   1      45.368  27.671  26.187  1.00  0.00     0.034 A 
ATOM     53  C   UNL A   1      40.806  30.600  29.847  1.00  0.00     0.049 A 
ATOM     54  C   UNL A   1      45.326  28.982  26.931  1.00  0.00     0.074 A 
ATOM     55  C   UNL A   1      40.899  31.807  30.514  1.00  0.00     0.029 A 
ATOM     56  N   UNL A   1      42.021  30.395  29.210  1.00  0.00    -0.354 N 
ATOM     57  N   UNL A   1      44.364  29.475  27.675  1.00  0.00    -0.248 NA
ATOM     58  C   UNL A   1      46.512  29.845  26.840  1.00  0.00     0.031 C 
ATOM     59  C   UNL A   1      42.161  32.348  30.259  1.00  0.00     0.029 A 
ATOM     60  C   UNL A   1      42.868  31.460  29.462  1.00  0.00     0.049 A 
ATOM     61  H   UNL A   1      42.247  29.612  28.660  1.00  0.00     0.167 HD
ATOM     62  C   UNL A   1      44.837  30.689  28.160  1.00  0.00     0.074 A 
ATOM     63  C   UNL A   1      46.178  30.851  27.639  1.00  0.00     0.031 C 
ATOM     64  C   UNL A   1      44.215  31.590  28.962  1.00  0.00     0.034 A 
BRANCH  51  65
ATOM     65  C   UNL A   1      38.435  30.075  30.530  1.00  0.00     0.023 A 
ATOM     66  C   UNL A   1      37.495  30.925  29.924  1.00  0.00     0.031 A 
ATOM     67  C   UNL A   1      38.212  29.662  31.856  1.00  0.00     0.131 A 
ATOM     68  C   UNL A   1      36.376  31.348  30.652  1.00  0.00     0.055 A 
ATOM     69  C   UNL A   1      37.081  30.062  32.566  1.00  0.00     0.041 A 
ATOM     70  F   UNL A   1      39.081  28.843  32.469  1.00  0.00    -0.206 F 
ATOM     71  C   UNL A   1      36.160  30.916  31.967  1.00  0.00     0.022 A 
BRANCH  68  72
ATOM     72  S   UNL A   1      35.162  32.484  29.929  1.00  0.00     0.124 S 
ATOM     73  O   UNL A   1      34.560  31.660  28.884  1.00  0.00    -0.237 OA
ATOM     74  O   UNL A   1      34.301  32.776  31.070  1.00  0.00    -0.237 OA
ATOM     75  O   UNL A   1      35.973  33.597  29.445  1.00  0.00    -0.744 OA
ENDBRANCH  68  72
ENDBRANCH  51  65
BRANCH  52  76
ATOM     76  C   UNL A   1      46.572  27.246  25.420  1.00  0.00     0.023 A 
ATOM     77  C   UNL A   1      46.840  27.760  24.138  1.00  0.00     0.031 A 
ATOM     78  C   UNL A   1      47.426  26.252  25.929  1.00  0.00     0.131 A 
ATOM     79  C   UNL A   1      47.910  27.246  23.394  1.00  0.00     0.055 A 
ATOM     80  C   UNL A   1      48.522  25.782  25.205  1.00  0.00     0.041 A 
ATOM     81  F   UNL A   1      47.199  25.725  27.142  1.00  0.00    -0.206 F 
ATOM     82  C   UNL A   1      48.762  26.271  23.926  1.00  0.00     0.022 A 
BRANCH  79  83
ATOM     83  S   UNL A   1      48.186  27.762  21.677  1.00  0.00     0.124 S 
ATOM     84  O   UNL A   1      49.282  28.717  21.816  1.00  0.00    -0.237 OA
ATOM     85  O   UNL A   1      48.529  26.494  21.039  1.00  0.00    -0.237 OA
ATOM     86  O   UNL A   1      46.902  28.331  21.279  1.00  0.00    -0.744 OA
ENDBRANCH  79  83
ENDBRANCH  52  76
BRANCH  64  87
ATOM     87  C   UNL A   1      44.961  32.835  29.359  1.00  0.00     0.023 A 
ATOM     88  C   UNL A   1      44.881  33.986  28.553  1.00  0.00     0.031 A 
ATOM     89  C   UNL A   1      45.871  32.827  30.429  1.00  0.00     0.131 A 
ATOM     90  C   UNL A   1      45.730  35.069  28.806  1.00  0.00     0.055 A 
ATOM     91  C   UNL A   1      46.689  33.924  30.699  1.00  0.00     0.041 A 
ATOM     92  F   UNL A   1      45.985  31.745  31.216  1.00  0.00    -0.206 F 
ATOM     93  C   UNL A   1      46.630  35.046  29.877  1.00  0.00     0.022 A 
BRANCH  90  94
ATOM     94  S   UNL A   1      45.748  36.517  27.713  1.00  0.00     0.124 S 
ATOM     95  O   UNL A   1      44.337  36.898  27.690  1.00  0.00    -0.237 OA
ATOM     96  O   UNL A   1      46.630  37.433  28.433  1.00  0.00    -0.237 OA
ATOM     97  O   UNL A   1      46.272  36.002  26.453  1.00  0.00    -0.744 OA
ENDBRANCH  90  94
ENDBRANCH  64  87
ENDBRANCH  38  39
ENDBRANCH  30  33
ENDBRANCH  28  29
ENDBRANCH   1  28
TORSDOF 17
ENDMDL
