MODEL 1
REMARK VINA RESULT:     -11.7      0.000      0.000
REMARK SMILES C[N@@H+](CC(=O)NCCCCNC(=O)c1ccc(-c2c3nc(c(-c4cc(S(=O)(=O)[O-])ccc4F)c4ccc([nH]4)c(-c4cc(S(=O)(=O)[O-])ccc4F)c4nc(c(-c5cc(S(=O)(=O)[O-])ccc5F)c5ccc2[nH]5)C=C4)C=C3)cc1)Cc1noc(-c2ccccc2Cl)n1
REMARK SMILES IDX 8 1 7 2 6 3 4 4 5 5 3 7 2 8 1 9 77 11 78 12 79 13 89 14
REMARK SMILES IDX 80 15 81 16 82 17 83 18 87 19 84 20 86 21 88 22 85 23 9 24
REMARK SMILES IDX 10 25 11 26 12 27 13 29 14 30 15 31 76 32 16 33 75 34 17 35
REMARK SMILES IDX 18 36 19 37 69 38 20 39 74 40 68 41 70 42 21 43 73 44 67 45
REMARK SMILES IDX 66 46 22 48 54 49 34 50 53 51 35 52 38 53 52 54 71 55 36 56
REMARK SMILES IDX 37 57 51 59 72 60 39 61 23 62 24 63 32 64 25 65 31 66 33 67
REMARK SMILES IDX 30 68 26 69 27 70 28 71 29 72 55 73 56 74 64 75 57 76 63 77
REMARK SMILES IDX 65 78 62 79 58 80 59 81 60 82 61 83 40 84 41 85 49 86 42 87
REMARK SMILES IDX 48 88 50 89 47 90 43 91 44 92 45 93 46 94
REMARK H PARENT 6 6 2 10 11 28 70 47 38 58
REMARK Flexibility Score: inf
ROOT
ATOM      1  C   UNL A   1      31.408  30.527  26.052  1.00  0.00     0.023 C 
ENDROOT
BRANCH   1   2
ATOM      2  C   UNL A   1      32.785  29.859  26.045  1.00  0.00     0.116 C 
BRANCH   2   3
ATOM      3  N   UNL A   1      33.346  29.726  24.716  1.00  0.00    -0.351 N 
ATOM      4  C   UNL A   1      33.376  28.662  23.867  1.00  0.00     0.275 C 
ATOM      5  O   UNL A   1      33.883  28.841  22.754  1.00  0.00    -0.269 OA
ATOM      6  H   UNL A   1      33.776  30.540  24.369  1.00  0.00     0.163 HD
BRANCH   4   7
ATOM      7  C   UNL A   1      32.745  27.319  24.234  1.00  0.00     0.363 C 
BRANCH   7   8
ATOM      8  N   UNL A   1      31.442  27.007  23.641  1.00  0.00    -0.323 N 
ATOM      9  C   UNL A   1      30.299  26.904  24.514  1.00  0.00     0.333 C 
ATOM     10  H   UNL A   1      31.322  27.936  23.238  1.00  0.00     0.348 HD
BRANCH   8  11
ATOM     11  C   UNL A   1      31.381  26.185  22.425  1.00  0.00     0.345 C 
BRANCH  11  12
ATOM     12  C   UNL A   1      32.308  25.007  22.352  1.00  0.00     0.226 A 
ATOM     13  N   UNL A   1      32.948  24.705  21.211  1.00  0.00    -0.056 NA
ATOM     14  N   UNL A   1      32.616  24.188  23.415  1.00  0.00    -0.186 NA
ATOM     15  O   UNL A   1      33.824  23.688  21.594  1.00  0.00    -0.334 OA
ATOM     16  C   UNL A   1      33.584  23.446  22.916  1.00  0.00     0.259 A 
BRANCH  16  17
ATOM     17  C   UNL A   1      34.516  22.552  23.582  1.00  0.00     0.058 A 
ATOM     18  C   UNL A   1      35.884  22.888  23.583  1.00  0.00     0.015 A 
ATOM     19  C   UNL A   1      34.099  21.433  24.318  1.00  0.00     0.053 A 
ATOM     20  C   UNL A   1      36.805  22.144  24.325  1.00  0.00     0.001 A 
ATOM     21  C   UNL A   1      35.028  20.687  25.059  1.00  0.00     0.021 A 
ATOM     22  Cl  UNL A   1      32.444  20.938  24.377  1.00  0.00    -0.083 Cl
ATOM     23  C   UNL A   1      36.375  21.048  25.068  1.00  0.00     0.002 A 
ENDBRANCH  16  17
ENDBRANCH  11  12
ENDBRANCH   8  11
ENDBRANCH   7   8
ENDBRANCH   4   7
ENDBRANCH   2   3
ENDBRANCH   1   2
BRANCH   1  24
ATOM     24  C   UNL A   1      31.397  31.978  26.510  1.00  0.00     0.023 C 
BRANCH  24  25
ATOM     25  C   UNL A   1      32.659  32.456  27.199  1.00  0.00     0.116 C 
BRANCH  25  26
ATOM     26  N   UNL A   1      32.565  33.846  27.608  1.00  0.00    -0.352 N 
ATOM     27  C   UNL A   1      33.242  34.518  28.597  1.00  0.00     0.251 C 
ATOM     28  H   UNL A   1      31.920  34.388  27.099  1.00  0.00     0.163 HD
ATOM     29  O   UNL A   1      32.865  35.640  28.925  1.00  0.00    -0.269 OA
BRANCH  27  30
ATOM     30  C   UNL A   1      34.398  33.891  29.283  1.00  0.00     0.039 A 
ATOM     31  C   UNL A   1      35.690  34.311  28.955  1.00  0.00     0.014 A 
ATOM     32  C   UNL A   1      34.224  32.876  30.228  1.00  0.00     0.014 A 
ATOM     33  C   UNL A   1      36.793  33.757  29.613  1.00  0.00     0.010 A 
ATOM     34  C   UNL A   1      35.311  32.404  30.956  1.00  0.00     0.010 A 
ATOM     35  C   UNL A   1      36.613  32.821  30.644  1.00  0.00    -0.014 A 
BRANCH  35  36
ATOM     36  C   UNL A   1      37.768  32.227  31.371  1.00  0.00     0.031 A 
ATOM     37  C   UNL A   1      38.549  31.098  30.744  1.00  0.00     0.074 A 
ATOM     38  C   UNL A   1      38.082  32.657  32.609  1.00  0.00     0.049 A 
ATOM     39  N   UNL A   1      39.521  30.381  31.246  1.00  0.00    -0.248 NA
ATOM     40  C   UNL A   1      38.150  30.698  29.386  1.00  0.00     0.031 C 
ATOM     41  C   UNL A   1      37.382  33.716  33.341  1.00  0.00     0.029 A 
ATOM     42  N   UNL A   1      39.071  32.257  33.473  1.00  0.00    -0.354 N 
ATOM     43  C   UNL A   1      39.833  29.434  30.276  1.00  0.00     0.074 A 
ATOM     44  C   UNL A   1      38.893  29.620  29.193  1.00  0.00     0.031 C 
ATOM     45  C   UNL A   1      37.988  33.906  34.525  1.00  0.00     0.029 A 
ATOM     46  C   UNL A   1      39.085  32.953  34.660  1.00  0.00     0.049 A 
ATOM     47  H   UNL A   1      39.710  31.538  33.262  1.00  0.00     0.167 HD
ATOM     48  C   UNL A   1      40.831  28.514  30.271  1.00  0.00     0.034 A 
ATOM     49  C   UNL A   1      39.889  32.834  35.736  1.00  0.00     0.034 A 
ATOM     50  C   UNL A   1      41.782  28.362  31.345  1.00  0.00     0.049 A 
ATOM     51  C   UNL A   1      40.984  31.797  35.717  1.00  0.00     0.074 A 
ATOM     52  C   UNL A   1      42.865  27.503  31.425  1.00  0.00     0.029 A 
ATOM     53  N   UNL A   1      41.766  29.089  32.529  1.00  0.00    -0.354 N 
ATOM     54  N   UNL A   1      41.289  30.934  34.775  1.00  0.00    -0.248 NA
ATOM     55  C   UNL A   1      41.848  31.725  36.902  1.00  0.00     0.031 C 
ATOM     56  C   UNL A   1      43.463  27.665  32.679  1.00  0.00     0.029 A 
ATOM     57  C   UNL A   1      42.802  28.679  33.354  1.00  0.00     0.049 A 
ATOM     58  H   UNL A   1      41.114  29.792  32.750  1.00  0.00     0.167 HD
ATOM     59  C   UNL A   1      42.403  30.240  35.243  1.00  0.00     0.074 A 
ATOM     60  C   UNL A   1      42.720  30.795  36.542  1.00  0.00     0.031 C 
ATOM     61  C   UNL A   1      43.101  29.237  34.652  1.00  0.00     0.034 A 
BRANCH  48  62
ATOM     62  C   UNL A   1      40.924  27.597  29.073  1.00  0.00     0.023 A 
ATOM     63  C   UNL A   1      41.918  27.763  28.092  1.00  0.00     0.031 A 
ATOM     64  C   UNL A   1      39.983  26.569  28.884  1.00  0.00     0.131 A 
ATOM     65  C   UNL A   1      41.891  26.983  26.926  1.00  0.00     0.055 A 
ATOM     66  C   UNL A   1      40.019  25.734  27.765  1.00  0.00     0.041 A 
ATOM     67  F   UNL A   1      38.998  26.372  29.773  1.00  0.00    -0.206 F 
ATOM     68  C   UNL A   1      40.965  25.951  26.768  1.00  0.00     0.022 A 
BRANCH  65  69
ATOM     69  S   UNL A   1      42.977  27.450  25.550  1.00  0.00     0.124 S 
ATOM     70  O   UNL A   1      44.108  28.046  26.259  1.00  0.00    -0.237 OA
ATOM     71  O   UNL A   1      43.234  26.168  24.902  1.00  0.00    -0.237 OA
ATOM     72  O   UNL A   1      42.168  28.390  24.778  1.00  0.00    -0.744 OA
ENDBRANCH  65  69
ENDBRANCH  48  62
BRANCH  49  73
ATOM     73  C   UNL A   1      39.697  33.714  36.925  1.00  0.00     0.023 A 
ATOM     74  C   UNL A   1      39.067  33.232  38.083  1.00  0.00     0.031 A 
ATOM     75  C   UNL A   1      40.103  35.059  36.908  1.00  0.00     0.131 A 
ATOM     76  C   UNL A   1      38.816  34.100  39.158  1.00  0.00     0.055 A 
ATOM     77  C   UNL A   1      39.899  35.905  38.000  1.00  0.00     0.041 A 
ATOM     78  F   UNL A   1      40.717  35.570  35.828  1.00  0.00    -0.206 F 
ATOM     79  C   UNL A   1      39.239  35.430  39.128  1.00  0.00     0.022 A 
BRANCH  76  80
ATOM     80  S   UNL A   1      37.847  33.483  40.563  1.00  0.00     0.124 S 
ATOM     81  O   UNL A   1      37.474  34.724  41.233  1.00  0.00    -0.237 OA
ATOM     82  O   UNL A   1      36.768  32.765  39.894  1.00  0.00    -0.237 OA
ATOM     83  O   UNL A   1      38.798  32.642  41.287  1.00  0.00    -0.744 OA
ENDBRANCH  76  80
ENDBRANCH  49  73
BRANCH  61  84
ATOM     84  C   UNL A   1      44.308  28.715  35.391  1.00  0.00     0.023 A 
ATOM     85  C   UNL A   1      44.205  27.687  36.345  1.00  0.00     0.031 A 
ATOM     86  C   UNL A   1      45.580  29.260  35.141  1.00  0.00     0.131 A 
ATOM     87  C   UNL A   1      45.345  27.275  37.053  1.00  0.00     0.055 A 
ATOM     88  C   UNL A   1      46.719  28.805  35.805  1.00  0.00     0.041 A 
ATOM     89  F   UNL A   1      45.736  30.244  34.241  1.00  0.00    -0.206 F 
ATOM     90  C   UNL A   1      46.603  27.815  36.776  1.00  0.00     0.022 A 
BRANCH  87  91
ATOM     91  S   UNL A   1      45.145  26.083  38.405  1.00  0.00     0.124 S 
ATOM     92  O   UNL A   1      44.255  26.801  39.313  1.00  0.00    -0.237 OA
ATOM     93  O   UNL A   1      44.565  24.931  37.723  1.00  0.00    -0.237 OA
ATOM     94  O   UNL A   1      46.508  25.890  38.896  1.00  0.00    -0.744 OA
ENDBRANCH  87  91
ENDBRANCH  61  84
ENDBRANCH  35  36
ENDBRANCH  27  30
ENDBRANCH  25  26
ENDBRANCH  24  25
ENDBRANCH   1  24
TORSDOF 18
ENDMDL
MODEL 2
REMARK VINA RESULT:     -11.3      3.528      8.991
REMARK SMILES C[N@@H+](CC(=O)NCCCCNC(=O)c1ccc(-c2c3nc(c(-c4cc(S(=O)(=O)[O-])ccc4F)c4ccc([nH]4)c(-c4cc(S(=O)(=O)[O-])ccc4F)c4nc(c(-c5cc(S(=O)(=O)[O-])ccc5F)c5ccc2[nH]5)C=C4)C=C3)cc1)Cc1noc(-c2ccccc2Cl)n1
REMARK SMILES IDX 8 1 7 2 6 3 4 4 5 5 3 7 2 8 1 9 77 11 78 12 79 13 89 14
REMARK SMILES IDX 80 15 81 16 82 17 83 18 87 19 84 20 86 21 88 22 85 23 9 24
REMARK SMILES IDX 10 25 11 26 12 27 13 29 14 30 15 31 76 32 16 33 75 34 17 35
REMARK SMILES IDX 18 36 19 37 69 38 20 39 74 40 68 41 70 42 21 43 73 44 67 45
REMARK SMILES IDX 66 46 22 48 54 49 34 50 53 51 35 52 38 53 52 54 71 55 36 56
REMARK SMILES IDX 37 57 51 59 72 60 39 61 23 62 24 63 32 64 25 65 31 66 33 67
REMARK SMILES IDX 30 68 26 69 27 70 28 71 29 72 55 73 56 74 64 75 57 76 63 77
REMARK SMILES IDX 65 78 62 79 58 80 59 81 60 82 61 83 40 84 41 85 49 86 42 87
REMARK SMILES IDX 48 88 50 89 47 90 43 91 44 92 45 93 46 94
REMARK H PARENT 6 6 2 10 11 28 70 47 38 58
REMARK Flexibility Score: inf
ROOT
ATOM      1  C   UNL A   1      31.751  27.916  27.484  1.00  0.00     0.023 C 
ENDROOT
BRANCH   1   2
ATOM      2  C   UNL A   1      31.944  26.776  26.482  1.00  0.00     0.116 C 
BRANCH   2   3
ATOM      3  N   UNL A   1      31.512  25.491  26.993  1.00  0.00    -0.351 N 
ATOM      4  C   UNL A   1      31.837  24.226  26.609  1.00  0.00     0.275 C 
ATOM      5  O   UNL A   1      31.353  23.294  27.260  1.00  0.00    -0.269 OA
ATOM      6  H   UNL A   1      30.877  25.541  27.744  1.00  0.00     0.163 HD
BRANCH   4   7
ATOM      7  C   UNL A   1      32.818  23.957  25.467  1.00  0.00     0.363 C 
BRANCH   7   8
ATOM      8  N   UNL A   1      32.312  23.214  24.311  1.00  0.00    -0.323 N 
ATOM      9  C   UNL A   1      32.522  21.787  24.268  1.00  0.00     0.333 C 
ATOM     10  H   UNL A   1      31.338  23.279  24.603  1.00  0.00     0.348 HD
BRANCH   8  11
ATOM     11  C   UNL A   1      32.238  23.877  23.003  1.00  0.00     0.345 C 
BRANCH  11  12
ATOM     12  C   UNL A   1      31.913  25.343  22.999  1.00  0.00     0.226 A 
ATOM     13  N   UNL A   1      32.839  26.252  22.659  1.00  0.00    -0.056 NA
ATOM     14  N   UNL A   1      30.672  25.868  23.286  1.00  0.00    -0.186 NA
ATOM     15  O   UNL A   1      32.114  27.444  22.606  1.00  0.00    -0.334 OA
ATOM     16  C   UNL A   1      30.835  27.138  22.974  1.00  0.00     0.259 A 
BRANCH  16  17
ATOM     17  C   UNL A   1      29.851  28.194  22.807  1.00  0.00     0.058 A 
ATOM     18  C   UNL A   1      30.244  29.382  22.160  1.00  0.00     0.015 A 
ATOM     19  C   UNL A   1      28.502  28.037  23.160  1.00  0.00     0.053 A 
ATOM     20  C   UNL A   1      29.309  30.372  21.847  1.00  0.00     0.001 A 
ATOM     21  C   UNL A   1      27.568  29.034  22.847  1.00  0.00     0.021 A 
ATOM     22  Cl  UNL A   1      27.923  26.617  23.958  1.00  0.00    -0.083 Cl
ATOM     23  C   UNL A   1      27.970  30.195  22.185  1.00  0.00     0.002 A 
ENDBRANCH  16  17
ENDBRANCH  11  12
ENDBRANCH   8  11
ENDBRANCH   7   8
ENDBRANCH   4   7
ENDBRANCH   2   3
ENDBRANCH   1   2
BRANCH   1  24
ATOM     24  C   UNL A   1      32.059  29.306  26.946  1.00  0.00     0.023 C 
BRANCH  24  25
ATOM     25  C   UNL A   1      33.489  29.774  27.123  1.00  0.00     0.116 C 
BRANCH  25  26
ATOM     26  N   UNL A   1      33.576  31.215  27.283  1.00  0.00    -0.352 N 
ATOM     27  C   UNL A   1      34.487  31.967  27.986  1.00  0.00     0.251 C 
ATOM     28  H   UNL A   1      32.878  31.730  26.817  1.00  0.00     0.163 HD
ATOM     29  O   UNL A   1      34.262  33.160  28.171  1.00  0.00    -0.269 OA
BRANCH  27  30
ATOM     30  C   UNL A   1      35.714  31.345  28.541  1.00  0.00     0.039 A 
ATOM     31  C   UNL A   1      35.604  30.146  29.251  1.00  0.00     0.014 A 
ATOM     32  C   UNL A   1      36.968  31.942  28.388  1.00  0.00     0.014 A 
ATOM     33  C   UNL A   1      36.751  29.525  29.754  1.00  0.00     0.010 A 
ATOM     34  C   UNL A   1      38.117  31.269  28.794  1.00  0.00     0.010 A 
ATOM     35  C   UNL A   1      38.023  30.063  29.502  1.00  0.00    -0.014 A 
BRANCH  35  36
ATOM     36  C   UNL A   1      39.261  29.413  30.012  1.00  0.00     0.031 A 
ATOM     37  C   UNL A   1      39.928  29.942  31.257  1.00  0.00     0.074 A 
ATOM     38  C   UNL A   1      39.818  28.390  29.333  1.00  0.00     0.049 A 
ATOM     39  N   UNL A   1      41.058  29.585  31.811  1.00  0.00    -0.248 NA
ATOM     40  C   UNL A   1      39.250  31.051  31.946  1.00  0.00     0.031 C 
ATOM     41  C   UNL A   1      39.292  27.810  28.095  1.00  0.00     0.029 A 
ATOM     42  N   UNL A   1      40.950  27.657  29.586  1.00  0.00    -0.354 N 
ATOM     43  C   UNL A   1      41.236  30.439  32.895  1.00  0.00     0.074 A 
ATOM     44  C   UNL A   1      40.137  31.378  32.871  1.00  0.00     0.031 C 
ATOM     45  C   UNL A   1      40.079  26.787  27.719  1.00  0.00     0.029 A 
ATOM     46  C   UNL A   1      41.190  26.669  28.658  1.00  0.00     0.049 A 
ATOM     47  H   UNL A   1      41.536  27.822  30.359  1.00  0.00     0.167 HD
ATOM     48  C   UNL A   1      42.206  30.422  33.845  1.00  0.00     0.034 A 
ATOM     49  C   UNL A   1      42.194  25.773  28.572  1.00  0.00     0.034 A 
ATOM     50  C   UNL A   1      43.278  29.457  33.874  1.00  0.00     0.049 A 
ATOM     51  C   UNL A   1      43.270  25.779  29.629  1.00  0.00     0.074 A 
ATOM     52  C   UNL A   1      44.283  29.312  34.815  1.00  0.00     0.029 A 
ATOM     53  N   UNL A   1      43.485  28.470  32.918  1.00  0.00    -0.354 N 
ATOM     54  N   UNL A   1      43.401  26.569  30.669  1.00  0.00    -0.248 NA
ATOM     55  C   UNL A   1      44.327  24.767  29.504  1.00  0.00     0.031 C 
ATOM     56  C   UNL A   1      45.131  28.280  34.396  1.00  0.00     0.029 A 
ATOM     57  C   UNL A   1      44.615  27.731  33.234  1.00  0.00     0.049 A 
ATOM     58  H   UNL A   1      42.912  28.318  32.133  1.00  0.00     0.167 HD
ATOM     59  C   UNL A   1      44.539  26.126  31.341  1.00  0.00     0.074 A 
ATOM     60  C   UNL A   1      45.044  24.992  30.594  1.00  0.00     0.031 C 
ATOM     61  C   UNL A   1      45.111  26.608  32.474  1.00  0.00     0.034 A 
BRANCH  48  62
ATOM     62  C   UNL A   1      42.152  31.492  34.912  1.00  0.00     0.023 A 
ATOM     63  C   UNL A   1      41.159  31.491  35.907  1.00  0.00     0.031 A 
ATOM     64  C   UNL A   1      43.076  32.551  34.910  1.00  0.00     0.131 A 
ATOM     65  C   UNL A   1      41.055  32.571  36.796  1.00  0.00     0.055 A 
ATOM     66  C   UNL A   1      43.024  33.576  35.858  1.00  0.00     0.041 A 
ATOM     67  F   UNL A   1      44.036  32.620  33.974  1.00  0.00    -0.206 F 
ATOM     68  C   UNL A   1      41.998  33.601  36.796  1.00  0.00     0.022 A 
BRANCH  65  69
ATOM     69  S   UNL A   1      39.574  32.693  37.837  1.00  0.00     0.124 S 
ATOM     70  O   UNL A   1      38.756  31.603  37.311  1.00  0.00    -0.237 OA
ATOM     71  O   UNL A   1      40.115  32.497  39.178  1.00  0.00    -0.237 OA
ATOM     72  O   UNL A   1      39.067  34.035  37.557  1.00  0.00    -0.744 OA
ENDBRANCH  65  69
ENDBRANCH  48  62
BRANCH  49  73
ATOM     73  C   UNL A   1      42.239  24.792  27.448  1.00  0.00     0.023 A 
ATOM     74  C   UNL A   1      41.464  23.623  27.482  1.00  0.00     0.031 A 
ATOM     75  C   UNL A   1      43.088  24.989  26.345  1.00  0.00     0.131 A 
ATOM     76  C   UNL A   1      41.588  22.670  26.459  1.00  0.00     0.055 A 
ATOM     77  C   UNL A   1      43.167  24.064  25.302  1.00  0.00     0.041 A 
ATOM     78  F   UNL A   1      43.845  26.094  26.259  1.00  0.00    -0.206 F 
ATOM     79  C   UNL A   1      42.425  22.889  25.362  1.00  0.00     0.022 A 
BRANCH  76  80
ATOM     80  S   UNL A   1      40.700  21.097  26.626  1.00  0.00     0.124 S 
ATOM     81  O   UNL A   1      41.507  20.211  25.794  1.00  0.00    -0.237 OA
ATOM     82  O   UNL A   1      40.767  20.864  28.065  1.00  0.00    -0.237 OA
ATOM     83  O   UNL A   1      39.368  21.401  26.108  1.00  0.00    -0.744 OA
ENDBRANCH  76  80
ENDBRANCH  49  73
BRANCH  61  84
ATOM     84  C   UNL A   1      46.322  25.875  32.995  1.00  0.00     0.023 A 
ATOM     85  C   UNL A   1      47.616  26.146  32.517  1.00  0.00     0.031 A 
ATOM     86  C   UNL A   1      46.176  24.882  33.982  1.00  0.00     0.131 A 
ATOM     87  C   UNL A   1      48.705  25.397  32.987  1.00  0.00     0.055 A 
ATOM     88  C   UNL A   1      47.271  24.182  34.488  1.00  0.00     0.041 A 
ATOM     89  F   UNL A   1      44.963  24.581  34.473  1.00  0.00    -0.206 F 
ATOM     90  C   UNL A   1      48.543  24.429  33.981  1.00  0.00     0.022 A 
BRANCH  87  91
ATOM     91  S   UNL A   1      50.328  25.643  32.215  1.00  0.00     0.124 S 
ATOM     92  O   UNL A   1      50.368  27.093  32.048  1.00  0.00    -0.237 OA
ATOM     93  O   UNL A   1      51.236  25.091  33.215  1.00  0.00    -0.237 OA
ATOM     94  O   UNL A   1      50.236  24.878  30.973  1.00  0.00    -0.744 OA
ENDBRANCH  87  91
ENDBRANCH  61  84
ENDBRANCH  35  36
ENDBRANCH  27  30
ENDBRANCH  25  26
ENDBRANCH  24  25
ENDBRANCH   1  24
TORSDOF 18
ENDMDL
MODEL 3
REMARK VINA RESULT:     -11.2      2.777      8.272
REMARK SMILES C[N@@H+](CC(=O)NCCCCNC(=O)c1ccc(-c2c3nc(c(-c4cc(S(=O)(=O)[O-])ccc4F)c4ccc([nH]4)c(-c4cc(S(=O)(=O)[O-])ccc4F)c4nc(c(-c5cc(S(=O)(=O)[O-])ccc5F)c5ccc2[nH]5)C=C4)C=C3)cc1)Cc1noc(-c2ccccc2Cl)n1
REMARK SMILES IDX 8 1 7 2 6 3 4 4 5 5 3 7 2 8 1 9 77 11 78 12 79 13 89 14
REMARK SMILES IDX 80 15 81 16 82 17 83 18 87 19 84 20 86 21 88 22 85 23 9 24
REMARK SMILES IDX 10 25 11 26 12 27 13 29 14 30 15 31 76 32 16 33 75 34 17 35
REMARK SMILES IDX 18 36 19 37 69 38 20 39 74 40 68 41 70 42 21 43 73 44 67 45
REMARK SMILES IDX 66 46 22 48 54 49 34 50 53 51 35 52 38 53 52 54 71 55 36 56
REMARK SMILES IDX 37 57 51 59 72 60 39 61 23 62 24 63 32 64 25 65 31 66 33 67
REMARK SMILES IDX 30 68 26 69 27 70 28 71 29 72 55 73 56 74 64 75 57 76 63 77
REMARK SMILES IDX 65 78 62 79 58 80 59 81 60 82 61 83 40 84 41 85 49 86 42 87
REMARK SMILES IDX 48 88 50 89 47 90 43 91 44 92 45 93 46 94
REMARK H PARENT 6 6 2 10 11 28 70 47 38 58
REMARK Flexibility Score: inf
ROOT
ATOM      1  C   UNL A   1      31.403  29.227  25.676  1.00  0.00     0.023 C 
ENDROOT
BRANCH   1   2
ATOM      2  C   UNL A   1      32.223  29.241  24.385  1.00  0.00     0.116 C 
BRANCH   2   3
ATOM      3  N   UNL A   1      31.415  29.446  23.200  1.00  0.00    -0.351 N 
ATOM      4  C   UNL A   1      30.476  28.652  22.616  1.00  0.00     0.275 C 
ATOM      5  O   UNL A   1      29.893  29.101  21.623  1.00  0.00    -0.269 OA
ATOM      6  H   UNL A   1      31.570  30.303  22.742  1.00  0.00     0.163 HD
BRANCH   4   7
ATOM      7  C   UNL A   1      30.097  27.290  23.198  1.00  0.00     0.363 C 
BRANCH   7   8
ATOM      8  N   UNL A   1      30.752  26.112  22.625  1.00  0.00    -0.323 N 
ATOM      9  C   UNL A   1      30.422  24.814  23.162  1.00  0.00     0.333 C 
ATOM     10  H   UNL A   1      30.204  26.135  21.765  1.00  0.00     0.348 HD
BRANCH   8  11
ATOM     11  C   UNL A   1      32.108  26.237  22.074  1.00  0.00     0.345 C 
BRANCH  11  12
ATOM     12  C   UNL A   1      33.218  25.578  22.839  1.00  0.00     0.226 A 
ATOM     13  N   UNL A   1      33.707  26.135  23.958  1.00  0.00    -0.056 NA
ATOM     14  N   UNL A   1      33.784  24.367  22.507  1.00  0.00    -0.186 NA
ATOM     15  O   UNL A   1      34.571  25.155  24.453  1.00  0.00    -0.334 OA
ATOM     16  C   UNL A   1      34.553  24.131  23.551  1.00  0.00     0.259 A 
BRANCH  16  17
ATOM     17  C   UNL A   1      35.236  22.913  23.954  1.00  0.00     0.058 A 
ATOM     18  C   UNL A   1      36.638  22.855  23.827  1.00  0.00     0.015 A 
ATOM     19  C   UNL A   1      34.573  21.839  24.567  1.00  0.00     0.053 A 
ATOM     20  C   UNL A   1      37.359  21.768  24.328  1.00  0.00     0.001 A 
ATOM     21  C   UNL A   1      35.301  20.749  25.064  1.00  0.00     0.021 A 
ATOM     22  Cl  UNL A   1      32.856  21.815  24.766  1.00  0.00    -0.083 Cl
ATOM     23  C   UNL A   1      36.691  20.719  24.952  1.00  0.00     0.002 A 
ENDBRANCH  16  17
ENDBRANCH  11  12
ENDBRANCH   8  11
ENDBRANCH   7   8
ENDBRANCH   4   7
ENDBRANCH   2   3
ENDBRANCH   1   2
BRANCH   1  24
ATOM     24  C   UNL A   1      32.218  29.306  26.959  1.00  0.00     0.023 C 
BRANCH  24  25
ATOM     25  C   UNL A   1      33.616  29.873  26.812  1.00  0.00     0.116 C 
BRANCH  25  26
ATOM     26  N   UNL A   1      33.668  31.287  27.136  1.00  0.00    -0.352 N 
ATOM     27  C   UNL A   1      34.554  31.974  27.932  1.00  0.00     0.251 C 
ATOM     28  H   UNL A   1      32.963  31.837  26.724  1.00  0.00     0.163 HD
ATOM     29  O   UNL A   1      34.301  33.133  28.248  1.00  0.00    -0.269 OA
BRANCH  27  30
ATOM     30  C   UNL A   1      35.790  31.319  28.426  1.00  0.00     0.039 A 
ATOM     31  C   UNL A   1      36.979  32.053  28.462  1.00  0.00     0.014 A 
ATOM     32  C   UNL A   1      35.795  29.982  28.833  1.00  0.00     0.014 A 
ATOM     33  C   UNL A   1      38.148  31.466  28.956  1.00  0.00     0.010 A 
ATOM     34  C   UNL A   1      36.929  29.434  29.423  1.00  0.00     0.010 A 
ATOM     35  C   UNL A   1      38.128  30.160  29.472  1.00  0.00    -0.014 A 
BRANCH  35  36
ATOM     36  C   UNL A   1      39.354  29.518  30.018  1.00  0.00     0.031 A 
ATOM     37  C   UNL A   1      39.933  29.996  31.328  1.00  0.00     0.074 A 
ATOM     38  C   UNL A   1      39.980  28.549  29.320  1.00  0.00     0.049 A 
ATOM     39  N   UNL A   1      41.039  29.641  31.926  1.00  0.00    -0.248 NA
ATOM     40  C   UNL A   1      39.182  31.047  32.033  1.00  0.00     0.031 C 
ATOM     41  C   UNL A   1      39.543  28.023  28.024  1.00  0.00     0.029 A 
ATOM     42  N   UNL A   1      41.117  27.834  29.600  1.00  0.00    -0.354 N 
ATOM     43  C   UNL A   1      41.129  30.438  33.063  1.00  0.00     0.074 A 
ATOM     44  C   UNL A   1      40.005  31.347  33.024  1.00  0.00     0.031 C 
ATOM     45  C   UNL A   1      40.380  27.045  27.643  1.00  0.00     0.029 A 
ATOM     46  C   UNL A   1      41.440  26.905  28.637  1.00  0.00     0.049 A 
ATOM     47  H   UNL A   1      41.652  27.973  30.415  1.00  0.00     0.167 HD
ATOM     48  C   UNL A   1      42.043  30.396  34.066  1.00  0.00     0.034 A 
ATOM     49  C   UNL A   1      42.474  26.043  28.562  1.00  0.00     0.034 A 
ATOM     50  C   UNL A   1      43.140  29.461  34.107  1.00  0.00     0.049 A 
ATOM     51  C   UNL A   1      43.487  26.021  29.680  1.00  0.00     0.074 A 
ATOM     52  C   UNL A   1      44.094  29.291  35.096  1.00  0.00     0.029 A 
ATOM     53  N   UNL A   1      43.431  28.533  33.114  1.00  0.00    -0.354 N 
ATOM     54  N   UNL A   1      43.534  26.757  30.767  1.00  0.00    -0.248 NA
ATOM     55  C   UNL A   1      44.579  25.046  29.564  1.00  0.00     0.031 C 
ATOM     56  C   UNL A   1      44.996  28.308  34.674  1.00  0.00     0.029 A 
ATOM     57  C   UNL A   1      44.563  27.809  33.456  1.00  0.00     0.049 A 
ATOM     58  H   UNL A   1      42.910  28.408  32.289  1.00  0.00     0.167 HD
ATOM     59  C   UNL A   1      44.645  26.308  31.480  1.00  0.00     0.074 A 
ATOM     60  C   UNL A   1      45.226  25.231  30.705  1.00  0.00     0.031 C 
ATOM     61  C   UNL A   1      45.136  26.743  32.668  1.00  0.00     0.034 A 
BRANCH  48  62
ATOM     62  C   UNL A   1      41.895  31.404  35.183  1.00  0.00     0.023 A 
ATOM     63  C   UNL A   1      40.781  31.398  36.040  1.00  0.00     0.031 A 
ATOM     64  C   UNL A   1      42.858  32.413  35.368  1.00  0.00     0.131 A 
ATOM     65  C   UNL A   1      40.608  32.429  36.975  1.00  0.00     0.055 A 
ATOM     66  C   UNL A   1      42.726  33.382  36.364  1.00  0.00     0.041 A 
ATOM     67  F   UNL A   1      43.934  32.486  34.570  1.00  0.00    -0.206 F 
ATOM     68  C   UNL A   1      41.587  33.407  37.162  1.00  0.00     0.022 A 
BRANCH  65  69
ATOM     69  S   UNL A   1      39.010  32.567  37.822  1.00  0.00     0.124 S 
ATOM     70  O   UNL A   1      38.493  33.818  37.271  1.00  0.00    -0.237 OA
ATOM     71  O   UNL A   1      38.323  31.351  37.399  1.00  0.00    -0.237 OA
ATOM     72  O   UNL A   1      39.374  32.620  39.236  1.00  0.00    -0.744 OA
ENDBRANCH  65  69
ENDBRANCH  48  62
BRANCH  49  73
ATOM     73  C   UNL A   1      42.613  25.127  27.393  1.00  0.00     0.023 A 
ATOM     74  C   UNL A   1      42.041  23.845  27.411  1.00  0.00     0.031 A 
ATOM     75  C   UNL A   1      43.353  25.503  26.259  1.00  0.00     0.131 A 
ATOM     76  C   UNL A   1      42.259  22.966  26.339  1.00  0.00     0.055 A 
ATOM     77  C   UNL A   1      43.521  24.644  25.171  1.00  0.00     0.041 A 
ATOM     78  F   UNL A   1      43.914  26.721  26.187  1.00  0.00    -0.206 F 
ATOM     79  C   UNL A   1      42.985  23.361  25.213  1.00  0.00     0.022 A 
BRANCH  76  80
ATOM     80  S   UNL A   1      41.650  21.262  26.477  1.00  0.00     0.124 S 
ATOM     81  O   UNL A   1      41.922  20.962  27.878  1.00  0.00    -0.237 OA
ATOM     82  O   UNL A   1      40.245  21.413  26.113  1.00  0.00    -0.237 OA
ATOM     83  O   UNL A   1      42.466  20.531  25.510  1.00  0.00    -0.744 OA
ENDBRANCH  76  80
ENDBRANCH  49  73
BRANCH  61  84
ATOM     84  C   UNL A   1      46.337  26.016  33.219  1.00  0.00     0.023 A 
ATOM     85  C   UNL A   1      46.210  24.814  33.937  1.00  0.00     0.031 A 
ATOM     86  C   UNL A   1      47.629  26.539  33.029  1.00  0.00     0.131 A 
ATOM     87  C   UNL A   1      47.349  24.204  34.485  1.00  0.00     0.055 A 
ATOM     88  C   UNL A   1      48.764  25.896  33.524  1.00  0.00     0.041 A 
ATOM     89  F   UNL A   1      47.808  27.684  32.351  1.00  0.00    -0.206 F 
ATOM     90  C   UNL A   1      48.626  24.729  34.268  1.00  0.00     0.022 A 
BRANCH  87  91
ATOM     91  S   UNL A   1      47.131  22.761  35.562  1.00  0.00     0.124 S 
ATOM     92  O   UNL A   1      47.493  21.661  34.672  1.00  0.00    -0.237 OA
ATOM     93  O   UNL A   1      48.066  23.037  36.647  1.00  0.00    -0.237 OA
ATOM     94  O   UNL A   1      45.719  22.820  35.931  1.00  0.00    -0.744 OA
ENDBRANCH  87  91
ENDBRANCH  61  84
ENDBRANCH  35  36
ENDBRANCH  27  30
ENDBRANCH  25  26
ENDBRANCH  24  25
ENDBRANCH   1  24
TORSDOF 18
ENDMDL
