MODEL 1
REMARK VINA RESULT:     -13.5      0.000      0.000
REMARK SMILES Cc1ccc(-c2cc(C(=O)NCCCCNC(=O)c3ccc(-c4c5nc(c(-c6cc(S(=O)(=O)[O-])ccc6F)c6ccc([nH]6)c(-c6cc(S(=O)(=O)[O-])ccc6F)c6nc(c(-c7cc(S(=O)(=O)[O-])ccc7F)c7ccc4[nH]7)C=C6)C=C5)cc3)c3cc(C)ccc3n2)c(C)c1
REMARK SMILES IDX 14 1 13 2 12 3 11 4 9 5 10 6 8 8 6 9 7 10 89 11 88 12 82 13
REMARK SMILES IDX 87 14 83 15 86 16 84 17 85 18 5 19 1 20 2 21 3 22 92 23 4 24
REMARK SMILES IDX 90 25 91 26 15 27 16 28 17 29 18 31 19 32 20 33 81 34 21 35
REMARK SMILES IDX 80 36 22 37 23 38 24 39 74 40 25 41 79 42 73 43 75 44 26 45
REMARK SMILES IDX 78 46 72 47 71 48 27 50 59 51 39 52 58 53 40 54 43 55 57 56
REMARK SMILES IDX 76 57 41 58 42 59 56 61 77 62 44 63 28 64 29 65 37 66 30 67
REMARK SMILES IDX 36 68 38 69 35 70 31 71 32 72 33 73 34 74 60 75 61 76 69 77
REMARK SMILES IDX 62 78 68 79 70 80 67 81 63 82 64 83 65 84 66 85 45 86 46 87
REMARK SMILES IDX 54 88 47 89 53 90 55 91 52 92 48 93 49 94 50 95 51 96
REMARK H PARENT 11 7 16 30 75 49 43 60
REMARK Flexibility Score: inf
ROOT
ATOM      1  C   UNL A   1      31.725  28.982  24.707  1.00  0.00     0.023 C 
ENDROOT
BRANCH   1   2
ATOM      2  C   UNL A   1      32.048  29.006  23.214  1.00  0.00     0.023 C 
BRANCH   2   3
ATOM      3  C   UNL A   1      33.369  28.386  22.786  1.00  0.00     0.116 C 
BRANCH   3   4
ATOM      4  N   UNL A   1      33.346  27.524  21.616  1.00  0.00    -0.352 N 
ATOM      5  C   UNL A   1      33.105  26.166  21.513  1.00  0.00     0.252 C 
ATOM      6  O   UNL A   1      33.074  25.660  20.392  1.00  0.00    -0.269 OA
ATOM      7  H   UNL A   1      33.529  27.979  20.762  1.00  0.00     0.163 HD
BRANCH   5   8
ATOM      8  C   UNL A   1      32.992  25.264  22.701  1.00  0.00     0.051 A 
ATOM      9  C   UNL A   1      34.133  23.719  24.133  1.00  0.00     0.072 A 
ATOM     10  C   UNL A   1      34.116  24.471  22.970  1.00  0.00     0.043 A 
ATOM     11  N   UNL A   1      33.165  23.830  25.072  1.00  0.00    -0.248 NA
ATOM     12  C   UNL A   1      32.075  24.562  24.800  1.00  0.00     0.072 A 
ATOM     13  C   UNL A   1      31.878  25.196  23.563  1.00  0.00     0.013 A 
ATOM     14  C   UNL A   1      31.109  24.711  25.785  1.00  0.00     0.029 A 
ATOM     15  C   UNL A   1      30.602  25.733  23.285  1.00  0.00     0.014 A 
ATOM     16  C   UNL A   1      29.937  25.442  25.565  1.00  0.00     0.005 A 
ATOM     17  C   UNL A   1      29.661  25.936  24.296  1.00  0.00    -0.050 A 
ATOM     18  C   UNL A   1      28.464  26.804  24.039  1.00  0.00     0.044 C 
BRANCH   9  19
ATOM     19  C   UNL A   1      35.161  22.701  24.406  1.00  0.00     0.003 A 
ATOM     20  C   UNL A   1      38.226  19.752  25.273  1.00  0.00     0.044 C 
ATOM     21  C   UNL A   1      37.179  20.782  24.965  1.00  0.00    -0.051 A 
ATOM     22  C   UNL A   1      37.513  22.121  24.758  1.00  0.00     0.004 A 
ATOM     23  C   UNL A   1      35.837  20.403  24.887  1.00  0.00     0.007 A 
ATOM     24  C   UNL A   1      36.518  23.067  24.483  1.00  0.00     0.011 A 
ATOM     25  C   UNL A   1      34.825  21.340  24.599  1.00  0.00    -0.041 A 
ATOM     26  C   UNL A   1      33.407  20.832  24.548  1.00  0.00     0.045 C 
ENDBRANCH   9  19
ENDBRANCH   5   8
ENDBRANCH   3   4
ENDBRANCH   2   3
ENDBRANCH   1   2
BRANCH   1  27
ATOM     27  C   UNL A   1      32.767  29.543  25.671  1.00  0.00     0.116 C 
BRANCH  27  28
ATOM     28  N   UNL A   1      32.459  30.863  26.199  1.00  0.00    -0.352 N 
ATOM     29  C   UNL A   1      33.153  31.661  27.083  1.00  0.00     0.251 C 
ATOM     30  H   UNL A   1      31.616  31.250  25.870  1.00  0.00     0.163 HD
ATOM     31  O   UNL A   1      32.662  32.739  27.417  1.00  0.00    -0.269 OA
BRANCH  29  32
ATOM     32  C   UNL A   1      34.439  31.216  27.673  1.00  0.00     0.039 A 
ATOM     33  C   UNL A   1      35.441  32.165  27.899  1.00  0.00     0.014 A 
ATOM     34  C   UNL A   1      34.671  29.881  28.008  1.00  0.00     0.014 A 
ATOM     35  C   UNL A   1      36.628  31.792  28.538  1.00  0.00     0.010 A 
ATOM     36  C   UNL A   1      35.808  29.531  28.736  1.00  0.00     0.010 A 
ATOM     37  C   UNL A   1      36.807  30.479  29.002  1.00  0.00    -0.014 A 
BRANCH  37  38
ATOM     38  C   UNL A   1      38.041  30.079  29.735  1.00  0.00     0.031 A 
ATOM     39  C   UNL A   1      38.290  30.585  31.133  1.00  0.00     0.074 A 
ATOM     40  C   UNL A   1      38.960  29.296  29.135  1.00  0.00     0.049 A 
ATOM     41  N   UNL A   1      39.312  30.376  31.925  1.00  0.00    -0.248 NA
ATOM     42  C   UNL A   1      37.269  31.479  31.698  1.00  0.00     0.031 C 
ATOM     43  C   UNL A   1      38.869  28.778  27.768  1.00  0.00     0.029 A 
ATOM     44  N   UNL A   1      40.152  28.792  29.598  1.00  0.00    -0.354 N 
ATOM     45  C   UNL A   1      39.058  31.118  33.076  1.00  0.00     0.074 A 
ATOM     46  C   UNL A   1      37.835  31.853  32.834  1.00  0.00     0.031 C 
ATOM     47  C   UNL A   1      39.930  27.991  27.523  1.00  0.00     0.029 A 
ATOM     48  C   UNL A   1      40.798  27.978  28.697  1.00  0.00     0.049 A 
ATOM     49  H   UNL A   1      40.510  28.994  30.492  1.00  0.00     0.167 HD
ATOM     50  C   UNL A   1      39.753  31.155  34.241  1.00  0.00     0.034 A 
ATOM     51  C   UNL A   1      41.952  27.292  28.805  1.00  0.00     0.034 A 
ATOM     52  C   UNL A   1      40.970  30.413  34.473  1.00  0.00     0.049 A 
ATOM     53  C   UNL A   1      42.723  27.361  30.100  1.00  0.00     0.074 A 
ATOM     54  C   UNL A   1      41.745  30.355  35.618  1.00  0.00     0.029 A 
ATOM     55  N   UNL A   1      41.592  29.598  33.533  1.00  0.00    -0.354 N 
ATOM     56  N   UNL A   1      42.446  28.030  31.195  1.00  0.00    -0.248 NA
ATOM     57  C   UNL A   1      43.952  26.562  30.177  1.00  0.00     0.031 C 
ATOM     58  C   UNL A   1      42.865  29.555  35.352  1.00  0.00     0.029 A 
ATOM     59  C   UNL A   1      42.748  29.048  34.068  1.00  0.00     0.049 A 
ATOM     60  H   UNL A   1      41.260  29.434  32.621  1.00  0.00     0.167 HD
ATOM     61  C   UNL A   1      43.445  27.695  32.107  1.00  0.00     0.074 A 
ATOM     62  C   UNL A   1      44.320  26.757  31.433  1.00  0.00     0.031 C 
ATOM     63  C   UNL A   1      43.619  28.117  33.386  1.00  0.00     0.034 A 
BRANCH  50  64
ATOM     64  C   UNL A   1      39.207  32.045  35.337  1.00  0.00     0.023 A 
ATOM     65  C   UNL A   1      39.598  33.393  35.450  1.00  0.00     0.031 A 
ATOM     66  C   UNL A   1      38.346  31.532  36.322  1.00  0.00     0.131 A 
ATOM     67  C   UNL A   1      39.226  34.142  36.576  1.00  0.00     0.055 A 
ATOM     68  C   UNL A   1      37.895  32.315  37.388  1.00  0.00     0.041 A 
ATOM     69  F   UNL A   1      37.948  30.250  36.285  1.00  0.00    -0.206 F 
ATOM     70  C   UNL A   1      38.354  33.621  37.533  1.00  0.00     0.022 A 
BRANCH  67  71
ATOM     71  S   UNL A   1      40.057  35.728  36.868  1.00  0.00     0.124 S 
ATOM     72  O   UNL A   1      39.456  36.146  38.133  1.00  0.00    -0.237 OA
ATOM     73  O   UNL A   1      41.462  35.342  36.926  1.00  0.00    -0.237 OA
ATOM     74  O   UNL A   1      39.676  36.533  35.711  1.00  0.00    -0.744 OA
ENDBRANCH  67  71
ENDBRANCH  50  64
BRANCH  51  75
ATOM     75  C   UNL A   1      42.442  26.447  27.678  1.00  0.00     0.023 A 
ATOM     76  C   UNL A   1      41.997  25.123  27.527  1.00  0.00     0.031 A 
ATOM     77  C   UNL A   1      43.391  26.931  26.761  1.00  0.00     0.131 A 
ATOM     78  C   UNL A   1      42.537  24.313  26.516  1.00  0.00     0.055 A 
ATOM     79  C   UNL A   1      43.885  26.138  25.724  1.00  0.00     0.041 A 
ATOM     80  F   UNL A   1      43.843  28.192  26.855  1.00  0.00    -0.206 F 
ATOM     81  C   UNL A   1      43.469  24.815  25.605  1.00  0.00     0.022 A 
BRANCH  78  82
ATOM     82  S   UNL A   1      42.058  22.564  26.455  1.00  0.00     0.124 S 
ATOM     83  O   UNL A   1      42.648  22.052  27.685  1.00  0.00    -0.237 OA
ATOM     84  O   UNL A   1      40.601  22.651  26.428  1.00  0.00    -0.237 OA
ATOM     85  O   UNL A   1      42.674  22.085  25.219  1.00  0.00    -0.744 OA
ENDBRANCH  78  82
ENDBRANCH  51  75
BRANCH  63  86
ATOM     86  C   UNL A   1      44.766  27.508  34.158  1.00  0.00     0.023 A 
ATOM     87  C   UNL A   1      44.620  26.321  34.897  1.00  0.00     0.031 A 
ATOM     88  C   UNL A   1      46.016  28.152  34.185  1.00  0.00     0.131 A 
ATOM     89  C   UNL A   1      45.682  25.855  35.689  1.00  0.00     0.055 A 
ATOM     90  C   UNL A   1      47.089  27.647  34.919  1.00  0.00     0.041 A 
ATOM     91  F   UNL A   1      46.214  29.290  33.500  1.00  0.00    -0.206 F 
ATOM     92  C   UNL A   1      46.921  26.501  35.692  1.00  0.00     0.022 A 
BRANCH  89  93
ATOM     93  S   UNL A   1      45.382  24.464  36.815  1.00  0.00     0.124 S 
ATOM     94  O   UNL A   1      44.725  23.499  35.939  1.00  0.00    -0.237 OA
ATOM     95  O   UNL A   1      46.733  24.117  37.246  1.00  0.00    -0.237 OA
ATOM     96  O   UNL A   1      44.530  25.040  37.853  1.00  0.00    -0.744 OA
ENDBRANCH  89  93
ENDBRANCH  63  86
ENDBRANCH  37  38
ENDBRANCH  29  32
ENDBRANCH  27  28
ENDBRANCH   1  27
TORSDOF 15
ENDMDL
MODEL 2
REMARK VINA RESULT:     -13.2      2.230      2.919
REMARK SMILES Cc1ccc(-c2cc(C(=O)NCCCCNC(=O)c3ccc(-c4c5nc(c(-c6cc(S(=O)(=O)[O-])ccc6F)c6ccc([nH]6)c(-c6cc(S(=O)(=O)[O-])ccc6F)c6nc(c(-c7cc(S(=O)(=O)[O-])ccc7F)c7ccc4[nH]7)C=C6)C=C5)cc3)c3cc(C)ccc3n2)c(C)c1
REMARK SMILES IDX 14 1 13 2 12 3 11 4 9 5 10 6 8 8 6 9 7 10 89 11 88 12 82 13
REMARK SMILES IDX 87 14 83 15 86 16 84 17 85 18 5 19 1 20 2 21 3 22 92 23 4 24
REMARK SMILES IDX 90 25 91 26 15 27 16 28 17 29 18 31 19 32 20 33 81 34 21 35
REMARK SMILES IDX 80 36 22 37 23 38 24 39 74 40 25 41 79 42 73 43 75 44 26 45
REMARK SMILES IDX 78 46 72 47 71 48 27 50 59 51 39 52 58 53 40 54 43 55 57 56
REMARK SMILES IDX 76 57 41 58 42 59 56 61 77 62 44 63 28 64 29 65 37 66 30 67
REMARK SMILES IDX 36 68 38 69 35 70 31 71 32 72 33 73 34 74 60 75 61 76 69 77
REMARK SMILES IDX 62 78 68 79 70 80 67 81 63 82 64 83 65 84 66 85 45 86 46 87
REMARK SMILES IDX 54 88 47 89 53 90 55 91 52 92 48 93 49 94 50 95 51 96
REMARK H PARENT 11 7 16 30 75 49 43 60
REMARK Flexibility Score: inf
ROOT
ATOM      1  C   UNL A   1      31.149  32.095  26.466  1.00  0.00     0.023 C 
ENDROOT
BRANCH   1   2
ATOM      2  C   UNL A   1      31.089  30.805  25.650  1.00  0.00     0.023 C 
BRANCH   2   3
ATOM      3  C   UNL A   1      32.285  29.870  25.753  1.00  0.00     0.116 C 
BRANCH   3   4
ATOM      4  N   UNL A   1      33.076  29.675  24.549  1.00  0.00    -0.352 N 
ATOM      5  C   UNL A   1      32.860  28.842  23.466  1.00  0.00     0.252 C 
ATOM      6  O   UNL A   1      33.645  28.897  22.519  1.00  0.00    -0.269 OA
ATOM      7  H   UNL A   1      33.893  30.221  24.496  1.00  0.00     0.163 HD
BRANCH   5   8
ATOM      8  C   UNL A   1      31.785  27.802  23.436  1.00  0.00     0.051 A 
ATOM      9  C   UNL A   1      31.223  25.518  23.889  1.00  0.00     0.072 A 
ATOM     10  C   UNL A   1      32.191  26.501  23.760  1.00  0.00     0.043 A 
ATOM     11  N   UNL A   1      29.901  25.804  23.843  1.00  0.00    -0.248 NA
ATOM     12  C   UNL A   1      29.514  27.042  23.501  1.00  0.00     0.072 A 
ATOM     13  C   UNL A   1      30.426  28.051  23.153  1.00  0.00     0.013 A 
ATOM     14  C   UNL A   1      28.159  27.341  23.502  1.00  0.00     0.029 A 
ATOM     15  C   UNL A   1      29.920  29.235  22.573  1.00  0.00     0.014 A 
ATOM     16  C   UNL A   1      27.682  28.603  23.135  1.00  0.00     0.005 A 
ATOM     17  C   UNL A   1      28.563  29.555  22.637  1.00  0.00    -0.050 A 
ATOM     18  C   UNL A   1      28.108  30.950  22.321  1.00  0.00     0.044 C 
BRANCH   9  19
ATOM     19  C   UNL A   1      31.554  24.089  24.018  1.00  0.00     0.003 A 
ATOM     20  C   UNL A   1      32.605  19.892  24.360  1.00  0.00     0.044 C 
ATOM     21  C   UNL A   1      32.238  21.340  24.224  1.00  0.00    -0.051 A 
ATOM     22  C   UNL A   1      32.350  22.009  23.004  1.00  0.00     0.004 A 
ATOM     23  C   UNL A   1      31.780  22.046  25.339  1.00  0.00     0.007 A 
ATOM     24  C   UNL A   1      32.013  23.365  22.903  1.00  0.00     0.011 A 
ATOM     25  C   UNL A   1      31.424  23.406  25.251  1.00  0.00    -0.041 A 
ATOM     26  C   UNL A   1      30.951  24.081  26.514  1.00  0.00     0.045 C 
ENDBRANCH   9  19
ENDBRANCH   5   8
ENDBRANCH   3   4
ENDBRANCH   2   3
ENDBRANCH   1   2
BRANCH   1  27
ATOM     27  C   UNL A   1      32.524  32.615  26.878  1.00  0.00     0.116 C 
BRANCH  27  28
ATOM     28  N   UNL A   1      32.504  33.861  27.629  1.00  0.00    -0.352 N 
ATOM     29  C   UNL A   1      33.361  34.340  28.595  1.00  0.00     0.251 C 
ATOM     30  H   UNL A   1      31.754  34.460  27.410  1.00  0.00     0.163 HD
ATOM     31  O   UNL A   1      33.110  35.423  29.124  1.00  0.00    -0.269 OA
BRANCH  29  32
ATOM     32  C   UNL A   1      34.536  33.552  29.039  1.00  0.00     0.039 A 
ATOM     33  C   UNL A   1      35.818  34.024  28.736  1.00  0.00     0.014 A 
ATOM     34  C   UNL A   1      34.395  32.361  29.751  1.00  0.00     0.014 A 
ATOM     35  C   UNL A   1      36.945  33.351  29.221  1.00  0.00     0.010 A 
ATOM     36  C   UNL A   1      35.513  31.750  30.320  1.00  0.00     0.010 A 
ATOM     37  C   UNL A   1      36.803  32.231  30.055  1.00  0.00    -0.014 A 
BRANCH  37  38
ATOM     38  C   UNL A   1      37.992  31.536  30.626  1.00  0.00     0.031 A 
ATOM     39  C   UNL A   1      38.453  31.853  32.027  1.00  0.00     0.074 A 
ATOM     40  C   UNL A   1      38.684  30.654  29.880  1.00  0.00     0.049 A 
ATOM     41  N   UNL A   1      39.476  31.381  32.693  1.00  0.00    -0.248 NA
ATOM     42  C   UNL A   1      37.680  32.867  32.758  1.00  0.00     0.031 C 
ATOM     43  C   UNL A   1      38.377  30.293  28.493  1.00  0.00     0.029 A 
ATOM     44  N   UNL A   1      39.787  29.892  30.180  1.00  0.00    -0.354 N 
ATOM     45  C   UNL A   1      39.472  32.046  33.917  1.00  0.00     0.074 A 
ATOM     46  C   UNL A   1      38.403  33.019  33.856  1.00  0.00     0.031 C 
ATOM     47  C   UNL A   1      39.237  29.346  28.084  1.00  0.00     0.029 A 
ATOM     48  C   UNL A   1      40.181  29.058  29.158  1.00  0.00     0.049 A 
ATOM     49  H   UNL A   1      40.252  29.937  31.046  1.00  0.00     0.167 HD
ATOM     50  C   UNL A   1      40.257  31.841  35.005  1.00  0.00     0.034 A 
ATOM     51  C   UNL A   1      41.182  28.158  29.097  1.00  0.00     0.034 A 
ATOM     52  C   UNL A   1      41.318  30.863  35.055  1.00  0.00     0.049 A 
ATOM     53  C   UNL A   1      42.058  27.958  30.309  1.00  0.00     0.074 A 
ATOM     54  C   UNL A   1      42.161  30.552  36.108  1.00  0.00     0.029 A 
ATOM     55  N   UNL A   1      41.685  30.037  33.998  1.00  0.00    -0.354 N 
ATOM     56  N   UNL A   1      42.013  28.562  31.474  1.00  0.00    -0.248 NA
ATOM     57  C   UNL A   1      43.107  26.937  30.201  1.00  0.00     0.031 C 
ATOM     58  C   UNL A   1      43.074  29.583  35.671  1.00  0.00     0.029 A 
ATOM     59  C   UNL A   1      42.751  29.231  34.370  1.00  0.00     0.049 A 
ATOM     60  H   UNL A   1      41.252  30.025  33.115  1.00  0.00     0.167 HD
ATOM     61  C   UNL A   1      42.999  27.960  32.252  1.00  0.00     0.074 A 
ATOM     62  C   UNL A   1      43.612  26.940  31.425  1.00  0.00     0.031 C 
ATOM     63  C   UNL A   1      43.360  28.219  33.536  1.00  0.00     0.034 A 
BRANCH  50  64
ATOM     64  C   UNL A   1      39.992  32.712  36.214  1.00  0.00     0.023 A 
ATOM     65  C   UNL A   1      39.152  32.281  37.259  1.00  0.00     0.031 A 
ATOM     66  C   UNL A   1      40.520  34.012  36.297  1.00  0.00     0.131 A 
ATOM     67  C   UNL A   1      38.775  33.173  38.273  1.00  0.00     0.055 A 
ATOM     68  C   UNL A   1      40.222  34.862  37.365  1.00  0.00     0.041 A 
ATOM     69  F   UNL A   1      41.313  34.493  35.326  1.00  0.00    -0.206 F 
ATOM     70  C   UNL A   1      39.326  34.453  38.349  1.00  0.00     0.022 A 
BRANCH  67  71
ATOM     71  S   UNL A   1      37.409  32.703  39.370  1.00  0.00     0.124 S 
ATOM     72  O   UNL A   1      36.266  32.772  38.461  1.00  0.00    -0.237 OA
ATOM     73  O   UNL A   1      37.799  31.367  39.805  1.00  0.00    -0.237 OA
ATOM     74  O   UNL A   1      37.432  33.731  40.407  1.00  0.00    -0.744 OA
ENDBRANCH  67  71
ENDBRANCH  50  64
BRANCH  51  75
ATOM     75  C   UNL A   1      41.399  27.346  27.866  1.00  0.00     0.023 A 
ATOM     76  C   UNL A   1      41.058  25.983  27.836  1.00  0.00     0.031 A 
ATOM     77  C   UNL A   1      41.985  27.903  26.717  1.00  0.00     0.131 A 
ATOM     78  C   UNL A   1      41.352  25.211  26.701  1.00  0.00     0.055 A 
ATOM     79  C   UNL A   1      42.228  27.144  25.571  1.00  0.00     0.041 A 
ATOM     80  F   UNL A   1      42.322  29.203  26.690  1.00  0.00    -0.206 F 
ATOM     81  C   UNL A   1      41.923  25.786  25.563  1.00  0.00     0.022 A 
BRANCH  78  82
ATOM     82  S   UNL A   1      41.047  23.424  26.761  1.00  0.00     0.124 S 
ATOM     83  O   UNL A   1      41.980  22.930  25.756  1.00  0.00    -0.237 OA
ATOM     84  O   UNL A   1      41.370  23.109  28.149  1.00  0.00    -0.237 OA
ATOM     85  O   UNL A   1      39.633  23.309  26.412  1.00  0.00    -0.744 OA
ENDBRANCH  78  82
ENDBRANCH  51  75
BRANCH  63  86
ATOM     86  C   UNL A   1      44.425  27.335  34.140  1.00  0.00     0.023 A 
ATOM     87  C   UNL A   1      44.121  26.089  34.717  1.00  0.00     0.031 A 
ATOM     88  C   UNL A   1      45.764  27.766  34.170  1.00  0.00     0.131 A 
ATOM     89  C   UNL A   1      45.126  25.355  35.366  1.00  0.00     0.055 A 
ATOM     90  C   UNL A   1      46.772  26.999  34.756  1.00  0.00     0.041 A 
ATOM     91  F   UNL A   1      46.114  28.946  33.636  1.00  0.00    -0.206 F 
ATOM     92  C   UNL A   1      46.453  25.794  35.375  1.00  0.00     0.022 A 
BRANCH  89  93
ATOM     93  S   UNL A   1      44.654  23.878  36.309  1.00  0.00     0.124 S 
ATOM     94  O   UNL A   1      44.258  24.449  37.592  1.00  0.00    -0.237 OA
ATOM     95  O   UNL A   1      43.575  23.323  35.497  1.00  0.00    -0.237 OA
ATOM     96  O   UNL A   1      45.880  23.082  36.337  1.00  0.00    -0.744 OA
ENDBRANCH  89  93
ENDBRANCH  63  86
ENDBRANCH  37  38
ENDBRANCH  29  32
ENDBRANCH  27  28
ENDBRANCH   1  27
TORSDOF 15
ENDMDL
MODEL 3
REMARK VINA RESULT:     -13.2      1.952      2.240
REMARK SMILES Cc1ccc(-c2cc(C(=O)NCCCCNC(=O)c3ccc(-c4c5nc(c(-c6cc(S(=O)(=O)[O-])ccc6F)c6ccc([nH]6)c(-c6cc(S(=O)(=O)[O-])ccc6F)c6nc(c(-c7cc(S(=O)(=O)[O-])ccc7F)c7ccc4[nH]7)C=C6)C=C5)cc3)c3cc(C)ccc3n2)c(C)c1
REMARK SMILES IDX 14 1 13 2 12 3 11 4 9 5 10 6 8 8 6 9 7 10 89 11 88 12 82 13
REMARK SMILES IDX 87 14 83 15 86 16 84 17 85 18 5 19 1 20 2 21 3 22 92 23 4 24
REMARK SMILES IDX 90 25 91 26 15 27 16 28 17 29 18 31 19 32 20 33 81 34 21 35
REMARK SMILES IDX 80 36 22 37 23 38 24 39 74 40 25 41 79 42 73 43 75 44 26 45
REMARK SMILES IDX 78 46 72 47 71 48 27 50 59 51 39 52 58 53 40 54 43 55 57 56
REMARK SMILES IDX 76 57 41 58 42 59 56 61 77 62 44 63 28 64 29 65 37 66 30 67
REMARK SMILES IDX 36 68 38 69 35 70 31 71 32 72 33 73 34 74 60 75 61 76 69 77
REMARK SMILES IDX 62 78 68 79 70 80 67 81 63 82 64 83 65 84 66 85 45 86 46 87
REMARK SMILES IDX 54 88 47 89 53 90 55 91 52 92 48 93 49 94 50 95 51 96
REMARK H PARENT 11 7 16 30 75 49 43 60
REMARK Flexibility Score: inf
ROOT
ATOM      1  C   UNL A   1      31.989  29.019  25.016  1.00  0.00     0.023 C 
ENDROOT
BRANCH   1   2
ATOM      2  C   UNL A   1      32.239  29.079  23.510  1.00  0.00     0.023 C 
BRANCH   2   3
ATOM      3  C   UNL A   1      33.552  28.499  23.008  1.00  0.00     0.116 C 
BRANCH   3   4
ATOM      4  N   UNL A   1      33.499  27.697  21.797  1.00  0.00    -0.352 N 
ATOM      5  C   UNL A   1      33.194  26.358  21.627  1.00  0.00     0.252 C 
ATOM      6  O   UNL A   1      33.149  25.909  20.482  1.00  0.00    -0.269 OA
ATOM      7  H   UNL A   1      33.714  28.182  20.968  1.00  0.00     0.163 HD
BRANCH   5   8
ATOM      8  C   UNL A   1      33.024  25.407  22.768  1.00  0.00     0.051 A 
ATOM      9  C   UNL A   1      34.087  23.777  24.166  1.00  0.00     0.072 A 
ATOM     10  C   UNL A   1      34.123  24.581  23.039  1.00  0.00     0.043 A 
ATOM     11  N   UNL A   1      33.090  23.866  25.077  1.00  0.00    -0.248 NA
ATOM     12  C   UNL A   1      32.024  24.632  24.803  1.00  0.00     0.072 A 
ATOM     13  C   UNL A   1      31.880  25.323  23.590  1.00  0.00     0.013 A 
ATOM     14  C   UNL A   1      31.028  24.756  25.761  1.00  0.00     0.029 A 
ATOM     15  C   UNL A   1      30.625  25.897  23.294  1.00  0.00     0.014 A 
ATOM     16  C   UNL A   1      29.878  25.518  25.536  1.00  0.00     0.005 A 
ATOM     17  C   UNL A   1      29.654  26.074  24.282  1.00  0.00    -0.050 A 
ATOM     18  C   UNL A   1      28.483  26.976  24.025  1.00  0.00     0.044 C 
BRANCH   9  19
ATOM     19  C   UNL A   1      35.087  22.728  24.427  1.00  0.00     0.003 A 
ATOM     20  C   UNL A   1      38.070  19.686  25.255  1.00  0.00     0.044 C 
ATOM     21  C   UNL A   1      37.052  20.748  24.960  1.00  0.00    -0.051 A 
ATOM     22  C   UNL A   1      37.426  22.071  24.719  1.00  0.00     0.004 A 
ATOM     23  C   UNL A   1      35.695  20.416  24.928  1.00  0.00     0.007 A 
ATOM     24  C   UNL A   1      36.457  23.047  24.457  1.00  0.00     0.011 A 
ATOM     25  C   UNL A   1      34.709  21.383  24.653  1.00  0.00    -0.041 A 
ATOM     26  C   UNL A   1      33.272  20.926  24.653  1.00  0.00     0.045 C 
ENDBRANCH   9  19
ENDBRANCH   5   8
ENDBRANCH   3   4
ENDBRANCH   2   3
ENDBRANCH   1   2
BRANCH   1  27
ATOM     27  C   UNL A   1      33.099  29.508  25.943  1.00  0.00     0.116 C 
BRANCH  27  28
ATOM     28  N   UNL A   1      32.872  30.822  26.523  1.00  0.00    -0.352 N 
ATOM     29  C   UNL A   1      33.653  31.574  27.374  1.00  0.00     0.251 C 
ATOM     30  H   UNL A   1      32.022  31.244  26.265  1.00  0.00     0.163 HD
ATOM     31  O   UNL A   1      33.224  32.658  27.768  1.00  0.00    -0.269 OA
BRANCH  29  32
ATOM     32  C   UNL A   1      34.962  31.074  27.859  1.00  0.00     0.039 A 
ATOM     33  C   UNL A   1      36.030  31.972  27.964  1.00  0.00     0.014 A 
ATOM     34  C   UNL A   1      35.152  29.739  28.216  1.00  0.00     0.014 A 
ATOM     35  C   UNL A   1      37.250  31.550  28.504  1.00  0.00     0.010 A 
ATOM     36  C   UNL A   1      36.331  29.346  28.850  1.00  0.00     0.010 A 
ATOM     37  C   UNL A   1      37.399  30.243  28.994  1.00  0.00    -0.014 A 
BRANCH  37  38
ATOM     38  C   UNL A   1      38.673  29.794  29.625  1.00  0.00     0.031 A 
ATOM     39  C   UNL A   1      39.078  30.328  30.976  1.00  0.00     0.074 A 
ATOM     40  C   UNL A   1      39.487  28.940  28.973  1.00  0.00     0.049 A 
ATOM     41  N   UNL A   1      40.156  30.084  31.678  1.00  0.00    -0.248 NA
ATOM     42  C   UNL A   1      38.165  31.297  31.599  1.00  0.00     0.031 C 
ATOM     43  C   UNL A   1      39.241  28.386  27.640  1.00  0.00     0.029 A 
ATOM     44  N   UNL A   1      40.687  28.383  29.343  1.00  0.00    -0.354 N 
ATOM     45  C   UNL A   1      40.052  30.875  32.820  1.00  0.00     0.074 A 
ATOM     46  C   UNL A   1      38.854  31.672  32.663  1.00  0.00     0.031 C 
ATOM     47  C   UNL A   1      40.229  27.532  27.328  1.00  0.00     0.029 A 
ATOM     48  C   UNL A   1      41.200  27.505  28.416  1.00  0.00     0.049 A 
ATOM     49  H   UNL A   1      41.137  28.591  30.193  1.00  0.00     0.167 HD
ATOM     50  C   UNL A   1      40.853  30.908  33.915  1.00  0.00     0.034 A 
ATOM     51  C   UNL A   1      42.320  26.756  28.444  1.00  0.00     0.034 A 
ATOM     52  C   UNL A   1      42.043  30.103  34.061  1.00  0.00     0.049 A 
ATOM     53  C   UNL A   1      43.211  26.820  29.660  1.00  0.00     0.074 A 
ATOM     54  C   UNL A   1      42.917  30.035  35.132  1.00  0.00     0.029 A 
ATOM     55  N   UNL A   1      42.529  29.224  33.099  1.00  0.00    -0.354 N 
ATOM     56  N   UNL A   1      43.074  27.538  30.751  1.00  0.00    -0.248 NA
ATOM     57  C   UNL A   1      44.396  25.953  29.653  1.00  0.00     0.031 C 
ATOM     58  C   UNL A   1      43.961  29.164  34.794  1.00  0.00     0.029 A 
ATOM     59  C   UNL A   1      43.698  28.625  33.545  1.00  0.00     0.049 A 
ATOM     60  H   UNL A   1      42.105  29.052  32.228  1.00  0.00     0.167 HD
ATOM     61  C   UNL A   1      44.134  27.174  31.579  1.00  0.00     0.074 A 
ATOM     62  C   UNL A   1      44.890  26.166  30.863  1.00  0.00     0.031 C 
ATOM     63  C   UNL A   1      44.448  27.624  32.821  1.00  0.00     0.034 A 
BRANCH  50  64
ATOM     64  C   UNL A   1      40.461  31.862  35.022  1.00  0.00     0.023 A 
ATOM     65  C   UNL A   1      39.598  31.465  36.061  1.00  0.00     0.031 A 
ATOM     66  C   UNL A   1      40.890  33.200  35.008  1.00  0.00     0.131 A 
ATOM     67  C   UNL A   1      39.104  32.414  36.967  1.00  0.00     0.055 A 
ATOM     68  C   UNL A   1      40.475  34.118  35.975  1.00  0.00     0.041 A 
ATOM     69  F   UNL A   1      41.699  33.650  34.035  1.00  0.00    -0.206 F 
ATOM     70  C   UNL A   1      39.557  33.734  36.949  1.00  0.00     0.022 A 
BRANCH  67  71
ATOM     71  S   UNL A   1      37.715  31.944  38.037  1.00  0.00     0.124 S 
ATOM     72  O   UNL A   1      37.438  30.584  37.576  1.00  0.00    -0.237 OA
ATOM     73  O   UNL A   1      38.291  32.061  39.371  1.00  0.00    -0.237 OA
ATOM     74  O   UNL A   1      36.684  32.925  37.711  1.00  0.00    -0.744 OA
ENDBRANCH  67  71
ENDBRANCH  50  64
BRANCH  51  75
ATOM     75  C   UNL A   1      42.656  25.849  27.308  1.00  0.00     0.023 A 
ATOM     76  C   UNL A   1      42.171  24.531  27.274  1.00  0.00     0.031 A 
ATOM     77  C   UNL A   1      43.497  26.268  26.264  1.00  0.00     0.131 A 
ATOM     78  C   UNL A   1      42.570  23.663  26.246  1.00  0.00     0.055 A 
ATOM     79  C   UNL A   1      43.849  25.417  25.215  1.00  0.00     0.041 A 
ATOM     80  F   UNL A   1      43.982  27.520  26.244  1.00  0.00    -0.206 F 
ATOM     81  C   UNL A   1      43.396  24.101  25.209  1.00  0.00     0.022 A 
BRANCH  78  82
ATOM     82  S   UNL A   1      42.053  21.926  26.325  1.00  0.00     0.124 S 
ATOM     83  O   UNL A   1      42.838  21.334  25.248  1.00  0.00    -0.237 OA
ATOM     84  O   UNL A   1      42.442  21.557  27.682  1.00  0.00    -0.237 OA
ATOM     85  O   UNL A   1      40.613  21.988  26.088  1.00  0.00    -0.744 OA
ENDBRANCH  78  82
ENDBRANCH  51  75
BRANCH  63  86
ATOM     86  C   UNL A   1      45.627  26.974  33.507  1.00  0.00     0.023 A 
ATOM     87  C   UNL A   1      46.933  27.479  33.383  1.00  0.00     0.031 A 
ATOM     88  C   UNL A   1      45.442  25.805  34.268  1.00  0.00     0.131 A 
ATOM     89  C   UNL A   1      48.011  26.777  33.946  1.00  0.00     0.055 A 
ATOM     90  C   UNL A   1      46.509  25.150  34.884  1.00  0.00     0.041 A 
ATOM     91  F   UNL A   1      44.218  25.276  34.421  1.00  0.00    -0.206 F 
ATOM     92  C   UNL A   1      47.806  25.625  34.709  1.00  0.00     0.022 A 
BRANCH  89  93
ATOM     93  S   UNL A   1      49.700  27.320  33.560  1.00  0.00     0.124 S 
ATOM     94  O   UNL A   1      50.397  27.062  34.816  1.00  0.00    -0.237 OA
ATOM     95  O   UNL A   1      50.057  26.452  32.442  1.00  0.00    -0.237 OA
ATOM     96  O   UNL A   1      49.537  28.732  33.221  1.00  0.00    -0.744 OA
ENDBRANCH  89  93
ENDBRANCH  63  86
ENDBRANCH  37  38
ENDBRANCH  29  32
ENDBRANCH  27  28
ENDBRANCH   1  27
TORSDOF 15
ENDMDL
