MODEL 1
REMARK VINA RESULT:      -9.6      0.000      0.000
REMARK SMILES [NH3+][C@H](Cc1ccc(O)c(F)c1)C(=O)NCCCCNC(=O)c1ccc(-c2c3nc(c(-c4cc(S(=O)(=O)[O-])ccc4F)c4ccc([nH]4)c(-c4cc(S(=O)(=O)[O-])ccc4F)c4nc(c(-c5cc(S(=O)(=O)[O-])ccc5F)c5ccc2[nH]5)C=C4)C=C3)cc1
REMARK SMILES IDX 16 1 15 2 14 3 12 4 13 5 2 7 1 8 3 12 4 13 5 14 11 15 6 16
REMARK SMILES IDX 9 17 7 18 10 19 8 20 17 22 18 23 19 24 20 25 21 27 22 28
REMARK SMILES IDX 23 29 84 30 24 31 83 32 25 33 26 34 27 35 77 36 28 37 82 38
REMARK SMILES IDX 76 39 78 40 29 41 81 42 75 43 74 44 30 46 62 47 42 48 61 49
REMARK SMILES IDX 43 50 46 51 60 52 79 53 44 54 45 55 59 57 80 58 47 59 31 60
REMARK SMILES IDX 32 61 40 62 33 63 39 64 41 65 38 66 34 67 35 68 36 69 37 70
REMARK SMILES IDX 63 71 64 72 72 73 65 74 71 75 73 76 70 77 66 78 67 79 68 80
REMARK SMILES IDX 69 81 48 82 49 83 57 84 50 85 56 86 58 87 55 88 51 89 52 90
REMARK SMILES IDX 53 91 54 92
REMARK H PARENT 14 6 1 9 1 10 1 11 8 21 19 26 78 45 46 56
REMARK Flexibility Score: inf
ROOT
ATOM      1  C   UNL A   1      42.529  21.473  25.747  1.00  0.00     0.023 C 
ENDROOT
BRANCH   1   2
ATOM      2  C   UNL A   1      43.009  22.893  25.436  1.00  0.00     0.116 C 
BRANCH   2   3
ATOM      3  N   UNL A   1      44.258  22.872  24.698  1.00  0.00    -0.351 N 
ATOM      4  C   UNL A   1      45.344  23.700  24.740  1.00  0.00     0.278 C 
ATOM      5  O   UNL A   1      46.228  23.525  23.896  1.00  0.00    -0.268 OA
ATOM      6  H   UNL A   1      44.338  22.131  24.055  1.00  0.00     0.163 HD
BRANCH   4   7
ATOM      7  C   UNL A   1      45.474  24.812  25.801  1.00  0.00     0.275 C 
BRANCH   7   8
ATOM      8  N   UNL A   1      45.727  26.105  25.126  1.00  0.00    -0.347 N 
ATOM      9  H   UNL A   1      44.868  26.655  25.113  1.00  0.00     0.345 HD
ATOM     10  H   UNL A   1      46.035  25.934  24.169  1.00  0.00     0.345 HD
ATOM     11  H   UNL A   1      46.451  26.616  25.631  1.00  0.00     0.345 HD
ENDBRANCH   7   8
BRANCH   7  12
ATOM     12  C   UNL A   1      46.429  24.397  26.941  1.00  0.00     0.111 C 
BRANCH  12  13
ATOM     13  C   UNL A   1      45.851  24.485  28.335  1.00  0.00    -0.038 A 
ATOM     14  C   UNL A   1      46.410  25.344  29.292  1.00  0.00     0.008 A 
ATOM     15  C   UNL A   1      44.735  23.711  28.688  1.00  0.00     0.047 A 
ATOM     16  C   UNL A   1      45.881  25.410  30.585  1.00  0.00     0.049 A 
ATOM     17  C   UNL A   1      44.225  23.764  29.980  1.00  0.00     0.165 A 
ATOM     18  C   UNL A   1      44.795  24.607  30.929  1.00  0.00     0.151 A 
ATOM     19  F   UNL A   1      43.183  22.983  30.299  1.00  0.00    -0.203 F 
BRANCH  18  20
ATOM     20  O   UNL A   1      44.278  24.631  32.192  1.00  0.00    -0.505 OA
ATOM     21  H   UNL A   1      43.690  25.316  32.445  1.00  0.00     0.293 HD
ENDBRANCH  18  20
ENDBRANCH  12  13
ENDBRANCH   7  12
ENDBRANCH   4   7
ENDBRANCH   2   3
ENDBRANCH   1   2
BRANCH   1  22
ATOM     22  C   UNL A   1      42.330  21.183  27.236  1.00  0.00     0.023 C 
BRANCH  22  23
ATOM     23  C   UNL A   1      41.002  21.659  27.815  1.00  0.00     0.116 C 
BRANCH  23  24
ATOM     24  N   UNL A   1      39.915  21.615  26.850  1.00  0.00    -0.352 N 
ATOM     25  C   UNL A   1      39.112  22.642  26.415  1.00  0.00     0.251 C 
ATOM     26  H   UNL A   1      39.730  20.732  26.456  1.00  0.00     0.163 HD
ATOM     27  O   UNL A   1      38.147  22.399  25.696  1.00  0.00    -0.269 OA
BRANCH  25  28
ATOM     28  C   UNL A   1      39.397  24.025  26.853  1.00  0.00     0.039 A 
ATOM     29  C   UNL A   1      39.068  24.402  28.158  1.00  0.00     0.014 A 
ATOM     30  C   UNL A   1      40.017  24.935  25.991  1.00  0.00     0.014 A 
ATOM     31  C   UNL A   1      39.424  25.671  28.620  1.00  0.00     0.010 A 
ATOM     32  C   UNL A   1      40.431  26.172  26.475  1.00  0.00     0.010 A 
ATOM     33  C   UNL A   1      40.143  26.552  27.795  1.00  0.00    -0.014 A 
BRANCH  33  34
ATOM     34  C   UNL A   1      40.601  27.874  28.295  1.00  0.00     0.031 A 
ATOM     35  C   UNL A   1      42.072  28.179  28.373  1.00  0.00     0.074 A 
ATOM     36  C   UNL A   1      39.698  28.768  28.743  1.00  0.00     0.049 A 
ATOM     37  N   UNL A   1      42.674  29.232  28.863  1.00  0.00    -0.248 NA
ATOM     38  C   UNL A   1      42.984  27.147  27.860  1.00  0.00     0.031 C 
ATOM     39  C   UNL A   1      38.246  28.568  28.759  1.00  0.00     0.029 A 
ATOM     40  N   UNL A   1      39.864  30.019  29.283  1.00  0.00    -0.354 N 
ATOM     41  C   UNL A   1      44.037  28.985  28.728  1.00  0.00     0.074 A 
ATOM     42  C   UNL A   1      44.167  27.657  28.170  1.00  0.00     0.031 C 
ATOM     43  C   UNL A   1      37.657  29.662  29.266  1.00  0.00     0.029 A 
ATOM     44  C   UNL A   1      38.685  30.624  29.652  1.00  0.00     0.049 A 
ATOM     45  H   UNL A   1      40.745  30.443  29.396  1.00  0.00     0.167 HD
ATOM     46  C   UNL A   1      45.080  29.802  29.022  1.00  0.00     0.034 A 
ATOM     47  C   UNL A   1      38.458  31.812  30.247  1.00  0.00     0.034 A 
ATOM     48  C   UNL A   1      44.931  31.128  29.570  1.00  0.00     0.049 A 
ATOM     49  C   UNL A   1      39.633  32.696  30.578  1.00  0.00     0.074 A 
ATOM     50  C   UNL A   1      45.915  32.057  29.860  1.00  0.00     0.029 A 
ATOM     51  N   UNL A   1      43.720  31.714  29.916  1.00  0.00    -0.354 N 
ATOM     52  N   UNL A   1      40.915  32.467  30.401  1.00  0.00    -0.248 NA
ATOM     53  C   UNL A   1      39.332  34.003  31.176  1.00  0.00     0.031 C 
ATOM     54  C   UNL A   1      45.306  33.177  30.437  1.00  0.00     0.029 A 
ATOM     55  C   UNL A   1      43.934  32.980  30.440  1.00  0.00     0.049 A 
ATOM     56  H   UNL A   1      42.838  31.292  29.805  1.00  0.00     0.167 HD
ATOM     57  C   UNL A   1      41.569  33.615  30.841  1.00  0.00     0.074 A 
ATOM     58  C   UNL A   1      40.539  34.538  31.276  1.00  0.00     0.031 C 
ATOM     59  C   UNL A   1      42.898  33.885  30.879  1.00  0.00     0.034 A 
BRANCH  46  60
ATOM     60  C   UNL A   1      46.469  29.264  28.771  1.00  0.00     0.023 A 
ATOM     61  C   UNL A   1      46.967  29.087  27.469  1.00  0.00     0.031 A 
ATOM     62  C   UNL A   1      47.296  28.893  29.846  1.00  0.00     0.131 A 
ATOM     63  C   UNL A   1      48.217  28.481  27.271  1.00  0.00     0.055 A 
ATOM     64  C   UNL A   1      48.575  28.368  29.644  1.00  0.00     0.041 A 
ATOM     65  F   UNL A   1      46.870  29.020  31.114  1.00  0.00    -0.206 F 
ATOM     66  C   UNL A   1      49.035  28.144  28.350  1.00  0.00     0.022 A 
BRANCH  63  67
ATOM     67  S   UNL A   1      48.690  28.006  25.586  1.00  0.00     0.124 S 
ATOM     68  O   UNL A   1      49.923  28.767  25.400  1.00  0.00    -0.237 OA
ATOM     69  O   UNL A   1      48.843  26.560  25.697  1.00  0.00    -0.237 OA
ATOM     70  O   UNL A   1      47.561  28.454  24.773  1.00  0.00    -0.744 OA
ENDBRANCH  63  67
ENDBRANCH  46  60
BRANCH  47  71
ATOM     71  C   UNL A   1      37.068  32.237  30.582  1.00  0.00     0.023 A 
ATOM     72  C   UNL A   1      36.228  32.798  29.608  1.00  0.00     0.031 A 
ATOM     73  C   UNL A   1      36.575  32.124  31.895  1.00  0.00     0.131 A 
ATOM     74  C   UNL A   1      34.956  33.270  29.969  1.00  0.00     0.055 A 
ATOM     75  C   UNL A   1      35.290  32.547  32.238  1.00  0.00     0.041 A 
ATOM     76  F   UNL A   1      37.335  31.588  32.862  1.00  0.00    -0.206 F 
ATOM     77  C   UNL A   1      34.477  33.137  31.275  1.00  0.00     0.022 A 
BRANCH  74  78
ATOM     78  S   UNL A   1      33.965  34.137  28.723  1.00  0.00     0.124 S 
ATOM     79  O   UNL A   1      33.666  33.063  27.782  1.00  0.00    -0.237 OA
ATOM     80  O   UNL A   1      32.842  34.626  29.516  1.00  0.00    -0.237 OA
ATOM     81  O   UNL A   1      34.872  35.169  28.225  1.00  0.00    -0.744 OA
ENDBRANCH  74  78
ENDBRANCH  47  71
BRANCH  59  82
ATOM     82  C   UNL A   1      43.305  35.254  31.366  1.00  0.00     0.023 A 
ATOM     83  C   UNL A   1      43.517  36.323  30.478  1.00  0.00     0.031 A 
ATOM     84  C   UNL A   1      43.493  35.486  32.740  1.00  0.00     0.131 A 
ATOM     85  C   UNL A   1      43.959  37.561  30.969  1.00  0.00     0.055 A 
ATOM     86  C   UNL A   1      43.876  36.736  33.228  1.00  0.00     0.041 A 
ATOM     87  F   UNL A   1      43.305  34.500  33.632  1.00  0.00    -0.206 F 
ATOM     88  C   UNL A   1      44.124  37.778  32.340  1.00  0.00     0.022 A 
BRANCH  85  89
ATOM     89  S   UNL A   1      44.399  38.862  29.784  1.00  0.00     0.124 S 
ATOM     90  O   UNL A   1      43.300  39.808  29.951  1.00  0.00    -0.237 OA
ATOM     91  O   UNL A   1      45.700  39.304  30.274  1.00  0.00    -0.237 OA
ATOM     92  O   UNL A   1      44.425  38.163  28.501  1.00  0.00    -0.744 OA
ENDBRANCH  85  89
ENDBRANCH  59  82
ENDBRANCH  33  34
ENDBRANCH  25  28
ENDBRANCH  23  24
ENDBRANCH  22  23
ENDBRANCH   1  22
TORSDOF 18
ENDMDL
MODEL 2
REMARK VINA RESULT:      -9.6      6.416     10.992
REMARK SMILES [NH3+][C@H](Cc1ccc(O)c(F)c1)C(=O)NCCCCNC(=O)c1ccc(-c2c3nc(c(-c4cc(S(=O)(=O)[O-])ccc4F)c4ccc([nH]4)c(-c4cc(S(=O)(=O)[O-])ccc4F)c4nc(c(-c5cc(S(=O)(=O)[O-])ccc5F)c5ccc2[nH]5)C=C4)C=C3)cc1
REMARK SMILES IDX 16 1 15 2 14 3 12 4 13 5 2 7 1 8 3 12 4 13 5 14 11 15 6 16
REMARK SMILES IDX 9 17 7 18 10 19 8 20 17 22 18 23 19 24 20 25 21 27 22 28
REMARK SMILES IDX 23 29 84 30 24 31 83 32 25 33 26 34 27 35 77 36 28 37 82 38
REMARK SMILES IDX 76 39 78 40 29 41 81 42 75 43 74 44 30 46 62 47 42 48 61 49
REMARK SMILES IDX 43 50 46 51 60 52 79 53 44 54 45 55 59 57 80 58 47 59 31 60
REMARK SMILES IDX 32 61 40 62 33 63 39 64 41 65 38 66 34 67 35 68 36 69 37 70
REMARK SMILES IDX 63 71 64 72 72 73 65 74 71 75 73 76 70 77 66 78 67 79 68 80
REMARK SMILES IDX 69 81 48 82 49 83 57 84 50 85 56 86 58 87 55 88 51 89 52 90
REMARK SMILES IDX 53 91 54 92
REMARK H PARENT 14 6 1 9 1 10 1 11 8 21 19 26 78 45 46 56
REMARK Flexibility Score: inf
ROOT
ATOM      1  C   UNL A   1      32.179  29.695  26.375  1.00  0.00     0.023 C 
ENDROOT
BRANCH   1   2
ATOM      2  C   UNL A   1      32.800  29.612  24.979  1.00  0.00     0.116 C 
BRANCH   2   3
ATOM      3  N   UNL A   1      32.894  28.235  24.530  1.00  0.00    -0.351 N 
ATOM      4  C   UNL A   1      31.929  27.337  24.171  1.00  0.00     0.278 C 
ATOM      5  O   UNL A   1      32.284  26.175  23.954  1.00  0.00    -0.268 OA
ATOM      6  H   UNL A   1      33.813  27.887  24.475  1.00  0.00     0.163 HD
BRANCH   4   7
ATOM      7  C   UNL A   1      30.449  27.749  24.031  1.00  0.00     0.275 C 
BRANCH   7   8
ATOM      8  N   UNL A   1      29.587  26.642  24.501  1.00  0.00    -0.347 N 
ATOM      9  H   UNL A   1      28.929  26.995  25.196  1.00  0.00     0.345 HD
ATOM     10  H   UNL A   1      30.166  25.914  24.919  1.00  0.00     0.345 HD
ATOM     11  H   UNL A   1      29.071  26.255  23.711  1.00  0.00     0.345 HD
ENDBRANCH   7   8
BRANCH   7  12
ATOM     12  C   UNL A   1      30.158  28.347  22.637  1.00  0.00     0.111 C 
BRANCH  12  13
ATOM     13  C   UNL A   1      29.656  29.773  22.636  1.00  0.00    -0.038 A 
ATOM     14  C   UNL A   1      29.586  30.511  23.826  1.00  0.00     0.008 A 
ATOM     15  C   UNL A   1      29.260  30.382  21.435  1.00  0.00     0.047 A 
ATOM     16  C   UNL A   1      29.104  31.824  23.822  1.00  0.00     0.049 A 
ATOM     17  C   UNL A   1      28.764  31.681  21.439  1.00  0.00     0.165 A 
ATOM     18  C   UNL A   1      28.682  32.402  22.626  1.00  0.00     0.151 A 
ATOM     19  F   UNL A   1      28.357  32.223  20.282  1.00  0.00    -0.203 F 
BRANCH  18  20
ATOM     20  O   UNL A   1      28.182  33.672  22.599  1.00  0.00    -0.505 OA
ATOM     21  H   UNL A   1      27.336  33.850  22.960  1.00  0.00     0.293 HD
ENDBRANCH  18  20
ENDBRANCH  12  13
ENDBRANCH   7  12
ENDBRANCH   4   7
ENDBRANCH   2   3
ENDBRANCH   1   2
BRANCH   1  22
ATOM     22  C   UNL A   1      31.853  31.116  26.841  1.00  0.00     0.023 C 
BRANCH  22  23
ATOM     23  C   UNL A   1      33.059  31.956  27.246  1.00  0.00     0.116 C 
BRANCH  23  24
ATOM     24  N   UNL A   1      32.722  33.349  27.492  1.00  0.00    -0.352 N 
ATOM     25  C   UNL A   1      33.258  34.210  28.419  1.00  0.00     0.251 C 
ATOM     26  H   UNL A   1      32.016  33.725  26.918  1.00  0.00     0.163 HD
ATOM     27  O   UNL A   1      32.756  35.318  28.584  1.00  0.00    -0.269 OA
BRANCH  25  28
ATOM     28  C   UNL A   1      34.410  33.775  29.237  1.00  0.00     0.039 A 
ATOM     29  C   UNL A   1      34.190  32.891  30.297  1.00  0.00     0.014 A 
ATOM     30  C   UNL A   1      35.704  34.210  28.938  1.00  0.00     0.014 A 
ATOM     31  C   UNL A   1      35.279  32.390  31.014  1.00  0.00     0.010 A 
ATOM     32  C   UNL A   1      36.791  33.656  29.609  1.00  0.00     0.010 A 
ATOM     33  C   UNL A   1      36.590  32.737  30.651  1.00  0.00    -0.014 A 
BRANCH  33  34
ATOM     34  C   UNL A   1      37.764  32.151  31.349  1.00  0.00     0.031 A 
ATOM     35  C   UNL A   1      38.549  31.044  30.700  1.00  0.00     0.074 A 
ATOM     36  C   UNL A   1      38.077  32.567  32.592  1.00  0.00     0.049 A 
ATOM     37  N   UNL A   1      39.542  30.342  31.180  1.00  0.00    -0.248 NA
ATOM     38  C   UNL A   1      38.138  30.657  29.342  1.00  0.00     0.031 C 
ATOM     39  C   UNL A   1      37.363  33.603  33.342  1.00  0.00     0.029 A 
ATOM     40  N   UNL A   1      39.069  32.162  33.450  1.00  0.00    -0.354 N 
ATOM     41  C   UNL A   1      39.869  29.421  30.189  1.00  0.00     0.074 A 
ATOM     42  C   UNL A   1      38.924  29.617  29.110  1.00  0.00     0.031 C 
ATOM     43  C   UNL A   1      37.950  33.763  34.539  1.00  0.00     0.029 A 
ATOM     44  C   UNL A   1      39.052  32.814  34.662  1.00  0.00     0.049 A 
ATOM     45  H   UNL A   1      39.730  31.470  33.221  1.00  0.00     0.167 HD
ATOM     46  C   UNL A   1      40.878  28.514  30.172  1.00  0.00     0.034 A 
ATOM     47  C   UNL A   1      39.827  32.655  35.753  1.00  0.00     0.034 A 
ATOM     48  C   UNL A   1      41.817  28.340  31.253  1.00  0.00     0.049 A 
ATOM     49  C   UNL A   1      40.932  31.630  35.719  1.00  0.00     0.074 A 
ATOM     50  C   UNL A   1      42.904  27.486  31.322  1.00  0.00     0.029 A 
ATOM     51  N   UNL A   1      41.778  29.029  32.460  1.00  0.00    -0.354 N 
ATOM     52  N   UNL A   1      41.257  30.799  34.755  1.00  0.00    -0.248 NA
ATOM     53  C   UNL A   1      41.782  31.532  36.911  1.00  0.00     0.031 C 
ATOM     54  C   UNL A   1      43.484  27.614  32.589  1.00  0.00     0.029 A 
ATOM     55  C   UNL A   1      42.806  28.601  33.287  1.00  0.00     0.049 A 
ATOM     56  H   UNL A   1      41.118  29.720  32.693  1.00  0.00     0.167 HD
ATOM     57  C   UNL A   1      42.369  30.099  35.217  1.00  0.00     0.074 A 
ATOM     58  C   UNL A   1      42.665  30.618  36.537  1.00  0.00     0.031 C 
ATOM     59  C   UNL A   1      43.082  29.121  34.606  1.00  0.00     0.034 A 
BRANCH  46  60
ATOM     60  C   UNL A   1      40.994  27.634  28.951  1.00  0.00     0.023 A 
ATOM     61  C   UNL A   1      41.991  27.845  27.983  1.00  0.00     0.031 A 
ATOM     62  C   UNL A   1      40.078  26.589  28.733  1.00  0.00     0.131 A 
ATOM     63  C   UNL A   1      42.002  27.080  26.807  1.00  0.00     0.055 A 
ATOM     64  C   UNL A   1      40.146  25.776  27.600  1.00  0.00     0.041 A 
ATOM     65  F   UNL A   1      39.091  26.350  29.612  1.00  0.00    -0.206 F 
ATOM     66  C   UNL A   1      41.101  26.030  26.620  1.00  0.00     0.022 A 
BRANCH  63  67
ATOM     67  S   UNL A   1      43.114  27.576  25.463  1.00  0.00     0.124 S 
ATOM     68  O   UNL A   1      44.105  28.373  26.179  1.00  0.00    -0.237 OA
ATOM     69  O   UNL A   1      43.577  26.293  24.948  1.00  0.00    -0.237 OA
ATOM     70  O   UNL A   1      42.247  28.334  24.563  1.00  0.00    -0.744 OA
ENDBRANCH  63  67
ENDBRANCH  46  60
BRANCH  47  71
ATOM     71  C   UNL A   1      39.584  33.471  36.978  1.00  0.00     0.023 A 
ATOM     72  C   UNL A   1      38.910  32.933  38.084  1.00  0.00     0.031 A 
ATOM     73  C   UNL A   1      39.990  34.817  37.041  1.00  0.00     0.131 A 
ATOM     74  C   UNL A   1      38.618  33.748  39.190  1.00  0.00     0.055 A 
ATOM     75  C   UNL A   1      39.742  35.609  38.163  1.00  0.00     0.041 A 
ATOM     76  F   UNL A   1      40.644  35.378  36.013  1.00  0.00    -0.206 F 
ATOM     77  C   UNL A   1      39.040  35.079  39.242  1.00  0.00     0.022 A 
BRANCH  74  78
ATOM     78  S   UNL A   1      37.602  33.065  40.528  1.00  0.00     0.124 S 
ATOM     79  O   UNL A   1      36.312  32.901  39.867  1.00  0.00    -0.237 OA
ATOM     80  O   UNL A   1      38.318  31.836  40.853  1.00  0.00    -0.237 OA
ATOM     81  O   UNL A   1      37.651  34.103  41.555  1.00  0.00    -0.744 OA
ENDBRANCH  74  78
ENDBRANCH  47  71
BRANCH  59  82
ATOM     82  C   UNL A   1      44.282  28.584  35.347  1.00  0.00     0.023 A 
ATOM     83  C   UNL A   1      44.195  27.456  36.180  1.00  0.00     0.031 A 
ATOM     84  C   UNL A   1      45.530  29.221  35.223  1.00  0.00     0.131 A 
ATOM     85  C   UNL A   1      45.321  27.031  36.902  1.00  0.00     0.055 A 
ATOM     86  C   UNL A   1      46.660  28.759  35.898  1.00  0.00     0.041 A 
ATOM     87  F   UNL A   1      45.670  30.304  34.441  1.00  0.00    -0.206 F 
ATOM     88  C   UNL A   1      46.557  27.666  36.753  1.00  0.00     0.022 A 
BRANCH  85  89
ATOM     89  S   UNL A   1      45.129  25.688  38.106  1.00  0.00     0.124 S 
ATOM     90  O   UNL A   1      43.901  25.044  37.649  1.00  0.00    -0.237 OA
ATOM     91  O   UNL A   1      46.357  24.923  37.918  1.00  0.00    -0.237 OA
ATOM     92  O   UNL A   1      45.024  26.386  39.385  1.00  0.00    -0.744 OA
ENDBRANCH  85  89
ENDBRANCH  59  82
ENDBRANCH  33  34
ENDBRANCH  25  28
ENDBRANCH  23  24
ENDBRANCH  22  23
ENDBRANCH   1  22
TORSDOF 18
ENDMDL
MODEL 3
REMARK VINA RESULT:      -9.5      4.204     10.175
REMARK SMILES [NH3+][C@H](Cc1ccc(O)c(F)c1)C(=O)NCCCCNC(=O)c1ccc(-c2c3nc(c(-c4cc(S(=O)(=O)[O-])ccc4F)c4ccc([nH]4)c(-c4cc(S(=O)(=O)[O-])ccc4F)c4nc(c(-c5cc(S(=O)(=O)[O-])ccc5F)c5ccc2[nH]5)C=C4)C=C3)cc1
REMARK SMILES IDX 16 1 15 2 14 3 12 4 13 5 2 7 1 8 3 12 4 13 5 14 11 15 6 16
REMARK SMILES IDX 9 17 7 18 10 19 8 20 17 22 18 23 19 24 20 25 21 27 22 28
REMARK SMILES IDX 23 29 84 30 24 31 83 32 25 33 26 34 27 35 77 36 28 37 82 38
REMARK SMILES IDX 76 39 78 40 29 41 81 42 75 43 74 44 30 46 62 47 42 48 61 49
REMARK SMILES IDX 43 50 46 51 60 52 79 53 44 54 45 55 59 57 80 58 47 59 31 60
REMARK SMILES IDX 32 61 40 62 33 63 39 64 41 65 38 66 34 67 35 68 36 69 37 70
REMARK SMILES IDX 63 71 64 72 72 73 65 74 71 75 73 76 70 77 66 78 67 79 68 80
REMARK SMILES IDX 69 81 48 82 49 83 57 84 50 85 56 86 58 87 55 88 51 89 52 90
REMARK SMILES IDX 53 91 54 92
REMARK H PARENT 14 6 1 9 1 10 1 11 8 21 19 26 78 45 46 56
REMARK Flexibility Score: inf
ROOT
ATOM      1  C   UNL A   1      34.907  24.166  24.364  1.00  0.00     0.023 C 
ENDROOT
BRANCH   1   2
ATOM      2  C   UNL A   1      33.391  24.319  24.228  1.00  0.00     0.116 C 
BRANCH   2   3
ATOM      3  N   UNL A   1      32.790  24.709  25.490  1.00  0.00    -0.351 N 
ATOM      4  C   UNL A   1      31.822  24.115  26.249  1.00  0.00     0.278 C 
ATOM      5  O   UNL A   1      31.400  24.740  27.227  1.00  0.00    -0.268 OA
ATOM      6  H   UNL A   1      33.142  25.548  25.866  1.00  0.00     0.163 HD
BRANCH   4   7
ATOM      7  C   UNL A   1      31.274  22.713  25.912  1.00  0.00     0.275 C 
BRANCH   7   8
ATOM      8  N   UNL A   1      29.982  22.513  26.606  1.00  0.00    -0.347 N 
ATOM      9  H   UNL A   1      29.775  23.330  27.180  1.00  0.00     0.345 HD
ATOM     10  H   UNL A   1      30.040  21.686  27.200  1.00  0.00     0.345 HD
ATOM     11  H   UNL A   1      29.242  22.385  25.917  1.00  0.00     0.345 HD
ENDBRANCH   7   8
BRANCH   7  12
ATOM     12  C   UNL A   1      32.358  21.627  26.081  1.00  0.00     0.111 C 
BRANCH  12  13
ATOM     13  C   UNL A   1      32.373  20.555  25.015  1.00  0.00    -0.038 A 
ATOM     14  C   UNL A   1      32.617  19.215  25.346  1.00  0.00     0.008 A 
ATOM     15  C   UNL A   1      32.133  20.890  23.673  1.00  0.00     0.047 A 
ATOM     16  C   UNL A   1      32.646  18.230  24.353  1.00  0.00     0.049 A 
ATOM     17  C   UNL A   1      32.182  19.911  22.687  1.00  0.00     0.165 A 
ATOM     18  C   UNL A   1      32.440  18.585  23.021  1.00  0.00     0.151 A 
ATOM     19  F   UNL A   1      31.987  20.267  21.409  1.00  0.00    -0.203 F 
BRANCH  18  20
ATOM     20  O   UNL A   1      32.492  17.648  22.030  1.00  0.00    -0.505 OA
ATOM     21  H   UNL A   1      33.134  16.967  22.062  1.00  0.00     0.293 HD
ENDBRANCH  18  20
ENDBRANCH  12  13
ENDBRANCH   7  12
ENDBRANCH   4   7
ENDBRANCH   2   3
ENDBRANCH   1   2
BRANCH   1  22
ATOM     22  C   UNL A   1      35.404  22.719  24.323  1.00  0.00     0.023 C 
BRANCH  22  23
ATOM     23  C   UNL A   1      35.960  22.189  25.640  1.00  0.00     0.116 C 
BRANCH  23  24
ATOM     24  N   UNL A   1      36.909  21.102  25.458  1.00  0.00    -0.352 N 
ATOM     25  C   UNL A   1      38.272  21.117  25.628  1.00  0.00     0.251 C 
ATOM     26  H   UNL A   1      36.524  20.242  25.175  1.00  0.00     0.163 HD
ATOM     27  O   UNL A   1      38.940  20.142  25.294  1.00  0.00    -0.269 OA
BRANCH  25  28
ATOM     28  C   UNL A   1      38.925  22.326  26.174  1.00  0.00     0.039 A 
ATOM     29  C   UNL A   1      40.034  22.175  27.011  1.00  0.00     0.014 A 
ATOM     30  C   UNL A   1      38.464  23.602  25.836  1.00  0.00     0.014 A 
ATOM     31  C   UNL A   1      40.724  23.307  27.452  1.00  0.00     0.010 A 
ATOM     32  C   UNL A   1      39.194  24.724  26.220  1.00  0.00     0.010 A 
ATOM     33  C   UNL A   1      40.333  24.588  27.028  1.00  0.00    -0.014 A 
BRANCH  33  34
ATOM     34  C   UNL A   1      41.102  25.798  27.421  1.00  0.00     0.031 A 
ATOM     35  C   UNL A   1      40.460  26.850  28.283  1.00  0.00     0.074 A 
ATOM     36  C   UNL A   1      42.349  25.980  26.942  1.00  0.00     0.049 A 
ATOM     37  N   UNL A   1      40.928  28.013  28.656  1.00  0.00    -0.248 NA
ATOM     38  C   UNL A   1      39.100  26.565  28.761  1.00  0.00     0.031 C 
ATOM     39  C   UNL A   1      43.062  25.051  26.061  1.00  0.00     0.029 A 
ATOM     40  N   UNL A   1      43.235  27.013  27.117  1.00  0.00    -0.354 N 
ATOM     41  C   UNL A   1      39.915  28.605  29.403  1.00  0.00     0.074 A 
ATOM     42  C   UNL A   1      38.788  27.698  29.374  1.00  0.00     0.031 C 
ATOM     43  C   UNL A   1      44.278  25.548  25.788  1.00  0.00     0.029 A 
ATOM     44  C   UNL A   1      44.419  26.849  26.435  1.00  0.00     0.049 A 
ATOM     45  H   UNL A   1      43.042  27.799  27.679  1.00  0.00     0.167 HD
ATOM     46  C   UNL A   1      39.933  29.786  30.072  1.00  0.00     0.034 A 
ATOM     47  C   UNL A   1      45.491  27.660  26.332  1.00  0.00     0.034 A 
ATOM     48  C   UNL A   1      41.069  30.675  30.098  1.00  0.00     0.049 A 
ATOM     49  C   UNL A   1      45.483  28.975  27.070  1.00  0.00     0.074 A 
ATOM     50  C   UNL A   1      41.213  31.871  30.780  1.00  0.00     0.029 A 
ATOM     51  N   UNL A   1      42.257  30.468  29.408  1.00  0.00    -0.354 N 
ATOM     52  N   UNL A   1      44.534  29.500  27.811  1.00  0.00    -0.248 NA
ATOM     53  C   UNL A   1      46.693  29.799  26.968  1.00  0.00     0.031 C 
ATOM     54  C   UNL A   1      42.460  32.416  30.455  1.00  0.00     0.029 A 
ATOM     55  C   UNL A   1      43.128  31.526  29.628  1.00  0.00     0.049 A 
ATOM     56  H   UNL A   1      42.453  29.685  28.846  1.00  0.00     0.167 HD
ATOM     57  C   UNL A   1      45.047  30.704  28.287  1.00  0.00     0.074 A 
ATOM     58  C   UNL A   1      46.393  30.816  27.761  1.00  0.00     0.031 C 
ATOM     59  C   UNL A   1      44.463  31.629  29.088  1.00  0.00     0.034 A 
BRANCH  46  60
ATOM     60  C   UNL A   1      38.674  30.183  30.806  1.00  0.00     0.023 A 
ATOM     61  C   UNL A   1      37.641  30.891  30.168  1.00  0.00     0.031 A 
ATOM     62  C   UNL A   1      38.518  29.880  32.170  1.00  0.00     0.131 A 
ATOM     63  C   UNL A   1      36.537  31.341  30.908  1.00  0.00     0.055 A 
ATOM     64  C   UNL A   1      37.377  30.258  32.882  1.00  0.00     0.041 A 
ATOM     65  F   UNL A   1      39.478  29.223  32.841  1.00  0.00    -0.206 F 
ATOM     66  C   UNL A   1      36.386  31.007  32.255  1.00  0.00     0.022 A 
BRANCH  63  67
ATOM     67  S   UNL A   1      35.379  32.493  30.119  1.00  0.00     0.124 S 
ATOM     68  O   UNL A   1      34.916  31.710  28.977  1.00  0.00    -0.237 OA
ATOM     69  O   UNL A   1      34.399  32.726  31.173  1.00  0.00    -0.237 OA
ATOM     70  O   UNL A   1      36.217  33.641  29.779  1.00  0.00    -0.744 OA
ENDBRANCH  63  67
ENDBRANCH  46  60
BRANCH  47  71
ATOM     71  C   UNL A   1      46.657  27.267  25.490  1.00  0.00     0.023 A 
ATOM     72  C   UNL A   1      46.906  27.895  24.260  1.00  0.00     0.031 A 
ATOM     73  C   UNL A   1      47.518  26.227  25.887  1.00  0.00     0.131 A 
ATOM     74  C   UNL A   1      47.959  27.447  23.446  1.00  0.00     0.055 A 
ATOM     75  C   UNL A   1      48.594  25.820  25.099  1.00  0.00     0.041 A 
ATOM     76  F   UNL A   1      47.328  25.599  27.058  1.00  0.00    -0.206 F 
ATOM     77  C   UNL A   1      48.813  26.422  23.863  1.00  0.00     0.022 A 
BRANCH  74  78
ATOM     78  S   UNL A   1      48.149  28.170  21.794  1.00  0.00     0.124 S 
ATOM     79  O   UNL A   1      49.498  28.720  21.864  1.00  0.00    -0.237 OA
ATOM     80  O   UNL A   1      47.974  27.006  20.933  1.00  0.00    -0.237 OA
ATOM     81  O   UNL A   1      47.074  29.158  21.730  1.00  0.00    -0.744 OA
ENDBRANCH  74  78
ENDBRANCH  47  71
BRANCH  59  82
ATOM     82  C   UNL A   1      45.300  32.822  29.480  1.00  0.00     0.023 A 
ATOM     83  C   UNL A   1      45.219  34.043  28.790  1.00  0.00     0.031 A 
ATOM     84  C   UNL A   1      46.202  32.727  30.555  1.00  0.00     0.131 A 
ATOM     85  C   UNL A   1      46.064  35.105  29.147  1.00  0.00     0.055 A 
ATOM     86  C   UNL A   1      46.998  33.805  30.943  1.00  0.00     0.041 A 
ATOM     87  F   UNL A   1      46.321  31.583  31.249  1.00  0.00    -0.206 F 
ATOM     88  C   UNL A   1      46.941  34.999  30.229  1.00  0.00     0.022 A 
BRANCH  85  89
ATOM     89  S   UNL A   1      46.064  36.602  28.122  1.00  0.00     0.124 S 
ATOM     90  O   UNL A   1      44.896  36.387  27.272  1.00  0.00    -0.237 OA
ATOM     91  O   UNL A   1      45.942  37.662  29.117  1.00  0.00    -0.237 OA
ATOM     92  O   UNL A   1      47.350  36.545  27.431  1.00  0.00    -0.744 OA
ENDBRANCH  85  89
ENDBRANCH  59  82
ENDBRANCH  33  34
ENDBRANCH  25  28
ENDBRANCH  23  24
ENDBRANCH  22  23
ENDBRANCH   1  22
TORSDOF 18
ENDMDL
