MODEL 1
REMARK VINA RESULT:     -10.7      0.000      0.000
REMARK SMILES CCc1ccc(C(=O)NCCCCNC(=O)c2ccc(-c3c4nc(c(-c5cc(S(=O)(=O)[O-])ccc5F)c5ccc([nH]5)c(-c5cc(S(=O)(=O)[O-])ccc5F)c5nc(c(-c6cc(S(=O)(=O)[O-])ccc6F)c6ccc3[nH]6)C=C5)C=C4)cc2)cc1S(=O)(=O)C(CC)CC
REMARK SMILES IDX 11 1 10 2 9 3 7 4 8 5 6 7 3 8 4 9 81 10 5 11 80 12 2 13 1 14
REMARK SMILES IDX 82 15 83 16 84 17 85 18 86 19 87 20 88 21 89 22 12 23 13 24
REMARK SMILES IDX 14 25 15 26 16 28 17 29 18 30 79 31 19 32 78 33 20 34 21 35
REMARK SMILES IDX 22 36 72 37 23 38 77 39 71 40 73 41 24 42 76 43 70 44 69 45
REMARK SMILES IDX 25 47 57 48 37 49 56 50 38 51 41 52 55 53 74 54 39 55 40 56
REMARK SMILES IDX 54 58 75 59 42 60 26 61 27 62 35 63 28 64 34 65 36 66 33 67
REMARK SMILES IDX 29 68 30 69 31 70 32 71 58 72 59 73 67 74 60 75 66 76 68 77
REMARK SMILES IDX 65 78 61 79 62 80 63 81 64 82 43 83 44 84 52 85 45 86 51 87
REMARK SMILES IDX 53 88 50 89 46 90 47 91 48 92 49 93
REMARK H PARENT 9 6 14 27 73 46 41 57
REMARK Flexibility Score: inf
ROOT
ATOM      1  C   UNL A   1      37.054  20.926  24.657  1.00  0.00     0.023 C 
ENDROOT
BRANCH   1   2
ATOM      2  C   UNL A   1      35.977  21.116  25.732  1.00  0.00     0.116 C 
BRANCH   2   3
ATOM      3  N   UNL A   1      34.734  20.461  25.357  1.00  0.00    -0.352 N 
ATOM      4  C   UNL A   1      33.461  20.922  25.128  1.00  0.00     0.251 C 
ATOM      5  O   UNL A   1      32.618  20.104  24.755  1.00  0.00    -0.269 OA
ATOM      6  H   UNL A   1      34.823  19.486  25.245  1.00  0.00     0.163 HD
BRANCH   4   7
ATOM      7  C   UNL A   1      33.040  22.345  25.294  1.00  0.00     0.041 A 
ATOM      8  C   UNL A   1      32.454  25.106  25.766  1.00  0.00    -0.030 A 
ATOM      9  C   UNL A   1      32.334  24.128  26.782  1.00  0.00     0.006 A 
ATOM     10  C   UNL A   1      32.718  24.650  24.472  1.00  0.00     0.071 A 
ATOM     11  C   UNL A   1      32.601  22.772  26.546  1.00  0.00     0.014 A 
ATOM     12  C   UNL A   1      33.110  23.302  24.294  1.00  0.00     0.034 A 
BRANCH   8  13
ATOM     13  C   UNL A   1      32.525  26.532  26.245  1.00  0.00     0.033 C 
ATOM     14  C   UNL A   1      31.202  27.238  26.501  1.00  0.00     0.009 C 
ENDBRANCH   8  13
BRANCH  10  15
ATOM     15  S   UNL A   1      32.661  25.488  22.894  1.00  0.00     0.181 S 
ATOM     16  O   UNL A   1      34.021  25.415  22.396  1.00  0.00    -0.223 OA
ATOM     17  O   UNL A   1      31.631  24.768  22.151  1.00  0.00    -0.223 OA
BRANCH  15  18
ATOM     18  C   UNL A   1      32.109  27.163  22.853  1.00  0.00     0.113 C 
BRANCH  18  19
ATOM     19  C   UNL A   1      33.128  28.259  22.447  1.00  0.00     0.017 C 
ATOM     20  C   UNL A   1      34.035  28.903  23.485  1.00  0.00     0.005 C 
ENDBRANCH  18  19
BRANCH  18  21
ATOM     21  C   UNL A   1      30.675  27.456  22.374  1.00  0.00     0.017 C 
ATOM     22  C   UNL A   1      30.178  28.880  22.594  1.00  0.00     0.005 C 
ENDBRANCH  18  21
ENDBRANCH  15  18
ENDBRANCH  10  15
ENDBRANCH   4   7
ENDBRANCH   2   3
ENDBRANCH   1   2
BRANCH   1  23
ATOM     23  C   UNL A   1      38.047  19.798  24.953  1.00  0.00     0.023 C 
BRANCH  23  24
ATOM     24  C   UNL A   1      39.073  20.116  26.036  1.00  0.00     0.116 C 
BRANCH  24  25
ATOM     25  N   UNL A   1      40.203  19.201  26.038  1.00  0.00    -0.352 N 
ATOM     26  C   UNL A   1      41.538  19.494  26.165  1.00  0.00     0.251 C 
ATOM     27  H   UNL A   1      39.981  18.248  25.935  1.00  0.00     0.163 HD
ATOM     28  O   UNL A   1      42.372  18.606  26.011  1.00  0.00    -0.269 OA
BRANCH  26  29
ATOM     29  C   UNL A   1      41.968  20.883  26.443  1.00  0.00     0.039 A 
ATOM     30  C   UNL A   1      42.075  21.778  25.375  1.00  0.00     0.014 A 
ATOM     31  C   UNL A   1      42.276  21.302  27.740  1.00  0.00     0.014 A 
ATOM     32  C   UNL A   1      42.452  23.101  25.613  1.00  0.00     0.010 A 
ATOM     33  C   UNL A   1      42.580  22.639  27.986  1.00  0.00     0.010 A 
ATOM     34  C   UNL A   1      42.689  23.548  26.923  1.00  0.00    -0.014 A 
BRANCH  34  35
ATOM     35  C   UNL A   1      43.105  24.948  27.191  1.00  0.00     0.031 A 
ATOM     36  C   UNL A   1      42.150  25.896  27.866  1.00  0.00     0.074 A 
ATOM     37  C   UNL A   1      44.320  25.376  26.794  1.00  0.00     0.049 A 
ATOM     38  N   UNL A   1      42.300  27.164  28.150  1.00  0.00    -0.248 NA
ATOM     39  C   UNL A   1      40.837  25.348  28.243  1.00  0.00     0.031 C 
ATOM     40  C   UNL A   1      45.315  24.561  26.093  1.00  0.00     0.029 A 
ATOM     41  N   UNL A   1      44.924  26.601  26.921  1.00  0.00    -0.354 N 
ATOM     42  C   UNL A   1      41.099  27.569  28.724  1.00  0.00     0.074 A 
ATOM     43  C   UNL A   1      40.210  26.428  28.682  1.00  0.00     0.031 C 
ATOM     44  C   UNL A   1      46.415  25.302  25.876  1.00  0.00     0.029 A 
ATOM     45  C   UNL A   1      46.192  26.650  26.388  1.00  0.00     0.049 A 
ATOM     46  H   UNL A   1      44.492  27.373  27.353  1.00  0.00     0.167 HD
ATOM     47  C   UNL A   1      40.776  28.772  29.262  1.00  0.00     0.034 A 
ATOM     48  C   UNL A   1      47.072  27.669  26.319  1.00  0.00     0.034 A 
ATOM     49  C   UNL A   1      41.683  29.893  29.311  1.00  0.00     0.049 A 
ATOM     50  C   UNL A   1      46.693  28.998  26.923  1.00  0.00     0.074 A 
ATOM     51  C   UNL A   1      41.481  31.143  29.869  1.00  0.00     0.029 A 
ATOM     52  N   UNL A   1      42.965  29.900  28.778  1.00  0.00    -0.354 N 
ATOM     53  N   UNL A   1      45.570  29.352  27.508  1.00  0.00    -0.248 NA
ATOM     54  C   UNL A   1      47.708  30.059  26.878  1.00  0.00     0.031 C 
ATOM     55  C   UNL A   1      42.616  31.924  29.621  1.00  0.00     0.029 A 
ATOM     56  C   UNL A   1      43.558  31.138  28.975  1.00  0.00     0.049 A 
ATOM     57  H   UNL A   1      43.393  29.138  28.325  1.00  0.00     0.167 HD
ATOM     58  C   UNL A   1      45.761  30.664  27.931  1.00  0.00     0.074 A 
ATOM     59  C   UNL A   1      47.108  31.032  27.546  1.00  0.00     0.031 C 
ATOM     60  C   UNL A   1      44.902  31.490  28.583  1.00  0.00     0.034 A 
BRANCH  47  61
ATOM     61  C   UNL A   1      39.379  28.931  29.816  1.00  0.00     0.023 A 
ATOM     62  C   UNL A   1      38.327  29.438  29.032  1.00  0.00     0.031 A 
ATOM     63  C   UNL A   1      39.102  28.613  31.157  1.00  0.00     0.131 A 
ATOM     64  C   UNL A   1      37.076  29.690  29.613  1.00  0.00     0.055 A 
ATOM     65  C   UNL A   1      37.830  28.784  31.707  1.00  0.00     0.041 A 
ATOM     66  F   UNL A   1      40.069  28.146  31.963  1.00  0.00    -0.206 F 
ATOM     67  C   UNL A   1      36.812  29.343  30.940  1.00  0.00     0.022 A 
BRANCH  64  68
ATOM     68  S   UNL A   1      35.848  30.622  28.656  1.00  0.00     0.124 S 
ATOM     69  O   UNL A   1      34.975  29.552  28.177  1.00  0.00    -0.237 OA
ATOM     70  O   UNL A   1      35.277  31.513  29.659  1.00  0.00    -0.237 OA
ATOM     71  O   UNL A   1      36.646  31.276  27.621  1.00  0.00    -0.744 OA
ENDBRANCH  64  68
ENDBRANCH  47  61
BRANCH  48  72
ATOM     72  C   UNL A   1      48.398  27.481  25.664  1.00  0.00     0.023 A 
ATOM     73  C   UNL A   1      48.548  27.632  24.276  1.00  0.00     0.031 A 
ATOM     74  C   UNL A   1      49.529  27.104  26.412  1.00  0.00     0.131 A 
ATOM     75  C   UNL A   1      49.785  27.356  23.671  1.00  0.00     0.055 A 
ATOM     76  C   UNL A   1      50.769  26.883  25.812  1.00  0.00     0.041 A 
ATOM     77  F   UNL A   1      49.442  26.954  27.743  1.00  0.00    -0.206 F 
ATOM     78  C   UNL A   1      50.899  26.995  24.431  1.00  0.00     0.022 A 
BRANCH  75  79
ATOM     79  S   UNL A   1      49.894  27.392  21.861  1.00  0.00     0.124 S 
ATOM     80  O   UNL A   1      51.228  26.848  21.633  1.00  0.00    -0.237 OA
ATOM     81  O   UNL A   1      48.777  26.536  21.474  1.00  0.00    -0.237 OA
ATOM     82  O   UNL A   1      49.733  28.807  21.538  1.00  0.00    -0.744 OA
ENDBRANCH  75  79
ENDBRANCH  48  72
BRANCH  60  83
ATOM     83  C   UNL A   1      45.425  32.852  28.972  1.00  0.00     0.023 A 
ATOM     84  C   UNL A   1      45.278  33.972  28.134  1.00  0.00     0.031 A 
ATOM     85  C   UNL A   1      46.097  33.025  30.195  1.00  0.00     0.131 A 
ATOM     86  C   UNL A   1      45.848  35.199  28.503  1.00  0.00     0.055 A 
ATOM     87  C   UNL A   1      46.607  34.264  30.585  1.00  0.00     0.041 A 
ATOM     88  F   UNL A   1      46.266  31.990  31.033  1.00  0.00    -0.206 F 
ATOM     89  C   UNL A   1      46.498  35.356  29.731  1.00  0.00     0.022 A 
BRANCH  86  90
ATOM     90  S   UNL A   1      45.818  36.567  27.312  1.00  0.00     0.124 S 
ATOM     91  O   UNL A   1      46.412  37.654  28.082  1.00  0.00    -0.237 OA
ATOM     92  O   UNL A   1      46.629  36.045  26.216  1.00  0.00    -0.237 OA
ATOM     93  O   UNL A   1      44.397  36.726  27.008  1.00  0.00    -0.744 OA
ENDBRANCH  86  90
ENDBRANCH  60  83
ENDBRANCH  34  35
ENDBRANCH  26  29
ENDBRANCH  24  25
ENDBRANCH  23  24
ENDBRANCH   1  23
TORSDOF 19
ENDMDL
MODEL 2
REMARK VINA RESULT:     -10.6      1.444      2.130
REMARK SMILES CCc1ccc(C(=O)NCCCCNC(=O)c2ccc(-c3c4nc(c(-c5cc(S(=O)(=O)[O-])ccc5F)c5ccc([nH]5)c(-c5cc(S(=O)(=O)[O-])ccc5F)c5nc(c(-c6cc(S(=O)(=O)[O-])ccc6F)c6ccc3[nH]6)C=C5)C=C4)cc2)cc1S(=O)(=O)C(CC)CC
REMARK SMILES IDX 11 1 10 2 9 3 7 4 8 5 6 7 3 8 4 9 81 10 5 11 80 12 2 13 1 14
REMARK SMILES IDX 82 15 83 16 84 17 85 18 86 19 87 20 88 21 89 22 12 23 13 24
REMARK SMILES IDX 14 25 15 26 16 28 17 29 18 30 79 31 19 32 78 33 20 34 21 35
REMARK SMILES IDX 22 36 72 37 23 38 77 39 71 40 73 41 24 42 76 43 70 44 69 45
REMARK SMILES IDX 25 47 57 48 37 49 56 50 38 51 41 52 55 53 74 54 39 55 40 56
REMARK SMILES IDX 54 58 75 59 42 60 26 61 27 62 35 63 28 64 34 65 36 66 33 67
REMARK SMILES IDX 29 68 30 69 31 70 32 71 58 72 59 73 67 74 60 75 66 76 68 77
REMARK SMILES IDX 65 78 61 79 62 80 63 81 64 82 43 83 44 84 52 85 45 86 51 87
REMARK SMILES IDX 53 88 50 89 46 90 47 91 48 92 49 93
REMARK H PARENT 9 6 14 27 73 46 41 57
REMARK Flexibility Score: inf
ROOT
ATOM      1  C   UNL A   1      35.366  22.020  26.295  1.00  0.00     0.023 C 
ENDROOT
BRANCH   1   2
ATOM      2  C   UNL A   1      34.249  21.503  27.209  1.00  0.00     0.116 C 
BRANCH   2   3
ATOM      3  N   UNL A   1      33.316  20.659  26.479  1.00  0.00    -0.352 N 
ATOM      4  C   UNL A   1      32.533  20.864  25.370  1.00  0.00     0.251 C 
ATOM      5  O   UNL A   1      31.881  19.907  24.948  1.00  0.00    -0.269 OA
ATOM      6  H   UNL A   1      33.227  19.754  26.859  1.00  0.00     0.163 HD
BRANCH   4   7
ATOM      7  C   UNL A   1      32.428  22.165  24.644  1.00  0.00     0.041 A 
ATOM      8  C   UNL A   1      32.076  24.527  23.069  1.00  0.00    -0.030 A 
ATOM      9  C   UNL A   1      32.890  23.452  22.639  1.00  0.00     0.006 A 
ATOM     10  C   UNL A   1      31.573  24.463  24.371  1.00  0.00     0.071 A 
ATOM     11  C   UNL A   1      33.079  22.303  23.420  1.00  0.00     0.014 A 
ATOM     12  C   UNL A   1      31.672  23.242  25.077  1.00  0.00     0.034 A 
BRANCH   8  13
ATOM     13  C   UNL A   1      31.652  25.490  21.991  1.00  0.00     0.033 C 
ATOM     14  C   UNL A   1      32.585  25.643  20.800  1.00  0.00     0.009 C 
ENDBRANCH   8  13
BRANCH  10  15
ATOM     15  S   UNL A   1      30.772  25.698  25.385  1.00  0.00     0.181 S 
ATOM     16  O   UNL A   1      29.612  26.104  24.612  1.00  0.00    -0.223 OA
ATOM     17  O   UNL A   1      30.533  25.012  26.651  1.00  0.00    -0.223 OA
BRANCH  15  18
ATOM     18  C   UNL A   1      31.695  27.127  25.853  1.00  0.00     0.113 C 
BRANCH  18  19
ATOM     19  C   UNL A   1      33.177  26.937  26.268  1.00  0.00     0.017 C 
ATOM     20  C   UNL A   1      34.025  25.837  25.645  1.00  0.00     0.005 C 
ENDBRANCH  18  19
BRANCH  18  21
ATOM     21  C   UNL A   1      31.435  28.449  25.109  1.00  0.00     0.017 C 
ATOM     22  C   UNL A   1      32.512  29.518  25.256  1.00  0.00     0.005 C 
ENDBRANCH  18  21
ENDBRANCH  15  18
ENDBRANCH  10  15
ENDBRANCH   4   7
ENDBRANCH   2   3
ENDBRANCH   1   2
BRANCH   1  23
ATOM     23  C   UNL A   1      35.954  20.960  25.358  1.00  0.00     0.023 C 
BRANCH  23  24
ATOM     24  C   UNL A   1      37.401  21.205  24.942  1.00  0.00     0.116 C 
BRANCH  24  25
ATOM     25  N   UNL A   1      38.293  20.116  25.306  1.00  0.00    -0.352 N 
ATOM     26  C   UNL A   1      39.581  20.187  25.776  1.00  0.00     0.251 C 
ATOM     27  H   UNL A   1      37.924  19.209  25.202  1.00  0.00     0.163 HD
ATOM     28  O   UNL A   1      40.237  19.157  25.908  1.00  0.00    -0.269 OA
BRANCH  26  29
ATOM     29  C   UNL A   1      40.186  21.503  26.079  1.00  0.00     0.039 A 
ATOM     30  C   UNL A   1      39.343  22.605  26.251  1.00  0.00     0.014 A 
ATOM     31  C   UNL A   1      41.571  21.659  26.181  1.00  0.00     0.014 A 
ATOM     32  C   UNL A   1      39.887  23.853  26.564  1.00  0.00     0.010 A 
ATOM     33  C   UNL A   1      42.106  22.886  26.565  1.00  0.00     0.010 A 
ATOM     34  C   UNL A   1      41.272  24.000  26.743  1.00  0.00    -0.014 A 
BRANCH  34  35
ATOM     35  C   UNL A   1      41.866  25.323  27.061  1.00  0.00     0.031 A 
ATOM     36  C   UNL A   1      41.080  26.320  27.872  1.00  0.00     0.074 A 
ATOM     37  C   UNL A   1      43.088  25.642  26.592  1.00  0.00     0.049 A 
ATOM     38  N   UNL A   1      41.397  27.540  28.221  1.00  0.00    -0.248 NA
ATOM     39  C   UNL A   1      39.746  25.894  28.322  1.00  0.00     0.031 C 
ATOM     40  C   UNL A   1      43.927  24.775  25.761  1.00  0.00     0.029 A 
ATOM     41  N   UNL A   1      43.838  26.781  26.744  1.00  0.00    -0.354 N 
ATOM     42  C   UNL A   1      40.297  28.033  28.917  1.00  0.00     0.074 A 
ATOM     43  C   UNL A   1      39.282  27.002  28.878  1.00  0.00     0.031 C 
ATOM     44  C   UNL A   1      45.085  25.403  25.499  1.00  0.00     0.029 A 
ATOM     45  C   UNL A   1      45.058  26.729  26.111  1.00  0.00     0.049 A 
ATOM     46  H   UNL A   1      43.531  27.563  27.258  1.00  0.00     0.167 HD
ATOM     47  C   UNL A   1      40.157  29.222  29.554  1.00  0.00     0.034 A 
ATOM     48  C   UNL A   1      46.042  27.647  26.033  1.00  0.00     0.034 A 
ATOM     49  C   UNL A   1      41.188  30.230  29.596  1.00  0.00     0.049 A 
ATOM     50  C   UNL A   1      45.866  28.963  26.748  1.00  0.00     0.074 A 
ATOM     51  C   UNL A   1      41.175  31.453  30.246  1.00  0.00     0.029 A 
ATOM     52  N   UNL A   1      42.419  30.135  28.959  1.00  0.00    -0.354 N 
ATOM     53  N   UNL A   1      44.839  29.395  27.445  1.00  0.00    -0.248 NA
ATOM     54  C   UNL A   1      46.990  29.906  26.684  1.00  0.00     0.031 C 
ATOM     55  C   UNL A   1      42.369  32.120  29.954  1.00  0.00     0.029 A 
ATOM     56  C   UNL A   1      43.163  31.283  29.184  1.00  0.00     0.049 A 
ATOM     57  H   UNL A   1      42.720  29.364  28.426  1.00  0.00     0.167 HD
ATOM     58  C   UNL A   1      45.212  30.645  27.932  1.00  0.00     0.074 A 
ATOM     59  C   UNL A   1      46.559  30.889  27.460  1.00  0.00     0.031 C 
ATOM     60  C   UNL A   1      44.506  31.512  28.704  1.00  0.00     0.034 A 
BRANCH  47  61
ATOM     61  C   UNL A   1      38.834  29.494  30.231  1.00  0.00     0.023 A 
ATOM     62  C   UNL A   1      37.838  30.278  29.619  1.00  0.00     0.031 A 
ATOM     63  C   UNL A   1      38.578  29.001  31.522  1.00  0.00     0.131 A 
ATOM     64  C   UNL A   1      36.675  30.614  30.328  1.00  0.00     0.055 A 
ATOM     65  C   UNL A   1      37.379  29.266  32.188  1.00  0.00     0.041 A 
ATOM     66  F   UNL A   1      39.496  28.265  32.168  1.00  0.00    -0.206 F 
ATOM     67  C   UNL A   1      36.427  30.092  31.599  1.00  0.00     0.022 A 
BRANCH  64  68
ATOM     68  S   UNL A   1      35.566  31.867  29.626  1.00  0.00     0.124 S 
ATOM     69  O   UNL A   1      36.517  32.884  29.180  1.00  0.00    -0.237 OA
ATOM     70  O   UNL A   1      34.879  31.128  28.575  1.00  0.00    -0.237 OA
ATOM     71  O   UNL A   1      34.733  32.259  30.761  1.00  0.00    -0.744 OA
ENDBRANCH  64  68
ENDBRANCH  47  61
BRANCH  48  72
ATOM     72  C   UNL A   1      47.285  27.361  25.259  1.00  0.00     0.023 A 
ATOM     73  C   UNL A   1      47.395  27.725  23.907  1.00  0.00     0.031 A 
ATOM     74  C   UNL A   1      48.365  26.680  25.848  1.00  0.00     0.131 A 
ATOM     75  C   UNL A   1      48.536  27.360  23.175  1.00  0.00     0.055 A 
ATOM     76  C   UNL A   1      49.520  26.366  25.130  1.00  0.00     0.041 A 
ATOM     77  F   UNL A   1      48.314  26.316  27.140  1.00  0.00    -0.206 F 
ATOM     78  C   UNL A   1      49.604  26.694  23.780  1.00  0.00     0.022 A 
BRANCH  75  79
ATOM     79  S   UNL A   1      48.568  27.693  21.392  1.00  0.00     0.124 S 
ATOM     80  O   UNL A   1      49.419  28.875  21.325  1.00  0.00    -0.237 OA
ATOM     81  O   UNL A   1      49.140  26.459  20.865  1.00  0.00    -0.237 OA
ATOM     82  O   UNL A   1      47.162  27.916  21.063  1.00  0.00    -0.744 OA
ENDBRANCH  75  79
ENDBRANCH  48  72
BRANCH  60  83
ATOM     83  C   UNL A   1      45.209  32.777  29.131  1.00  0.00     0.023 A 
ATOM     84  C   UNL A   1      45.223  33.929  28.326  1.00  0.00     0.031 A 
ATOM     85  C   UNL A   1      45.892  32.821  30.360  1.00  0.00     0.131 A 
ATOM     86  C   UNL A   1      45.956  35.055  28.730  1.00  0.00     0.055 A 
ATOM     87  C   UNL A   1      46.567  33.966  30.786  1.00  0.00     0.041 A 
ATOM     88  F   UNL A   1      45.913  31.750  31.168  1.00  0.00    -0.206 F 
ATOM     89  C   UNL A   1      46.615  35.086  29.962  1.00  0.00     0.022 A 
BRANCH  86  90
ATOM     90  S   UNL A   1      46.121  36.447  27.578  1.00  0.00     0.124 S 
ATOM     91  O   UNL A   1      45.725  35.842  26.311  1.00  0.00    -0.237 OA
ATOM     92  O   UNL A   1      45.192  37.425  28.135  1.00  0.00    -0.237 OA
ATOM     93  O   UNL A   1      47.534  36.808  27.677  1.00  0.00    -0.744 OA
ENDBRANCH  86  90
ENDBRANCH  60  83
ENDBRANCH  34  35
ENDBRANCH  26  29
ENDBRANCH  24  25
ENDBRANCH  23  24
ENDBRANCH   1  23
TORSDOF 19
ENDMDL
MODEL 3
REMARK VINA RESULT:     -10.5      2.885      8.247
REMARK SMILES CCc1ccc(C(=O)NCCCCNC(=O)c2ccc(-c3c4nc(c(-c5cc(S(=O)(=O)[O-])ccc5F)c5ccc([nH]5)c(-c5cc(S(=O)(=O)[O-])ccc5F)c5nc(c(-c6cc(S(=O)(=O)[O-])ccc6F)c6ccc3[nH]6)C=C5)C=C4)cc2)cc1S(=O)(=O)C(CC)CC
REMARK SMILES IDX 11 1 10 2 9 3 7 4 8 5 6 7 3 8 4 9 81 10 5 11 80 12 2 13 1 14
REMARK SMILES IDX 82 15 83 16 84 17 85 18 86 19 87 20 88 21 89 22 12 23 13 24
REMARK SMILES IDX 14 25 15 26 16 28 17 29 18 30 79 31 19 32 78 33 20 34 21 35
REMARK SMILES IDX 22 36 72 37 23 38 77 39 71 40 73 41 24 42 76 43 70 44 69 45
REMARK SMILES IDX 25 47 57 48 37 49 56 50 38 51 41 52 55 53 74 54 39 55 40 56
REMARK SMILES IDX 54 58 75 59 42 60 26 61 27 62 35 63 28 64 34 65 36 66 33 67
REMARK SMILES IDX 29 68 30 69 31 70 32 71 58 72 59 73 67 74 60 75 66 76 68 77
REMARK SMILES IDX 65 78 61 79 62 80 63 81 64 82 43 83 44 84 52 85 45 86 51 87
REMARK SMILES IDX 53 88 50 89 46 90 47 91 48 92 49 93
REMARK H PARENT 9 6 14 27 73 46 41 57
REMARK Flexibility Score: inf
ROOT
ATOM      1  C   UNL A   1      34.798  22.804  26.735  1.00  0.00     0.023 C 
ENDROOT
BRANCH   1   2
ATOM      2  C   UNL A   1      33.832  21.951  27.565  1.00  0.00     0.116 C 
BRANCH   2   3
ATOM      3  N   UNL A   1      33.088  21.025  26.726  1.00  0.00    -0.352 N 
ATOM      4  C   UNL A   1      32.506  21.139  25.488  1.00  0.00     0.251 C 
ATOM      5  O   UNL A   1      31.990  20.129  25.006  1.00  0.00    -0.269 OA
ATOM      6  H   UNL A   1      32.980  20.132  27.128  1.00  0.00     0.163 HD
BRANCH   4   7
ATOM      7  C   UNL A   1      32.466  22.401  24.691  1.00  0.00     0.041 A 
ATOM      8  C   UNL A   1      32.249  24.681  22.976  1.00  0.00    -0.030 A 
ATOM      9  C   UNL A   1      33.082  23.580  22.661  1.00  0.00     0.006 A 
ATOM     10  C   UNL A   1      31.654  24.687  24.240  1.00  0.00     0.071 A 
ATOM     11  C   UNL A   1      33.204  22.472  23.511  1.00  0.00     0.014 A 
ATOM     12  C   UNL A   1      31.690  23.503  25.013  1.00  0.00     0.034 A 
BRANCH   8  13
ATOM     13  C   UNL A   1      31.912  25.590  21.822  1.00  0.00     0.033 C 
ATOM     14  C   UNL A   1      32.969  26.605  21.416  1.00  0.00     0.009 C 
ENDBRANCH   8  13
BRANCH  10  15
ATOM     15  S   UNL A   1      30.794  25.978  25.129  1.00  0.00     0.181 S 
ATOM     16  O   UNL A   1      29.475  26.016  24.526  1.00  0.00    -0.223 OA
ATOM     17  O   UNL A   1      30.885  25.562  26.526  1.00  0.00    -0.223 OA
BRANCH  15  18
ATOM     18  C   UNL A   1      31.487  27.600  25.132  1.00  0.00     0.113 C 
BRANCH  18  19
ATOM     19  C   UNL A   1      33.023  27.740  24.974  1.00  0.00     0.017 C 
ATOM     20  C   UNL A   1      33.945  27.609  26.177  1.00  0.00     0.005 C 
ENDBRANCH  18  19
BRANCH  18  21
ATOM     21  C   UNL A   1      30.699  28.739  24.460  1.00  0.00     0.017 C 
ATOM     22  C   UNL A   1      30.390  28.550  22.979  1.00  0.00     0.005 C 
ENDBRANCH  18  21
ENDBRANCH  15  18
ENDBRANCH  10  15
ENDBRANCH   4   7
ENDBRANCH   2   3
ENDBRANCH   1   2
BRANCH   1  23
ATOM     23  C   UNL A   1      35.933  22.012  26.079  1.00  0.00     0.023 C 
BRANCH  23  24
ATOM     24  C   UNL A   1      37.265  22.751  25.995  1.00  0.00     0.116 C 
BRANCH  24  25
ATOM     25  N   UNL A   1      38.414  21.861  26.022  1.00  0.00    -0.352 N 
ATOM     26  C   UNL A   1      39.718  22.159  26.329  1.00  0.00     0.251 C 
ATOM     27  H   UNL A   1      38.233  20.922  25.788  1.00  0.00     0.163 HD
ATOM     28  O   UNL A   1      40.590  21.308  26.171  1.00  0.00    -0.269 OA
BRANCH  26  29
ATOM     29  C   UNL A   1      40.074  23.514  26.808  1.00  0.00     0.039 A 
ATOM     30  C   UNL A   1      40.558  23.659  28.111  1.00  0.00     0.014 A 
ATOM     31  C   UNL A   1      39.922  24.636  25.989  1.00  0.00     0.014 A 
ATOM     32  C   UNL A   1      40.927  24.923  28.577  1.00  0.00     0.010 A 
ATOM     33  C   UNL A   1      40.358  25.883  26.429  1.00  0.00     0.010 A 
ATOM     34  C   UNL A   1      40.848  26.043  27.734  1.00  0.00    -0.014 A 
BRANCH  34  35
ATOM     35  C   UNL A   1      41.222  27.395  28.222  1.00  0.00     0.031 A 
ATOM     36  C   UNL A   1      42.673  27.788  28.295  1.00  0.00     0.074 A 
ATOM     37  C   UNL A   1      40.265  28.251  28.631  1.00  0.00     0.049 A 
ATOM     38  N   UNL A   1      43.212  28.899  28.729  1.00  0.00    -0.248 NA
ATOM     39  C   UNL A   1      43.650  26.783  27.848  1.00  0.00     0.031 C 
ATOM     40  C   UNL A   1      38.828  27.966  28.646  1.00  0.00     0.029 A 
ATOM     41  N   UNL A   1      40.354  29.530  29.117  1.00  0.00    -0.354 N 
ATOM     42  C   UNL A   1      44.588  28.719  28.623  1.00  0.00     0.074 A 
ATOM     43  C   UNL A   1      44.798  27.368  28.148  1.00  0.00     0.031 C 
ATOM     44  C   UNL A   1      38.170  29.050  29.092  1.00  0.00     0.029 A 
ATOM     45  C   UNL A   1      39.137  30.091  29.428  1.00  0.00     0.049 A 
ATOM     46  H   UNL A   1      41.210  30.004  29.232  1.00  0.00     0.167 HD
ATOM     47  C   UNL A   1      45.583  29.608  28.870  1.00  0.00     0.034 A 
ATOM     48  C   UNL A   1      38.836  31.306  29.929  1.00  0.00     0.034 A 
ATOM     49  C   UNL A   1      45.352  30.957  29.326  1.00  0.00     0.049 A 
ATOM     50  C   UNL A   1      39.958  32.278  30.197  1.00  0.00     0.074 A 
ATOM     51  C   UNL A   1      46.278  31.957  29.568  1.00  0.00     0.029 A 
ATOM     52  N   UNL A   1      44.105  31.496  29.613  1.00  0.00    -0.354 N 
ATOM     53  N   UNL A   1      41.252  32.112  30.044  1.00  0.00    -0.248 NA
ATOM     54  C   UNL A   1      39.576  33.610  30.685  1.00  0.00     0.031 C 
ATOM     55  C   UNL A   1      45.598  33.078  30.056  1.00  0.00     0.029 A 
ATOM     56  C   UNL A   1      44.238  32.806  30.048  1.00  0.00     0.049 A 
ATOM     57  H   UNL A   1      43.249  31.018  29.521  1.00  0.00     0.167 HD
ATOM     58  C   UNL A   1      41.833  33.331  30.382  1.00  0.00     0.074 A 
ATOM     59  C   UNL A   1      40.749  34.224  30.733  1.00  0.00     0.031 C 
ATOM     60  C   UNL A   1      43.145  33.683  30.397  1.00  0.00     0.034 A 
BRANCH  47  61
ATOM     61  C   UNL A   1      47.003  29.131  28.671  1.00  0.00     0.023 A 
ATOM     62  C   UNL A   1      47.559  28.983  27.388  1.00  0.00     0.031 A 
ATOM     63  C   UNL A   1      47.799  28.780  29.775  1.00  0.00     0.131 A 
ATOM     64  C   UNL A   1      48.835  28.420  27.236  1.00  0.00     0.055 A 
ATOM     65  C   UNL A   1      49.103  28.301  29.621  1.00  0.00     0.041 A 
ATOM     66  F   UNL A   1      47.319  28.878  31.024  1.00  0.00    -0.206 F 
ATOM     67  C   UNL A   1      49.621  28.102  28.345  1.00  0.00     0.022 A 
BRANCH  64  68
ATOM     68  S   UNL A   1      49.387  27.964  25.569  1.00  0.00     0.124 S 
ATOM     69  O   UNL A   1      49.748  26.559  25.752  1.00  0.00    -0.237 OA
ATOM     70  O   UNL A   1      48.201  28.220  24.762  1.00  0.00    -0.237 OA
ATOM     71  O   UNL A   1      50.514  28.862  25.324  1.00  0.00    -0.744 OA
ENDBRANCH  64  68
ENDBRANCH  47  61
BRANCH  48  72
ATOM     72  C   UNL A   1      37.420  31.682  30.205  1.00  0.00     0.023 A 
ATOM     73  C   UNL A   1      36.655  32.371  29.251  1.00  0.00     0.031 A 
ATOM     74  C   UNL A   1      36.824  31.396  31.446  1.00  0.00     0.131 A 
ATOM     75  C   UNL A   1      35.356  32.798  29.570  1.00  0.00     0.055 A 
ATOM     76  C   UNL A   1      35.513  31.776  31.740  1.00  0.00     0.041 A 
ATOM     77  F   UNL A   1      37.509  30.733  32.391  1.00  0.00    -0.206 F 
ATOM     78  C   UNL A   1      34.776  32.495  30.804  1.00  0.00     0.022 A 
BRANCH  75  79
ATOM     79  S   UNL A   1      34.465  33.836  28.379  1.00  0.00     0.124 S 
ATOM     80  O   UNL A   1      34.193  35.031  29.170  1.00  0.00    -0.237 OA
ATOM     81  O   UNL A   1      35.448  33.982  27.311  1.00  0.00    -0.237 OA
ATOM     82  O   UNL A   1      33.293  33.033  28.039  1.00  0.00    -0.744 OA
ENDBRANCH  75  79
ENDBRANCH  48  72
BRANCH  60  83
ATOM     83  C   UNL A   1      43.466  35.115  30.750  1.00  0.00     0.023 A 
ATOM     84  C   UNL A   1      43.410  35.586  32.073  1.00  0.00     0.031 A 
ATOM     85  C   UNL A   1      43.816  36.027  29.737  1.00  0.00     0.131 A 
ATOM     86  C   UNL A   1      43.640  36.943  32.342  1.00  0.00     0.055 A 
ATOM     87  C   UNL A   1      44.106  37.363  30.019  1.00  0.00     0.041 A 
ATOM     88  F   UNL A   1      43.884  35.633  28.456  1.00  0.00    -0.206 F 
ATOM     89  C   UNL A   1      44.004  37.831  31.325  1.00  0.00     0.022 A 
BRANCH  86  90
ATOM     90  S   UNL A   1      43.362  37.557  34.026  1.00  0.00     0.124 S 
ATOM     91  O   UNL A   1      42.350  36.631  34.524  1.00  0.00    -0.237 OA
ATOM     92  O   UNL A   1      44.687  37.437  34.625  1.00  0.00    -0.237 OA
ATOM     93  O   UNL A   1      42.899  38.928  33.819  1.00  0.00    -0.744 OA
ENDBRANCH  86  90
ENDBRANCH  60  83
ENDBRANCH  34  35
ENDBRANCH  26  29
ENDBRANCH  24  25
ENDBRANCH  23  24
ENDBRANCH   1  23
TORSDOF 19
ENDMDL
