MODEL 1
REMARK VINA RESULT:     -10.7      0.000      0.000
REMARK SMILES C[C@@H](C(=O)NCCCCNC(=O)c1ccc(-c2c3nc(c(-c4cc(S(=O)(=O)[O-])ccc4F)c4ccc([nH]4)c(-c4cc(S(=O)(=O)[O-])ccc4F)c4nc(c(-c5cc(S(=O)(=O)[O-])ccc5F)c5ccc2[nH]5)C=C4)C=C3)cc1)c1ccc(-c2ccccc2)cc1
REMARK SMILES IDX 8 1 7 2 6 3 5 4 3 5 4 6 2 8 1 9 76 10 77 11 87 12 78 13
REMARK SMILES IDX 86 14 79 15 80 16 81 17 85 18 82 19 84 20 83 21 9 22 10 23
REMARK SMILES IDX 11 24 12 26 13 27 14 28 75 29 15 30 74 31 16 32 17 33 18 34
REMARK SMILES IDX 68 35 19 36 73 37 67 38 69 39 20 40 72 41 66 42 65 43 21 45
REMARK SMILES IDX 53 46 33 47 52 48 34 49 37 50 51 51 70 52 35 53 36 54 50 56
REMARK SMILES IDX 71 57 38 58 22 59 23 60 31 61 24 62 30 63 32 64 29 65 25 66
REMARK SMILES IDX 26 67 27 68 28 69 54 70 55 71 63 72 56 73 62 74 64 75 61 76
REMARK SMILES IDX 57 77 58 78 59 79 60 80 39 81 40 82 48 83 41 84 47 85 49 86
REMARK SMILES IDX 46 87 42 88 43 89 44 90 45 91
REMARK H PARENT 5 7 10 25 69 44 37 55
REMARK Flexibility Score: inf
ROOT
ATOM      1  C   UNL A   1      33.973  34.231  28.036  1.00  0.00     0.023 C 
ENDROOT
BRANCH   1   2
ATOM      2  C   UNL A   1      34.078  35.410  29.007  1.00  0.00     0.023 C 
BRANCH   2   3
ATOM      3  C   UNL A   1      33.211  35.278  30.264  1.00  0.00     0.116 C 
BRANCH   3   4
ATOM      4  N   UNL A   1      33.928  35.759  31.427  1.00  0.00    -0.356 N 
ATOM      5  C   UNL A   1      34.839  35.125  32.223  1.00  0.00     0.227 C 
ATOM      6  O   UNL A   1      35.149  35.700  33.267  1.00  0.00    -0.274 OA
ATOM      7  H   UNL A   1      33.727  36.687  31.684  1.00  0.00     0.163 HD
BRANCH   5   8
ATOM      8  C   UNL A   1      35.469  33.789  31.774  1.00  0.00     0.105 C 
ATOM      9  C   UNL A   1      35.412  32.748  32.901  1.00  0.00     0.023 C 
BRANCH   8  10
ATOM     10  C   UNL A   1      36.889  33.979  31.220  1.00  0.00    -0.036 A 
ATOM     11  C   UNL A   1      37.218  33.707  29.885  1.00  0.00     0.005 A 
ATOM     12  C   UNL A   1      37.918  34.432  32.066  1.00  0.00     0.005 A 
ATOM     13  C   UNL A   1      38.523  33.864  29.417  1.00  0.00     0.009 A 
ATOM     14  C   UNL A   1      39.232  34.572  31.597  1.00  0.00     0.009 A 
ATOM     15  C   UNL A   1      39.552  34.289  30.264  1.00  0.00    -0.018 A 
BRANCH  15  16
ATOM     16  C   UNL A   1      40.920  34.391  29.743  1.00  0.00    -0.018 A 
ATOM     17  C   UNL A   1      41.234  35.329  28.744  1.00  0.00     0.009 A 
ATOM     18  C   UNL A   1      41.926  33.509  30.165  1.00  0.00     0.009 A 
ATOM     19  C   UNL A   1      42.506  35.370  28.170  1.00  0.00     0.001 A 
ATOM     20  C   UNL A   1      43.199  33.548  29.590  1.00  0.00     0.001 A 
ATOM     21  C   UNL A   1      43.486  34.474  28.589  1.00  0.00     0.000 A 
ENDBRANCH  15  16
ENDBRANCH   8  10
ENDBRANCH   5   8
ENDBRANCH   3   4
ENDBRANCH   2   3
ENDBRANCH   1   2
BRANCH   1  22
ATOM     22  C   UNL A   1      34.006  32.854  28.687  1.00  0.00     0.116 C 
BRANCH  22  23
ATOM     23  N   UNL A   1      33.532  31.808  27.799  1.00  0.00    -0.352 N 
ATOM     24  C   UNL A   1      34.175  30.676  27.367  1.00  0.00     0.251 C 
ATOM     25  H   UNL A   1      32.616  31.927  27.458  1.00  0.00     0.163 HD
ATOM     26  O   UNL A   1      33.659  29.996  26.481  1.00  0.00    -0.269 OA
BRANCH  24  27
ATOM     27  C   UNL A   1      35.489  30.299  27.932  1.00  0.00     0.039 A 
ATOM     28  C   UNL A   1      35.525  29.705  29.194  1.00  0.00     0.014 A 
ATOM     29  C   UNL A   1      36.680  30.533  27.235  1.00  0.00     0.014 A 
ATOM     30  C   UNL A   1      36.747  29.300  29.732  1.00  0.00     0.010 A 
ATOM     31  C   UNL A   1      37.888  30.052  27.737  1.00  0.00     0.010 A 
ATOM     32  C   UNL A   1      37.936  29.437  28.995  1.00  0.00    -0.014 A 
BRANCH  32  33
ATOM     33  C   UNL A   1      39.221  28.929  29.545  1.00  0.00     0.031 A 
ATOM     34  C   UNL A   1      39.844  29.570  30.755  1.00  0.00     0.074 A 
ATOM     35  C   UNL A   1      39.828  27.887  28.941  1.00  0.00     0.049 A 
ATOM     36  N   UNL A   1      40.939  29.240  31.393  1.00  0.00    -0.248 NA
ATOM     37  C   UNL A   1      39.164  30.752  31.307  1.00  0.00     0.031 C 
ATOM     38  C   UNL A   1      39.351  27.225  27.725  1.00  0.00     0.029 A 
ATOM     39  N   UNL A   1      40.968  27.197  29.268  1.00  0.00    -0.354 N 
ATOM     40  C   UNL A   1      41.071  30.162  32.427  1.00  0.00     0.074 A 
ATOM     41  C   UNL A   1      39.991  31.113  32.278  1.00  0.00     0.031 C 
ATOM     42  C   UNL A   1      40.167  26.200  27.434  1.00  0.00     0.029 A 
ATOM     43  C   UNL A   1      41.248  26.157  28.412  1.00  0.00     0.049 A 
ATOM     44  H   UNL A   1      41.533  27.425  30.042  1.00  0.00     0.167 HD
ATOM     45  C   UNL A   1      41.987  30.192  33.426  1.00  0.00     0.034 A 
ATOM     46  C   UNL A   1      42.261  25.268  28.413  1.00  0.00     0.034 A 
ATOM     47  C   UNL A   1      43.065  29.240  33.556  1.00  0.00     0.049 A 
ATOM     48  C   UNL A   1      43.278  25.334  29.525  1.00  0.00     0.074 A 
ATOM     49  C   UNL A   1      44.033  29.161  34.542  1.00  0.00     0.029 A 
ATOM     50  N   UNL A   1      43.322  28.201  32.670  1.00  0.00    -0.354 N 
ATOM     51  N   UNL A   1      43.352  26.178  30.529  1.00  0.00    -0.248 NA
ATOM     52  C   UNL A   1      44.332  24.314  29.516  1.00  0.00     0.031 C 
ATOM     53  C   UNL A   1      44.913  28.124  34.214  1.00  0.00     0.029 A 
ATOM     54  C   UNL A   1      44.447  27.495  33.071  1.00  0.00     0.049 A 
ATOM     55  H   UNL A   1      42.782  27.996  31.872  1.00  0.00     0.167 HD
ATOM     56  C   UNL A   1      44.450  25.773  31.283  1.00  0.00     0.074 A 
ATOM     57  C   UNL A   1      44.979  24.589  30.637  1.00  0.00     0.031 C 
ATOM     58  C   UNL A   1      44.978  26.329  32.405  1.00  0.00     0.034 A 
BRANCH  45  59
ATOM     59  C   UNL A   1      41.863  31.299  34.450  1.00  0.00     0.023 A 
ATOM     60  C   UNL A   1      40.822  31.310  35.397  1.00  0.00     0.031 A 
ATOM     61  C   UNL A   1      42.781  32.363  34.472  1.00  0.00     0.131 A 
ATOM     62  C   UNL A   1      40.683  32.394  36.276  1.00  0.00     0.055 A 
ATOM     63  C   UNL A   1      42.686  33.398  35.407  1.00  0.00     0.041 A 
ATOM     64  F   UNL A   1      43.783  32.423  33.580  1.00  0.00    -0.206 F 
ATOM     65  C   UNL A   1      41.625  33.424  36.307  1.00  0.00     0.022 A 
BRANCH  62  66
ATOM     66  S   UNL A   1      39.177  32.506  37.281  1.00  0.00     0.124 S 
ATOM     67  O   UNL A   1      39.729  32.742  38.612  1.00  0.00    -0.237 OA
ATOM     68  O   UNL A   1      38.474  33.628  36.671  1.00  0.00    -0.237 OA
ATOM     69  O   UNL A   1      38.547  31.200  37.098  1.00  0.00    -0.744 OA
ENDBRANCH  62  66
ENDBRANCH  45  59
BRANCH  46  70
ATOM     70  C   UNL A   1      42.378  24.250  27.328  1.00  0.00     0.023 A 
ATOM     71  C   UNL A   1      41.627  23.063  27.353  1.00  0.00     0.031 A 
ATOM     72  C   UNL A   1      43.291  24.425  26.272  1.00  0.00     0.131 A 
ATOM     73  C   UNL A   1      41.843  22.076  26.379  1.00  0.00     0.055 A 
ATOM     74  C   UNL A   1      43.456  23.468  25.270  1.00  0.00     0.041 A 
ATOM     75  F   UNL A   1      44.033  25.541  26.196  1.00  0.00    -0.206 F 
ATOM     76  C   UNL A   1      42.742  22.277  25.330  1.00  0.00     0.022 A 
BRANCH  73  77
ATOM     77  S   UNL A   1      41.012  20.474  26.567  1.00  0.00     0.124 S 
ATOM     78  O   UNL A   1      40.805  20.413  28.008  1.00  0.00    -0.237 OA
ATOM     79  O   UNL A   1      39.815  20.658  25.754  1.00  0.00    -0.237 OA
ATOM     80  O   UNL A   1      41.985  19.522  26.033  1.00  0.00    -0.744 OA
ENDBRANCH  73  77
ENDBRANCH  46  70
BRANCH  58  81
ATOM     81  C   UNL A   1      46.174  25.631  33.012  1.00  0.00     0.023 A 
ATOM     82  C   UNL A   1      47.474  25.829  32.514  1.00  0.00     0.031 A 
ATOM     83  C   UNL A   1      46.005  24.718  34.068  1.00  0.00     0.131 A 
ATOM     84  C   UNL A   1      48.538  25.061  33.011  1.00  0.00     0.055 A 
ATOM     85  C   UNL A   1      47.082  24.016  34.613  1.00  0.00     0.041 A 
ATOM     86  F   UNL A   1      44.787  24.486  34.584  1.00  0.00    -0.206 F 
ATOM     87  C   UNL A   1      48.354  24.170  34.069  1.00  0.00     0.022 A 
BRANCH  84  88
ATOM     88  S   UNL A   1      50.136  25.141  32.157  1.00  0.00     0.124 S 
ATOM     89  O   UNL A   1      50.534  23.737  32.127  1.00  0.00    -0.237 OA
ATOM     90  O   UNL A   1      49.774  25.728  30.871  1.00  0.00    -0.237 OA
ATOM     91  O   UNL A   1      50.945  25.997  33.024  1.00  0.00    -0.744 OA
ENDBRANCH  84  88
ENDBRANCH  58  81
ENDBRANCH  32  33
ENDBRANCH  24  27
ENDBRANCH  22  23
ENDBRANCH   1  22
TORSDOF 16
ENDMDL
MODEL 2
REMARK VINA RESULT:     -10.5      5.773     12.107
REMARK SMILES C[C@@H](C(=O)NCCCCNC(=O)c1ccc(-c2c3nc(c(-c4cc(S(=O)(=O)[O-])ccc4F)c4ccc([nH]4)c(-c4cc(S(=O)(=O)[O-])ccc4F)c4nc(c(-c5cc(S(=O)(=O)[O-])ccc5F)c5ccc2[nH]5)C=C4)C=C3)cc1)c1ccc(-c2ccccc2)cc1
REMARK SMILES IDX 8 1 7 2 6 3 5 4 3 5 4 6 2 8 1 9 76 10 77 11 87 12 78 13
REMARK SMILES IDX 86 14 79 15 80 16 81 17 85 18 82 19 84 20 83 21 9 22 10 23
REMARK SMILES IDX 11 24 12 26 13 27 14 28 75 29 15 30 74 31 16 32 17 33 18 34
REMARK SMILES IDX 68 35 19 36 73 37 67 38 69 39 20 40 72 41 66 42 65 43 21 45
REMARK SMILES IDX 53 46 33 47 52 48 34 49 37 50 51 51 70 52 35 53 36 54 50 56
REMARK SMILES IDX 71 57 38 58 22 59 23 60 31 61 24 62 30 63 32 64 29 65 25 66
REMARK SMILES IDX 26 67 27 68 28 69 54 70 55 71 63 72 56 73 62 74 64 75 61 76
REMARK SMILES IDX 57 77 58 78 59 79 60 80 39 81 40 82 48 83 41 84 47 85 49 86
REMARK SMILES IDX 46 87 42 88 43 89 44 90 45 91
REMARK H PARENT 5 7 10 25 69 44 37 55
REMARK Flexibility Score: inf
ROOT
ATOM      1  C   UNL A   1      35.792  21.993  24.534  1.00  0.00     0.023 C 
ENDROOT
BRANCH   1   2
ATOM      2  C   UNL A   1      35.574  23.193  23.607  1.00  0.00     0.023 C 
BRANCH   2   3
ATOM      3  C   UNL A   1      34.656  24.278  24.176  1.00  0.00     0.116 C 
BRANCH   3   4
ATOM      4  N   UNL A   1      33.956  24.963  23.108  1.00  0.00    -0.356 N 
ATOM      5  C   UNL A   1      32.648  24.886  22.722  1.00  0.00     0.227 C 
ATOM      6  O   UNL A   1      32.360  25.428  21.653  1.00  0.00    -0.274 OA
ATOM      7  H   UNL A   1      34.510  25.580  22.578  1.00  0.00     0.163 HD
BRANCH   5   8
ATOM      8  C   UNL A   1      31.607  24.199  23.631  1.00  0.00     0.105 C 
ATOM      9  C   UNL A   1      31.439  24.965  24.950  1.00  0.00     0.023 C 
BRANCH   8  10
ATOM     10  C   UNL A   1      31.926  22.712  23.851  1.00  0.00    -0.036 A 
ATOM     11  C   UNL A   1      32.030  22.147  25.130  1.00  0.00     0.005 A 
ATOM     12  C   UNL A   1      32.133  21.867  22.746  1.00  0.00     0.005 A 
ATOM     13  C   UNL A   1      32.346  20.799  25.299  1.00  0.00     0.009 A 
ATOM     14  C   UNL A   1      32.469  20.517  22.919  1.00  0.00     0.009 A 
ATOM     15  C   UNL A   1      32.580  19.964  24.200  1.00  0.00    -0.018 A 
BRANCH  15  16
ATOM     16  C   UNL A   1      32.960  18.565  24.425  1.00  0.00    -0.018 A 
ATOM     17  C   UNL A   1      33.657  17.847  23.437  1.00  0.00     0.009 A 
ATOM     18  C   UNL A   1      32.572  17.886  25.590  1.00  0.00     0.009 A 
ATOM     19  C   UNL A   1      33.937  16.489  23.598  1.00  0.00     0.001 A 
ATOM     20  C   UNL A   1      32.851  16.526  25.751  1.00  0.00     0.001 A 
ATOM     21  C   UNL A   1      33.528  15.828  24.753  1.00  0.00     0.000 A 
ENDBRANCH  15  16
ENDBRANCH   8  10
ENDBRANCH   5   8
ENDBRANCH   3   4
ENDBRANCH   2   3
ENDBRANCH   1   2
BRANCH   1  22
ATOM     22  C   UNL A   1      36.704  22.257  25.725  1.00  0.00     0.116 C 
BRANCH  22  23
ATOM     23  N   UNL A   1      37.793  21.299  25.813  1.00  0.00    -0.352 N 
ATOM     24  C   UNL A   1      39.107  21.506  26.145  1.00  0.00     0.251 C 
ATOM     25  H   UNL A   1      37.553  20.367  25.606  1.00  0.00     0.163 HD
ATOM     26  O   UNL A   1      39.912  20.587  26.001  1.00  0.00    -0.269 OA
BRANCH  24  27
ATOM     27  C   UNL A   1      39.558  22.827  26.634  1.00  0.00     0.039 A 
ATOM     28  C   UNL A   1      40.521  22.871  27.643  1.00  0.00     0.014 A 
ATOM     29  C   UNL A   1      39.035  24.017  26.115  1.00  0.00     0.014 A 
ATOM     30  C   UNL A   1      40.996  24.103  28.092  1.00  0.00     0.010 A 
ATOM     31  C   UNL A   1      39.571  25.243  26.505  1.00  0.00     0.010 A 
ATOM     32  C   UNL A   1      40.552  25.300  27.504  1.00  0.00    -0.014 A 
BRANCH  32  33
ATOM     33  C   UNL A   1      41.123  26.604  27.936  1.00  0.00     0.031 A 
ATOM     34  C   UNL A   1      42.562  26.942  27.654  1.00  0.00     0.074 A 
ATOM     35  C   UNL A   1      40.337  27.482  28.591  1.00  0.00     0.049 A 
ATOM     36  N   UNL A   1      43.220  28.042  27.923  1.00  0.00    -0.248 NA
ATOM     37  C   UNL A   1      43.376  25.901  27.008  1.00  0.00     0.031 C 
ATOM     38  C   UNL A   1      38.944  27.238  28.976  1.00  0.00     0.029 A 
ATOM     39  N   UNL A   1      40.587  28.752  29.042  1.00  0.00    -0.354 N 
ATOM     40  C   UNL A   1      44.518  27.831  27.469  1.00  0.00     0.074 A 
ATOM     41  C   UNL A   1      44.574  26.468  26.985  1.00  0.00     0.031 C 
ATOM     42  C   UNL A   1      38.452  28.339  29.565  1.00  0.00     0.029 A 
ATOM     43  C   UNL A   1      39.501  29.349  29.642  1.00  0.00     0.049 A 
ATOM     44  H   UNL A   1      41.461  29.196  28.946  1.00  0.00     0.167 HD
ATOM     45  C   UNL A   1      45.556  28.703  27.428  1.00  0.00     0.034 A 
ATOM     46  C   UNL A   1      39.366  30.573  30.193  1.00  0.00     0.034 A 
ATOM     47  C   UNL A   1      45.486  30.057  27.924  1.00  0.00     0.049 A 
ATOM     48  C   UNL A   1      40.541  31.516  30.151  1.00  0.00     0.074 A 
ATOM     49  C   UNL A   1      46.468  31.033  27.910  1.00  0.00     0.029 A 
ATOM     50  N   UNL A   1      44.374  30.628  28.529  1.00  0.00    -0.354 N 
ATOM     51  N   UNL A   1      41.744  31.319  29.663  1.00  0.00    -0.248 NA
ATOM     52  C   UNL A   1      40.331  32.855  30.715  1.00  0.00     0.031 C 
ATOM     53  C   UNL A   1      45.974  32.165  28.567  1.00  0.00     0.029 A 
ATOM     54  C   UNL A   1      44.654  31.931  28.915  1.00  0.00     0.049 A 
ATOM     55  H   UNL A   1      43.510  30.173  28.664  1.00  0.00     0.167 HD
ATOM     56  C   UNL A   1      42.426  32.520  29.841  1.00  0.00     0.074 A 
ATOM     57  C   UNL A   1      41.486  33.442  30.445  1.00  0.00     0.031 C 
ATOM     58  C   UNL A   1      43.713  32.834  29.537  1.00  0.00     0.034 A 
BRANCH  45  59
ATOM     59  C   UNL A   1      46.856  28.208  26.834  1.00  0.00     0.023 A 
ATOM     60  C   UNL A   1      47.080  28.221  25.445  1.00  0.00     0.031 A 
ATOM     61  C   UNL A   1      47.876  27.703  27.658  1.00  0.00     0.131 A 
ATOM     62  C   UNL A   1      48.261  27.675  24.919  1.00  0.00     0.055 A 
ATOM     63  C   UNL A   1      49.086  27.239  27.133  1.00  0.00     0.041 A 
ATOM     64  F   UNL A   1      47.715  27.642  28.990  1.00  0.00    -0.206 F 
ATOM     65  C   UNL A   1      49.277  27.210  25.755  1.00  0.00     0.022 A 
BRANCH  62  66
ATOM     66  S   UNL A   1      48.386  27.454  23.123  1.00  0.00     0.124 S 
ATOM     67  O   UNL A   1      49.694  28.042  22.845  1.00  0.00    -0.237 OA
ATOM     68  O   UNL A   1      48.292  26.006  22.975  1.00  0.00    -0.237 OA
ATOM     69  O   UNL A   1      47.248  28.210  22.605  1.00  0.00    -0.744 OA
ENDBRANCH  62  66
ENDBRANCH  45  59
BRANCH  46  70
ATOM     70  C   UNL A   1      38.082  30.974  30.840  1.00  0.00     0.023 A 
ATOM     71  C   UNL A   1      37.095  31.678  30.132  1.00  0.00     0.031 A 
ATOM     72  C   UNL A   1      37.849  30.706  32.201  1.00  0.00     0.131 A 
ATOM     73  C   UNL A   1      35.950  32.141  30.800  1.00  0.00     0.055 A 
ATOM     74  C   UNL A   1      36.679  31.113  32.845  1.00  0.00     0.041 A 
ATOM     75  F   UNL A   1      38.757  30.034  32.926  1.00  0.00    -0.206 F 
ATOM     76  C   UNL A   1      35.728  31.850  32.148  1.00  0.00     0.022 A 
BRANCH  73  77
ATOM     77  S   UNL A   1      34.802  33.227  29.907  1.00  0.00     0.124 S 
ATOM     78  O   UNL A   1      35.717  34.162  29.264  1.00  0.00    -0.237 OA
ATOM     79  O   UNL A   1      34.121  32.285  29.024  1.00  0.00    -0.237 OA
ATOM     80  O   UNL A   1      33.974  33.792  30.970  1.00  0.00    -0.744 OA
ENDBRANCH  73  77
ENDBRANCH  46  70
BRANCH  58  81
ATOM     81  C   UNL A   1      44.156  34.249  29.833  1.00  0.00     0.023 A 
ATOM     82  C   UNL A   1      44.681  34.610  31.087  1.00  0.00     0.031 A 
ATOM     83  C   UNL A   1      44.005  35.258  28.866  1.00  0.00     0.131 A 
ATOM     84  C   UNL A   1      44.951  35.958  31.370  1.00  0.00     0.055 A 
ATOM     85  C   UNL A   1      44.351  36.585  29.128  1.00  0.00     0.041 A 
ATOM     86  F   UNL A   1      43.507  34.974  27.652  1.00  0.00    -0.206 F 
ATOM     87  C   UNL A   1      44.808  36.944  30.393  1.00  0.00     0.022 A 
BRANCH  84  88
ATOM     88  S   UNL A   1      45.357  36.419  33.077  1.00  0.00     0.124 S 
ATOM     89  O   UNL A   1      46.599  35.688  33.301  1.00  0.00    -0.237 OA
ATOM     90  O   UNL A   1      45.479  37.871  32.987  1.00  0.00    -0.237 OA
ATOM     91  O   UNL A   1      44.207  35.940  33.844  1.00  0.00    -0.744 OA
ENDBRANCH  84  88
ENDBRANCH  58  81
ENDBRANCH  32  33
ENDBRANCH  24  27
ENDBRANCH  22  23
ENDBRANCH   1  22
TORSDOF 16
ENDMDL
MODEL 3
REMARK VINA RESULT:     -10.5      4.530      8.032
REMARK SMILES C[C@@H](C(=O)NCCCCNC(=O)c1ccc(-c2c3nc(c(-c4cc(S(=O)(=O)[O-])ccc4F)c4ccc([nH]4)c(-c4cc(S(=O)(=O)[O-])ccc4F)c4nc(c(-c5cc(S(=O)(=O)[O-])ccc5F)c5ccc2[nH]5)C=C4)C=C3)cc1)c1ccc(-c2ccccc2)cc1
REMARK SMILES IDX 8 1 7 2 6 3 5 4 3 5 4 6 2 8 1 9 76 10 77 11 87 12 78 13
REMARK SMILES IDX 86 14 79 15 80 16 81 17 85 18 82 19 84 20 83 21 9 22 10 23
REMARK SMILES IDX 11 24 12 26 13 27 14 28 75 29 15 30 74 31 16 32 17 33 18 34
REMARK SMILES IDX 68 35 19 36 73 37 67 38 69 39 20 40 72 41 66 42 65 43 21 45
REMARK SMILES IDX 53 46 33 47 52 48 34 49 37 50 51 51 70 52 35 53 36 54 50 56
REMARK SMILES IDX 71 57 38 58 22 59 23 60 31 61 24 62 30 63 32 64 29 65 25 66
REMARK SMILES IDX 26 67 27 68 28 69 54 70 55 71 63 72 56 73 62 74 64 75 61 76
REMARK SMILES IDX 57 77 58 78 59 79 60 80 39 81 40 82 48 83 41 84 47 85 49 86
REMARK SMILES IDX 46 87 42 88 43 89 44 90 45 91
REMARK H PARENT 5 7 10 25 69 44 37 55
REMARK Flexibility Score: inf
ROOT
ATOM      1  C   UNL A   1      32.745  29.333  24.842  1.00  0.00     0.023 C 
ENDROOT
BRANCH   1   2
ATOM      2  C   UNL A   1      33.567  28.053  24.658  1.00  0.00     0.023 C 
BRANCH   2   3
ATOM      3  C   UNL A   1      32.739  26.764  24.635  1.00  0.00     0.116 C 
BRANCH   3   4
ATOM      4  N   UNL A   1      33.188  25.892  23.568  1.00  0.00    -0.356 N 
ATOM      5  C   UNL A   1      34.010  24.803  23.610  1.00  0.00     0.227 C 
ATOM      6  O   UNL A   1      34.388  24.360  22.524  1.00  0.00    -0.274 OA
ATOM      7  H   UNL A   1      32.846  26.121  22.675  1.00  0.00     0.163 HD
BRANCH   5   8
ATOM      8  C   UNL A   1      34.377  24.155  24.962  1.00  0.00     0.105 C 
ATOM      9  C   UNL A   1      35.808  24.523  25.378  1.00  0.00     0.023 C 
BRANCH   8  10
ATOM     10  C   UNL A   1      34.138  22.637  24.957  1.00  0.00    -0.036 A 
ATOM     11  C   UNL A   1      35.187  21.710  25.034  1.00  0.00     0.005 A 
ATOM     12  C   UNL A   1      32.828  22.133  24.863  1.00  0.00     0.005 A 
ATOM     13  C   UNL A   1      34.941  20.338  25.001  1.00  0.00     0.009 A 
ATOM     14  C   UNL A   1      32.585  20.753  24.812  1.00  0.00     0.009 A 
ATOM     15  C   UNL A   1      33.640  19.836  24.880  1.00  0.00    -0.018 A 
BRANCH  15  16
ATOM     16  C   UNL A   1      33.432  18.385  24.797  1.00  0.00    -0.018 A 
ATOM     17  C   UNL A   1      32.554  17.740  25.685  1.00  0.00     0.009 A 
ATOM     18  C   UNL A   1      34.157  17.598  23.890  1.00  0.00     0.009 A 
ATOM     19  C   UNL A   1      32.421  16.350  25.682  1.00  0.00     0.001 A 
ATOM     20  C   UNL A   1      34.027  16.207  23.888  1.00  0.00     0.001 A 
ATOM     21  C   UNL A   1      33.163  15.584  24.786  1.00  0.00     0.000 A 
ENDBRANCH  15  16
ENDBRANCH   8  10
ENDBRANCH   5   8
ENDBRANCH   3   4
ENDBRANCH   2   3
ENDBRANCH   1   2
BRANCH   1  22
ATOM     22  C   UNL A   1      32.428  29.692  26.288  1.00  0.00     0.116 C 
BRANCH  22  23
ATOM     23  N   UNL A   1      32.309  31.125  26.492  1.00  0.00    -0.352 N 
ATOM     24  C   UNL A   1      33.104  31.968  27.226  1.00  0.00     0.251 C 
ATOM     25  H   UNL A   1      31.549  31.554  26.036  1.00  0.00     0.163 HD
ATOM     26  O   UNL A   1      32.738  33.129  27.407  1.00  0.00    -0.269 OA
BRANCH  24  27
ATOM     27  C   UNL A   1      34.365  31.478  27.823  1.00  0.00     0.039 A 
ATOM     28  C   UNL A   1      35.396  32.392  28.045  1.00  0.00     0.014 A 
ATOM     29  C   UNL A   1      34.542  30.131  28.157  1.00  0.00     0.014 A 
ATOM     30  C   UNL A   1      36.580  31.966  28.647  1.00  0.00     0.010 A 
ATOM     31  C   UNL A   1      35.691  29.725  28.834  1.00  0.00     0.010 A 
ATOM     32  C   UNL A   1      36.726  30.636  29.079  1.00  0.00    -0.014 A 
BRANCH  32  33
ATOM     33  C   UNL A   1      37.961  30.212  29.792  1.00  0.00     0.031 A 
ATOM     34  C   UNL A   1      38.247  30.696  31.187  1.00  0.00     0.074 A 
ATOM     35  C   UNL A   1      38.829  29.388  29.168  1.00  0.00     0.049 A 
ATOM     36  N   UNL A   1      39.252  30.402  31.973  1.00  0.00    -0.248 NA
ATOM     37  C   UNL A   1      37.294  31.655  31.767  1.00  0.00     0.031 C 
ATOM     38  C   UNL A   1      38.689  28.904  27.793  1.00  0.00     0.029 A 
ATOM     39  N   UNL A   1      39.991  28.807  29.607  1.00  0.00    -0.354 N 
ATOM     40  C   UNL A   1      39.046  31.128  33.143  1.00  0.00     0.074 A 
ATOM     41  C   UNL A   1      37.866  31.938  32.928  1.00  0.00     0.031 C 
ATOM     42  C   UNL A   1      39.701  28.067  27.517  1.00  0.00     0.029 A 
ATOM     43  C   UNL A   1      40.586  27.989  28.673  1.00  0.00     0.049 A 
ATOM     44  H   UNL A   1      40.366  28.962  30.505  1.00  0.00     0.167 HD
ATOM     45  C   UNL A   1      39.754  31.095  34.298  1.00  0.00     0.034 A 
ATOM     46  C   UNL A   1      41.716  27.257  28.741  1.00  0.00     0.034 A 
ATOM     47  C   UNL A   1      40.935  30.287  34.493  1.00  0.00     0.049 A 
ATOM     48  C   UNL A   1      42.496  27.253  30.032  1.00  0.00     0.074 A 
ATOM     49  C   UNL A   1      41.715  30.158  35.630  1.00  0.00     0.029 A 
ATOM     50  N   UNL A   1      41.512  29.472  33.527  1.00  0.00    -0.354 N 
ATOM     51  N   UNL A   1      42.252  27.900  31.148  1.00  0.00    -0.248 NA
ATOM     52  C   UNL A   1      43.690  26.401  30.077  1.00  0.00     0.031 C 
ATOM     53  C   UNL A   1      42.797  29.324  35.329  1.00  0.00     0.029 A 
ATOM     54  C   UNL A   1      42.650  28.860  34.033  1.00  0.00     0.049 A 
ATOM     55  H   UNL A   1      41.163  29.347  32.614  1.00  0.00     0.167 HD
ATOM     56  C   UNL A   1      43.253  27.513  32.036  1.00  0.00     0.074 A 
ATOM     57  C   UNL A   1      44.075  26.548  31.335  1.00  0.00     0.031 C 
ATOM     58  C   UNL A   1      43.476  27.917  33.314  1.00  0.00     0.034 A 
BRANCH  45  59
ATOM     59  C   UNL A   1      39.271  31.968  35.435  1.00  0.00     0.023 A 
ATOM     60  C   UNL A   1      39.707  33.299  35.575  1.00  0.00     0.031 A 
ATOM     61  C   UNL A   1      38.378  31.466  36.397  1.00  0.00     0.131 A 
ATOM     62  C   UNL A   1      39.308  34.055  36.687  1.00  0.00     0.055 A 
ATOM     63  C   UNL A   1      37.918  32.253  37.457  1.00  0.00     0.041 A 
ATOM     64  F   UNL A   1      37.943  30.197  36.333  1.00  0.00    -0.206 F 
ATOM     65  C   UNL A   1      38.394  33.551  37.614  1.00  0.00     0.022 A 
BRANCH  62  66
ATOM     66  S   UNL A   1      40.111  35.655  36.978  1.00  0.00     0.124 S 
ATOM     67  O   UNL A   1      41.523  35.282  36.965  1.00  0.00    -0.237 OA
ATOM     68  O   UNL A   1      39.649  36.451  35.846  1.00  0.00    -0.237 OA
ATOM     69  O   UNL A   1      39.594  36.065  38.282  1.00  0.00    -0.744 OA
ENDBRANCH  62  66
ENDBRANCH  45  59
BRANCH  46  70
ATOM     70  C   UNL A   1      42.189  26.481  27.557  1.00  0.00     0.023 A 
ATOM     71  C   UNL A   1      41.850  25.129  27.387  1.00  0.00     0.031 A 
ATOM     72  C   UNL A   1      43.037  27.071  26.603  1.00  0.00     0.131 A 
ATOM     73  C   UNL A   1      42.404  24.397  26.324  1.00  0.00     0.055 A 
ATOM     74  C   UNL A   1      43.534  26.356  25.512  1.00  0.00     0.041 A 
ATOM     75  F   UNL A   1      43.391  28.361  26.714  1.00  0.00    -0.206 F 
ATOM     76  C   UNL A   1      43.231  25.005  25.377  1.00  0.00     0.022 A 
BRANCH  73  77
ATOM     77  S   UNL A   1      42.116  22.607  26.259  1.00  0.00     0.124 S 
ATOM     78  O   UNL A   1      42.789  22.152  27.469  1.00  0.00    -0.237 OA
ATOM     79  O   UNL A   1      40.658  22.535  26.270  1.00  0.00    -0.237 OA
ATOM     80  O   UNL A   1      42.747  22.207  25.003  1.00  0.00    -0.744 OA
ENDBRANCH  73  77
ENDBRANCH  46  70
BRANCH  58  81
ATOM     81  C   UNL A   1      44.645  27.285  34.034  1.00  0.00     0.023 A 
ATOM     82  C   UNL A   1      44.497  26.108  34.789  1.00  0.00     0.031 A 
ATOM     83  C   UNL A   1      45.912  27.893  34.004  1.00  0.00     0.131 A 
ATOM     84  C   UNL A   1      45.570  25.628  35.555  1.00  0.00     0.055 A 
ATOM     85  C   UNL A   1      46.999  27.365  34.704  1.00  0.00     0.041 A 
ATOM     86  F   UNL A   1      46.115  29.019  33.301  1.00  0.00    -0.206 F 
ATOM     87  C   UNL A   1      46.825  26.237  35.501  1.00  0.00     0.022 A 
BRANCH  84  88
ATOM     88  S   UNL A   1      45.263  24.280  36.728  1.00  0.00     0.124 S 
ATOM     89  O   UNL A   1      44.200  24.838  37.558  1.00  0.00    -0.237 OA
ATOM     90  O   UNL A   1      44.874  23.182  35.848  1.00  0.00    -0.237 OA
ATOM     91  O   UNL A   1      46.551  24.110  37.400  1.00  0.00    -0.744 OA
ENDBRANCH  84  88
ENDBRANCH  58  81
ENDBRANCH  32  33
ENDBRANCH  24  27
ENDBRANCH  22  23
ENDBRANCH   1  22
TORSDOF 16
ENDMDL
