MODEL 1
REMARK VINA RESULT:     -12.2      0.000      0.000
REMARK SMILES Cc1cc(C(=O)Nc2c(Cl)cc(Cl)cc2C(=O)NCCCCNC(=O)c2ccc(-c3c4nc(c(-c5cc(S(=O)(=O)[O-])ccc5F)c5ccc([nH]5)c(-c5cc(S(=O)(=O)[O-])ccc5F)c5nc(c(-c6cc(S(=O)(=O)[O-])ccc6F)c6ccc3[nH]6)C=C5)C=C4)cc2)c(C)s1
REMARK SMILES IDX 21 1 20 2 19 3 18 4 16 5 17 6 15 8 8 9 9 10 10 11 11 12
REMARK SMILES IDX 14 13 12 14 13 15 7 16 5 17 6 18 4 20 1 21 2 22 3 23 91 24
REMARK SMILES IDX 89 25 90 26 22 27 23 28 24 29 25 31 26 32 27 33 88 34 28 35
REMARK SMILES IDX 87 36 29 37 30 38 31 39 81 40 32 41 86 42 80 43 82 44 33 45
REMARK SMILES IDX 85 46 79 47 78 48 34 50 66 51 46 52 65 53 47 54 50 55 64 56
REMARK SMILES IDX 83 57 48 58 49 59 63 61 84 62 51 63 35 64 36 65 44 66 37 67
REMARK SMILES IDX 43 68 45 69 42 70 38 71 39 72 40 73 41 74 67 75 68 76 76 77
REMARK SMILES IDX 69 78 75 79 77 80 74 81 70 82 71 83 72 84 73 85 52 86 53 87
REMARK SMILES IDX 61 88 54 89 60 90 62 91 59 92 55 93 56 94 57 95 58 96
REMARK H PARENT 18 7 7 19 23 30 82 49 50 60
REMARK Flexibility Score: inf
ROOT
ATOM      1  C   UNL A   1      32.018  29.594  25.068  1.00  0.00     0.023 C 
ENDROOT
BRANCH   1   2
ATOM      2  C   UNL A   1      33.290  29.278  24.286  1.00  0.00     0.023 C 
BRANCH   2   3
ATOM      3  C   UNL A   1      33.187  29.253  22.768  1.00  0.00     0.116 C 
BRANCH   3   4
ATOM      4  N   UNL A   1      33.572  28.038  22.097  1.00  0.00    -0.352 N 
ATOM      5  C   UNL A   1      33.199  26.733  22.311  1.00  0.00     0.253 C 
ATOM      6  O   UNL A   1      33.649  25.891  21.529  1.00  0.00    -0.269 OA
ATOM      7  H   UNL A   1      34.213  28.163  21.360  1.00  0.00     0.163 HD
BRANCH   5   8
ATOM      8  C   UNL A   1      32.348  26.222  23.437  1.00  0.00     0.066 A 
ATOM      9  C   UNL A   1      32.744  25.624  24.651  1.00  0.00     0.073 A 
ATOM     10  C   UNL A   1      31.772  25.392  25.662  1.00  0.00     0.066 A 
ATOM     11  Cl  UNL A   1      32.207  24.838  27.248  1.00  0.00    -0.082 Cl
ATOM     12  C   UNL A   1      30.417  25.613  25.427  1.00  0.00     0.043 A 
ATOM     13  C   UNL A   1      30.966  26.439  23.229  1.00  0.00     0.036 A 
ATOM     14  C   UNL A   1      30.018  26.112  24.197  1.00  0.00     0.043 A 
ATOM     15  Cl  UNL A   1      28.343  26.338  23.878  1.00  0.00    -0.084 Cl
BRANCH   9  16
ATOM     16  N   UNL A   1      34.075  25.269  24.903  1.00  0.00    -0.320 N 
ATOM     17  C   UNL A   1      34.662  24.006  24.920  1.00  0.00     0.256 C 
ATOM     18  O   UNL A   1      35.858  23.982  25.215  1.00  0.00    -0.269 OA
ATOM     19  H   UNL A   1      34.683  26.020  25.093  1.00  0.00     0.170 HD
BRANCH  17  20
ATOM     20  C   UNL A   1      33.947  22.777  24.483  1.00  0.00     0.054 A 
ATOM     21  C   UNL A   1      31.776  20.899  22.008  1.00  0.00     0.056 C 
ATOM     22  C   UNL A   1      32.622  21.350  23.147  1.00  0.00     0.003 A 
ATOM     23  C   UNL A   1      33.539  22.376  23.161  1.00  0.00     0.029 A 
ATOM     24  S   UNL A   1      32.545  20.594  24.661  1.00  0.00    -0.145 S 
ATOM     25  C   UNL A   1      33.650  21.720  25.349  1.00  0.00     0.014 A 
ATOM     26  C   UNL A   1      34.112  21.456  26.750  1.00  0.00     0.057 C 
ENDBRANCH  17  20
ENDBRANCH   9  16
ENDBRANCH   5   8
ENDBRANCH   3   4
ENDBRANCH   2   3
ENDBRANCH   1   2
BRANCH   1  27
ATOM     27  C   UNL A   1      32.164  29.945  26.547  1.00  0.00     0.116 C 
BRANCH  27  28
ATOM     28  N   UNL A   1      32.213  31.371  26.834  1.00  0.00    -0.352 N 
ATOM     29  C   UNL A   1      33.194  32.142  27.417  1.00  0.00     0.251 C 
ATOM     30  H   UNL A   1      31.407  31.869  26.565  1.00  0.00     0.163 HD
ATOM     31  O   UNL A   1      32.978  33.340  27.602  1.00  0.00    -0.269 OA
BRANCH  29  32
ATOM     32  C   UNL A   1      34.475  31.553  27.879  1.00  0.00     0.039 A 
ATOM     33  C   UNL A   1      35.569  32.405  28.065  1.00  0.00     0.014 A 
ATOM     34  C   UNL A   1      34.621  30.188  28.131  1.00  0.00     0.014 A 
ATOM     35  C   UNL A   1      36.758  31.909  28.607  1.00  0.00     0.010 A 
ATOM     36  C   UNL A   1      35.773  29.713  28.761  1.00  0.00     0.010 A 
ATOM     37  C   UNL A   1      36.852  30.570  29.022  1.00  0.00    -0.014 A 
BRANCH  37  38
ATOM     38  C   UNL A   1      38.055  30.076  29.751  1.00  0.00     0.031 A 
ATOM     39  C   UNL A   1      38.363  30.558  31.145  1.00  0.00     0.074 A 
ATOM     40  C   UNL A   1      38.902  29.225  29.134  1.00  0.00     0.049 A 
ATOM     41  N   UNL A   1      39.386  30.273  31.911  1.00  0.00    -0.248 NA
ATOM     42  C   UNL A   1      37.412  31.505  31.745  1.00  0.00     0.031 C 
ATOM     43  C   UNL A   1      38.751  28.729  27.763  1.00  0.00     0.029 A 
ATOM     44  N   UNL A   1      40.059  28.626  29.571  1.00  0.00    -0.354 N 
ATOM     45  C   UNL A   1      39.201  31.002  33.082  1.00  0.00     0.074 A 
ATOM     46  C   UNL A   1      38.007  31.798  32.892  1.00  0.00     0.031 C 
ATOM     47  C   UNL A   1      39.755  27.881  27.486  1.00  0.00     0.029 A 
ATOM     48  C   UNL A   1      40.648  27.803  28.636  1.00  0.00     0.049 A 
ATOM     49  H   UNL A   1      40.432  28.772  30.470  1.00  0.00     0.167 HD
ATOM     50  C   UNL A   1      39.937  30.986  34.222  1.00  0.00     0.034 A 
ATOM     51  C   UNL A   1      41.782  27.076  28.693  1.00  0.00     0.034 A 
ATOM     52  C   UNL A   1      41.123  30.184  34.405  1.00  0.00     0.049 A 
ATOM     53  C   UNL A   1      42.589  27.086  29.967  1.00  0.00     0.074 A 
ATOM     54  C   UNL A   1      41.926  30.074  35.529  1.00  0.00     0.029 A 
ATOM     55  N   UNL A   1      41.679  29.351  33.443  1.00  0.00    -0.354 N 
ATOM     56  N   UNL A   1      42.366  27.746  31.081  1.00  0.00    -0.248 NA
ATOM     57  C   UNL A   1      43.786  26.237  30.000  1.00  0.00     0.031 C 
ATOM     58  C   UNL A   1      42.994  29.222  35.227  1.00  0.00     0.029 A 
ATOM     59  C   UNL A   1      42.821  28.741  33.940  1.00  0.00     0.049 A 
ATOM     60  H   UNL A   1      41.315  29.214  32.538  1.00  0.00     0.167 HD
ATOM     61  C   UNL A   1      43.384  27.368  31.953  1.00  0.00     0.074 A 
ATOM     62  C   UNL A   1      44.197  26.401  31.248  1.00  0.00     0.031 C 
ATOM     63  C   UNL A   1      43.629  27.785  33.222  1.00  0.00     0.034 A 
BRANCH  50  64
ATOM     64  C   UNL A   1      39.479  31.869  35.357  1.00  0.00     0.023 A 
ATOM     65  C   UNL A   1      39.938  33.192  35.486  1.00  0.00     0.031 A 
ATOM     66  C   UNL A   1      38.576  31.390  36.323  1.00  0.00     0.131 A 
ATOM     67  C   UNL A   1      39.548  33.967  36.588  1.00  0.00     0.055 A 
ATOM     68  C   UNL A   1      38.130  32.193  37.376  1.00  0.00     0.041 A 
ATOM     69  F   UNL A   1      38.117  30.130  36.266  1.00  0.00    -0.206 F 
ATOM     70  C   UNL A   1      38.626  33.486  37.519  1.00  0.00     0.022 A 
BRANCH  67  71
ATOM     71  S   UNL A   1      40.354  35.570  36.850  1.00  0.00     0.124 S 
ATOM     72  O   UNL A   1      40.081  35.808  38.265  1.00  0.00    -0.237 OA
ATOM     73  O   UNL A   1      41.742  35.286  36.506  1.00  0.00    -0.237 OA
ATOM     74  O   UNL A   1      39.652  36.461  35.929  1.00  0.00    -0.744 OA
ENDBRANCH  67  71
ENDBRANCH  50  64
BRANCH  51  75
ATOM     75  C   UNL A   1      42.244  26.286  27.512  1.00  0.00     0.023 A 
ATOM     76  C   UNL A   1      41.869  24.943  27.346  1.00  0.00     0.031 A 
ATOM     77  C   UNL A   1      43.128  26.842  26.571  1.00  0.00     0.131 A 
ATOM     78  C   UNL A   1      42.430  24.182  26.307  1.00  0.00     0.055 A 
ATOM     79  C   UNL A   1      43.633  26.099  25.502  1.00  0.00     0.041 A 
ATOM     80  F   UNL A   1      43.517  28.122  26.676  1.00  0.00    -0.206 F 
ATOM     81  C   UNL A   1      43.298  24.754  25.377  1.00  0.00     0.022 A 
BRANCH  78  82
ATOM     82  S   UNL A   1      42.103  22.397  26.265  1.00  0.00     0.124 S 
ATOM     83  O   UNL A   1      42.659  21.962  27.542  1.00  0.00    -0.237 OA
ATOM     84  O   UNL A   1      40.648  22.360  26.153  1.00  0.00    -0.237 OA
ATOM     85  O   UNL A   1      42.829  21.946  25.081  1.00  0.00    -0.744 OA
ENDBRANCH  78  82
ENDBRANCH  51  75
BRANCH  63  86
ATOM     86  C   UNL A   1      44.806  27.157  33.931  1.00  0.00     0.023 A 
ATOM     87  C   UNL A   1      44.670  25.977  34.683  1.00  0.00     0.031 A 
ATOM     88  C   UNL A   1      46.071  27.770  33.884  1.00  0.00     0.131 A 
ATOM     89  C   UNL A   1      45.761  25.487  35.417  1.00  0.00     0.055 A 
ATOM     90  C   UNL A   1      47.169  27.240  34.562  1.00  0.00     0.041 A 
ATOM     91  F   UNL A   1      46.258  28.899  33.183  1.00  0.00    -0.206 F 
ATOM     92  C   UNL A   1      47.013  26.101  35.349  1.00  0.00     0.022 A 
BRANCH  89  93
ATOM     93  S   UNL A   1      45.489  24.100  36.554  1.00  0.00     0.124 S 
ATOM     94  O   UNL A   1      44.568  23.260  35.796  1.00  0.00    -0.237 OA
ATOM     95  O   UNL A   1      46.837  23.570  36.729  1.00  0.00    -0.237 OA
ATOM     96  O   UNL A   1      44.915  24.736  37.739  1.00  0.00    -0.744 OA
ENDBRANCH  89  93
ENDBRANCH  63  86
ENDBRANCH  37  38
ENDBRANCH  29  32
ENDBRANCH  27  28
ENDBRANCH   1  27
TORSDOF 16
ENDMDL
MODEL 2
REMARK VINA RESULT:     -12.2      2.637      8.016
REMARK SMILES Cc1cc(C(=O)Nc2c(Cl)cc(Cl)cc2C(=O)NCCCCNC(=O)c2ccc(-c3c4nc(c(-c5cc(S(=O)(=O)[O-])ccc5F)c5ccc([nH]5)c(-c5cc(S(=O)(=O)[O-])ccc5F)c5nc(c(-c6cc(S(=O)(=O)[O-])ccc6F)c6ccc3[nH]6)C=C5)C=C4)cc2)c(C)s1
REMARK SMILES IDX 21 1 20 2 19 3 18 4 16 5 17 6 15 8 8 9 9 10 10 11 11 12
REMARK SMILES IDX 14 13 12 14 13 15 7 16 5 17 6 18 4 20 1 21 2 22 3 23 91 24
REMARK SMILES IDX 89 25 90 26 22 27 23 28 24 29 25 31 26 32 27 33 88 34 28 35
REMARK SMILES IDX 87 36 29 37 30 38 31 39 81 40 32 41 86 42 80 43 82 44 33 45
REMARK SMILES IDX 85 46 79 47 78 48 34 50 66 51 46 52 65 53 47 54 50 55 64 56
REMARK SMILES IDX 83 57 48 58 49 59 63 61 84 62 51 63 35 64 36 65 44 66 37 67
REMARK SMILES IDX 43 68 45 69 42 70 38 71 39 72 40 73 41 74 67 75 68 76 76 77
REMARK SMILES IDX 69 78 75 79 77 80 74 81 70 82 71 83 72 84 73 85 52 86 53 87
REMARK SMILES IDX 61 88 54 89 60 90 62 91 59 92 55 93 56 94 57 95 58 96
REMARK H PARENT 18 7 7 19 23 30 82 49 50 60
REMARK Flexibility Score: inf
ROOT
ATOM      1  C   UNL A   1      33.636  31.577  28.056  1.00  0.00     0.023 C 
ENDROOT
BRANCH   1   2
ATOM      2  C   UNL A   1      34.832  30.690  27.718  1.00  0.00     0.023 C 
BRANCH   2   3
ATOM      3  C   UNL A   1      34.538  29.270  27.256  1.00  0.00     0.116 C 
BRANCH   3   4
ATOM      4  N   UNL A   1      33.311  28.666  27.710  1.00  0.00    -0.352 N 
ATOM      5  C   UNL A   1      32.295  28.056  27.014  1.00  0.00     0.253 C 
ATOM      6  O   UNL A   1      31.380  27.567  27.682  1.00  0.00    -0.269 OA
ATOM      7  H   UNL A   1      33.177  28.696  28.685  1.00  0.00     0.163 HD
BRANCH   5   8
ATOM      8  C   UNL A   1      32.157  27.980  25.522  1.00  0.00     0.066 A 
ATOM      9  C   UNL A   1      32.878  27.191  24.601  1.00  0.00     0.073 A 
ATOM     10  C   UNL A   1      32.447  27.133  23.248  1.00  0.00     0.066 A 
ATOM     11  Cl  UNL A   1      33.161  26.045  22.099  1.00  0.00    -0.082 Cl
ATOM     12  C   UNL A   1      31.415  27.945  22.782  1.00  0.00     0.043 A 
ATOM     13  C   UNL A   1      31.111  28.789  25.021  1.00  0.00     0.036 A 
ATOM     14  C   UNL A   1      30.769  28.791  23.669  1.00  0.00     0.043 A 
ATOM     15  Cl  UNL A   1      29.530  29.836  23.093  1.00  0.00    -0.084 Cl
BRANCH   9  16
ATOM     16  N   UNL A   1      33.998  26.443  24.984  1.00  0.00    -0.320 N 
ATOM     17  C   UNL A   1      34.062  25.135  25.459  1.00  0.00     0.256 C 
ATOM     18  O   UNL A   1      35.189  24.738  25.763  1.00  0.00    -0.269 OA
ATOM     19  H   UNL A   1      34.862  26.906  24.904  1.00  0.00     0.170 HD
BRANCH  17  20
ATOM     20  C   UNL A   1      32.888  24.223  25.477  1.00  0.00     0.054 A 
ATOM     21  C   UNL A   1      29.783  22.837  27.154  1.00  0.00     0.056 C 
ATOM     22  C   UNL A   1      30.924  23.167  26.256  1.00  0.00     0.003 A 
ATOM     23  C   UNL A   1      31.654  24.332  26.214  1.00  0.00     0.029 A 
ATOM     24  S   UNL A   1      31.486  22.066  25.098  1.00  0.00    -0.145 S 
ATOM     25  C   UNL A   1      32.773  23.111  24.637  1.00  0.00     0.014 A 
ATOM     26  C   UNL A   1      33.601  22.698  23.459  1.00  0.00     0.057 C 
ENDBRANCH  17  20
ENDBRANCH   9  16
ENDBRANCH   5   8
ENDBRANCH   3   4
ENDBRANCH   2   3
ENDBRANCH   1   2
BRANCH   1  27
ATOM     27  C   UNL A   1      33.232  32.641  27.038  1.00  0.00     0.116 C 
BRANCH  27  28
ATOM     28  N   UNL A   1      32.734  33.880  27.616  1.00  0.00    -0.352 N 
ATOM     29  C   UNL A   1      33.193  34.633  28.675  1.00  0.00     0.251 C 
ATOM     30  H   UNL A   1      31.933  34.243  27.174  1.00  0.00     0.163 HD
ATOM     31  O   UNL A   1      32.561  35.634  29.012  1.00  0.00    -0.269 OA
BRANCH  29  32
ATOM     32  C   UNL A   1      34.392  34.232  29.451  1.00  0.00     0.039 A 
ATOM     33  C   UNL A   1      34.205  33.660  30.714  1.00  0.00     0.014 A 
ATOM     34  C   UNL A   1      35.689  34.408  28.966  1.00  0.00     0.014 A 
ATOM     35  C   UNL A   1      35.301  33.165  31.428  1.00  0.00     0.010 A 
ATOM     36  C   UNL A   1      36.770  33.827  29.634  1.00  0.00     0.010 A 
ATOM     37  C   UNL A   1      36.588  33.184  30.867  1.00  0.00    -0.014 A 
BRANCH  37  38
ATOM     38  C   UNL A   1      37.732  32.512  31.548  1.00  0.00     0.031 A 
ATOM     39  C   UNL A   1      38.430  31.341  30.905  1.00  0.00     0.074 A 
ATOM     40  C   UNL A   1      38.112  32.927  32.774  1.00  0.00     0.049 A 
ATOM     41  N   UNL A   1      39.409  30.606  31.369  1.00  0.00    -0.248 NA
ATOM     42  C   UNL A   1      37.946  30.926  29.580  1.00  0.00     0.031 C 
ATOM     43  C   UNL A   1      37.479  34.010  33.534  1.00  0.00     0.029 A 
ATOM     44  N   UNL A   1      39.116  32.492  33.605  1.00  0.00    -0.354 N 
ATOM     45  C   UNL A   1      39.659  29.644  30.395  1.00  0.00     0.074 A 
ATOM     46  C   UNL A   1      38.679  29.846  29.349  1.00  0.00     0.031 C 
ATOM     47  C   UNL A   1      38.129  34.173  34.698  1.00  0.00     0.029 A 
ATOM     48  C   UNL A   1      39.194  33.182  34.795  1.00  0.00     0.049 A 
ATOM     49  H   UNL A   1      39.724  31.754  33.371  1.00  0.00     0.167 HD
ATOM     50  C   UNL A   1      40.635  28.703  30.357  1.00  0.00     0.034 A 
ATOM     51  C   UNL A   1      40.021  33.030  35.848  1.00  0.00     0.034 A 
ATOM     52  C   UNL A   1      41.614  28.513  31.401  1.00  0.00     0.049 A 
ATOM     53  C   UNL A   1      41.089  31.967  35.787  1.00  0.00     0.074 A 
ATOM     54  C   UNL A   1      42.660  27.606  31.450  1.00  0.00     0.029 A 
ATOM     55  N   UNL A   1      41.671  29.242  32.582  1.00  0.00    -0.354 N 
ATOM     56  N   UNL A   1      41.339  31.100  34.831  1.00  0.00    -0.248 NA
ATOM     57  C   UNL A   1      42.001  31.875  36.935  1.00  0.00     0.031 C 
ATOM     58  C   UNL A   1      43.312  27.748  32.679  1.00  0.00     0.029 A 
ATOM     59  C   UNL A   1      42.721  28.793  33.370  1.00  0.00     0.049 A 
ATOM     60  H   UNL A   1      41.055  29.971  32.825  1.00  0.00     0.167 HD
ATOM     61  C   UNL A   1      42.452  30.380  35.256  1.00  0.00     0.074 A 
ATOM     62  C   UNL A   1      42.843  30.937  36.534  1.00  0.00     0.031 C 
ATOM     63  C   UNL A   1      43.094  29.350  34.648  1.00  0.00     0.034 A 
BRANCH  50  64
ATOM     64  C   UNL A   1      40.686  27.803  29.146  1.00  0.00     0.023 A 
ATOM     65  C   UNL A   1      41.615  28.020  28.112  1.00  0.00     0.031 A 
ATOM     66  C   UNL A   1      39.801  26.718  29.017  1.00  0.00     0.131 A 
ATOM     67  C   UNL A   1      41.594  27.209  26.968  1.00  0.00     0.055 A 
ATOM     68  C   UNL A   1      39.837  25.866  27.911  1.00  0.00     0.041 A 
ATOM     69  F   UNL A   1      38.880  26.471  29.961  1.00  0.00    -0.206 F 
ATOM     70  C   UNL A   1      40.730  26.117  26.872  1.00  0.00     0.022 A 
BRANCH  67  71
ATOM     71  S   UNL A   1      42.632  27.674  25.557  1.00  0.00     0.124 S 
ATOM     72  O   UNL A   1      41.915  28.835  25.035  1.00  0.00    -0.237 OA
ATOM     73  O   UNL A   1      43.919  27.949  26.186  1.00  0.00    -0.237 OA
ATOM     74  O   UNL A   1      42.596  26.492  24.700  1.00  0.00    -0.744 OA
ENDBRANCH  67  71
ENDBRANCH  50  64
BRANCH  51  75
ATOM     75  C   UNL A   1      39.877  33.887  37.064  1.00  0.00     0.023 A 
ATOM     76  C   UNL A   1      39.245  33.404  38.221  1.00  0.00     0.031 A 
ATOM     77  C   UNL A   1      40.302  35.227  37.059  1.00  0.00     0.131 A 
ATOM     78  C   UNL A   1      38.994  34.271  39.297  1.00  0.00     0.055 A 
ATOM     79  C   UNL A   1      40.108  36.068  38.157  1.00  0.00     0.041 A 
ATOM     80  F   UNL A   1      40.916  35.742  35.982  1.00  0.00    -0.206 F 
ATOM     81  C   UNL A   1      39.433  35.595  39.278  1.00  0.00     0.022 A 
BRANCH  78  82
ATOM     82  S   UNL A   1      37.973  33.673  40.673  1.00  0.00     0.124 S 
ATOM     83  O   UNL A   1      38.843  32.669  41.276  1.00  0.00    -0.237 OA
ATOM     84  O   UNL A   1      37.768  34.893  41.448  1.00  0.00    -0.237 OA
ATOM     85  O   UNL A   1      36.781  33.151  40.010  1.00  0.00    -0.744 OA
ENDBRANCH  78  82
ENDBRANCH  51  75
BRANCH  63  86
ATOM     86  C   UNL A   1      44.308  28.792  35.352  1.00  0.00     0.023 A 
ATOM     87  C   UNL A   1      44.191  27.880  36.416  1.00  0.00     0.031 A 
ATOM     88  C   UNL A   1      45.598  29.209  34.979  1.00  0.00     0.131 A 
ATOM     89  C   UNL A   1      45.336  27.471  37.116  1.00  0.00     0.055 A 
ATOM     90  C   UNL A   1      46.739  28.746  35.636  1.00  0.00     0.041 A 
ATOM     91  F   UNL A   1      45.771  30.080  33.972  1.00  0.00    -0.206 F 
ATOM     92  C   UNL A   1      46.610  27.885  36.723  1.00  0.00     0.022 A 
BRANCH  89  93
ATOM     93  S   UNL A   1      45.125  26.479  38.620  1.00  0.00     0.124 S 
ATOM     94  O   UNL A   1      45.862  27.262  39.606  1.00  0.00    -0.237 OA
ATOM     95  O   UNL A   1      43.675  26.458  38.779  1.00  0.00    -0.237 OA
ATOM     96  O   UNL A   1      45.729  25.194  38.271  1.00  0.00    -0.744 OA
ENDBRANCH  89  93
ENDBRANCH  63  86
ENDBRANCH  37  38
ENDBRANCH  29  32
ENDBRANCH  27  28
ENDBRANCH   1  27
TORSDOF 16
ENDMDL
MODEL 3
REMARK VINA RESULT:     -12.1      4.867     10.109
REMARK SMILES Cc1cc(C(=O)Nc2c(Cl)cc(Cl)cc2C(=O)NCCCCNC(=O)c2ccc(-c3c4nc(c(-c5cc(S(=O)(=O)[O-])ccc5F)c5ccc([nH]5)c(-c5cc(S(=O)(=O)[O-])ccc5F)c5nc(c(-c6cc(S(=O)(=O)[O-])ccc6F)c6ccc3[nH]6)C=C5)C=C4)cc2)c(C)s1
REMARK SMILES IDX 21 1 20 2 19 3 18 4 16 5 17 6 15 8 8 9 9 10 10 11 11 12
REMARK SMILES IDX 14 13 12 14 13 15 7 16 5 17 6 18 4 20 1 21 2 22 3 23 91 24
REMARK SMILES IDX 89 25 90 26 22 27 23 28 24 29 25 31 26 32 27 33 88 34 28 35
REMARK SMILES IDX 87 36 29 37 30 38 31 39 81 40 32 41 86 42 80 43 82 44 33 45
REMARK SMILES IDX 85 46 79 47 78 48 34 50 66 51 46 52 65 53 47 54 50 55 64 56
REMARK SMILES IDX 83 57 48 58 49 59 63 61 84 62 51 63 35 64 36 65 44 66 37 67
REMARK SMILES IDX 43 68 45 69 42 70 38 71 39 72 40 73 41 74 67 75 68 76 76 77
REMARK SMILES IDX 69 78 75 79 77 80 74 81 70 82 71 83 72 84 73 85 52 86 53 87
REMARK SMILES IDX 61 88 54 89 60 90 62 91 59 92 55 93 56 94 57 95 58 96
REMARK H PARENT 18 7 7 19 23 30 82 49 50 60
REMARK Flexibility Score: inf
ROOT
ATOM      1  C   UNL A   1      36.584  22.218  24.026  1.00  0.00     0.023 C 
ENDROOT
BRANCH   1   2
ATOM      2  C   UNL A   1      35.439  23.203  23.803  1.00  0.00     0.023 C 
BRANCH   2   3
ATOM      3  C   UNL A   1      35.300  24.346  24.798  1.00  0.00     0.116 C 
BRANCH   3   4
ATOM      4  N   UNL A   1      34.227  24.264  25.757  1.00  0.00    -0.352 N 
ATOM      5  C   UNL A   1      32.976  24.831  25.759  1.00  0.00     0.253 C 
ATOM      6  O   UNL A   1      32.233  24.532  26.698  1.00  0.00    -0.269 OA
ATOM      7  H   UNL A   1      34.425  23.708  26.545  1.00  0.00     0.163 HD
BRANCH   5   8
ATOM      8  C   UNL A   1      32.445  25.825  24.768  1.00  0.00     0.066 A 
ATOM      9  C   UNL A   1      31.635  26.958  24.990  1.00  0.00     0.073 A 
ATOM     10  C   UNL A   1      31.411  27.872  23.926  1.00  0.00     0.066 A 
ATOM     11  Cl  UNL A   1      30.587  29.381  24.165  1.00  0.00    -0.082 Cl
ATOM     12  C   UNL A   1      31.857  27.602  22.634  1.00  0.00     0.043 A 
ATOM     13  C   UNL A   1      32.888  25.580  23.447  1.00  0.00     0.036 A 
ATOM     14  C   UNL A   1      32.572  26.440  22.396  1.00  0.00     0.043 A 
ATOM     15  Cl  UNL A   1      33.082  26.071  20.796  1.00  0.00    -0.084 Cl
BRANCH   9  16
ATOM     16  N   UNL A   1      31.059  27.223  26.239  1.00  0.00    -0.320 N 
ATOM     17  C   UNL A   1      31.549  27.998  27.287  1.00  0.00     0.256 C 
ATOM     18  O   UNL A   1      30.845  28.025  28.299  1.00  0.00    -0.269 OA
ATOM     19  H   UNL A   1      30.183  26.804  26.397  1.00  0.00     0.170 HD
BRANCH  17  20
ATOM     20  C   UNL A   1      32.763  28.849  27.165  1.00  0.00     0.054 A 
ATOM     21  C   UNL A   1      36.495  29.387  27.552  1.00  0.00     0.056 C 
ATOM     22  C   UNL A   1      35.033  29.487  27.287  1.00  0.00     0.003 A 
ATOM     23  C   UNL A   1      34.146  28.461  27.057  1.00  0.00     0.029 A 
ATOM     24  S   UNL A   1      34.244  30.985  27.233  1.00  0.00    -0.145 S 
ATOM     25  C   UNL A   1      32.708  30.239  27.021  1.00  0.00     0.014 A 
ATOM     26  C   UNL A   1      31.541  31.140  26.752  1.00  0.00     0.057 C 
ENDBRANCH  17  20
ENDBRANCH   9  16
ENDBRANCH   5   8
ENDBRANCH   3   4
ENDBRANCH   2   3
ENDBRANCH   1   2
BRANCH   1  27
ATOM     27  C   UNL A   1      36.844  21.744  25.454  1.00  0.00     0.116 C 
BRANCH  27  28
ATOM     28  N   UNL A   1      37.981  20.848  25.603  1.00  0.00    -0.352 N 
ATOM     29  C   UNL A   1      39.245  21.068  26.104  1.00  0.00     0.251 C 
ATOM     30  H   UNL A   1      37.819  19.928  25.292  1.00  0.00     0.163 HD
ATOM     31  O   UNL A   1      40.064  20.149  26.078  1.00  0.00    -0.269 OA
BRANCH  29  32
ATOM     32  C   UNL A   1      39.658  22.396  26.618  1.00  0.00     0.039 A 
ATOM     33  C   UNL A   1      40.673  22.451  27.579  1.00  0.00     0.014 A 
ATOM     34  C   UNL A   1      39.070  23.583  26.177  1.00  0.00     0.014 A 
ATOM     35  C   UNL A   1      41.170  23.687  28.004  1.00  0.00     0.010 A 
ATOM     36  C   UNL A   1      39.631  24.814  26.528  1.00  0.00     0.010 A 
ATOM     37  C   UNL A   1      40.699  24.882  27.435  1.00  0.00    -0.014 A 
BRANCH  37  38
ATOM     38  C   UNL A   1      41.336  26.190  27.760  1.00  0.00     0.031 A 
ATOM     39  C   UNL A   1      42.742  26.494  27.312  1.00  0.00     0.074 A 
ATOM     40  C   UNL A   1      40.661  27.090  28.506  1.00  0.00     0.049 A 
ATOM     41  N   UNL A   1      43.472  27.557  27.543  1.00  0.00    -0.248 NA
ATOM     42  C   UNL A   1      43.427  25.457  26.526  1.00  0.00     0.031 C 
ATOM     43  C   UNL A   1      39.316  26.894  29.055  1.00  0.00     0.029 A 
ATOM     44  N   UNL A   1      41.008  28.347  28.939  1.00  0.00    -0.354 N 
ATOM     45  C   UNL A   1      44.698  27.318  26.930  1.00  0.00     0.074 A 
ATOM     46  C   UNL A   1      44.637  25.979  26.383  1.00  0.00     0.031 C 
ATOM     47  C   UNL A   1      38.943  27.999  29.720  1.00  0.00     0.029 A 
ATOM     48  C   UNL A   1      40.033  28.968  29.688  1.00  0.00     0.049 A 
ATOM     49  H   UNL A   1      41.875  28.765  28.732  1.00  0.00     0.167 HD
ATOM     50  C   UNL A   1      45.764  28.148  26.804  1.00  0.00     0.034 A 
ATOM     51  C   UNL A   1      40.019  30.174  30.289  1.00  0.00     0.034 A 
ATOM     52  C   UNL A   1      45.814  29.484  27.347  1.00  0.00     0.049 A 
ATOM     53  C   UNL A   1      41.222  31.072  30.144  1.00  0.00     0.074 A 
ATOM     54  C   UNL A   1      46.835  30.416  27.254  1.00  0.00     0.029 A 
ATOM     55  N   UNL A   1      44.802  30.084  28.084  1.00  0.00    -0.354 N 
ATOM     56  N   UNL A   1      42.353  30.844  29.516  1.00  0.00    -0.248 NA
ATOM     57  C   UNL A   1      41.139  32.398  30.771  1.00  0.00     0.031 C 
ATOM     58  C   UNL A   1      46.464  31.553  27.979  1.00  0.00     0.029 A 
ATOM     59  C   UNL A   1      45.181  31.362  28.466  1.00  0.00     0.049 A 
ATOM     60  H   UNL A   1      43.940  29.662  28.305  1.00  0.00     0.167 HD
ATOM     61  C   UNL A   1      43.103  32.010  29.653  1.00  0.00     0.074 A 
ATOM     62  C   UNL A   1      42.282  32.946  30.392  1.00  0.00     0.031 C 
ATOM     63  C   UNL A   1      44.357  32.283  29.212  1.00  0.00     0.034 A 
BRANCH  50  64
ATOM     64  C   UNL A   1      46.965  27.627  26.053  1.00  0.00     0.023 A 
ATOM     65  C   UNL A   1      47.187  27.963  24.705  1.00  0.00     0.031 A 
ATOM     66  C   UNL A   1      47.900  26.785  26.682  1.00  0.00     0.131 A 
ATOM     67  C   UNL A   1      48.275  27.410  24.013  1.00  0.00     0.055 A 
ATOM     68  C   UNL A   1      49.024  26.300  26.010  1.00  0.00     0.041 A 
ATOM     69  F   UNL A   1      47.732  26.413  27.961  1.00  0.00    -0.206 F 
ATOM     70  C   UNL A   1      49.210  26.602  24.664  1.00  0.00     0.022 A 
BRANCH  67  71
ATOM     71  S   UNL A   1      48.384  27.666  22.222  1.00  0.00     0.124 S 
ATOM     72  O   UNL A   1      47.148  28.400  21.955  1.00  0.00    -0.237 OA
ATOM     73  O   UNL A   1      49.620  28.426  22.085  1.00  0.00    -0.237 OA
ATOM     74  O   UNL A   1      48.421  26.309  21.683  1.00  0.00    -0.744 OA
ENDBRANCH  67  71
ENDBRANCH  50  64
BRANCH  51  75
ATOM     75  C   UNL A   1      38.841  30.613  31.097  1.00  0.00     0.023 A 
ATOM     76  C   UNL A   1      37.841  31.426  30.540  1.00  0.00     0.031 A 
ATOM     77  C   UNL A   1      38.738  30.286  32.461  1.00  0.00     0.131 A 
ATOM     78  C   UNL A   1      36.821  31.942  31.357  1.00  0.00     0.055 A 
ATOM     79  C   UNL A   1      37.686  30.748  33.254  1.00  0.00     0.041 A 
ATOM     80  F   UNL A   1      39.662  29.508  33.046  1.00  0.00    -0.206 F 
ATOM     81  C   UNL A   1      36.729  31.597  32.706  1.00  0.00     0.022 A 
BRANCH  78  82
ATOM     82  S   UNL A   1      35.685  33.171  30.655  1.00  0.00     0.124 S 
ATOM     83  O   UNL A   1      34.454  32.400  30.526  1.00  0.00    -0.237 OA
ATOM     84  O   UNL A   1      35.689  34.207  31.683  1.00  0.00    -0.237 OA
ATOM     85  O   UNL A   1      36.324  33.543  29.395  1.00  0.00    -0.744 OA
ENDBRANCH  78  82
ENDBRANCH  51  75
BRANCH  63  86
ATOM     86  C   UNL A   1      44.891  33.668  29.490  1.00  0.00     0.023 A 
ATOM     87  C   UNL A   1      44.710  34.726  28.580  1.00  0.00     0.031 A 
ATOM     88  C   UNL A   1      45.625  33.924  30.661  1.00  0.00     0.131 A 
ATOM     89  C   UNL A   1      45.315  35.968  28.822  1.00  0.00     0.055 A 
ATOM     90  C   UNL A   1      46.169  35.181  30.929  1.00  0.00     0.041 A 
ATOM     91  F   UNL A   1      45.832  32.952  31.564  1.00  0.00    -0.206 F 
ATOM     92  C   UNL A   1      46.030  36.207  29.998  1.00  0.00     0.022 A 
BRANCH  89  93
ATOM     93  S   UNL A   1      45.252  37.232  27.522  1.00  0.00     0.124 S 
ATOM     94  O   UNL A   1      46.264  36.755  26.586  1.00  0.00    -0.237 OA
ATOM     95  O   UNL A   1      43.869  37.142  27.067  1.00  0.00    -0.237 OA
ATOM     96  O   UNL A   1      45.593  38.466  28.229  1.00  0.00    -0.744 OA
ENDBRANCH  89  93
ENDBRANCH  63  86
ENDBRANCH  37  38
ENDBRANCH  29  32
ENDBRANCH  27  28
ENDBRANCH   1  27
TORSDOF 16
ENDMDL
