MODEL 1
REMARK VINA RESULT:     -10.5      0.000      0.000
REMARK SMILES CCCCS[C@@H]1CCC[C@]([NH3+])(C(=O)NCCCCNC(=O)c2ccc(-c3c4nc(c(-c5cc(S(=O)(=O)[O-])ccc5F)c5ccc([nH]5)c(-c5cc(S(=O)(=O)[O-])ccc5F)c5nc(c(-c6cc(S(=O)(=O)[O-])ccc6F)c6ccc3[nH]6)C=C5)C=C4)cc2)C1
REMARK SMILES IDX 16 1 15 2 14 3 12 4 13 5 10 7 6 8 7 9 85 10 8 11 9 12 5 13
REMARK SMILES IDX 4 14 3 15 2 16 1 17 11 18 17 22 18 23 19 24 20 25 21 27
REMARK SMILES IDX 22 28 23 29 84 30 24 31 83 32 25 33 26 34 27 35 77 36 28 37
REMARK SMILES IDX 82 38 76 39 78 40 29 41 81 42 75 43 74 44 30 46 62 47 42 48
REMARK SMILES IDX 61 49 43 50 46 51 60 52 79 53 44 54 45 55 59 57 80 58 47 59
REMARK SMILES IDX 31 60 32 61 40 62 33 63 39 64 41 65 38 66 34 67 35 68 36 69
REMARK SMILES IDX 37 70 63 71 64 72 72 73 65 74 71 75 73 76 70 77 66 78 67 79
REMARK SMILES IDX 68 80 69 81 48 82 49 83 57 84 50 85 56 86 58 87 55 88 51 89
REMARK SMILES IDX 52 90 53 91 54 92
REMARK H PARENT 14 6 11 19 11 20 11 21 19 26 78 45 46 56
REMARK Flexibility Score: inf
ROOT
ATOM      1  C   UNL A   1      31.960  28.121  27.373  1.00  0.00     0.023 C 
ENDROOT
BRANCH   1   2
ATOM      2  C   UNL A   1      31.615  26.842  26.610  1.00  0.00     0.116 C 
BRANCH   2   3
ATOM      3  N   UNL A   1      31.775  27.016  25.180  1.00  0.00    -0.351 N 
ATOM      4  C   UNL A   1      31.955  26.119  24.163  1.00  0.00     0.281 C 
ATOM      5  O   UNL A   1      32.162  26.597  23.043  1.00  0.00    -0.268 OA
ATOM      6  H   UNL A   1      31.750  27.954  24.885  1.00  0.00     0.163 HD
BRANCH   4   7
ATOM      7  C   UNL A   1      31.862  24.572  24.401  1.00  0.00     0.175 C 
ATOM      8  C   UNL A   1      33.126  22.523  25.306  1.00  0.00     0.053 C 
ATOM      9  C   UNL A   1      33.201  21.915  23.911  1.00  0.00     0.015 C 
ATOM     10  C   UNL A   1      33.068  24.055  25.222  1.00  0.00     0.093 C 
ATOM     11  C   UNL A   1      31.978  22.339  23.099  1.00  0.00     0.008 C 
ATOM     12  C   UNL A   1      31.865  23.862  23.021  1.00  0.00     0.079 C 
BRANCH   8  13
ATOM     13  S   UNL A   1      34.504  22.029  26.401  1.00  0.00    -0.158 SA
BRANCH  13  14
ATOM     14  C   UNL A   1      35.350  20.741  25.415  1.00  0.00     0.070 C 
BRANCH  14  15
ATOM     15  C   UNL A   1      36.737  21.089  24.858  1.00  0.00     0.011 C 
BRANCH  15  16
ATOM     16  C   UNL A   1      37.043  22.551  24.516  1.00  0.00    -0.003 C 
ATOM     17  C   UNL A   1      36.657  22.974  23.107  1.00  0.00     0.004 C 
ENDBRANCH  15  16
ENDBRANCH  14  15
ENDBRANCH  13  14
ENDBRANCH   8  13
BRANCH   7  18
ATOM     18  N   UNL A   1      30.552  24.278  25.034  1.00  0.00    -0.345 N 
ATOM     19  H   UNL A   1      30.647  24.325  26.049  1.00  0.00     0.345 HD
ATOM     20  H   UNL A   1      30.247  23.342  24.764  1.00  0.00     0.345 HD
ATOM     21  H   UNL A   1      29.864  24.964  24.725  1.00  0.00     0.345 HD
ENDBRANCH   7  18
ENDBRANCH   4   7
ENDBRANCH   2   3
ENDBRANCH   1   2
BRANCH   1  22
ATOM     22  C   UNL A   1      31.404  29.402  26.749  1.00  0.00     0.023 C 
BRANCH  22  23
ATOM     23  C   UNL A   1      32.454  30.379  26.227  1.00  0.00     0.116 C 
BRANCH  23  24
ATOM     24  N   UNL A   1      32.197  31.761  26.600  1.00  0.00    -0.352 N 
ATOM     25  C   UNL A   1      32.973  32.588  27.381  1.00  0.00     0.251 C 
ATOM     26  H   UNL A   1      31.364  32.154  26.253  1.00  0.00     0.163 HD
ATOM     27  O   UNL A   1      32.575  33.704  27.687  1.00  0.00    -0.269 OA
BRANCH  25  28
ATOM     28  C   UNL A   1      34.268  32.080  27.880  1.00  0.00     0.039 A 
ATOM     29  C   UNL A   1      35.349  32.959  27.964  1.00  0.00     0.014 A 
ATOM     30  C   UNL A   1      34.382  30.763  28.333  1.00  0.00     0.014 A 
ATOM     31  C   UNL A   1      36.528  32.538  28.581  1.00  0.00     0.010 A 
ATOM     32  C   UNL A   1      35.532  30.369  29.007  1.00  0.00     0.010 A 
ATOM     33  C   UNL A   1      36.612  31.254  29.145  1.00  0.00    -0.014 A 
BRANCH  33  34
ATOM     34  C   UNL A   1      37.816  30.817  29.896  1.00  0.00     0.031 A 
ATOM     35  C   UNL A   1      38.776  29.847  29.267  1.00  0.00     0.074 A 
ATOM     36  C   UNL A   1      37.993  31.222  31.169  1.00  0.00     0.049 A 
ATOM     37  N   UNL A   1      39.817  29.253  29.790  1.00  0.00    -0.248 NA
ATOM     38  C   UNL A   1      38.506  29.472  27.870  1.00  0.00     0.031 C 
ATOM     39  C   UNL A   1      37.104  32.128  31.900  1.00  0.00     0.029 A 
ATOM     40  N   UNL A   1      38.972  30.913  32.081  1.00  0.00    -0.354 N 
ATOM     41  C   UNL A   1      40.316  28.420  28.795  1.00  0.00     0.074 A 
ATOM     42  C   UNL A   1      39.427  28.544  27.659  1.00  0.00     0.031 C 
ATOM     43  C   UNL A   1      37.586  32.311  33.140  1.00  0.00     0.029 A 
ATOM     44  C   UNL A   1      38.790  31.505  33.309  1.00  0.00     0.049 A 
ATOM     45  H   UNL A   1      39.732  30.323  31.874  1.00  0.00     0.167 HD
ATOM     46  C   UNL A   1      41.425  27.639  28.820  1.00  0.00     0.034 A 
ATOM     47  C   UNL A   1      39.504  31.395  34.447  1.00  0.00     0.034 A 
ATOM     48  C   UNL A   1      42.307  27.542  29.957  1.00  0.00     0.049 A 
ATOM     49  C   UNL A   1      40.724  30.509  34.459  1.00  0.00     0.074 A 
ATOM     50  C   UNL A   1      43.492  26.836  30.071  1.00  0.00     0.029 A 
ATOM     51  N   UNL A   1      42.098  28.164  31.181  1.00  0.00    -0.354 N 
ATOM     52  N   UNL A   1      41.213  29.767  33.492  1.00  0.00    -0.248 NA
ATOM     53  C   UNL A   1      41.490  30.453  35.710  1.00  0.00     0.031 C 
ATOM     54  C   UNL A   1      43.967  26.982  31.379  1.00  0.00     0.029 A 
ATOM     55  C   UNL A   1      43.115  27.835  32.063  1.00  0.00     0.049 A 
ATOM     56  H   UNL A   1      41.339  28.754  31.391  1.00  0.00     0.167 HD
ATOM     57  C   UNL A   1      42.360  29.176  34.013  1.00  0.00     0.074 A 
ATOM     58  C   UNL A   1      42.495  29.658  35.373  1.00  0.00     0.031 C 
ATOM     59  C   UNL A   1      43.227  28.317  33.420  1.00  0.00     0.034 A 
BRANCH  46  60
ATOM     60  C   UNL A   1      41.721  26.817  27.590  1.00  0.00     0.023 A 
ATOM     61  C   UNL A   1      41.395  25.451  27.522  1.00  0.00     0.031 A 
ATOM     62  C   UNL A   1      42.368  27.395  26.485  1.00  0.00     0.131 A 
ATOM     63  C   UNL A   1      41.790  24.691  26.410  1.00  0.00     0.055 A 
ATOM     64  C   UNL A   1      42.684  26.652  25.346  1.00  0.00     0.041 A 
ATOM     65  F   UNL A   1      42.721  28.690  26.499  1.00  0.00    -0.206 F 
ATOM     66  C   UNL A   1      42.411  25.287  25.311  1.00  0.00     0.022 A 
BRANCH  63  67
ATOM     67  S   UNL A   1      41.612  22.888  26.489  1.00  0.00     0.124 S 
ATOM     68  O   UNL A   1      42.283  22.581  27.749  1.00  0.00    -0.237 OA
ATOM     69  O   UNL A   1      40.165  22.713  26.475  1.00  0.00    -0.237 OA
ATOM     70  O   UNL A   1      42.309  22.422  25.290  1.00  0.00    -0.744 OA
ENDBRANCH  63  67
ENDBRANCH  46  60
BRANCH  47  71
ATOM     71  C   UNL A   1      39.084  32.127  35.676  1.00  0.00     0.023 A 
ATOM     72  C   UNL A   1      38.377  31.475  36.699  1.00  0.00     0.031 A 
ATOM     73  C   UNL A   1      39.349  33.499  35.828  1.00  0.00     0.131 A 
ATOM     74  C   UNL A   1      37.923  32.202  37.809  1.00  0.00     0.055 A 
ATOM     75  C   UNL A   1      38.936  34.209  36.958  1.00  0.00     0.041 A 
ATOM     76  F   UNL A   1      40.028  34.168  34.882  1.00  0.00    -0.206 F 
ATOM     77  C   UNL A   1      38.207  33.563  37.951  1.00  0.00     0.022 A 
BRANCH  74  78
ATOM     78  S   UNL A   1      36.884  31.359  39.034  1.00  0.00     0.124 S 
ATOM     79  O   UNL A   1      37.732  31.397  40.220  1.00  0.00    -0.237 OA
ATOM     80  O   UNL A   1      35.700  32.211  39.063  1.00  0.00    -0.237 OA
ATOM     81  O   UNL A   1      36.682  30.033  38.453  1.00  0.00    -0.744 OA
ENDBRANCH  74  78
ENDBRANCH  47  71
BRANCH  59  82
ATOM     82  C   UNL A   1      44.420  27.882  34.232  1.00  0.00     0.023 A 
ATOM     83  C   UNL A   1      44.385  26.730  35.038  1.00  0.00     0.031 A 
ATOM     84  C   UNL A   1      45.607  28.635  34.200  1.00  0.00     0.131 A 
ATOM     85  C   UNL A   1      45.502  26.389  35.815  1.00  0.00     0.055 A 
ATOM     86  C   UNL A   1      46.733  28.260  34.933  1.00  0.00     0.041 A 
ATOM     87  F   UNL A   1      45.692  29.743  33.447  1.00  0.00    -0.206 F 
ATOM     88  C   UNL A   1      46.681  27.138  35.755  1.00  0.00     0.022 A 
BRANCH  85  89
ATOM     89  S   UNL A   1      45.373  24.989  36.960  1.00  0.00     0.124 S 
ATOM     90  O   UNL A   1      44.041  25.183  37.526  1.00  0.00    -0.237 OA
ATOM     91  O   UNL A   1      45.526  23.842  36.072  1.00  0.00    -0.237 OA
ATOM     92  O   UNL A   1      46.480  25.204  37.891  1.00  0.00    -0.744 OA
ENDBRANCH  85  89
ENDBRANCH  59  82
ENDBRANCH  33  34
ENDBRANCH  25  28
ENDBRANCH  23  24
ENDBRANCH  22  23
ENDBRANCH   1  22
TORSDOF 19
ENDMDL
MODEL 2
REMARK VINA RESULT:     -10.4      2.935      4.023
REMARK SMILES CCCCS[C@@H]1CCC[C@]([NH3+])(C(=O)NCCCCNC(=O)c2ccc(-c3c4nc(c(-c5cc(S(=O)(=O)[O-])ccc5F)c5ccc([nH]5)c(-c5cc(S(=O)(=O)[O-])ccc5F)c5nc(c(-c6cc(S(=O)(=O)[O-])ccc6F)c6ccc3[nH]6)C=C5)C=C4)cc2)C1
REMARK SMILES IDX 16 1 15 2 14 3 12 4 13 5 10 7 6 8 7 9 85 10 8 11 9 12 5 13
REMARK SMILES IDX 4 14 3 15 2 16 1 17 11 18 17 22 18 23 19 24 20 25 21 27
REMARK SMILES IDX 22 28 23 29 84 30 24 31 83 32 25 33 26 34 27 35 77 36 28 37
REMARK SMILES IDX 82 38 76 39 78 40 29 41 81 42 75 43 74 44 30 46 62 47 42 48
REMARK SMILES IDX 61 49 43 50 46 51 60 52 79 53 44 54 45 55 59 57 80 58 47 59
REMARK SMILES IDX 31 60 32 61 40 62 33 63 39 64 41 65 38 66 34 67 35 68 36 69
REMARK SMILES IDX 37 70 63 71 64 72 72 73 65 74 71 75 73 76 70 77 66 78 67 79
REMARK SMILES IDX 68 80 69 81 48 82 49 83 57 84 50 85 56 86 58 87 55 88 51 89
REMARK SMILES IDX 52 90 53 91 54 92
REMARK H PARENT 14 6 11 19 11 20 11 21 19 26 78 45 46 56
REMARK Flexibility Score: inf
ROOT
ATOM      1  C   UNL A   1      31.512  30.650  25.714  1.00  0.00     0.023 C 
ENDROOT
BRANCH   1   2
ATOM      2  C   UNL A   1      32.727  29.750  25.938  1.00  0.00     0.116 C 
BRANCH   2   3
ATOM      3  N   UNL A   1      33.535  29.638  24.739  1.00  0.00    -0.351 N 
ATOM      4  C   UNL A   1      33.780  28.592  23.893  1.00  0.00     0.281 C 
ATOM      5  O   UNL A   1      34.608  28.793  22.999  1.00  0.00    -0.268 OA
ATOM      6  H   UNL A   1      33.994  30.472  24.486  1.00  0.00     0.163 HD
BRANCH   4   7
ATOM      7  C   UNL A   1      33.019  27.227  24.029  1.00  0.00     0.175 C 
ATOM      8  C   UNL A   1      30.694  26.148  24.236  1.00  0.00     0.053 C 
ATOM      9  C   UNL A   1      31.005  25.676  25.650  1.00  0.00     0.015 C 
ATOM     10  C   UNL A   1      31.489  27.420  23.907  1.00  0.00     0.093 C 
ATOM     11  C   UNL A   1      32.501  25.394  25.781  1.00  0.00     0.008 C 
ATOM     12  C   UNL A   1      33.331  26.629  25.428  1.00  0.00     0.079 C 
BRANCH   8  13
ATOM     13  S   UNL A   1      28.917  26.452  23.934  1.00  0.00    -0.158 SA
BRANCH  13  14
ATOM     14  C   UNL A   1      28.897  28.206  23.415  1.00  0.00     0.070 C 
BRANCH  14  15
ATOM     15  C   UNL A   1      27.543  28.791  22.990  1.00  0.00     0.011 C 
BRANCH  15  16
ATOM     16  C   UNL A   1      27.394  30.315  22.920  1.00  0.00    -0.003 C 
ATOM     17  C   UNL A   1      28.696  31.078  22.727  1.00  0.00     0.004 C 
ENDBRANCH  15  16
ENDBRANCH  14  15
ENDBRANCH  13  14
ENDBRANCH   8  13
BRANCH   7  18
ATOM     18  N   UNL A   1      33.573  26.285  23.025  1.00  0.00    -0.345 N 
ATOM     19  H   UNL A   1      34.535  26.547  22.808  1.00  0.00     0.345 HD
ATOM     20  H   UNL A   1      33.011  26.326  22.174  1.00  0.00     0.345 HD
ATOM     21  H   UNL A   1      33.555  25.338  23.401  1.00  0.00     0.345 HD
ENDBRANCH   7  18
ENDBRANCH   4   7
ENDBRANCH   2   3
ENDBRANCH   1   2
BRANCH   1  22
ATOM     22  C   UNL A   1      31.394  31.814  26.699  1.00  0.00     0.023 C 
BRANCH  22  23
ATOM     23  C   UNL A   1      32.702  32.530  27.019  1.00  0.00     0.116 C 
BRANCH  23  24
ATOM     24  N   UNL A   1      32.514  33.840  27.623  1.00  0.00    -0.352 N 
ATOM     25  C   UNL A   1      33.259  34.432  28.617  1.00  0.00     0.251 C 
ATOM     26  H   UNL A   1      31.758  34.369  27.278  1.00  0.00     0.163 HD
ATOM     27  O   UNL A   1      32.918  35.508  29.090  1.00  0.00    -0.269 OA
BRANCH  25  28
ATOM     28  C   UNL A   1      34.446  33.719  29.132  1.00  0.00     0.039 A 
ATOM     29  C   UNL A   1      35.714  34.239  28.866  1.00  0.00     0.014 A 
ATOM     30  C   UNL A   1      34.294  32.587  29.939  1.00  0.00     0.014 A 
ATOM     31  C   UNL A   1      36.831  33.670  29.478  1.00  0.00     0.010 A 
ATOM     32  C   UNL A   1      35.400  32.065  30.599  1.00  0.00     0.010 A 
ATOM     33  C   UNL A   1      36.677  32.606  30.383  1.00  0.00    -0.014 A 
BRANCH  33  34
ATOM     34  C   UNL A   1      37.836  32.048  31.125  1.00  0.00     0.031 A 
ATOM     35  C   UNL A   1      38.666  30.960  30.504  1.00  0.00     0.074 A 
ATOM     36  C   UNL A   1      38.082  32.457  32.385  1.00  0.00     0.049 A 
ATOM     37  N   UNL A   1      39.640  30.260  31.025  1.00  0.00    -0.248 NA
ATOM     38  C   UNL A   1      38.328  30.588  29.120  1.00  0.00     0.031 C 
ATOM     39  C   UNL A   1      37.317  33.476  33.108  1.00  0.00     0.029 A 
ATOM     40  N   UNL A   1      39.034  32.057  33.289  1.00  0.00    -0.354 N 
ATOM     41  C   UNL A   1      40.021  29.353  30.042  1.00  0.00     0.074 A 
ATOM     42  C   UNL A   1      39.132  29.555  28.917  1.00  0.00     0.031 C 
ATOM     43  C   UNL A   1      37.839  33.629  34.336  1.00  0.00     0.029 A 
ATOM     44  C   UNL A   1      38.944  32.692  34.505  1.00  0.00     0.049 A 
ATOM     45  H   UNL A   1      39.717  31.378  33.084  1.00  0.00     0.167 HD
ATOM     46  C   UNL A   1      41.033  28.450  30.069  1.00  0.00     0.034 A 
ATOM     47  C   UNL A   1      39.661  32.525  35.634  1.00  0.00     0.034 A 
ATOM     48  C   UNL A   1      41.918  28.275  31.194  1.00  0.00     0.049 A 
ATOM     49  C   UNL A   1      40.770  31.504  35.648  1.00  0.00     0.074 A 
ATOM     50  C   UNL A   1      43.015  27.439  31.306  1.00  0.00     0.029 A 
ATOM     51  N   UNL A   1      41.805  28.945  32.406  1.00  0.00    -0.354 N 
ATOM     52  N   UNL A   1      41.153  30.689  34.692  1.00  0.00    -0.248 NA
ATOM     53  C   UNL A   1      41.548  31.387  36.888  1.00  0.00     0.031 C 
ATOM     54  C   UNL A   1      43.527  27.558  32.603  1.00  0.00     0.029 A 
ATOM     55  C   UNL A   1      42.793  28.518  33.280  1.00  0.00     0.049 A 
ATOM     56  H   UNL A   1      41.123  29.623  32.614  1.00  0.00     0.167 HD
ATOM     57  C   UNL A   1      42.233  29.981  35.209  1.00  0.00     0.074 A 
ATOM     58  C   UNL A   1      42.448  30.473  36.555  1.00  0.00     0.031 C 
ATOM     59  C   UNL A   1      42.984  29.014  34.623  1.00  0.00     0.034 A 
BRANCH  46  60
ATOM     60  C   UNL A   1      41.209  27.572  28.854  1.00  0.00     0.023 A 
ATOM     61  C   UNL A   1      42.230  27.809  27.917  1.00  0.00     0.031 A 
ATOM     62  C   UNL A   1      40.323  26.508  28.609  1.00  0.00     0.131 A 
ATOM     63  C   UNL A   1      42.290  27.047  26.740  1.00  0.00     0.055 A 
ATOM     64  C   UNL A   1      40.441  25.700  27.477  1.00  0.00     0.041 A 
ATOM     65  F   UNL A   1      39.318  26.246  29.458  1.00  0.00    -0.206 F 
ATOM     66  C   UNL A   1      41.419  25.978  26.525  1.00  0.00     0.022 A 
BRANCH  63  67
ATOM     67  S   UNL A   1      43.432  27.569  25.431  1.00  0.00     0.124 S 
ATOM     68  O   UNL A   1      44.127  28.682  26.073  1.00  0.00    -0.237 OA
ATOM     69  O   UNL A   1      44.224  26.366  25.204  1.00  0.00    -0.237 OA
ATOM     70  O   UNL A   1      42.544  27.948  24.333  1.00  0.00    -0.744 OA
ENDBRANCH  63  67
ENDBRANCH  46  60
BRANCH  47  71
ATOM     71  C   UNL A   1      39.351  33.327  36.852  1.00  0.00     0.023 A 
ATOM     72  C   UNL A   1      40.022  34.533  37.113  1.00  0.00     0.031 A 
ATOM     73  C   UNL A   1      38.406  32.881  37.792  1.00  0.00     0.131 A 
ATOM     74  C   UNL A   1      39.771  35.229  38.305  1.00  0.00     0.055 A 
ATOM     75  C   UNL A   1      38.124  33.603  38.954  1.00  0.00     0.041 A 
ATOM     76  F   UNL A   1      37.730  31.738  37.585  1.00  0.00    -0.206 F 
ATOM     77  C   UNL A   1      38.818  34.778  39.222  1.00  0.00     0.022 A 
BRANCH  74  78
ATOM     78  S   UNL A   1      40.766  36.699  38.678  1.00  0.00     0.124 S 
ATOM     79  O   UNL A   1      41.521  36.869  37.442  1.00  0.00    -0.237 OA
ATOM     80  O   UNL A   1      39.737  37.700  38.945  1.00  0.00    -0.237 OA
ATOM     81  O   UNL A   1      41.552  36.292  39.840  1.00  0.00    -0.744 OA
ENDBRANCH  74  78
ENDBRANCH  47  71
BRANCH  59  82
ATOM     82  C   UNL A   1      44.133  28.461  35.427  1.00  0.00     0.023 A 
ATOM     83  C   UNL A   1      43.988  27.318  36.233  1.00  0.00     0.031 A 
ATOM     84  C   UNL A   1      45.390  29.090  35.385  1.00  0.00     0.131 A 
ATOM     85  C   UNL A   1      45.071  26.867  37.002  1.00  0.00     0.055 A 
ATOM     86  C   UNL A   1      46.477  28.604  36.111  1.00  0.00     0.041 A 
ATOM     87  F   UNL A   1      45.580  30.185  34.632  1.00  0.00    -0.206 F 
ATOM     88  C   UNL A   1      46.319  27.493  36.933  1.00  0.00     0.022 A 
BRANCH  85  89
ATOM     89  S   UNL A   1      44.810  25.486  38.148  1.00  0.00     0.124 S 
ATOM     90  O   UNL A   1      46.095  24.796  38.090  1.00  0.00    -0.237 OA
ATOM     91  O   UNL A   1      44.511  26.171  39.401  1.00  0.00    -0.237 OA
ATOM     92  O   UNL A   1      43.688  24.757  37.558  1.00  0.00    -0.744 OA
ENDBRANCH  85  89
ENDBRANCH  59  82
ENDBRANCH  33  34
ENDBRANCH  25  28
ENDBRANCH  23  24
ENDBRANCH  22  23
ENDBRANCH   1  22
TORSDOF 19
ENDMDL
MODEL 3
REMARK VINA RESULT:     -10.4      5.289      7.765
REMARK SMILES CCCCS[C@@H]1CCC[C@]([NH3+])(C(=O)NCCCCNC(=O)c2ccc(-c3c4nc(c(-c5cc(S(=O)(=O)[O-])ccc5F)c5ccc([nH]5)c(-c5cc(S(=O)(=O)[O-])ccc5F)c5nc(c(-c6cc(S(=O)(=O)[O-])ccc6F)c6ccc3[nH]6)C=C5)C=C4)cc2)C1
REMARK SMILES IDX 16 1 15 2 14 3 12 4 13 5 10 7 6 8 7 9 85 10 8 11 9 12 5 13
REMARK SMILES IDX 4 14 3 15 2 16 1 17 11 18 17 22 18 23 19 24 20 25 21 27
REMARK SMILES IDX 22 28 23 29 84 30 24 31 83 32 25 33 26 34 27 35 77 36 28 37
REMARK SMILES IDX 82 38 76 39 78 40 29 41 81 42 75 43 74 44 30 46 62 47 42 48
REMARK SMILES IDX 61 49 43 50 46 51 60 52 79 53 44 54 45 55 59 57 80 58 47 59
REMARK SMILES IDX 31 60 32 61 40 62 33 63 39 64 41 65 38 66 34 67 35 68 36 69
REMARK SMILES IDX 37 70 63 71 64 72 72 73 65 74 71 75 73 76 70 77 66 78 67 79
REMARK SMILES IDX 68 80 69 81 48 82 49 83 57 84 50 85 56 86 58 87 55 88 51 89
REMARK SMILES IDX 52 90 53 91 54 92
REMARK H PARENT 14 6 11 19 11 20 11 21 19 26 78 45 46 56
REMARK Flexibility Score: inf
ROOT
ATOM      1  C   UNL A   1      35.652  23.211  26.094  1.00  0.00     0.023 C 
ENDROOT
BRANCH   1   2
ATOM      2  C   UNL A   1      34.649  24.174  25.458  1.00  0.00     0.116 C 
BRANCH   2   3
ATOM      3  N   UNL A   1      33.550  24.467  26.358  1.00  0.00    -0.351 N 
ATOM      4  C   UNL A   1      32.261  24.013  26.407  1.00  0.00     0.281 C 
ATOM      5  O   UNL A   1      31.528  24.538  27.251  1.00  0.00    -0.268 OA
ATOM      6  H   UNL A   1      33.773  25.113  27.066  1.00  0.00     0.163 HD
BRANCH   4   7
ATOM      7  C   UNL A   1      31.756  22.862  25.470  1.00  0.00     0.175 C 
ATOM      8  C   UNL A   1      32.154  20.421  24.766  1.00  0.00     0.053 C 
ATOM      9  C   UNL A   1      32.565  20.859  23.366  1.00  0.00     0.015 C 
ATOM     10  C   UNL A   1      32.465  21.524  25.787  1.00  0.00     0.093 C 
ATOM     11  C   UNL A   1      31.817  22.136  22.986  1.00  0.00     0.008 C 
ATOM     12  C   UNL A   1      32.073  23.252  24.000  1.00  0.00     0.079 C 
BRANCH   8  13
ATOM     13  S   UNL A   1      32.934  18.859  25.307  1.00  0.00    -0.158 SA
BRANCH  13  14
ATOM     14  C   UNL A   1      33.116  17.941  23.735  1.00  0.00     0.070 C 
BRANCH  14  15
ATOM     15  C   UNL A   1      34.014  16.697  23.755  1.00  0.00     0.011 C 
BRANCH  15  16
ATOM     16  C   UNL A   1      34.125  15.894  25.056  1.00  0.00    -0.003 C 
ATOM     17  C   UNL A   1      32.915  15.034  25.384  1.00  0.00     0.004 C 
ENDBRANCH  15  16
ENDBRANCH  14  15
ENDBRANCH  13  14
ENDBRANCH   8  13
BRANCH   7  18
ATOM     18  N   UNL A   1      30.278  22.784  25.585  1.00  0.00    -0.345 N 
ATOM     19  H   UNL A   1      29.860  22.869  24.658  1.00  0.00     0.345 HD
ATOM     20  H   UNL A   1      29.944  23.543  26.179  1.00  0.00     0.345 HD
ATOM     21  H   UNL A   1      30.016  21.889  25.996  1.00  0.00     0.345 HD
ENDBRANCH   7  18
ENDBRANCH   4   7
ENDBRANCH   2   3
ENDBRANCH   1   2
BRANCH   1  22
ATOM     22  C   UNL A   1      35.972  21.978  25.248  1.00  0.00     0.023 C 
BRANCH  22  23
ATOM     23  C   UNL A   1      37.401  21.907  24.717  1.00  0.00     0.116 C 
BRANCH  23  24
ATOM     24  N   UNL A   1      38.175  20.810  25.278  1.00  0.00    -0.352 N 
ATOM     25  C   UNL A   1      39.255  20.880  26.127  1.00  0.00     0.251 C 
ATOM     26  H   UNL A   1      37.891  19.904  25.016  1.00  0.00     0.163 HD
ATOM     27  O   UNL A   1      39.865  19.867  26.440  1.00  0.00    -0.269 OA
BRANCH  25  28
ATOM     28  C   UNL A   1      39.691  22.207  26.610  1.00  0.00     0.039 A 
ATOM     29  C   UNL A   1      40.760  22.281  27.505  1.00  0.00     0.014 A 
ATOM     30  C   UNL A   1      39.093  23.369  26.115  1.00  0.00     0.014 A 
ATOM     31  C   UNL A   1      41.285  23.529  27.844  1.00  0.00     0.010 A 
ATOM     32  C   UNL A   1      39.661  24.606  26.401  1.00  0.00     0.010 A 
ATOM     33  C   UNL A   1      40.767  24.697  27.260  1.00  0.00    -0.014 A 
BRANCH  33  34
ATOM     34  C   UNL A   1      41.371  26.028  27.524  1.00  0.00     0.031 A 
ATOM     35  C   UNL A   1      42.775  26.313  27.069  1.00  0.00     0.074 A 
ATOM     36  C   UNL A   1      40.690  26.939  28.246  1.00  0.00     0.049 A 
ATOM     37  N   UNL A   1      43.524  27.360  27.300  1.00  0.00    -0.248 NA
ATOM     38  C   UNL A   1      43.433  25.262  26.277  1.00  0.00     0.031 C 
ATOM     39  C   UNL A   1      39.337  26.757  28.778  1.00  0.00     0.029 A 
ATOM     40  N   UNL A   1      41.047  28.194  28.673  1.00  0.00    -0.354 N 
ATOM     41  C   UNL A   1      44.748  27.087  26.698  1.00  0.00     0.074 A 
ATOM     42  C   UNL A   1      44.656  25.753  26.145  1.00  0.00     0.031 C 
ATOM     43  C   UNL A   1      38.975  27.865  29.446  1.00  0.00     0.029 A 
ATOM     44  C   UNL A   1      40.081  28.816  29.430  1.00  0.00     0.049 A 
ATOM     45  H   UNL A   1      41.912  28.609  28.457  1.00  0.00     0.167 HD
ATOM     46  C   UNL A   1      45.840  27.886  26.600  1.00  0.00     0.034 A 
ATOM     47  C   UNL A   1      40.094  30.011  30.054  1.00  0.00     0.034 A 
ATOM     48  C   UNL A   1      45.906  29.220  27.145  1.00  0.00     0.049 A 
ATOM     49  C   UNL A   1      41.324  30.875  29.945  1.00  0.00     0.074 A 
ATOM     50  C   UNL A   1      46.935  30.141  27.047  1.00  0.00     0.029 A 
ATOM     51  N   UNL A   1      44.905  29.822  27.895  1.00  0.00    -0.354 N 
ATOM     52  N   UNL A   1      42.456  30.625  29.328  1.00  0.00    -0.248 NA
ATOM     53  C   UNL A   1      41.275  32.184  30.609  1.00  0.00     0.031 C 
ATOM     54  C   UNL A   1      46.581  31.274  27.788  1.00  0.00     0.029 A 
ATOM     55  C   UNL A   1      45.303  31.089  28.292  1.00  0.00     0.049 A 
ATOM     56  H   UNL A   1      44.038  29.410  28.114  1.00  0.00     0.167 HD
ATOM     57  C   UNL A   1      43.243  31.758  29.509  1.00  0.00     0.074 A 
ATOM     58  C   UNL A   1      42.453  32.695  30.282  1.00  0.00     0.031 C 
ATOM     59  C   UNL A   1      44.504  32.006  29.072  1.00  0.00     0.034 A 
BRANCH  46  60
ATOM     60  C   UNL A   1      47.050  27.319  25.899  1.00  0.00     0.023 A 
ATOM     61  C   UNL A   1      48.044  26.613  26.600  1.00  0.00     0.031 A 
ATOM     62  C   UNL A   1      47.233  27.517  24.519  1.00  0.00     0.131 A 
ATOM     63  C   UNL A   1      49.211  26.203  25.938  1.00  0.00     0.055 A 
ATOM     64  C   UNL A   1      48.358  27.033  23.849  1.00  0.00     0.041 A 
ATOM     65  F   UNL A   1      46.328  28.199  23.801  1.00  0.00    -0.206 F 
ATOM     66  C   UNL A   1      49.365  26.386  24.563  1.00  0.00     0.022 A 
BRANCH  63  67
ATOM     67  S   UNL A   1      50.586  25.560  26.930  1.00  0.00     0.124 S 
ATOM     68  O   UNL A   1      49.946  24.455  27.639  1.00  0.00    -0.237 OA
ATOM     69  O   UNL A   1      51.562  25.187  25.913  1.00  0.00    -0.237 OA
ATOM     70  O   UNL A   1      50.963  26.695  27.771  1.00  0.00    -0.744 OA
ENDBRANCH  63  67
ENDBRANCH  46  60
BRANCH  47  71
ATOM     71  C   UNL A   1      38.916  30.460  30.849  1.00  0.00     0.023 A 
ATOM     72  C   UNL A   1      37.879  31.195  30.252  1.00  0.00     0.031 A 
ATOM     73  C   UNL A   1      38.828  30.194  32.227  1.00  0.00     0.131 A 
ATOM     74  C   UNL A   1      36.821  31.676  31.038  1.00  0.00     0.055 A 
ATOM     75  C   UNL A   1      37.748  30.634  32.995  1.00  0.00     0.041 A 
ATOM     76  F   UNL A   1      39.789  29.488  32.844  1.00  0.00    -0.206 F 
ATOM     77  C   UNL A   1      36.742  31.391  32.403  1.00  0.00     0.022 A 
BRANCH  74  78
ATOM     78  S   UNL A   1      35.581  32.749  30.261  1.00  0.00     0.124 S 
ATOM     79  O   UNL A   1      34.402  32.481  31.077  1.00  0.00    -0.237 OA
ATOM     80  O   UNL A   1      36.185  34.069  30.417  1.00  0.00    -0.237 OA
ATOM     81  O   UNL A   1      35.516  32.254  28.887  1.00  0.00    -0.744 OA
ENDBRANCH  74  78
ENDBRANCH  47  71
BRANCH  59  82
ATOM     82  C   UNL A   1      45.083  33.361  29.388  1.00  0.00     0.023 A 
ATOM     83  C   UNL A   1      44.848  34.474  28.563  1.00  0.00     0.031 A 
ATOM     84  C   UNL A   1      45.883  33.537  30.531  1.00  0.00     0.131 A 
ATOM     85  C   UNL A   1      45.446  35.706  28.868  1.00  0.00     0.055 A 
ATOM     86  C   UNL A   1      46.431  34.777  30.857  1.00  0.00     0.041 A 
ATOM     87  F   UNL A   1      46.139  32.505  31.350  1.00  0.00    -0.206 F 
ATOM     88  C   UNL A   1      46.223  35.868  30.019  1.00  0.00     0.022 A 
BRANCH  85  89
ATOM     89  S   UNL A   1      45.251  37.082  27.703  1.00  0.00     0.124 S 
ATOM     90  O   UNL A   1      46.551  37.103  27.038  1.00  0.00    -0.237 OA
ATOM     91  O   UNL A   1      44.125  36.644  26.885  1.00  0.00    -0.237 OA
ATOM     92  O   UNL A   1      44.979  38.229  28.568  1.00  0.00    -0.744 OA
ENDBRANCH  85  89
ENDBRANCH  59  82
ENDBRANCH  33  34
ENDBRANCH  25  28
ENDBRANCH  23  24
ENDBRANCH  22  23
ENDBRANCH   1  22
TORSDOF 19
ENDMDL
