MODEL 1
REMARK VINA RESULT:     -12.9      0.000      0.000
REMARK SMILES Cc1ccc(-c2nn(CCC(=O)NCCCCNC(=O)c3ccc(-c4c5nc(c(-c6cc(S(=O)(=O)[O-])ccc6F)c6ccc([nH]6)c(-c6cc(S(=O)(=O)[O-])ccc6F)c6nc(c(-c7cc(S(=O)(=O)[O-])ccc7F)c7ccc4[nH]7)C=C6)C=C5)cc3)c(=O)c3noc(C)c23)cc1C
REMARK SMILES IDX 15 1 14 2 13 3 11 4 12 5 10 7 9 8 8 9 6 10 7 11 91 12 86 13
REMARK SMILES IDX 89 14 84 15 87 16 88 17 90 18 85 19 5 20 1 21 2 22 3 23
REMARK SMILES IDX 93 24 4 25 92 26 94 27 16 28 17 29 18 30 19 31 20 33 21 34
REMARK SMILES IDX 22 35 83 36 23 37 82 38 24 39 25 40 26 41 76 42 27 43 81 44
REMARK SMILES IDX 75 45 77 46 28 47 80 48 74 49 73 50 29 52 61 53 41 54 60 55
REMARK SMILES IDX 42 56 45 57 59 58 78 59 43 60 44 61 58 63 79 64 46 65 30 66
REMARK SMILES IDX 31 67 39 68 32 69 38 70 40 71 37 72 33 73 34 74 35 75 36 76
REMARK SMILES IDX 62 77 63 78 71 79 64 80 70 81 72 82 69 83 65 84 66 85 67 86
REMARK SMILES IDX 68 87 47 88 48 89 56 90 49 91 55 92 57 93 54 94 50 95 51 96
REMARK SMILES IDX 52 97 53 98
REMARK H PARENT 13 6 18 32 77 51 45 62
REMARK Flexibility Score: inf
ROOT
ATOM      1  C   UNL A   1      35.895  21.132  25.245  1.00  0.00     0.023 C 
ENDROOT
BRANCH   1   2
ATOM      2  C   UNL A   1      34.578  21.522  24.581  1.00  0.00     0.116 C 
BRANCH   2   3
ATOM      3  N   UNL A   1      34.639  22.894  24.106  1.00  0.00    -0.356 N 
ATOM      4  C   UNL A   1      34.070  23.471  23.012  1.00  0.00     0.221 C 
ATOM      5  O   UNL A   1      34.386  24.629  22.726  1.00  0.00    -0.275 OA
ATOM      6  H   UNL A   1      35.177  23.502  24.663  1.00  0.00     0.163 HD
BRANCH   4   7
ATOM      7  C   UNL A   1      33.033  22.737  22.189  1.00  0.00     0.124 C 
BRANCH   7   8
ATOM      8  C   UNL A   1      31.640  22.781  22.811  1.00  0.00     0.158 C 
BRANCH   8   9
ATOM      9  N   UNL A   1      31.456  23.888  23.750  1.00  0.00    -0.227 N 
ATOM     10  C   UNL A   1      30.993  26.191  23.943  1.00  0.00     0.104 A 
ATOM     11  N   UNL A   1      31.120  25.140  23.178  1.00  0.00    -0.169 NA
ATOM     12  C   UNL A   1      31.298  26.091  25.339  1.00  0.00     0.078 A 
ATOM     13  C   UNL A   1      31.440  24.834  25.938  1.00  0.00     0.183 A 
ATOM     14  C   UNL A   1      31.551  26.993  26.343  1.00  0.00     0.143 A 
ATOM     15  C   UNL A   1      31.455  23.619  25.144  1.00  0.00     0.296 A 
ATOM     16  N   UNL A   1      31.671  24.931  27.251  1.00  0.00    -0.074 NA
ATOM     17  O   UNL A   1      31.754  26.297  27.503  1.00  0.00    -0.360 OA
ATOM     18  C   UNL A   1      31.698  28.459  26.436  1.00  0.00     0.091 C 
ATOM     19  O   UNL A   1      31.527  22.495  25.623  1.00  0.00    -0.265 OA
BRANCH  10  20
ATOM     20  C   UNL A   1      30.319  27.411  23.471  1.00  0.00     0.003 A 
ATOM     21  C   UNL A   1      28.522  30.679  21.324  1.00  0.00     0.044 C 
ATOM     22  C   UNL A   1      29.120  29.552  22.124  1.00  0.00    -0.048 A 
ATOM     23  C   UNL A   1      30.502  29.330  22.023  1.00  0.00     0.004 A 
ATOM     24  C   UNL A   1      28.337  28.706  22.942  1.00  0.00    -0.048 A 
ATOM     25  C   UNL A   1      31.099  28.267  22.690  1.00  0.00     0.011 A 
ATOM     26  C   UNL A   1      28.951  27.634  23.622  1.00  0.00     0.014 A 
ATOM     27  C   UNL A   1      26.843  28.854  23.063  1.00  0.00     0.044 C 
ENDBRANCH  10  20
ENDBRANCH   8   9
ENDBRANCH   7   8
ENDBRANCH   4   7
ENDBRANCH   2   3
ENDBRANCH   1   2
BRANCH   1  28
ATOM     28  C   UNL A   1      37.177  21.680  24.614  1.00  0.00     0.023 C 
BRANCH  28  29
ATOM     29  C   UNL A   1      38.126  22.412  25.570  1.00  0.00     0.116 C 
BRANCH  29  30
ATOM     30  N   UNL A   1      39.217  21.565  26.030  1.00  0.00    -0.352 N 
ATOM     31  C   UNL A   1      40.425  21.863  26.599  1.00  0.00     0.251 C 
ATOM     32  H   UNL A   1      39.055  20.601  25.908  1.00  0.00     0.163 HD
ATOM     33  O   UNL A   1      41.219  20.943  26.796  1.00  0.00    -0.269 OA
BRANCH  31  34
ATOM     34  C   UNL A   1      40.804  23.237  26.975  1.00  0.00     0.039 A 
ATOM     35  C   UNL A   1      41.967  23.768  26.401  1.00  0.00     0.014 A 
ATOM     36  C   UNL A   1      40.105  23.963  27.941  1.00  0.00     0.014 A 
ATOM     37  C   UNL A   1      42.393  25.046  26.750  1.00  0.00     0.010 A 
ATOM     38  C   UNL A   1      40.528  25.248  28.284  1.00  0.00     0.010 A 
ATOM     39  C   UNL A   1      41.657  25.803  27.670  1.00  0.00    -0.014 A 
BRANCH  39  40
ATOM     40  C   UNL A   1      42.047  27.216  27.841  1.00  0.00     0.031 A 
ATOM     41  C   UNL A   1      40.897  28.182  27.815  1.00  0.00     0.074 A 
ATOM     42  C   UNL A   1      43.145  27.549  28.550  1.00  0.00     0.049 A 
ATOM     43  N   UNL A   1      40.102  28.381  28.826  1.00  0.00    -0.248 NA
ATOM     44  C   UNL A   1      40.406  28.761  26.563  1.00  0.00     0.031 C 
ATOM     45  C   UNL A   1      43.548  26.880  29.793  1.00  0.00     0.029 A 
ATOM     46  N   UNL A   1      43.953  28.658  28.481  1.00  0.00    -0.354 N 
ATOM     47  C   UNL A   1      39.006  29.090  28.363  1.00  0.00     0.074 A 
ATOM     48  C   UNL A   1      39.235  29.294  26.949  1.00  0.00     0.031 C 
ATOM     49  C   UNL A   1      44.394  27.691  30.462  1.00  0.00     0.029 A 
ATOM     50  C   UNL A   1      44.690  28.865  29.644  1.00  0.00     0.049 A 
ATOM     51  H   UNL A   1      44.005  29.245  27.693  1.00  0.00     0.167 HD
ATOM     52  C   UNL A   1      37.976  29.476  29.164  1.00  0.00     0.034 A 
ATOM     53  C   UNL A   1      45.028  30.097  30.116  1.00  0.00     0.034 A 
ATOM     54  C   UNL A   1      38.127  29.155  30.553  1.00  0.00     0.049 A 
ATOM     55  C   UNL A   1      43.720  30.510  30.750  1.00  0.00     0.074 A 
ATOM     56  C   UNL A   1      37.717  28.168  31.421  1.00  0.00     0.029 A 
ATOM     57  N   UNL A   1      38.917  29.981  31.319  1.00  0.00    -0.354 N 
ATOM     58  N   UNL A   1      43.241  30.075  31.886  1.00  0.00    -0.248 NA
ATOM     59  C   UNL A   1      42.729  31.144  29.879  1.00  0.00     0.031 C 
ATOM     60  C   UNL A   1      38.662  28.197  32.497  1.00  0.00     0.029 A 
ATOM     61  C   UNL A   1      39.606  29.175  32.187  1.00  0.00     0.049 A 
ATOM     62  H   UNL A   1      38.975  30.962  31.256  1.00  0.00     0.167 HD
ATOM     63  C   UNL A   1      41.852  30.119  31.749  1.00  0.00     0.074 A 
ATOM     64  C   UNL A   1      41.605  30.818  30.502  1.00  0.00     0.031 C 
ATOM     65  C   UNL A   1      40.986  29.422  32.545  1.00  0.00     0.034 A 
BRANCH  52  66
ATOM     66  C   UNL A   1      36.836  30.321  28.749  1.00  0.00     0.023 A 
ATOM     67  C   UNL A   1      36.624  31.515  29.452  1.00  0.00     0.031 A 
ATOM     68  C   UNL A   1      35.840  29.881  27.868  1.00  0.00     0.131 A 
ATOM     69  C   UNL A   1      35.421  32.213  29.314  1.00  0.00     0.055 A 
ATOM     70  C   UNL A   1      34.646  30.594  27.714  1.00  0.00     0.041 A 
ATOM     71  F   UNL A   1      35.986  28.731  27.192  1.00  0.00    -0.206 F 
ATOM     72  C   UNL A   1      34.423  31.758  28.452  1.00  0.00     0.022 A 
BRANCH  69  73
ATOM     73  S   UNL A   1      35.164  33.670  30.359  1.00  0.00     0.124 S 
ATOM     74  O   UNL A   1      34.193  33.177  31.330  1.00  0.00    -0.237 OA
ATOM     75  O   UNL A   1      36.512  33.910  30.865  1.00  0.00    -0.237 OA
ATOM     76  O   UNL A   1      34.660  34.672  29.423  1.00  0.00    -0.744 OA
ENDBRANCH  69  73
ENDBRANCH  52  66
BRANCH  53  77
ATOM     77  C   UNL A   1      45.800  30.964  29.165  1.00  0.00     0.023 A 
ATOM     78  C   UNL A   1      45.087  31.570  28.108  1.00  0.00     0.031 A 
ATOM     79  C   UNL A   1      47.173  31.246  29.234  1.00  0.00     0.131 A 
ATOM     80  C   UNL A   1      45.692  32.519  27.272  1.00  0.00     0.055 A 
ATOM     81  C   UNL A   1      47.776  32.206  28.409  1.00  0.00     0.041 A 
ATOM     82  F   UNL A   1      47.968  30.628  30.118  1.00  0.00    -0.206 F 
ATOM     83  C   UNL A   1      47.029  32.867  27.439  1.00  0.00     0.022 A 
BRANCH  80  84
ATOM     84  S   UNL A   1      44.669  33.361  26.033  1.00  0.00     0.124 S 
ATOM     85  O   UNL A   1      43.895  34.286  26.854  1.00  0.00    -0.237 OA
ATOM     86  O   UNL A   1      45.671  33.966  25.160  1.00  0.00    -0.237 OA
ATOM     87  O   UNL A   1      43.906  32.272  25.428  1.00  0.00    -0.744 OA
ENDBRANCH  80  84
ENDBRANCH  53  77
BRANCH  65  88
ATOM     88  C   UNL A   1      41.589  28.700  33.706  1.00  0.00     0.023 A 
ATOM     89  C   UNL A   1      42.405  27.580  33.492  1.00  0.00     0.031 A 
ATOM     90  C   UNL A   1      41.409  29.149  35.027  1.00  0.00     0.131 A 
ATOM     91  C   UNL A   1      43.039  26.959  34.575  1.00  0.00     0.055 A 
ATOM     92  C   UNL A   1      42.066  28.547  36.101  1.00  0.00     0.041 A 
ATOM     93  F   UNL A   1      40.610  30.194  35.303  1.00  0.00    -0.206 F 
ATOM     94  C   UNL A   1      42.893  27.450  35.876  1.00  0.00     0.022 A 
BRANCH  91  95
ATOM     95  S   UNL A   1      44.102  25.525  34.265  1.00  0.00     0.124 S 
ATOM     96  O   UNL A   1      43.537  24.514  35.154  1.00  0.00    -0.237 OA
ATOM     97  O   UNL A   1      43.922  25.295  32.835  1.00  0.00    -0.237 OA
ATOM     98  O   UNL A   1      45.433  26.003  34.642  1.00  0.00    -0.744 OA
ENDBRANCH  91  95
ENDBRANCH  65  88
ENDBRANCH  39  40
ENDBRANCH  31  34
ENDBRANCH  29  30
ENDBRANCH  28  29
ENDBRANCH   1  28
TORSDOF 17
ENDMDL
MODEL 2
REMARK VINA RESULT:     -12.7      5.248      9.866
REMARK SMILES Cc1ccc(-c2nn(CCC(=O)NCCCCNC(=O)c3ccc(-c4c5nc(c(-c6cc(S(=O)(=O)[O-])ccc6F)c6ccc([nH]6)c(-c6cc(S(=O)(=O)[O-])ccc6F)c6nc(c(-c7cc(S(=O)(=O)[O-])ccc7F)c7ccc4[nH]7)C=C6)C=C5)cc3)c(=O)c3noc(C)c23)cc1C
REMARK SMILES IDX 15 1 14 2 13 3 11 4 12 5 10 7 9 8 8 9 6 10 7 11 91 12 86 13
REMARK SMILES IDX 89 14 84 15 87 16 88 17 90 18 85 19 5 20 1 21 2 22 3 23
REMARK SMILES IDX 93 24 4 25 92 26 94 27 16 28 17 29 18 30 19 31 20 33 21 34
REMARK SMILES IDX 22 35 83 36 23 37 82 38 24 39 25 40 26 41 76 42 27 43 81 44
REMARK SMILES IDX 75 45 77 46 28 47 80 48 74 49 73 50 29 52 61 53 41 54 60 55
REMARK SMILES IDX 42 56 45 57 59 58 78 59 43 60 44 61 58 63 79 64 46 65 30 66
REMARK SMILES IDX 31 67 39 68 32 69 38 70 40 71 37 72 33 73 34 74 35 75 36 76
REMARK SMILES IDX 62 77 63 78 71 79 64 80 70 81 72 82 69 83 65 84 66 85 67 86
REMARK SMILES IDX 68 87 47 88 48 89 56 90 49 91 55 92 57 93 54 94 50 95 51 96
REMARK SMILES IDX 52 97 53 98
REMARK H PARENT 13 6 18 32 77 51 45 62
REMARK Flexibility Score: inf
ROOT
ATOM      1  C   UNL A   1      37.785  31.567  29.448  1.00  0.00     0.023 C 
ENDROOT
BRANCH   1   2
ATOM      2  C   UNL A   1      38.272  30.432  28.551  1.00  0.00     0.116 C 
BRANCH   2   3
ATOM      3  N   UNL A   1      37.145  29.668  28.046  1.00  0.00    -0.356 N 
ATOM      4  C   UNL A   1      35.866  30.055  27.785  1.00  0.00     0.221 C 
ATOM      5  O   UNL A   1      35.035  29.190  27.501  1.00  0.00    -0.275 OA
ATOM      6  H   UNL A   1      37.337  28.719  27.862  1.00  0.00     0.163 HD
BRANCH   4   7
ATOM      7  C   UNL A   1      35.474  31.518  27.792  1.00  0.00     0.124 C 
BRANCH   7   8
ATOM      8  C   UNL A   1      34.085  31.756  28.380  1.00  0.00     0.158 C 
BRANCH   8   9
ATOM      9  N   UNL A   1      33.987  32.988  29.164  1.00  0.00    -0.227 N 
ATOM     10  C   UNL A   1      34.503  34.000  31.228  1.00  0.00     0.104 A 
ATOM     11  N   UNL A   1      34.594  32.960  30.444  1.00  0.00    -0.169 NA
ATOM     12  C   UNL A   1      33.701  35.119  30.832  1.00  0.00     0.078 A 
ATOM     13  C   UNL A   1      33.264  35.233  29.507  1.00  0.00     0.183 A 
ATOM     14  C   UNL A   1      33.159  36.202  31.478  1.00  0.00     0.143 A 
ATOM     15  C   UNL A   1      33.458  34.155  28.554  1.00  0.00     0.296 A 
ATOM     16  N   UNL A   1      32.573  36.360  29.306  1.00  0.00    -0.074 NA
ATOM     17  O   UNL A   1      32.497  36.965  30.556  1.00  0.00    -0.360 OA
ATOM     18  C   UNL A   1      33.088  36.672  32.877  1.00  0.00     0.091 C 
ATOM     19  O   UNL A   1      33.139  34.225  27.374  1.00  0.00    -0.265 OA
BRANCH  10  20
ATOM     20  C   UNL A   1      35.385  34.165  32.395  1.00  0.00     0.003 A 
ATOM     21  C   UNL A   1      37.840  33.823  35.913  1.00  0.00     0.044 C 
ATOM     22  C   UNL A   1      37.007  33.995  34.670  1.00  0.00    -0.048 A 
ATOM     23  C   UNL A   1      35.628  33.749  34.757  1.00  0.00     0.004 A 
ATOM     24  C   UNL A   1      37.571  34.366  33.428  1.00  0.00    -0.048 A 
ATOM     25  C   UNL A   1      34.822  33.831  33.629  1.00  0.00     0.011 A 
ATOM     26  C   UNL A   1      36.744  34.457  32.289  1.00  0.00     0.014 A 
ATOM     27  C   UNL A   1      39.048  34.601  33.247  1.00  0.00     0.044 C 
ENDBRANCH  10  20
ENDBRANCH   8   9
ENDBRANCH   7   8
ENDBRANCH   4   7
ENDBRANCH   2   3
ENDBRANCH   1   2
BRANCH   1  28
ATOM     28  C   UNL A   1      37.319  31.184  30.854  1.00  0.00     0.023 C 
BRANCH  28  29
ATOM     29  C   UNL A   1      38.431  30.825  31.847  1.00  0.00     0.116 C 
BRANCH  29  30
ATOM     30  N   UNL A   1      38.155  29.593  32.571  1.00  0.00    -0.352 N 
ATOM     31  C   UNL A   1      38.525  28.296  32.338  1.00  0.00     0.251 C 
ATOM     32  H   UNL A   1      37.601  29.715  33.375  1.00  0.00     0.163 HD
ATOM     33  O   UNL A   1      38.056  27.417  33.061  1.00  0.00    -0.269 OA
BRANCH  31  34
ATOM     34  C   UNL A   1      39.455  27.922  31.256  1.00  0.00     0.039 A 
ATOM     35  C   UNL A   1      40.765  28.412  31.330  1.00  0.00     0.014 A 
ATOM     36  C   UNL A   1      39.040  27.193  30.140  1.00  0.00     0.014 A 
ATOM     37  C   UNL A   1      41.674  28.122  30.317  1.00  0.00     0.010 A 
ATOM     38  C   UNL A   1      39.955  26.895  29.129  1.00  0.00     0.010 A 
ATOM     39  C   UNL A   1      41.280  27.336  29.226  1.00  0.00    -0.014 A 
BRANCH  39  40
ATOM     40  C   UNL A   1      42.338  26.899  28.296  1.00  0.00     0.031 A 
ATOM     41  C   UNL A   1      43.156  28.019  27.720  1.00  0.00     0.074 A 
ATOM     42  C   UNL A   1      42.918  25.688  28.427  1.00  0.00     0.049 A 
ATOM     43  N   UNL A   1      44.110  28.621  28.369  1.00  0.00    -0.248 NA
ATOM     44  C   UNL A   1      42.755  28.714  26.495  1.00  0.00     0.031 C 
ATOM     45  C   UNL A   1      43.261  25.083  29.720  1.00  0.00     0.029 A 
ATOM     46  N   UNL A   1      43.538  24.887  27.499  1.00  0.00    -0.354 N 
ATOM     47  C   UNL A   1      44.435  29.769  27.666  1.00  0.00     0.074 A 
ATOM     48  C   UNL A   1      43.559  29.789  26.515  1.00  0.00     0.031 C 
ATOM     49  C   UNL A   1      44.182  24.119  29.512  1.00  0.00     0.029 A 
ATOM     50  C   UNL A   1      44.395  23.953  28.076  1.00  0.00     0.049 A 
ATOM     51  H   UNL A   1      43.392  24.964  26.529  1.00  0.00     0.167 HD
ATOM     52  C   UNL A   1      45.406  30.635  28.063  1.00  0.00     0.034 A 
ATOM     53  C   UNL A   1      45.544  23.517  27.489  1.00  0.00     0.034 A 
ATOM     54  C   UNL A   1      46.130  30.247  29.237  1.00  0.00     0.049 A 
ATOM     55  C   UNL A   1      46.456  24.686  27.782  1.00  0.00     0.074 A 
ATOM     56  C   UNL A   1      46.100  30.514  30.588  1.00  0.00     0.029 A 
ATOM     57  N   UNL A   1      47.138  29.322  29.092  1.00  0.00    -0.354 N 
ATOM     58  N   UNL A   1      47.009  24.965  28.933  1.00  0.00    -0.248 NA
ATOM     59  C   UNL A   1      46.428  25.805  26.837  1.00  0.00     0.031 C 
ATOM     60  C   UNL A   1      46.742  29.394  31.207  1.00  0.00     0.029 A 
ATOM     61  C   UNL A   1      47.083  28.504  30.190  1.00  0.00     0.049 A 
ATOM     62  H   UNL A   1      47.775  29.260  28.344  1.00  0.00     0.167 HD
ATOM     63  C   UNL A   1      47.134  26.356  28.963  1.00  0.00     0.074 A 
ATOM     64  C   UNL A   1      46.787  26.807  27.628  1.00  0.00     0.031 C 
ATOM     65  C   UNL A   1      47.318  27.078  30.108  1.00  0.00     0.034 A 
BRANCH  52  66
ATOM     66  C   UNL A   1      45.866  31.817  27.301  1.00  0.00     0.023 A 
ATOM     67  C   UNL A   1      47.236  31.915  27.022  1.00  0.00     0.031 A 
ATOM     68  C   UNL A   1      45.055  32.933  27.061  1.00  0.00     0.131 A 
ATOM     69  C   UNL A   1      47.780  33.121  26.569  1.00  0.00     0.055 A 
ATOM     70  C   UNL A   1      45.599  34.132  26.585  1.00  0.00     0.041 A 
ATOM     71  F   UNL A   1      43.742  32.896  27.337  1.00  0.00    -0.206 F 
ATOM     72  C   UNL A   1      46.971  34.236  26.352  1.00  0.00     0.022 A 
BRANCH  69  73
ATOM     73  S   UNL A   1      49.577  33.212  26.363  1.00  0.00     0.124 S 
ATOM     74  O   UNL A   1      49.958  31.805  26.414  1.00  0.00    -0.237 OA
ATOM     75  O   UNL A   1      49.691  33.861  25.061  1.00  0.00    -0.237 OA
ATOM     76  O   UNL A   1      50.007  34.019  27.503  1.00  0.00    -0.744 OA
ENDBRANCH  69  73
ENDBRANCH  52  66
BRANCH  53  77
ATOM     77  C   UNL A   1      45.383  22.910  26.126  1.00  0.00     0.023 A 
ATOM     78  C   UNL A   1      45.660  21.532  25.988  1.00  0.00     0.031 A 
ATOM     79  C   UNL A   1      44.964  23.583  24.967  1.00  0.00     0.131 A 
ATOM     80  C   UNL A   1      45.382  20.851  24.794  1.00  0.00     0.055 A 
ATOM     81  C   UNL A   1      44.672  22.901  23.778  1.00  0.00     0.041 A 
ATOM     82  F   UNL A   1      44.797  24.912  24.955  1.00  0.00    -0.206 F 
ATOM     83  C   UNL A   1      44.855  21.523  23.695  1.00  0.00     0.022 A 
BRANCH  80  84
ATOM     84  S   UNL A   1      45.625  19.054  24.745  1.00  0.00     0.124 S 
ATOM     85  O   UNL A   1      45.836  18.814  23.321  1.00  0.00    -0.237 OA
ATOM     86  O   UNL A   1      46.792  18.873  25.604  1.00  0.00    -0.237 OA
ATOM     87  O   UNL A   1      44.376  18.529  25.291  1.00  0.00    -0.744 OA
ENDBRANCH  80  84
ENDBRANCH  53  77
BRANCH  65  88
ATOM     88  C   UNL A   1      47.541  26.292  31.359  1.00  0.00     0.023 A 
ATOM     89  C   UNL A   1      46.445  25.814  32.093  1.00  0.00     0.031 A 
ATOM     90  C   UNL A   1      48.833  25.962  31.803  1.00  0.00     0.131 A 
ATOM     91  C   UNL A   1      46.656  25.004  33.216  1.00  0.00     0.055 A 
ATOM     92  C   UNL A   1      49.040  25.129  32.904  1.00  0.00     0.041 A 
ATOM     93  F   UNL A   1      49.925  26.419  31.166  1.00  0.00    -0.206 F 
ATOM     94  C   UNL A   1      47.946  24.640  33.612  1.00  0.00     0.022 A 
BRANCH  91  95
ATOM     95  S   UNL A   1      45.221  24.385  34.133  1.00  0.00     0.124 S 
ATOM     96  O   UNL A   1      44.107  24.758  33.266  1.00  0.00    -0.237 OA
ATOM     97  O   UNL A   1      45.500  22.957  34.240  1.00  0.00    -0.237 OA
ATOM     98  O   UNL A   1      45.288  25.115  35.399  1.00  0.00    -0.744 OA
ENDBRANCH  91  95
ENDBRANCH  65  88
ENDBRANCH  39  40
ENDBRANCH  31  34
ENDBRANCH  29  30
ENDBRANCH  28  29
ENDBRANCH   1  28
TORSDOF 17
ENDMDL
MODEL 3
REMARK VINA RESULT:     -12.2      5.205      9.583
REMARK SMILES Cc1ccc(-c2nn(CCC(=O)NCCCCNC(=O)c3ccc(-c4c5nc(c(-c6cc(S(=O)(=O)[O-])ccc6F)c6ccc([nH]6)c(-c6cc(S(=O)(=O)[O-])ccc6F)c6nc(c(-c7cc(S(=O)(=O)[O-])ccc7F)c7ccc4[nH]7)C=C6)C=C5)cc3)c(=O)c3noc(C)c23)cc1C
REMARK SMILES IDX 15 1 14 2 13 3 11 4 12 5 10 7 9 8 8 9 6 10 7 11 91 12 86 13
REMARK SMILES IDX 89 14 84 15 87 16 88 17 90 18 85 19 5 20 1 21 2 22 3 23
REMARK SMILES IDX 93 24 4 25 92 26 94 27 16 28 17 29 18 30 19 31 20 33 21 34
REMARK SMILES IDX 22 35 83 36 23 37 82 38 24 39 25 40 26 41 76 42 27 43 81 44
REMARK SMILES IDX 75 45 77 46 28 47 80 48 74 49 73 50 29 52 61 53 41 54 60 55
REMARK SMILES IDX 42 56 45 57 59 58 78 59 43 60 44 61 58 63 79 64 46 65 30 66
REMARK SMILES IDX 31 67 39 68 32 69 38 70 40 71 37 72 33 73 34 74 35 75 36 76
REMARK SMILES IDX 62 77 63 78 71 79 64 80 70 81 72 82 69 83 65 84 66 85 67 86
REMARK SMILES IDX 68 87 47 88 48 89 56 90 49 91 55 92 57 93 54 94 50 95 51 96
REMARK SMILES IDX 52 97 53 98
REMARK H PARENT 13 6 18 32 77 51 45 62
REMARK Flexibility Score: inf
ROOT
ATOM      1  C   UNL A   1      37.824  31.752  29.669  1.00  0.00     0.023 C 
ENDROOT
BRANCH   1   2
ATOM      2  C   UNL A   1      38.280  30.754  28.609  1.00  0.00     0.116 C 
BRANCH   2   3
ATOM      3  N   UNL A   1      37.185  29.875  28.238  1.00  0.00    -0.356 N 
ATOM      4  C   UNL A   1      35.884  30.161  27.957  1.00  0.00     0.221 C 
ATOM      5  O   UNL A   1      35.093  29.226  27.812  1.00  0.00    -0.275 OA
ATOM      6  H   UNL A   1      37.421  28.920  28.181  1.00  0.00     0.163 HD
BRANCH   4   7
ATOM      7  C   UNL A   1      35.418  31.590  27.774  1.00  0.00     0.124 C 
BRANCH   7   8
ATOM      8  C   UNL A   1      34.029  31.840  28.355  1.00  0.00     0.158 C 
BRANCH   8   9
ATOM      9  N   UNL A   1      33.942  33.060  29.158  1.00  0.00    -0.227 N 
ATOM     10  C   UNL A   1      34.492  34.045  31.227  1.00  0.00     0.104 A 
ATOM     11  N   UNL A   1      34.572  33.016  30.427  1.00  0.00    -0.169 NA
ATOM     12  C   UNL A   1      33.682  35.167  30.860  1.00  0.00     0.078 A 
ATOM     13  C   UNL A   1      33.221  35.299  29.545  1.00  0.00     0.183 A 
ATOM     14  C   UNL A   1      33.150  36.240  31.531  1.00  0.00     0.143 A 
ATOM     15  C   UNL A   1      33.401  34.235  28.574  1.00  0.00     0.296 A 
ATOM     16  N   UNL A   1      32.526  36.428  29.371  1.00  0.00    -0.074 NA
ATOM     17  O   UNL A   1      32.470  37.014  30.631  1.00  0.00    -0.360 OA
ATOM     18  C   UNL A   1      33.102  36.691  32.937  1.00  0.00     0.091 C 
ATOM     19  O   UNL A   1      33.061  34.321  27.401  1.00  0.00    -0.265 OA
BRANCH  10  20
ATOM     20  C   UNL A   1      35.394  34.195  32.380  1.00  0.00     0.003 A 
ATOM     21  C   UNL A   1      37.904  33.809  35.855  1.00  0.00     0.044 C 
ATOM     22  C   UNL A   1      37.052  33.996  34.627  1.00  0.00    -0.048 A 
ATOM     23  C   UNL A   1      35.673  33.758  34.735  1.00  0.00     0.004 A 
ATOM     24  C   UNL A   1      37.598  34.374  33.379  1.00  0.00    -0.048 A 
ATOM     25  C   UNL A   1      34.849  33.854  33.621  1.00  0.00     0.011 A 
ATOM     26  C   UNL A   1      36.753  34.479  32.254  1.00  0.00     0.014 A 
ATOM     27  C   UNL A   1      39.073  34.601  33.176  1.00  0.00     0.044 C 
ENDBRANCH  10  20
ENDBRANCH   8   9
ENDBRANCH   7   8
ENDBRANCH   4   7
ENDBRANCH   2   3
ENDBRANCH   1   2
BRANCH   1  28
ATOM     28  C   UNL A   1      37.223  31.171  30.951  1.00  0.00     0.023 C 
BRANCH  28  29
ATOM     29  C   UNL A   1      38.228  30.816  32.054  1.00  0.00     0.116 C 
BRANCH  29  30
ATOM     30  N   UNL A   1      37.914  29.555  32.709  1.00  0.00    -0.352 N 
ATOM     31  C   UNL A   1      38.283  28.267  32.432  1.00  0.00     0.251 C 
ATOM     32  H   UNL A   1      37.329  29.645  33.496  1.00  0.00     0.163 HD
ATOM     33  O   UNL A   1      37.779  27.360  33.095  1.00  0.00    -0.269 OA
BRANCH  31  34
ATOM     34  C   UNL A   1      39.251  27.933  31.371  1.00  0.00     0.039 A 
ATOM     35  C   UNL A   1      40.571  28.371  31.539  1.00  0.00     0.014 A 
ATOM     36  C   UNL A   1      38.868  27.296  30.189  1.00  0.00     0.014 A 
ATOM     37  C   UNL A   1      41.519  28.118  30.551  1.00  0.00     0.010 A 
ATOM     38  C   UNL A   1      39.821  27.034  29.203  1.00  0.00     0.010 A 
ATOM     39  C   UNL A   1      41.153  27.420  29.392  1.00  0.00    -0.014 A 
BRANCH  39  40
ATOM     40  C   UNL A   1      42.241  27.009  28.484  1.00  0.00     0.031 A 
ATOM     41  C   UNL A   1      43.102  28.141  27.999  1.00  0.00     0.074 A 
ATOM     42  C   UNL A   1      42.793  25.782  28.577  1.00  0.00     0.049 A 
ATOM     43  N   UNL A   1      44.039  28.689  28.716  1.00  0.00    -0.248 NA
ATOM     44  C   UNL A   1      42.764  28.904  26.796  1.00  0.00     0.031 C 
ATOM     45  C   UNL A   1      43.072  25.106  29.850  1.00  0.00     0.029 A 
ATOM     46  N   UNL A   1      43.437  25.016  27.635  1.00  0.00    -0.354 N 
ATOM     47  C   UNL A   1      44.413  29.865  28.086  1.00  0.00     0.074 A 
ATOM     48  C   UNL A   1      43.586  29.961  26.903  1.00  0.00     0.031 C 
ATOM     49  C   UNL A   1      43.983  24.136  29.630  1.00  0.00     0.029 A 
ATOM     50  C   UNL A   1      44.251  24.038  28.197  1.00  0.00     0.049 A 
ATOM     51  H   UNL A   1      43.332  25.145  26.665  1.00  0.00     0.167 HD
ATOM     52  C   UNL A   1      45.382  30.691  28.565  1.00  0.00     0.034 A 
ATOM     53  C   UNL A   1      45.416  23.609  27.635  1.00  0.00     0.034 A 
ATOM     54  C   UNL A   1      46.051  30.230  29.746  1.00  0.00     0.049 A 
ATOM     55  C   UNL A   1      46.336  24.743  28.024  1.00  0.00     0.074 A 
ATOM     56  C   UNL A   1      45.970  30.429  31.107  1.00  0.00     0.029 A 
ATOM     57  N   UNL A   1      47.046  29.293  29.595  1.00  0.00    -0.354 N 
ATOM     58  N   UNL A   1      46.846  24.953  29.209  1.00  0.00    -0.248 NA
ATOM     59  C   UNL A   1      46.367  25.908  27.137  1.00  0.00     0.031 C 
ATOM     60  C   UNL A   1      46.566  29.266  31.694  1.00  0.00     0.029 A 
ATOM     61  C   UNL A   1      46.932  28.422  30.647  1.00  0.00     0.049 A 
ATOM     62  H   UNL A   1      47.713  29.256  28.871  1.00  0.00     0.167 HD
ATOM     63  C   UNL A   1      46.995  26.337  29.314  1.00  0.00     0.074 A 
ATOM     64  C   UNL A   1      46.711  26.862  27.992  1.00  0.00     0.031 C 
ATOM     65  C   UNL A   1      47.145  26.998  30.501  1.00  0.00     0.034 A 
BRANCH  52  66
ATOM     66  C   UNL A   1      45.894  31.900  27.884  1.00  0.00     0.023 A 
ATOM     67  C   UNL A   1      45.104  33.056  27.933  1.00  0.00     0.031 A 
ATOM     68  C   UNL A   1      46.989  31.878  27.011  1.00  0.00     0.131 A 
ATOM     69  C   UNL A   1      45.375  34.134  27.086  1.00  0.00     0.055 A 
ATOM     70  C   UNL A   1      47.273  32.968  26.180  1.00  0.00     0.041 A 
ATOM     71  F   UNL A   1      47.760  30.784  26.909  1.00  0.00    -0.206 F 
ATOM     72  C   UNL A   1      46.454  34.098  26.203  1.00  0.00     0.022 A 
BRANCH  69  73
ATOM     73  S   UNL A   1      44.228  35.535  27.108  1.00  0.00     0.124 S 
ATOM     74  O   UNL A   1      45.112  36.654  26.799  1.00  0.00    -0.237 OA
ATOM     75  O   UNL A   1      43.283  35.158  26.061  1.00  0.00    -0.237 OA
ATOM     76  O   UNL A   1      43.694  35.515  28.468  1.00  0.00    -0.744 OA
ENDBRANCH  69  73
ENDBRANCH  52  66
BRANCH  53  77
ATOM     77  C   UNL A   1      45.300  23.075  26.237  1.00  0.00     0.023 A 
ATOM     78  C   UNL A   1      45.657  21.725  26.023  1.00  0.00     0.031 A 
ATOM     79  C   UNL A   1      44.852  23.789  25.115  1.00  0.00     0.131 A 
ATOM     80  C   UNL A   1      45.428  21.100  24.789  1.00  0.00     0.055 A 
ATOM     81  C   UNL A   1      44.608  23.162  23.886  1.00  0.00     0.041 A 
ATOM     82  F   UNL A   1      44.607  25.104  25.179  1.00  0.00    -0.206 F 
ATOM     83  C   UNL A   1      44.872  21.804  23.725  1.00  0.00     0.022 A 
BRANCH  80  84
ATOM     84  S   UNL A   1      45.775  19.326  24.638  1.00  0.00     0.124 S 
ATOM     85  O   UNL A   1      45.572  19.096  23.211  1.00  0.00    -0.237 OA
ATOM     86  O   UNL A   1      47.155  19.237  25.110  1.00  0.00    -0.237 OA
ATOM     87  O   UNL A   1      44.786  18.712  25.519  1.00  0.00    -0.744 OA
ENDBRANCH  80  84
ENDBRANCH  53  77
BRANCH  65  88
ATOM     88  C   UNL A   1      47.301  26.145  31.719  1.00  0.00     0.023 A 
ATOM     89  C   UNL A   1      48.560  25.629  32.059  1.00  0.00     0.031 A 
ATOM     90  C   UNL A   1      46.221  25.886  32.581  1.00  0.00     0.131 A 
ATOM     91  C   UNL A   1      48.720  24.904  33.246  1.00  0.00     0.055 A 
ATOM     92  C   UNL A   1      46.389  25.190  33.779  1.00  0.00     0.041 A 
ATOM     93  F   UNL A   1      44.982  26.321  32.293  1.00  0.00    -0.206 F 
ATOM     94  C   UNL A   1      47.647  24.701  34.119  1.00  0.00     0.022 A 
BRANCH  91  95
ATOM     95  S   UNL A   1      50.362  24.265  33.669  1.00  0.00     0.124 S 
ATOM     96  O   UNL A   1      50.726  23.512  32.473  1.00  0.00    -0.237 OA
ATOM     97  O   UNL A   1      51.127  25.483  33.917  1.00  0.00    -0.237 OA
ATOM     98  O   UNL A   1      50.113  23.450  34.858  1.00  0.00    -0.744 OA
ENDBRANCH  91  95
ENDBRANCH  65  88
ENDBRANCH  39  40
ENDBRANCH  31  34
ENDBRANCH  29  30
ENDBRANCH  28  29
ENDBRANCH   1  28
TORSDOF 17
ENDMDL
