MODEL 1
REMARK VINA RESULT:     -11.4      0.000      0.000
REMARK SMILES CC(C)[C@@H](NC(=O)N[C@H]1CCS(=O)(=O)C1)C(=O)NCCCCNC(=O)c1ccc(-c2c3nc(c(-c4cc(S(=O)(=O)[O-])ccc4F)c4ccc([nH]4)c(-c4cc(S(=O)(=O)[O-])ccc4F)c4nc(c(-c5cc(S(=O)(=O)[O-])ccc5F)c5ccc2[nH]5)C=C4)C=C3)cc1
REMARK SMILES IDX 21 1 20 2 19 3 18 4 16 5 17 6 4 8 2 9 1 10 3 11 5 12 6 13
REMARK SMILES IDX 7 15 8 16 9 18 10 19 15 20 11 21 12 22 13 23 14 24 22 25
REMARK SMILES IDX 23 26 24 27 25 29 26 30 27 31 88 32 28 33 87 34 29 35 30 36
REMARK SMILES IDX 31 37 81 38 32 39 86 40 80 41 82 42 33 43 85 44 79 45 78 46
REMARK SMILES IDX 34 48 66 49 46 50 65 51 47 52 50 53 64 54 83 55 48 56 49 57
REMARK SMILES IDX 63 59 84 60 51 61 35 62 36 63 44 64 37 65 43 66 45 67 42 68
REMARK SMILES IDX 38 69 39 70 40 71 41 72 67 73 68 74 76 75 69 76 75 77 77 78
REMARK SMILES IDX 74 79 70 80 71 81 72 82 73 83 52 84 53 85 61 86 54 87 60 88
REMARK SMILES IDX 62 89 59 90 55 91 56 92 57 93 58 94
REMARK H PARENT 18 7 5 14 8 17 23 28 82 47 50 58
REMARK Flexibility Score: inf
ROOT
ATOM      1  C   UNL A   1      37.654  20.060  25.048  1.00  0.00     0.023 C 
ENDROOT
BRANCH   1   2
ATOM      2  C   UNL A   1      36.536  21.094  24.824  1.00  0.00     0.023 C 
BRANCH   2   3
ATOM      3  C   UNL A   1      35.464  21.086  25.911  1.00  0.00     0.116 C 
BRANCH   3   4
ATOM      4  N   UNL A   1      34.296  20.466  25.333  1.00  0.00    -0.354 N 
ATOM      5  C   UNL A   1      32.980  20.793  25.247  1.00  0.00     0.242 C 
ATOM      6  O   UNL A   1      32.104  19.934  25.201  1.00  0.00    -0.273 OA
ATOM      7  H   UNL A   1      34.501  19.606  24.900  1.00  0.00     0.163 HD
BRANCH   5   8
ATOM      8  C   UNL A   1      32.564  22.225  25.163  1.00  0.00     0.175 C 
BRANCH   8   9
ATOM      9  C   UNL A   1      32.314  22.491  23.643  1.00  0.00     0.015 C 
ATOM     10  C   UNL A   1      31.189  23.461  23.306  1.00  0.00     0.010 C 
ATOM     11  C   UNL A   1      33.615  23.035  22.995  1.00  0.00     0.010 C 
ENDBRANCH   8   9
BRANCH   8  12
ATOM     12  N   UNL A   1      31.488  22.266  26.150  1.00  0.00    -0.326 N 
ATOM     13  C   UNL A   1      30.914  23.279  26.832  1.00  0.00     0.315 C 
ATOM     14  H   UNL A   1      31.106  21.382  26.359  1.00  0.00     0.166 HD
ATOM     15  O   UNL A   1      29.967  22.954  27.561  1.00  0.00    -0.249 OA
ATOM     16  N   UNL A   1      31.264  24.579  26.914  1.00  0.00    -0.334 N 
ATOM     17  H   UNL A   1      30.906  24.889  27.777  1.00  0.00     0.165 HD
BRANCH  16  18
ATOM     18  C   UNL A   1      31.953  25.797  26.305  1.00  0.00     0.099 C 
ATOM     19  C   UNL A   1      33.389  25.865  25.670  1.00  0.00     0.042 C 
ATOM     20  C   UNL A   1      31.015  26.798  25.649  1.00  0.00     0.161 C 
ATOM     21  C   UNL A   1      33.396  26.744  24.414  1.00  0.00     0.139 C 
ATOM     22  S   UNL A   1      31.996  27.811  24.563  1.00  0.00     0.152 S 
ATOM     23  O   UNL A   1      32.428  28.984  25.307  1.00  0.00    -0.229 OA
ATOM     24  O   UNL A   1      31.318  27.924  23.294  1.00  0.00    -0.229 OA
ENDBRANCH  16  18
ENDBRANCH   8  12
ENDBRANCH   5   8
ENDBRANCH   3   4
ENDBRANCH   2   3
ENDBRANCH   1   2
BRANCH   1  25
ATOM     25  C   UNL A   1      38.929  20.630  25.667  1.00  0.00     0.116 C 
BRANCH  25  26
ATOM     26  N   UNL A   1      39.902  19.582  25.922  1.00  0.00    -0.352 N 
ATOM     27  C   UNL A   1      41.255  19.684  26.121  1.00  0.00     0.251 C 
ATOM     28  H   UNL A   1      39.538  18.668  25.956  1.00  0.00     0.163 HD
ATOM     29  O   UNL A   1      41.963  18.690  25.995  1.00  0.00    -0.269 OA
BRANCH  27  30
ATOM     30  C   UNL A   1      41.851  20.991  26.473  1.00  0.00     0.039 A 
ATOM     31  C   UNL A   1      42.109  21.916  25.460  1.00  0.00     0.014 A 
ATOM     32  C   UNL A   1      42.168  21.294  27.801  1.00  0.00     0.014 A 
ATOM     33  C   UNL A   1      42.615  23.176  25.788  1.00  0.00     0.010 A 
ATOM     34  C   UNL A   1      42.610  22.572  28.133  1.00  0.00     0.010 A 
ATOM     35  C   UNL A   1      42.827  23.530  27.131  1.00  0.00    -0.014 A 
BRANCH  35  36
ATOM     36  C   UNL A   1      43.234  24.908  27.513  1.00  0.00     0.031 A 
ATOM     37  C   UNL A   1      42.233  25.859  28.107  1.00  0.00     0.074 A 
ATOM     38  C   UNL A   1      44.489  25.323  27.251  1.00  0.00     0.049 A 
ATOM     39  N   UNL A   1      42.371  27.128  28.399  1.00  0.00    -0.248 NA
ATOM     40  C   UNL A   1      40.898  25.315  28.387  1.00  0.00     0.031 C 
ATOM     41  C   UNL A   1      45.545  24.496  26.665  1.00  0.00     0.029 A 
ATOM     42  N   UNL A   1      45.087  26.545  27.432  1.00  0.00    -0.354 N 
ATOM     43  C   UNL A   1      41.139  27.537  28.897  1.00  0.00     0.074 A 
ATOM     44  C   UNL A   1      40.253  26.395  28.805  1.00  0.00     0.031 C 
ATOM     45  C   UNL A   1      46.666  25.225  26.559  1.00  0.00     0.029 A 
ATOM     46  C   UNL A   1      46.395  26.587  27.006  1.00  0.00     0.049 A 
ATOM     47  H   UNL A   1      44.625  27.318  27.828  1.00  0.00     0.167 HD
ATOM     48  C   UNL A   1      40.788  28.746  29.405  1.00  0.00     0.034 A 
ATOM     49  C   UNL A   1      47.270  27.611  26.957  1.00  0.00     0.034 A 
ATOM     50  C   UNL A   1      41.684  29.877  29.476  1.00  0.00     0.049 A 
ATOM     51  C   UNL A   1      46.827  28.972  27.432  1.00  0.00     0.074 A 
ATOM     52  C   UNL A   1      41.443  31.135  30.002  1.00  0.00     0.029 A 
ATOM     53  N   UNL A   1      42.985  29.896  28.990  1.00  0.00    -0.354 N 
ATOM     54  N   UNL A   1      45.670  29.335  27.936  1.00  0.00    -0.248 NA
ATOM     55  C   UNL A   1      47.807  30.061  27.329  1.00  0.00     0.031 C 
ATOM     56  C   UNL A   1      42.563  31.936  29.758  1.00  0.00     0.029 A 
ATOM     57  C   UNL A   1      43.540  31.156  29.161  1.00  0.00     0.049 A 
ATOM     58  H   UNL A   1      43.446  29.127  28.585  1.00  0.00     0.167 HD
ATOM     59  C   UNL A   1      45.796  30.689  28.237  1.00  0.00     0.074 A 
ATOM     60  C   UNL A   1      47.144  31.073  27.870  1.00  0.00     0.031 C 
ATOM     61  C   UNL A   1      44.881  31.535  28.775  1.00  0.00     0.034 A 
BRANCH  48  62
ATOM     62  C   UNL A   1      39.365  28.909  29.886  1.00  0.00     0.023 A 
ATOM     63  C   UNL A   1      38.346  29.362  29.030  1.00  0.00     0.031 A 
ATOM     64  C   UNL A   1      39.025  28.644  31.225  1.00  0.00     0.131 A 
ATOM     65  C   UNL A   1      37.067  29.625  29.539  1.00  0.00     0.055 A 
ATOM     66  C   UNL A   1      37.725  28.818  31.704  1.00  0.00     0.041 A 
ATOM     67  F   UNL A   1      39.956  28.228  32.099  1.00  0.00    -0.206 F 
ATOM     68  C   UNL A   1      36.740  29.330  30.863  1.00  0.00     0.022 A 
BRANCH  65  69
ATOM     69  S   UNL A   1      35.891  30.526  28.491  1.00  0.00     0.124 S 
ATOM     70  O   UNL A   1      35.275  31.436  29.454  1.00  0.00    -0.237 OA
ATOM     71  O   UNL A   1      36.764  31.144  27.498  1.00  0.00    -0.237 OA
ATOM     72  O   UNL A   1      35.010  29.477  27.984  1.00  0.00    -0.744 OA
ENDBRANCH  65  69
ENDBRANCH  48  62
BRANCH  49  73
ATOM     73  C   UNL A   1      48.646  27.402  26.420  1.00  0.00     0.023 A 
ATOM     74  C   UNL A   1      48.927  27.619  25.063  1.00  0.00     0.031 A 
ATOM     75  C   UNL A   1      49.690  26.949  27.246  1.00  0.00     0.131 A 
ATOM     76  C   UNL A   1      50.208  27.342  24.562  1.00  0.00     0.055 A 
ATOM     77  C   UNL A   1      50.978  26.731  26.754  1.00  0.00     0.041 A 
ATOM     78  F   UNL A   1      49.476  26.725  28.553  1.00  0.00    -0.206 F 
ATOM     79  C   UNL A   1      51.239  26.915  25.401  1.00  0.00     0.022 A 
BRANCH  76  80
ATOM     80  S   UNL A   1      50.482  27.464  22.773  1.00  0.00     0.124 S 
ATOM     81  O   UNL A   1      49.305  26.783  22.247  1.00  0.00    -0.237 OA
ATOM     82  O   UNL A   1      50.533  28.907  22.572  1.00  0.00    -0.237 OA
ATOM     83  O   UNL A   1      51.750  26.764  22.576  1.00  0.00    -0.744 OA
ENDBRANCH  76  80
ENDBRANCH  49  73
BRANCH  61  84
ATOM     84  C   UNL A   1      45.319  32.956  29.031  1.00  0.00     0.023 A 
ATOM     85  C   UNL A   1      45.169  33.965  28.063  1.00  0.00     0.031 A 
ATOM     86  C   UNL A   1      45.887  33.309  30.269  1.00  0.00     0.131 A 
ATOM     87  C   UNL A   1      45.617  35.266  28.333  1.00  0.00     0.055 A 
ATOM     88  C   UNL A   1      46.273  34.619  30.555  1.00  0.00     0.041 A 
ATOM     89  F   UNL A   1      46.061  32.386  31.229  1.00  0.00    -0.206 F 
ATOM     90  C   UNL A   1      46.149  35.605  29.581  1.00  0.00     0.022 A 
BRANCH  87  91
ATOM     91  S   UNL A   1      45.566  36.501  27.004  1.00  0.00     0.124 S 
ATOM     92  O   UNL A   1      46.368  37.582  27.567  1.00  0.00    -0.237 OA
ATOM     93  O   UNL A   1      46.163  35.780  25.885  1.00  0.00    -0.237 OA
ATOM     94  O   UNL A   1      44.141  36.793  26.863  1.00  0.00    -0.744 OA
ENDBRANCH  87  91
ENDBRANCH  61  84
ENDBRANCH  35  36
ENDBRANCH  27  30
ENDBRANCH  25  26
ENDBRANCH   1  25
TORSDOF 17
ENDMDL
MODEL 2
REMARK VINA RESULT:     -11.4      6.361     11.421
REMARK SMILES CC(C)[C@@H](NC(=O)N[C@H]1CCS(=O)(=O)C1)C(=O)NCCCCNC(=O)c1ccc(-c2c3nc(c(-c4cc(S(=O)(=O)[O-])ccc4F)c4ccc([nH]4)c(-c4cc(S(=O)(=O)[O-])ccc4F)c4nc(c(-c5cc(S(=O)(=O)[O-])ccc5F)c5ccc2[nH]5)C=C4)C=C3)cc1
REMARK SMILES IDX 21 1 20 2 19 3 18 4 16 5 17 6 4 8 2 9 1 10 3 11 5 12 6 13
REMARK SMILES IDX 7 15 8 16 9 18 10 19 15 20 11 21 12 22 13 23 14 24 22 25
REMARK SMILES IDX 23 26 24 27 25 29 26 30 27 31 88 32 28 33 87 34 29 35 30 36
REMARK SMILES IDX 31 37 81 38 32 39 86 40 80 41 82 42 33 43 85 44 79 45 78 46
REMARK SMILES IDX 34 48 66 49 46 50 65 51 47 52 50 53 64 54 83 55 48 56 49 57
REMARK SMILES IDX 63 59 84 60 51 61 35 62 36 63 44 64 37 65 43 66 45 67 42 68
REMARK SMILES IDX 38 69 39 70 40 71 41 72 67 73 68 74 76 75 69 76 75 77 77 78
REMARK SMILES IDX 74 79 70 80 71 81 72 82 73 83 52 84 53 85 61 86 54 87 60 88
REMARK SMILES IDX 62 89 59 90 55 91 56 92 57 93 58 94
REMARK H PARENT 18 7 5 14 8 17 23 28 82 47 50 58
REMARK Flexibility Score: inf
ROOT
ATOM      1  C   UNL A   1      31.756  31.730  26.547  1.00  0.00     0.023 C 
ENDROOT
BRANCH   1   2
ATOM      2  C   UNL A   1      31.759  30.190  26.540  1.00  0.00     0.023 C 
BRANCH   2   3
ATOM      3  C   UNL A   1      33.070  29.580  26.050  1.00  0.00     0.116 C 
BRANCH   3   4
ATOM      4  N   UNL A   1      33.068  29.701  24.612  1.00  0.00    -0.354 N 
ATOM      5  C   UNL A   1      33.102  28.821  23.576  1.00  0.00     0.242 C 
ATOM      6  O   UNL A   1      33.616  29.114  22.500  1.00  0.00    -0.273 OA
ATOM      7  H   UNL A   1      33.033  30.638  24.312  1.00  0.00     0.163 HD
BRANCH   5   8
ATOM      8  C   UNL A   1      32.471  27.475  23.710  1.00  0.00     0.175 C 
BRANCH   8   9
ATOM      9  C   UNL A   1      31.004  27.753  24.171  1.00  0.00     0.015 C 
ATOM     10  C   UNL A   1      30.042  28.240  23.095  1.00  0.00     0.010 C 
ATOM     11  C   UNL A   1      30.405  26.462  24.789  1.00  0.00     0.010 C 
ENDBRANCH   8   9
BRANCH   8  12
ATOM     12  N   UNL A   1      32.783  26.885  22.410  1.00  0.00    -0.326 N 
ATOM     13  C   UNL A   1      33.144  25.640  22.036  1.00  0.00     0.315 C 
ATOM     14  H   UNL A   1      32.715  27.519  21.659  1.00  0.00     0.166 HD
ATOM     15  O   UNL A   1      33.276  25.473  20.816  1.00  0.00    -0.249 OA
ATOM     16  N   UNL A   1      33.473  24.569  22.787  1.00  0.00    -0.334 N 
ATOM     17  H   UNL A   1      34.056  24.020  22.214  1.00  0.00     0.165 HD
BRANCH  16  18
ATOM     18  C   UNL A   1      33.372  23.804  24.104  1.00  0.00     0.099 C 
ATOM     19  C   UNL A   1      33.441  24.393  25.559  1.00  0.00     0.042 C 
ATOM     20  C   UNL A   1      32.492  22.565  24.054  1.00  0.00     0.161 C 
ATOM     21  C   UNL A   1      32.425  23.708  26.480  1.00  0.00     0.139 C 
ATOM     22  S   UNL A   1      32.069  22.148  25.733  1.00  0.00     0.152 S 
ATOM     23  O   UNL A   1      33.057  21.201  26.226  1.00  0.00    -0.229 OA
ATOM     24  O   UNL A   1      30.655  21.873  25.801  1.00  0.00    -0.229 OA
ENDBRANCH  16  18
ENDBRANCH   8  12
ENDBRANCH   5   8
ENDBRANCH   3   4
ENDBRANCH   2   3
ENDBRANCH   1   2
BRANCH   1  25
ATOM     25  C   UNL A   1      32.934  32.361  27.285  1.00  0.00     0.116 C 
BRANCH  25  26
ATOM     26  N   UNL A   1      32.698  33.771  27.542  1.00  0.00    -0.352 N 
ATOM     27  C   UNL A   1      33.170  34.559  28.560  1.00  0.00     0.251 C 
ATOM     28  H   UNL A   1      32.115  34.226  26.892  1.00  0.00     0.163 HD
ATOM     29  O   UNL A   1      32.616  35.625  28.808  1.00  0.00    -0.269 OA
BRANCH  27  30
ATOM     30  C   UNL A   1      34.332  34.113  29.359  1.00  0.00     0.039 A 
ATOM     31  C   UNL A   1      34.131  33.209  30.405  1.00  0.00     0.014 A 
ATOM     32  C   UNL A   1      35.613  34.599  29.084  1.00  0.00     0.014 A 
ATOM     33  C   UNL A   1      35.229  32.734  31.126  1.00  0.00     0.010 A 
ATOM     34  C   UNL A   1      36.712  34.075  29.759  1.00  0.00     0.010 A 
ATOM     35  C   UNL A   1      36.532  33.129  30.780  1.00  0.00    -0.014 A 
BRANCH  35  36
ATOM     36  C   UNL A   1      37.723  32.533  31.442  1.00  0.00     0.031 A 
ATOM     37  C   UNL A   1      38.446  31.377  30.810  1.00  0.00     0.074 A 
ATOM     38  C   UNL A   1      38.103  32.989  32.652  1.00  0.00     0.049 A 
ATOM     39  N   UNL A   1      39.429  30.657  31.287  1.00  0.00    -0.248 NA
ATOM     40  C   UNL A   1      37.985  30.965  29.478  1.00  0.00     0.031 C 
ATOM     41  C   UNL A   1      37.473  34.097  33.372  1.00  0.00     0.029 A 
ATOM     42  N   UNL A   1      39.102  32.572  33.496  1.00  0.00    -0.354 N 
ATOM     43  C   UNL A   1      39.707  29.703  30.313  1.00  0.00     0.074 A 
ATOM     44  C   UNL A   1      38.742  29.901  29.251  1.00  0.00     0.031 C 
ATOM     45  C   UNL A   1      38.114  34.287  34.535  1.00  0.00     0.029 A 
ATOM     46  C   UNL A   1      39.158  33.277  34.675  1.00  0.00     0.049 A 
ATOM     47  H   UNL A   1      39.719  31.837  33.278  1.00  0.00     0.167 HD
ATOM     48  C   UNL A   1      40.688  28.766  30.298  1.00  0.00     0.034 A 
ATOM     49  C   UNL A   1      39.943  33.115  35.759  1.00  0.00     0.034 A 
ATOM     50  C   UNL A   1      41.633  28.576  31.374  1.00  0.00     0.049 A 
ATOM     51  C   UNL A   1      40.961  32.002  35.763  1.00  0.00     0.074 A 
ATOM     52  C   UNL A   1      42.687  27.682  31.447  1.00  0.00     0.029 A 
ATOM     53  N   UNL A   1      41.628  29.278  32.573  1.00  0.00    -0.354 N 
ATOM     54  N   UNL A   1      41.237  31.132  34.820  1.00  0.00    -0.248 NA
ATOM     55  C   UNL A   1      41.770  31.848  36.979  1.00  0.00     0.031 C 
ATOM     56  C   UNL A   1      43.262  27.783  32.718  1.00  0.00     0.029 A 
ATOM     57  C   UNL A   1      42.628  28.803  33.409  1.00  0.00     0.049 A 
ATOM     58  H   UNL A   1      41.005  30.006  32.797  1.00  0.00     0.167 HD
ATOM     59  C   UNL A   1      42.273  30.347  35.319  1.00  0.00     0.074 A 
ATOM     60  C   UNL A   1      42.579  30.855  36.640  1.00  0.00     0.031 C 
ATOM     61  C   UNL A   1      42.916  29.305  34.733  1.00  0.00     0.034 A 
BRANCH  48  62
ATOM     62  C   UNL A   1      40.759  27.856  29.093  1.00  0.00     0.023 A 
ATOM     63  C   UNL A   1      41.696  28.068  28.066  1.00  0.00     0.031 A 
ATOM     64  C   UNL A   1      39.859  26.786  28.949  1.00  0.00     0.131 A 
ATOM     65  C   UNL A   1      41.651  27.286  26.903  1.00  0.00     0.055 A 
ATOM     66  C   UNL A   1      39.882  25.950  27.830  1.00  0.00     0.041 A 
ATOM     67  F   UNL A   1      38.928  26.542  29.884  1.00  0.00    -0.206 F 
ATOM     68  C   UNL A   1      40.769  26.210  26.789  1.00  0.00     0.022 A 
BRANCH  65  69
ATOM     69  S   UNL A   1      42.637  27.810  25.474  1.00  0.00     0.124 S 
ATOM     70  O   UNL A   1      42.578  26.624  24.624  1.00  0.00    -0.237 OA
ATOM     71  O   UNL A   1      41.902  28.976  24.995  1.00  0.00    -0.237 OA
ATOM     72  O   UNL A   1      43.951  28.092  26.048  1.00  0.00    -0.744 OA
ENDBRANCH  65  69
ENDBRANCH  48  62
BRANCH  49  73
ATOM     73  C   UNL A   1      39.790  34.011  36.942  1.00  0.00     0.023 A 
ATOM     74  C   UNL A   1      39.194  33.545  38.122  1.00  0.00     0.031 A 
ATOM     75  C   UNL A   1      40.203  35.355  36.898  1.00  0.00     0.131 A 
ATOM     76  C   UNL A   1      38.988  34.424  39.197  1.00  0.00     0.055 A 
ATOM     77  C   UNL A   1      40.049  36.210  37.989  1.00  0.00     0.041 A 
ATOM     78  F   UNL A   1      40.779  35.854  35.791  1.00  0.00    -0.206 F 
ATOM     79  C   UNL A   1      39.426  35.749  39.144  1.00  0.00     0.022 A 
BRANCH  76  80
ATOM     80  S   UNL A   1      38.056  33.831  40.634  1.00  0.00     0.124 S 
ATOM     81  O   UNL A   1      37.670  35.083  41.275  1.00  0.00    -0.237 OA
ATOM     82  O   UNL A   1      36.980  33.073  40.005  1.00  0.00    -0.237 OA
ATOM     83  O   UNL A   1      39.035  33.029  41.366  1.00  0.00    -0.744 OA
ENDBRANCH  76  80
ENDBRANCH  49  73
BRANCH  61  84
ATOM     84  C   UNL A   1      44.042  28.664  35.508  1.00  0.00     0.023 A 
ATOM     85  C   UNL A   1      43.826  27.562  36.356  1.00  0.00     0.031 A 
ATOM     86  C   UNL A   1      45.353  29.157  35.387  1.00  0.00     0.131 A 
ATOM     87  C   UNL A   1      44.898  27.017  37.078  1.00  0.00     0.055 A 
ATOM     88  C   UNL A   1      46.426  28.570  36.060  1.00  0.00     0.041 A 
ATOM     89  F   UNL A   1      45.617  30.210  34.596  1.00  0.00    -0.206 F 
ATOM     90  C   UNL A   1      46.200  27.500  36.920  1.00  0.00     0.022 A 
BRANCH  87  91
ATOM     91  S   UNL A   1      44.557  25.711  38.291  1.00  0.00     0.124 S 
ATOM     92  O   UNL A   1      45.897  25.215  38.585  1.00  0.00    -0.237 OA
ATOM     93  O   UNL A   1      43.899  26.446  39.366  1.00  0.00    -0.237 OA
ATOM     94  O   UNL A   1      43.696  24.781  37.561  1.00  0.00    -0.744 OA
ENDBRANCH  87  91
ENDBRANCH  61  84
ENDBRANCH  35  36
ENDBRANCH  27  30
ENDBRANCH  25  26
ENDBRANCH   1  25
TORSDOF 17
ENDMDL
MODEL 3
REMARK VINA RESULT:     -11.3      5.908     11.072
REMARK SMILES CC(C)[C@@H](NC(=O)N[C@H]1CCS(=O)(=O)C1)C(=O)NCCCCNC(=O)c1ccc(-c2c3nc(c(-c4cc(S(=O)(=O)[O-])ccc4F)c4ccc([nH]4)c(-c4cc(S(=O)(=O)[O-])ccc4F)c4nc(c(-c5cc(S(=O)(=O)[O-])ccc5F)c5ccc2[nH]5)C=C4)C=C3)cc1
REMARK SMILES IDX 21 1 20 2 19 3 18 4 16 5 17 6 4 8 2 9 1 10 3 11 5 12 6 13
REMARK SMILES IDX 7 15 8 16 9 18 10 19 15 20 11 21 12 22 13 23 14 24 22 25
REMARK SMILES IDX 23 26 24 27 25 29 26 30 27 31 88 32 28 33 87 34 29 35 30 36
REMARK SMILES IDX 31 37 81 38 32 39 86 40 80 41 82 42 33 43 85 44 79 45 78 46
REMARK SMILES IDX 34 48 66 49 46 50 65 51 47 52 50 53 64 54 83 55 48 56 49 57
REMARK SMILES IDX 63 59 84 60 51 61 35 62 36 63 44 64 37 65 43 66 45 67 42 68
REMARK SMILES IDX 38 69 39 70 40 71 41 72 67 73 68 74 76 75 69 76 75 77 77 78
REMARK SMILES IDX 74 79 70 80 71 81 72 82 73 83 52 84 53 85 61 86 54 87 60 88
REMARK SMILES IDX 62 89 59 90 55 91 56 92 57 93 58 94
REMARK H PARENT 18 7 5 14 8 17 23 28 82 47 50 58
REMARK Flexibility Score: inf
ROOT
ATOM      1  C   UNL A   1      31.780  31.178  26.488  1.00  0.00     0.023 C 
ENDROOT
BRANCH   1   2
ATOM      2  C   UNL A   1      31.761  29.639  26.442  1.00  0.00     0.023 C 
BRANCH   2   3
ATOM      3  C   UNL A   1      33.066  29.022  25.945  1.00  0.00     0.116 C 
BRANCH   3   4
ATOM      4  N   UNL A   1      33.223  29.443  24.574  1.00  0.00    -0.354 N 
ATOM      5  C   UNL A   1      33.049  28.850  23.363  1.00  0.00     0.242 C 
ATOM      6  O   UNL A   1      33.719  29.173  22.385  1.00  0.00    -0.273 OA
ATOM      7  H   UNL A   1      33.527  30.376  24.498  1.00  0.00     0.163 HD
BRANCH   5   8
ATOM      8  C   UNL A   1      31.999  27.805  23.180  1.00  0.00     0.175 C 
BRANCH   8   9
ATOM      9  C   UNL A   1      30.639  28.573  23.259  1.00  0.00     0.015 C 
ATOM     10  C   UNL A   1      30.302  29.465  22.071  1.00  0.00     0.010 C 
ATOM     11  C   UNL A   1      29.481  27.554  23.426  1.00  0.00     0.010 C 
ENDBRANCH   8   9
BRANCH   8  12
ATOM     12  N   UNL A   1      32.457  27.152  21.956  1.00  0.00    -0.326 N 
ATOM     13  C   UNL A   1      32.754  25.869  21.664  1.00  0.00     0.315 C 
ATOM     14  H   UNL A   1      32.572  27.768  21.196  1.00  0.00     0.166 HD
ATOM     15  O   UNL A   1      33.064  25.655  20.484  1.00  0.00    -0.249 OA
ATOM     16  N   UNL A   1      32.855  24.794  22.472  1.00  0.00    -0.334 N 
ATOM     17  H   UNL A   1      33.467  24.178  22.009  1.00  0.00     0.165 HD
BRANCH  16  18
ATOM     18  C   UNL A   1      32.471  24.080  23.765  1.00  0.00     0.099 C 
ATOM     19  C   UNL A   1      33.384  23.808  25.015  1.00  0.00     0.042 C 
ATOM     20  C   UNL A   1      31.015  24.242  24.174  1.00  0.00     0.161 C 
ATOM     21  C   UNL A   1      32.608  24.014  26.321  1.00  0.00     0.139 C 
ATOM     22  S   UNL A   1      30.901  23.831  25.903  1.00  0.00     0.152 S 
ATOM     23  O   UNL A   1      30.582  22.416  26.011  1.00  0.00    -0.229 OA
ATOM     24  O   UNL A   1      30.114  24.841  26.569  1.00  0.00    -0.229 OA
ENDBRANCH  16  18
ENDBRANCH   8  12
ENDBRANCH   5   8
ENDBRANCH   3   4
ENDBRANCH   2   3
ENDBRANCH   1   2
BRANCH   1  25
ATOM     25  C   UNL A   1      33.013  31.776  27.163  1.00  0.00     0.116 C 
BRANCH  25  26
ATOM     26  N   UNL A   1      32.826  33.190  27.437  1.00  0.00    -0.352 N 
ATOM     27  C   UNL A   1      33.378  33.961  28.428  1.00  0.00     0.251 C 
ATOM     28  H   UNL A   1      32.218  33.662  26.825  1.00  0.00     0.163 HD
ATOM     29  O   UNL A   1      32.866  35.040  28.712  1.00  0.00    -0.269 OA
BRANCH  27  30
ATOM     30  C   UNL A   1      34.573  33.483  29.156  1.00  0.00     0.039 A 
ATOM     31  C   UNL A   1      34.411  32.597  30.222  1.00  0.00     0.014 A 
ATOM     32  C   UNL A   1      35.850  33.923  28.793  1.00  0.00     0.014 A 
ATOM     33  C   UNL A   1      35.537  32.091  30.877  1.00  0.00     0.010 A 
ATOM     34  C   UNL A   1      36.972  33.368  29.402  1.00  0.00     0.010 A 
ATOM     35  C   UNL A   1      36.827  32.438  30.443  1.00  0.00    -0.014 A 
BRANCH  35  36
ATOM     36  C   UNL A   1      38.038  31.808  31.033  1.00  0.00     0.031 A 
ATOM     37  C   UNL A   1      38.790  30.750  30.277  1.00  0.00     0.074 A 
ATOM     38  C   UNL A   1      38.410  32.139  32.285  1.00  0.00     0.049 A 
ATOM     39  N   UNL A   1      39.796  30.011  30.670  1.00  0.00    -0.248 NA
ATOM     40  C   UNL A   1      38.335  30.473  28.909  1.00  0.00     0.031 C 
ATOM     41  C   UNL A   1      37.752  33.143  33.123  1.00  0.00     0.029 A 
ATOM     42  N   UNL A   1      39.425  31.662  33.077  1.00  0.00    -0.354 N 
ATOM     43  C   UNL A   1      40.096  29.178  29.598  1.00  0.00     0.074 A 
ATOM     44  C   UNL A   1      39.121  29.463  28.565  1.00  0.00     0.031 C 
ATOM     45  C   UNL A   1      38.394  33.224  34.299  1.00  0.00     0.029 A 
ATOM     46  C   UNL A   1      39.467  32.235  34.326  1.00  0.00     0.049 A 
ATOM     47  H   UNL A   1      40.062  30.974  32.778  1.00  0.00     0.167 HD
ATOM     48  C   UNL A   1      41.104  28.277  29.478  1.00  0.00     0.034 A 
ATOM     49  C   UNL A   1      40.262  31.979  35.384  1.00  0.00     0.034 A 
ATOM     50  C   UNL A   1      42.059  27.998  30.525  1.00  0.00     0.049 A 
ATOM     51  C   UNL A   1      41.311  30.902  35.264  1.00  0.00     0.074 A 
ATOM     52  C   UNL A   1      43.139  27.132  30.498  1.00  0.00     0.029 A 
ATOM     53  N   UNL A   1      42.040  28.564  31.794  1.00  0.00    -0.354 N 
ATOM     54  N   UNL A   1      41.607  30.149  34.231  1.00  0.00    -0.248 NA
ATOM     55  C   UNL A   1      42.130  30.639  36.455  1.00  0.00     0.031 C 
ATOM     56  C   UNL A   1      43.717  27.110  31.771  1.00  0.00     0.029 A 
ATOM     57  C   UNL A   1      43.058  28.029  32.570  1.00  0.00     0.049 A 
ATOM     58  H   UNL A   1      41.397  29.245  32.097  1.00  0.00     0.167 HD
ATOM     59  C   UNL A   1      42.668  29.344  34.639  1.00  0.00     0.074 A 
ATOM     60  C   UNL A   1      42.966  29.713  36.008  1.00  0.00     0.031 C 
ATOM     61  C   UNL A   1      43.338  28.391  33.942  1.00  0.00     0.034 A 
BRANCH  48  62
ATOM     62  C   UNL A   1      41.196  27.507  28.181  1.00  0.00     0.023 A 
ATOM     63  C   UNL A   1      40.821  26.155  28.101  1.00  0.00     0.031 A 
ATOM     64  C   UNL A   1      41.696  28.118  27.017  1.00  0.00     0.131 A 
ATOM     65  C   UNL A   1      41.039  25.434  26.918  1.00  0.00     0.055 A 
ATOM     66  C   UNL A   1      41.822  27.419  25.814  1.00  0.00     0.041 A 
ATOM     67  F   UNL A   1      42.090  29.401  27.032  1.00  0.00    -0.206 F 
ATOM     68  C   UNL A   1      41.511  26.063  25.765  1.00  0.00     0.022 A 
BRANCH  65  69
ATOM     69  S   UNL A   1      40.867  23.629  26.964  1.00  0.00     0.124 S 
ATOM     70  O   UNL A   1      41.341  23.322  28.312  1.00  0.00    -0.237 OA
ATOM     71  O   UNL A   1      39.439  23.443  26.732  1.00  0.00    -0.237 OA
ATOM     72  O   UNL A   1      41.742  23.173  25.886  1.00  0.00    -0.744 OA
ENDBRANCH  65  69
ENDBRANCH  48  62
BRANCH  49  73
ATOM     73  C   UNL A   1      40.089  32.735  36.658  1.00  0.00     0.023 A 
ATOM     74  C   UNL A   1      39.139  32.332  37.608  1.00  0.00     0.031 A 
ATOM     75  C   UNL A   1      40.844  33.891  36.929  1.00  0.00     0.131 A 
ATOM     76  C   UNL A   1      38.936  33.102  38.765  1.00  0.00     0.055 A 
ATOM     77  C   UNL A   1      40.680  34.619  38.108  1.00  0.00     0.041 A 
ATOM     78  F   UNL A   1      41.767  34.321  36.053  1.00  0.00    -0.206 F 
ATOM     79  C   UNL A   1      39.712  34.232  39.028  1.00  0.00     0.022 A 
BRANCH  76  80
ATOM     80  S   UNL A   1      37.579  32.649  39.878  1.00  0.00     0.124 S 
ATOM     81  O   UNL A   1      36.509  32.347  38.934  1.00  0.00    -0.237 OA
ATOM     82  O   UNL A   1      38.143  31.511  40.595  1.00  0.00    -0.237 OA
ATOM     83  O   UNL A   1      37.382  33.854  40.681  1.00  0.00    -0.744 OA
ENDBRANCH  76  80
ENDBRANCH  49  73
BRANCH  61  84
ATOM     84  C   UNL A   1      44.485  27.702  34.640  1.00  0.00     0.023 A 
ATOM     85  C   UNL A   1      44.324  26.464  35.286  1.00  0.00     0.031 A 
ATOM     86  C   UNL A   1      45.763  28.290  34.647  1.00  0.00     0.131 A 
ATOM     87  C   UNL A   1      45.412  25.874  35.947  1.00  0.00     0.055 A 
ATOM     88  C   UNL A   1      46.856  27.668  35.252  1.00  0.00     0.041 A 
ATOM     89  F   UNL A   1      45.974  29.475  34.051  1.00  0.00    -0.206 F 
ATOM     90  C   UNL A   1      46.682  26.458  35.916  1.00  0.00     0.022 A 
BRANCH  87  91
ATOM     91  S   UNL A   1      45.131  24.366  36.915  1.00  0.00     0.124 S 
ATOM     92  O   UNL A   1      44.421  24.883  38.080  1.00  0.00    -0.237 OA
ATOM     93  O   UNL A   1      44.344  23.548  36.000  1.00  0.00    -0.237 OA
ATOM     94  O   UNL A   1      46.482  23.873  37.181  1.00  0.00    -0.744 OA
ENDBRANCH  87  91
ENDBRANCH  61  84
ENDBRANCH  35  36
ENDBRANCH  27  30
ENDBRANCH  25  26
ENDBRANCH   1  25
TORSDOF 17
ENDMDL
