MODEL 1
REMARK VINA RESULT:     -12.9      0.000      0.000
REMARK SMILES COc1ccc2c(c1)[C@@](NC=O)(C(=O)NCCCCNC(=O)c1ccc(-c3c4nc(c(-c5cc(S(=O)(=O)[O-])ccc5F)c5ccc([nH]5)c(-c5cc(S(=O)(=O)[O-])ccc5F)c5nc(c(-c6cc(S(=O)(=O)[O-])ccc6F)c6ccc3[nH]6)C=C5)C=C4)cc1)CCC2
REMARK SMILES IDX 18 1 17 2 16 3 15 4 13 5 14 6 9 8 3 9 4 10 8 11 5 12 7 13
REMARK SMILES IDX 6 14 88 15 86 16 87 17 2 18 1 19 10 20 11 21 12 23 19 24
REMARK SMILES IDX 20 25 21 26 22 28 23 29 24 30 85 31 25 32 84 33 26 34 27 35
REMARK SMILES IDX 28 36 78 37 29 38 83 39 77 40 79 41 30 42 82 43 76 44 75 45
REMARK SMILES IDX 31 47 63 48 43 49 62 50 44 51 47 52 61 53 80 54 45 55 46 56
REMARK SMILES IDX 60 58 81 59 48 60 32 61 33 62 41 63 34 64 40 65 42 66 39 67
REMARK SMILES IDX 35 68 36 69 37 70 38 71 64 72 65 73 73 74 66 75 72 76 74 77
REMARK SMILES IDX 71 78 67 79 68 80 69 81 70 82 49 83 50 84 58 85 51 86 57 87
REMARK SMILES IDX 59 88 56 89 52 90 53 91 54 92 55 93
REMARK H PARENT 15 7 10 22 20 27 79 46 47 57
REMARK Flexibility Score: inf
ROOT
ATOM      1  C   UNL A   1      31.748  31.747  26.895  1.00  0.00     0.023 C 
ENDROOT
BRANCH   1   2
ATOM      2  C   UNL A   1      31.992  30.252  26.739  1.00  0.00     0.023 C 
BRANCH   2   3
ATOM      3  C   UNL A   1      31.674  29.667  25.371  1.00  0.00     0.116 C 
BRANCH   3   4
ATOM      4  N   UNL A   1      32.825  29.491  24.505  1.00  0.00    -0.354 N 
ATOM      5  C   UNL A   1      32.943  28.776  23.343  1.00  0.00     0.250 C 
ATOM      6  O   UNL A   1      33.999  28.924  22.709  1.00  0.00    -0.272 OA
ATOM      7  H   UNL A   1      33.644  29.953  24.796  1.00  0.00     0.163 HD
BRANCH   5   8
ATOM      8  C   UNL A   1      31.887  27.697  22.875  1.00  0.00     0.144 C 
ATOM      9  C   UNL A   1      29.046  30.040  21.827  1.00  0.00     0.119 A 
ATOM     10  C   UNL A   1      27.976  29.510  22.545  1.00  0.00     0.047 A 
ATOM     11  C   UNL A   1      30.289  29.414  21.891  1.00  0.00     0.053 A 
ATOM     12  C   UNL A   1      28.124  28.333  23.276  1.00  0.00     0.008 A 
ATOM     13  C   UNL A   1      30.478  28.262  22.685  1.00  0.00    -0.006 A 
ATOM     14  C   UNL A   1      29.364  27.684  23.337  1.00  0.00    -0.042 A 
ATOM     15  C   UNL A   1      29.490  26.456  24.205  1.00  0.00     0.036 C 
ATOM     16  C   UNL A   1      31.962  26.583  23.949  1.00  0.00     0.044 C 
ATOM     17  C   UNL A   1      30.755  25.660  23.917  1.00  0.00     0.008 C 
BRANCH   9  18
ATOM     18  O   UNL A   1      28.778  31.201  21.159  1.00  0.00    -0.497 OA
ATOM     19  C   UNL A   1      28.596  32.361  21.962  1.00  0.00     0.278 C 
ENDBRANCH   9  18
BRANCH   8  20
ATOM     20  N   UNL A   1      32.419  27.187  21.593  1.00  0.00    -0.341 N 
ATOM     21  C   UNL A   1      32.522  25.902  21.167  1.00  0.00     0.338 C 
ATOM     22  H   UNL A   1      32.741  27.871  20.963  1.00  0.00     0.164 HD
ATOM     23  O   UNL A   1      33.020  25.597  20.090  1.00  0.00    -0.279 OA
ENDBRANCH   8  20
ENDBRANCH   5   8
ENDBRANCH   3   4
ENDBRANCH   2   3
ENDBRANCH   1   2
BRANCH   1  24
ATOM     24  C   UNL A   1      32.951  32.569  27.346  1.00  0.00     0.116 C 
BRANCH  24  25
ATOM     25  N   UNL A   1      32.624  33.954  27.651  1.00  0.00    -0.352 N 
ATOM     26  C   UNL A   1      33.157  34.793  28.605  1.00  0.00     0.251 C 
ATOM     27  H   UNL A   1      31.917  34.351  27.092  1.00  0.00     0.163 HD
ATOM     28  O   UNL A   1      32.649  35.895  28.797  1.00  0.00    -0.269 OA
BRANCH  26  29
ATOM     29  C   UNL A   1      34.310  34.349  29.423  1.00  0.00     0.039 A 
ATOM     30  C   UNL A   1      34.069  33.689  30.630  1.00  0.00     0.014 A 
ATOM     31  C   UNL A   1      35.622  34.556  28.990  1.00  0.00     0.014 A 
ATOM     32  C   UNL A   1      35.142  33.161  31.355  1.00  0.00     0.010 A 
ATOM     33  C   UNL A   1      36.678  33.947  29.662  1.00  0.00     0.010 A 
ATOM     34  C   UNL A   1      36.451  33.240  30.853  1.00  0.00    -0.014 A 
BRANCH  34  35
ATOM     35  C   UNL A   1      37.590  32.589  31.557  1.00  0.00     0.031 A 
ATOM     36  C   UNL A   1      38.317  31.435  30.917  1.00  0.00     0.074 A 
ATOM     37  C   UNL A   1      37.934  32.998  32.795  1.00  0.00     0.049 A 
ATOM     38  N   UNL A   1      39.292  30.703  31.393  1.00  0.00    -0.248 NA
ATOM     39  C   UNL A   1      37.864  31.032  29.577  1.00  0.00     0.031 C 
ATOM     40  C   UNL A   1      37.279  34.075  33.543  1.00  0.00     0.029 A 
ATOM     41  N   UNL A   1      38.918  32.560  33.647  1.00  0.00    -0.354 N 
ATOM     42  C   UNL A   1      39.563  29.751  30.417  1.00  0.00     0.074 A 
ATOM     43  C   UNL A   1      38.599  29.953  29.356  1.00  0.00     0.031 C 
ATOM     44  C   UNL A   1      37.899  34.235  34.722  1.00  0.00     0.029 A 
ATOM     45  C   UNL A   1      38.964  33.243  34.842  1.00  0.00     0.049 A 
ATOM     46  H   UNL A   1      39.534  31.825  33.425  1.00  0.00     0.167 HD
ATOM     47  C   UNL A   1      40.542  28.812  30.393  1.00  0.00     0.034 A 
ATOM     48  C   UNL A   1      39.763  33.083  35.916  1.00  0.00     0.034 A 
ATOM     49  C   UNL A   1      41.501  28.627  31.456  1.00  0.00     0.049 A 
ATOM     50  C   UNL A   1      40.824  32.011  35.880  1.00  0.00     0.074 A 
ATOM     51  C   UNL A   1      42.563  27.742  31.513  1.00  0.00     0.029 A 
ATOM     52  N   UNL A   1      41.510  29.333  32.652  1.00  0.00    -0.354 N 
ATOM     53  N   UNL A   1      41.102  31.154  34.924  1.00  0.00    -0.248 NA
ATOM     54  C   UNL A   1      41.686  31.894  37.063  1.00  0.00     0.031 C 
ATOM     55  C   UNL A   1      43.166  27.858  32.769  1.00  0.00     0.029 A 
ATOM     56  C   UNL A   1      42.538  28.878  33.466  1.00  0.00     0.049 A 
ATOM     57  H   UNL A   1      40.880  30.051  32.889  1.00  0.00     0.167 HD
ATOM     58  C   UNL A   1      42.194  30.420  35.380  1.00  0.00     0.074 A 
ATOM     59  C   UNL A   1      42.533  30.949  36.685  1.00  0.00     0.031 C 
ATOM     60  C   UNL A   1      42.862  29.405  34.772  1.00  0.00     0.034 A 
BRANCH  47  61
ATOM     61  C   UNL A   1      40.604  27.902  29.187  1.00  0.00     0.023 A 
ATOM     62  C   UNL A   1      41.543  28.100  28.159  1.00  0.00     0.031 A 
ATOM     63  C   UNL A   1      39.698  26.835  29.050  1.00  0.00     0.131 A 
ATOM     64  C   UNL A   1      41.502  27.302  27.007  1.00  0.00     0.055 A 
ATOM     65  C   UNL A   1      39.721  25.987  27.940  1.00  0.00     0.041 A 
ATOM     66  F   UNL A   1      38.764  26.606  29.986  1.00  0.00    -0.206 F 
ATOM     67  C   UNL A   1      40.616  26.228  26.903  1.00  0.00     0.022 A 
BRANCH  64  68
ATOM     68  S   UNL A   1      42.517  27.785  25.583  1.00  0.00     0.124 S 
ATOM     69  O   UNL A   1      43.812  28.029  26.215  1.00  0.00    -0.237 OA
ATOM     70  O   UNL A   1      42.437  26.608  24.726  1.00  0.00    -0.237 OA
ATOM     71  O   UNL A   1      41.846  28.978  25.072  1.00  0.00    -0.744 OA
ENDBRANCH  64  68
ENDBRANCH  47  61
BRANCH  48  72
ATOM     72  C   UNL A   1      39.596  33.948  37.122  1.00  0.00     0.023 A 
ATOM     73  C   UNL A   1      38.977  33.459  38.284  1.00  0.00     0.031 A 
ATOM     74  C   UNL A   1      40.008  35.293  37.114  1.00  0.00     0.131 A 
ATOM     75  C   UNL A   1      38.739  34.319  39.367  1.00  0.00     0.055 A 
ATOM     76  C   UNL A   1      39.823  36.129  38.216  1.00  0.00     0.041 A 
ATOM     77  F   UNL A   1      40.608  35.813  36.031  1.00  0.00    -0.206 F 
ATOM     78  C   UNL A   1      39.171  35.647  39.346  1.00  0.00     0.022 A 
BRANCH  75  79
ATOM     79  S   UNL A   1      37.763  33.704  40.768  1.00  0.00     0.124 S 
ATOM     80  O   UNL A   1      36.645  33.058  40.090  1.00  0.00    -0.237 OA
ATOM     81  O   UNL A   1      38.714  32.817  41.431  1.00  0.00    -0.237 OA
ATOM     82  O   UNL A   1      37.429  34.919  41.508  1.00  0.00    -0.744 OA
ENDBRANCH  75  79
ENDBRANCH  48  72
BRANCH  60  83
ATOM     83  C   UNL A   1      44.058  28.837  35.497  1.00  0.00     0.023 A 
ATOM     84  C   UNL A   1      43.944  27.751  36.383  1.00  0.00     0.031 A 
ATOM     85  C   UNL A   1      45.332  29.402  35.309  1.00  0.00     0.131 A 
ATOM     86  C   UNL A   1      45.069  27.308  37.096  1.00  0.00     0.055 A 
ATOM     87  C   UNL A   1      46.460  28.912  35.967  1.00  0.00     0.041 A 
ATOM     88  F   UNL A   1      45.502  30.443  34.478  1.00  0.00    -0.206 F 
ATOM     89  C   UNL A   1      46.330  27.870  36.879  1.00  0.00     0.022 A 
BRANCH  86  90
ATOM     90  S   UNL A   1      44.842  26.063  38.395  1.00  0.00     0.124 S 
ATOM     91  O   UNL A   1      43.747  26.631  39.174  1.00  0.00    -0.237 OA
ATOM     92  O   UNL A   1      44.521  24.865  37.625  1.00  0.00    -0.237 OA
ATOM     93  O   UNL A   1      46.137  26.034  39.073  1.00  0.00    -0.744 OA
ENDBRANCH  86  90
ENDBRANCH  60  83
ENDBRANCH  34  35
ENDBRANCH  26  29
ENDBRANCH  24  25
ENDBRANCH   1  24
TORSDOF 16
ENDMDL
MODEL 2
REMARK VINA RESULT:     -12.8      1.532      1.907
REMARK SMILES COc1ccc2c(c1)[C@@](NC=O)(C(=O)NCCCCNC(=O)c1ccc(-c3c4nc(c(-c5cc(S(=O)(=O)[O-])ccc5F)c5ccc([nH]5)c(-c5cc(S(=O)(=O)[O-])ccc5F)c5nc(c(-c6cc(S(=O)(=O)[O-])ccc6F)c6ccc3[nH]6)C=C5)C=C4)cc1)CCC2
REMARK SMILES IDX 18 1 17 2 16 3 15 4 13 5 14 6 9 8 3 9 4 10 8 11 5 12 7 13
REMARK SMILES IDX 6 14 88 15 86 16 87 17 2 18 1 19 10 20 11 21 12 23 19 24
REMARK SMILES IDX 20 25 21 26 22 28 23 29 24 30 85 31 25 32 84 33 26 34 27 35
REMARK SMILES IDX 28 36 78 37 29 38 83 39 77 40 79 41 30 42 82 43 76 44 75 45
REMARK SMILES IDX 31 47 63 48 43 49 62 50 44 51 47 52 61 53 80 54 45 55 46 56
REMARK SMILES IDX 60 58 81 59 48 60 32 61 33 62 41 63 34 64 40 65 42 66 39 67
REMARK SMILES IDX 35 68 36 69 37 70 38 71 64 72 65 73 73 74 66 75 72 76 74 77
REMARK SMILES IDX 71 78 67 79 68 80 69 81 70 82 49 83 50 84 58 85 51 86 57 87
REMARK SMILES IDX 59 88 56 89 52 90 53 91 54 92 55 93
REMARK H PARENT 15 7 10 22 20 27 79 46 47 57
REMARK Flexibility Score: inf
ROOT
ATOM      1  C   UNL A   1      31.046  31.874  26.566  1.00  0.00     0.023 C 
ENDROOT
BRANCH   1   2
ATOM      2  C   UNL A   1      30.918  30.987  25.335  1.00  0.00     0.023 C 
BRANCH   2   3
ATOM      3  C   UNL A   1      31.577  29.620  25.430  1.00  0.00     0.116 C 
BRANCH   3   4
ATOM      4  N   UNL A   1      32.703  29.426  24.534  1.00  0.00    -0.354 N 
ATOM      5  C   UNL A   1      32.771  28.736  23.353  1.00  0.00     0.250 C 
ATOM      6  O   UNL A   1      33.818  28.864  22.701  1.00  0.00    -0.272 OA
ATOM      7  H   UNL A   1      33.543  29.854  24.818  1.00  0.00     0.163 HD
BRANCH   5   8
ATOM      8  C   UNL A   1      31.670  27.704  22.884  1.00  0.00     0.144 C 
ATOM      9  C   UNL A   1      28.948  30.171  21.804  1.00  0.00     0.119 A 
ATOM     10  C   UNL A   1      27.849  29.695  22.517  1.00  0.00     0.047 A 
ATOM     11  C   UNL A   1      30.160  29.488  21.880  1.00  0.00     0.053 A 
ATOM     12  C   UNL A   1      27.938  28.516  23.255  1.00  0.00     0.008 A 
ATOM     13  C   UNL A   1      30.290  28.333  22.681  1.00  0.00    -0.006 A 
ATOM     14  C   UNL A   1      29.146  27.811  23.328  1.00  0.00    -0.042 A 
ATOM     15  C   UNL A   1      29.208  26.584  24.204  1.00  0.00     0.036 C 
ATOM     16  C   UNL A   1      31.686  26.595  23.964  1.00  0.00     0.044 C 
ATOM     17  C   UNL A   1      30.437  25.728  23.929  1.00  0.00     0.008 C 
BRANCH   9  18
ATOM     18  O   UNL A   1      28.739  31.339  21.127  1.00  0.00    -0.497 OA
ATOM     19  C   UNL A   1      28.533  32.499  21.925  1.00  0.00     0.278 C 
ENDBRANCH   9  18
BRANCH   8  20
ATOM     20  N   UNL A   1      32.186  27.163  21.608  1.00  0.00    -0.341 N 
ATOM     21  C   UNL A   1      32.672  25.923  21.347  1.00  0.00     0.338 C 
ATOM     22  H   UNL A   1      32.175  27.786  20.846  1.00  0.00     0.164 HD
ATOM     23  O   UNL A   1      33.111  25.599  20.250  1.00  0.00    -0.279 OA
ENDBRANCH   8  20
ENDBRANCH   5   8
ENDBRANCH   3   4
ENDBRANCH   2   3
ENDBRANCH   1   2
BRANCH   1  24
ATOM     24  C   UNL A   1      32.427  32.476  26.805  1.00  0.00     0.116 C 
BRANCH  24  25
ATOM     25  N   UNL A   1      32.385  33.807  27.393  1.00  0.00    -0.352 N 
ATOM     26  C   UNL A   1      33.200  34.371  28.350  1.00  0.00     0.251 C 
ATOM     27  H   UNL A   1      31.666  34.391  27.057  1.00  0.00     0.163 HD
ATOM     28  O   UNL A   1      32.916  35.471  28.817  1.00  0.00    -0.269 OA
BRANCH  26  29
ATOM     29  C   UNL A   1      34.387  33.634  28.840  1.00  0.00     0.039 A 
ATOM     30  C   UNL A   1      35.646  34.229  28.732  1.00  0.00     0.014 A 
ATOM     31  C   UNL A   1      34.260  32.373  29.429  1.00  0.00     0.014 A 
ATOM     32  C   UNL A   1      36.760  33.599  29.295  1.00  0.00     0.010 A 
ATOM     33  C   UNL A   1      35.351  31.795  30.072  1.00  0.00     0.010 A 
ATOM     34  C   UNL A   1      36.615  32.401  30.014  1.00  0.00    -0.014 A 
BRANCH  34  35
ATOM     35  C   UNL A   1      37.771  31.773  30.711  1.00  0.00     0.031 A 
ATOM     36  C   UNL A   1      38.595  30.721  30.015  1.00  0.00     0.074 A 
ATOM     37  C   UNL A   1      38.045  32.107  31.988  1.00  0.00     0.049 A 
ATOM     38  N   UNL A   1      39.601  30.020  30.472  1.00  0.00    -0.248 NA
ATOM     39  C   UNL A   1      38.216  30.394  28.633  1.00  0.00     0.031 C 
ATOM     40  C   UNL A   1      37.294  33.078  32.789  1.00  0.00     0.029 A 
ATOM     41  N   UNL A   1      39.027  31.669  32.843  1.00  0.00    -0.354 N 
ATOM     42  C   UNL A   1      39.968  29.165  29.439  1.00  0.00     0.074 A 
ATOM     43  C   UNL A   1      39.029  29.385  28.360  1.00  0.00     0.031 C 
ATOM     44  C   UNL A   1      37.862  33.187  34.000  1.00  0.00     0.029 A 
ATOM     45  C   UNL A   1      38.986  32.259  34.086  1.00  0.00     0.049 A 
ATOM     46  H   UNL A   1      39.698  30.995  32.590  1.00  0.00     0.167 HD
ATOM     47  C   UNL A   1      41.008  28.296  29.382  1.00  0.00     0.034 A 
ATOM     48  C   UNL A   1      39.758  32.069  35.175  1.00  0.00     0.034 A 
ATOM     49  C   UNL A   1      41.942  28.092  30.465  1.00  0.00     0.049 A 
ATOM     50  C   UNL A   1      40.890  31.074  35.101  1.00  0.00     0.074 A 
ATOM     51  C   UNL A   1      43.058  27.276  30.496  1.00  0.00     0.029 A 
ATOM     52  N   UNL A   1      41.863  28.703  31.710  1.00  0.00    -0.354 N 
ATOM     53  N   UNL A   1      41.256  30.313  34.095  1.00  0.00    -0.248 NA
ATOM     54  C   UNL A   1      41.717  30.922  36.304  1.00  0.00     0.031 C 
ATOM     55  C   UNL A   1      43.610  27.333  31.781  1.00  0.00     0.029 A 
ATOM     56  C   UNL A   1      42.892  28.254  32.527  1.00  0.00     0.049 A 
ATOM     57  H   UNL A   1      41.178  29.358  31.976  1.00  0.00     0.167 HD
ATOM     58  C   UNL A   1      42.380  29.618  34.536  1.00  0.00     0.074 A 
ATOM     59  C   UNL A   1      42.639  30.066  35.889  1.00  0.00     0.031 C 
ATOM     60  C   UNL A   1      43.134  28.698  33.880  1.00  0.00     0.034 A 
BRANCH  47  61
ATOM     61  C   UNL A   1      41.172  27.487  28.116  1.00  0.00     0.023 A 
ATOM     62  C   UNL A   1      40.849  26.120  28.065  1.00  0.00     0.031 A 
ATOM     63  C   UNL A   1      41.682  28.084  26.949  1.00  0.00     0.131 A 
ATOM     64  C   UNL A   1      41.115  25.378  26.905  1.00  0.00     0.055 A 
ATOM     65  C   UNL A   1      41.860  27.360  25.768  1.00  0.00     0.041 A 
ATOM     66  F   UNL A   1      42.030  29.380  26.939  1.00  0.00    -0.206 F 
ATOM     67  C   UNL A   1      41.591  25.995  25.745  1.00  0.00     0.022 A 
BRANCH  64  68
ATOM     68  S   UNL A   1      40.975  23.571  26.981  1.00  0.00     0.124 S 
ATOM     69  O   UNL A   1      41.827  23.164  25.865  1.00  0.00    -0.237 OA
ATOM     70  O   UNL A   1      41.483  23.272  28.314  1.00  0.00    -0.237 OA
ATOM     71  O   UNL A   1      39.547  23.329  26.787  1.00  0.00    -0.744 OA
ENDBRANCH  64  68
ENDBRANCH  47  61
BRANCH  48  72
ATOM     72  C   UNL A   1      39.493  32.825  36.435  1.00  0.00     0.023 A 
ATOM     73  C   UNL A   1      38.615  32.325  37.410  1.00  0.00     0.031 A 
ATOM     74  C   UNL A   1      40.075  34.086  36.662  1.00  0.00     0.131 A 
ATOM     75  C   UNL A   1      38.302  33.100  38.537  1.00  0.00     0.055 A 
ATOM     76  C   UNL A   1      39.808  34.827  37.814  1.00  0.00     0.041 A 
ATOM     77  F   UNL A   1      40.925  34.612  35.766  1.00  0.00    -0.206 F 
ATOM     78  C   UNL A   1      38.904  34.341  38.753  1.00  0.00     0.022 A 
BRANCH  75  79
ATOM     79  S   UNL A   1      37.016  32.507  39.671  1.00  0.00     0.124 S 
ATOM     80  O   UNL A   1      37.506  31.173  40.003  1.00  0.00    -0.237 OA
ATOM     81  O   UNL A   1      37.076  33.498  40.741  1.00  0.00    -0.237 OA
ATOM     82  O   UNL A   1      35.802  32.543  38.859  1.00  0.00    -0.744 OA
ENDBRANCH  75  79
ENDBRANCH  48  72
BRANCH  60  83
ATOM     83  C   UNL A   1      44.342  28.154  34.607  1.00  0.00     0.023 A 
ATOM     84  C   UNL A   1      44.274  26.992  35.395  1.00  0.00     0.031 A 
ATOM     85  C   UNL A   1      45.577  28.821  34.519  1.00  0.00     0.131 A 
ATOM     86  C   UNL A   1      45.401  26.569  36.116  1.00  0.00     0.055 A 
ATOM     87  C   UNL A   1      46.713  28.355  35.183  1.00  0.00     0.041 A 
ATOM     88  F   UNL A   1      45.702  29.937  33.785  1.00  0.00    -0.206 F 
ATOM     89  C   UNL A   1      46.625  27.233  36.000  1.00  0.00     0.022 A 
BRANCH  86  90
ATOM     90  S   UNL A   1      45.217  25.205  37.297  1.00  0.00     0.124 S 
ATOM     91  O   UNL A   1      44.666  24.147  36.457  1.00  0.00    -0.237 OA
ATOM     92  O   UNL A   1      46.588  25.004  37.757  1.00  0.00    -0.237 OA
ATOM     93  O   UNL A   1      44.300  25.741  38.302  1.00  0.00    -0.744 OA
ENDBRANCH  86  90
ENDBRANCH  60  83
ENDBRANCH  34  35
ENDBRANCH  26  29
ENDBRANCH  24  25
ENDBRANCH   1  24
TORSDOF 16
ENDMDL
MODEL 3
REMARK VINA RESULT:     -12.7      1.794      7.853
REMARK SMILES COc1ccc2c(c1)[C@@](NC=O)(C(=O)NCCCCNC(=O)c1ccc(-c3c4nc(c(-c5cc(S(=O)(=O)[O-])ccc5F)c5ccc([nH]5)c(-c5cc(S(=O)(=O)[O-])ccc5F)c5nc(c(-c6cc(S(=O)(=O)[O-])ccc6F)c6ccc3[nH]6)C=C5)C=C4)cc1)CCC2
REMARK SMILES IDX 18 1 17 2 16 3 15 4 13 5 14 6 9 8 3 9 4 10 8 11 5 12 7 13
REMARK SMILES IDX 6 14 88 15 86 16 87 17 2 18 1 19 10 20 11 21 12 23 19 24
REMARK SMILES IDX 20 25 21 26 22 28 23 29 24 30 85 31 25 32 84 33 26 34 27 35
REMARK SMILES IDX 28 36 78 37 29 38 83 39 77 40 79 41 30 42 82 43 76 44 75 45
REMARK SMILES IDX 31 47 63 48 43 49 62 50 44 51 47 52 61 53 80 54 45 55 46 56
REMARK SMILES IDX 60 58 81 59 48 60 32 61 33 62 41 63 34 64 40 65 42 66 39 67
REMARK SMILES IDX 35 68 36 69 37 70 38 71 64 72 65 73 73 74 66 75 72 76 74 77
REMARK SMILES IDX 71 78 67 79 68 80 69 81 70 82 49 83 50 84 58 85 51 86 57 87
REMARK SMILES IDX 59 88 56 89 52 90 53 91 54 92 55 93
REMARK H PARENT 15 7 10 22 20 27 79 46 47 57
REMARK Flexibility Score: inf
ROOT
ATOM      1  C   UNL A   1      31.049  32.039  26.445  1.00  0.00     0.023 C 
ENDROOT
BRANCH   1   2
ATOM      2  C   UNL A   1      30.949  31.027  25.312  1.00  0.00     0.023 C 
BRANCH   2   3
ATOM      3  C   UNL A   1      31.747  29.745  25.493  1.00  0.00     0.116 C 
BRANCH   3   4
ATOM      4  N   UNL A   1      32.861  29.590  24.576  1.00  0.00    -0.354 N 
ATOM      5  C   UNL A   1      32.933  28.894  23.398  1.00  0.00     0.250 C 
ATOM      6  O   UNL A   1      33.960  29.059  22.723  1.00  0.00    -0.272 OA
ATOM      7  H   UNL A   1      33.688  30.052  24.839  1.00  0.00     0.163 HD
BRANCH   5   8
ATOM      8  C   UNL A   1      31.863  27.816  22.958  1.00  0.00     0.144 C 
ATOM      9  C   UNL A   1      29.063  30.166  21.821  1.00  0.00     0.119 A 
ATOM     10  C   UNL A   1      27.981  29.675  22.549  1.00  0.00     0.047 A 
ATOM     11  C   UNL A   1      30.297  29.524  21.911  1.00  0.00     0.053 A 
ATOM     12  C   UNL A   1      28.108  28.519  23.317  1.00  0.00     0.008 A 
ATOM     13  C   UNL A   1      30.464  28.395  22.742  1.00  0.00    -0.006 A 
ATOM     14  C   UNL A   1      29.338  27.855  23.406  1.00  0.00    -0.042 A 
ATOM     15  C   UNL A   1      29.441  26.653  24.313  1.00  0.00     0.036 C 
ATOM     16  C   UNL A   1      31.917  26.736  24.067  1.00  0.00     0.044 C 
ATOM     17  C   UNL A   1      30.696  25.830  24.057  1.00  0.00     0.008 C 
BRANCH   9  18
ATOM     18  O   UNL A   1      28.816  31.309  21.114  1.00  0.00    -0.497 OA
ATOM     19  C   UNL A   1      28.383  32.434  21.870  1.00  0.00     0.278 C 
ENDBRANCH   9  18
BRANCH   8  20
ATOM     20  N   UNL A   1      32.395  27.258  21.696  1.00  0.00    -0.341 N 
ATOM     21  C   UNL A   1      32.620  25.960  21.370  1.00  0.00     0.338 C 
ATOM     22  H   UNL A   1      32.614  27.917  20.998  1.00  0.00     0.164 HD
ATOM     23  O   UNL A   1      33.104  25.619  20.297  1.00  0.00    -0.279 OA
ENDBRANCH   8  20
ENDBRANCH   5   8
ENDBRANCH   3   4
ENDBRANCH   2   3
ENDBRANCH   1   2
BRANCH   1  24
ATOM     24  C   UNL A   1      32.464  32.388  26.895  1.00  0.00     0.116 C 
BRANCH  24  25
ATOM     25  N   UNL A   1      32.582  33.731  27.444  1.00  0.00    -0.352 N 
ATOM     26  C   UNL A   1      33.508  34.240  28.329  1.00  0.00     0.251 C 
ATOM     27  H   UNL A   1      31.899  34.371  27.138  1.00  0.00     0.163 HD
ATOM     28  O   UNL A   1      33.357  35.372  28.780  1.00  0.00    -0.269 OA
BRANCH  26  29
ATOM     29  C   UNL A   1      34.654  33.409  28.763  1.00  0.00     0.039 A 
ATOM     30  C   UNL A   1      35.950  33.820  28.442  1.00  0.00     0.014 A 
ATOM     31  C   UNL A   1      34.457  32.242  29.506  1.00  0.00     0.014 A 
ATOM     32  C   UNL A   1      37.045  33.111  28.944  1.00  0.00     0.010 A 
ATOM     33  C   UNL A   1      35.546  31.595  30.083  1.00  0.00     0.010 A 
ATOM     34  C   UNL A   1      36.854  32.022  29.810  1.00  0.00    -0.014 A 
BRANCH  34  35
ATOM     35  C   UNL A   1      38.008  31.323  30.439  1.00  0.00     0.031 A 
ATOM     36  C   UNL A   1      38.453  31.694  31.830  1.00  0.00     0.074 A 
ATOM     37  C   UNL A   1      38.692  30.395  29.739  1.00  0.00     0.049 A 
ATOM     38  N   UNL A   1      39.466  31.243  32.525  1.00  0.00    -0.248 NA
ATOM     39  C   UNL A   1      37.672  32.734  32.517  1.00  0.00     0.031 C 
ATOM     40  C   UNL A   1      38.391  29.979  28.367  1.00  0.00     0.029 A 
ATOM     41  N   UNL A   1      39.783  29.633  30.080  1.00  0.00    -0.354 N 
ATOM     42  C   UNL A   1      39.448  31.947  33.724  1.00  0.00     0.074 A 
ATOM     43  C   UNL A   1      38.369  32.907  33.629  1.00  0.00     0.031 C 
ATOM     44  C   UNL A   1      39.250  29.016  27.998  1.00  0.00     0.029 A 
ATOM     45  C   UNL A   1      40.197  28.778  29.083  1.00  0.00     0.049 A 
ATOM     46  H   UNL A   1      40.227  29.692  30.956  1.00  0.00     0.167 HD
ATOM     47  C   UNL A   1      40.240  31.791  34.814  1.00  0.00     0.034 A 
ATOM     48  C   UNL A   1      41.226  27.909  29.042  1.00  0.00     0.034 A 
ATOM     49  C   UNL A   1      41.308  30.823  34.896  1.00  0.00     0.049 A 
ATOM     50  C   UNL A   1      42.114  27.774  30.255  1.00  0.00     0.074 A 
ATOM     51  C   UNL A   1      42.138  30.547  35.969  1.00  0.00     0.029 A 
ATOM     52  N   UNL A   1      41.702  29.981  33.864  1.00  0.00    -0.354 N 
ATOM     53  N   UNL A   1      42.049  28.411  31.402  1.00  0.00    -0.248 NA
ATOM     54  C   UNL A   1      43.206  26.796  30.171  1.00  0.00     0.031 C 
ATOM     55  C   UNL A   1      43.079  29.595  35.562  1.00  0.00     0.029 A 
ATOM     56  C   UNL A   1      42.784  29.210  34.265  1.00  0.00     0.049 A 
ATOM     57  H   UNL A   1      41.276  29.937  32.978  1.00  0.00     0.167 HD
ATOM     58  C   UNL A   1      43.070  27.882  32.188  1.00  0.00     0.074 A 
ATOM     59  C   UNL A   1      43.722  26.864  31.389  1.00  0.00     0.031 C 
ATOM     60  C   UNL A   1      43.434  28.204  33.456  1.00  0.00     0.034 A 
BRANCH  47  61
ATOM     61  C   UNL A   1      39.990  32.704  35.993  1.00  0.00     0.023 A 
ATOM     62  C   UNL A   1      39.181  32.310  37.073  1.00  0.00     0.031 A 
ATOM     63  C   UNL A   1      40.546  33.994  36.027  1.00  0.00     0.131 A 
ATOM     64  C   UNL A   1      38.884  33.222  38.097  1.00  0.00     0.055 A 
ATOM     65  C   UNL A   1      40.321  34.867  37.095  1.00  0.00     0.041 A 
ATOM     66  F   UNL A   1      41.309  34.438  35.016  1.00  0.00    -0.206 F 
ATOM     67  C   UNL A   1      39.473  34.488  38.131  1.00  0.00     0.022 A 
BRANCH  64  68
ATOM     68  S   UNL A   1      37.600  32.784  39.301  1.00  0.00     0.124 S 
ATOM     69  O   UNL A   1      36.436  32.604  38.436  1.00  0.00    -0.237 OA
ATOM     70  O   UNL A   1      38.137  31.572  39.908  1.00  0.00    -0.237 OA
ATOM     71  O   UNL A   1      37.541  33.950  40.179  1.00  0.00    -0.744 OA
ENDBRANCH  64  68
ENDBRANCH  47  61
BRANCH  48  72
ATOM     72  C   UNL A   1      41.489  27.098  27.816  1.00  0.00     0.023 A 
ATOM     73  C   UNL A   1      41.180  25.729  27.772  1.00  0.00     0.031 A 
ATOM     74  C   UNL A   1      42.101  27.669  26.685  1.00  0.00     0.131 A 
ATOM     75  C   UNL A   1      41.530  24.967  26.647  1.00  0.00     0.055 A 
ATOM     76  C   UNL A   1      42.393  26.920  25.545  1.00  0.00     0.041 A 
ATOM     77  F   UNL A   1      42.416  28.975  26.671  1.00  0.00    -0.206 F 
ATOM     78  C   UNL A   1      42.121  25.556  25.528  1.00  0.00     0.022 A 
BRANCH  75  79
ATOM     79  S   UNL A   1      41.294  23.169  26.707  1.00  0.00     0.124 S 
ATOM     80  O   UNL A   1      41.833  22.843  28.023  1.00  0.00    -0.237 OA
ATOM     81  O   UNL A   1      39.847  23.049  26.557  1.00  0.00    -0.237 OA
ATOM     82  O   UNL A   1      42.078  22.685  25.573  1.00  0.00    -0.744 OA
ENDBRANCH  75  79
ENDBRANCH  48  72
BRANCH  60  83
ATOM     83  C   UNL A   1      44.559  27.407  34.072  1.00  0.00     0.023 A 
ATOM     84  C   UNL A   1      44.324  26.227  34.798  1.00  0.00     0.031 A 
ATOM     85  C   UNL A   1      45.889  27.848  33.943  1.00  0.00     0.131 A 
ATOM     86  C   UNL A   1      45.392  25.563  35.421  1.00  0.00     0.055 A 
ATOM     87  C   UNL A   1      46.955  27.145  34.506  1.00  0.00     0.041 A 
ATOM     88  F   UNL A   1      46.174  28.970  33.265  1.00  0.00    -0.206 F 
ATOM     89  C   UNL A   1      46.709  26.005  35.264  1.00  0.00     0.022 A 
BRANCH  86  90
ATOM     90  S   UNL A   1      45.027  24.179  36.535  1.00  0.00     0.124 S 
ATOM     91  O   UNL A   1      44.129  24.797  37.504  1.00  0.00    -0.237 OA
ATOM     92  O   UNL A   1      44.420  23.205  35.633  1.00  0.00    -0.237 OA
ATOM     93  O   UNL A   1      46.340  23.803  37.057  1.00  0.00    -0.744 OA
ENDBRANCH  86  90
ENDBRANCH  60  83
ENDBRANCH  34  35
ENDBRANCH  26  29
ENDBRANCH  24  25
ENDBRANCH   1  24
TORSDOF 16
ENDMDL
