MODEL 1
REMARK VINA RESULT:     -11.9      0.000      0.000
REMARK SMILES CC[C@@H]1CCCN1C(=O)N1CC[C@@H](C(=O)NCCCCNC(=O)c2ccc(-c3c4nc(c(-c5cc(S(=O)(=O)[O-])ccc5F)c5ccc([nH]5)c(-c5cc(S(=O)(=O)[O-])ccc5F)c5nc(c(-c6cc(S(=O)(=O)[O-])ccc6F)c6ccc3[nH]6)C=C5)C=C4)cc2)[C@@H]1C
REMARK SMILES IDX 18 1 17 2 16 3 14 4 15 5 13 7 10 8 11 9 87 10 12 11 88 12
REMARK SMILES IDX 8 13 9 14 7 15 3 16 4 17 5 18 6 19 2 20 1 21 19 22 20 23
REMARK SMILES IDX 21 24 22 25 23 27 24 28 25 29 86 30 26 31 85 32 27 33 28 34
REMARK SMILES IDX 29 35 79 36 30 37 84 38 78 39 80 40 31 41 83 42 77 43 76 44
REMARK SMILES IDX 32 46 64 47 44 48 63 49 45 50 48 51 62 52 81 53 46 54 47 55
REMARK SMILES IDX 61 57 82 58 49 59 33 60 34 61 42 62 35 63 41 64 43 65 40 66
REMARK SMILES IDX 36 67 37 68 38 69 39 70 65 71 66 72 74 73 67 74 73 75 75 76
REMARK SMILES IDX 72 77 68 78 69 79 70 80 71 81 50 82 51 83 59 84 52 85 58 86
REMARK SMILES IDX 60 87 57 88 53 89 54 90 55 91 56 92
REMARK H PARENT 16 6 21 26 80 45 48 56
REMARK Flexibility Score: inf
ROOT
ATOM      1  C   UNL A   1      32.229  28.064  27.190  1.00  0.00     0.023 C 
ENDROOT
BRANCH   1   2
ATOM      2  C   UNL A   1      32.152  26.841  26.288  1.00  0.00     0.116 C 
BRANCH   2   3
ATOM      3  N   UNL A   1      31.469  25.706  26.873  1.00  0.00    -0.356 N 
ATOM      4  C   UNL A   1      31.595  24.376  26.604  1.00  0.00     0.225 C 
ATOM      5  O   UNL A   1      30.917  23.595  27.280  1.00  0.00    -0.275 OA
ATOM      6  H   UNL A   1      30.813  25.929  27.572  1.00  0.00     0.163 HD
BRANCH   4   7
ATOM      7  C   UNL A   1      32.544  23.819  25.546  1.00  0.00     0.102 C 
ATOM      8  N   UNL A   1      33.318  24.706  23.458  1.00  0.00    -0.321 N 
ATOM      9  C   UNL A   1      34.214  25.198  24.483  1.00  0.00     0.122 C 
ATOM     10  C   UNL A   1      32.137  24.101  24.093  1.00  0.00     0.096 C 
ATOM     11  C   UNL A   1      33.984  24.309  25.685  1.00  0.00     0.037 C 
ATOM     12  C   UNL A   1      31.690  22.849  23.345  1.00  0.00     0.032 C 
BRANCH   8  13
ATOM     13  C   UNL A   1      33.146  25.440  22.308  1.00  0.00     0.320 C 
ATOM     14  O   UNL A   1      33.260  24.895  21.207  1.00  0.00    -0.248 OA
BRANCH  13  15
ATOM     15  N   UNL A   1      32.806  26.773  22.418  1.00  0.00    -0.322 N 
ATOM     16  C   UNL A   1      31.705  27.422  23.154  1.00  0.00     0.086 C 
ATOM     17  C   UNL A   1      31.920  28.906  22.820  1.00  0.00     0.027 C 
ATOM     18  C   UNL A   1      33.431  29.037  22.876  1.00  0.00     0.024 C 
ATOM     19  C   UNL A   1      33.919  27.716  22.299  1.00  0.00     0.122 C 
BRANCH  16  20
ATOM     20  C   UNL A   1      30.241  26.994  23.012  1.00  0.00     0.022 C 
ATOM     21  C   UNL A   1      29.179  28.077  23.179  1.00  0.00     0.006 C 
ENDBRANCH  16  20
ENDBRANCH  13  15
ENDBRANCH   8  13
ENDBRANCH   4   7
ENDBRANCH   2   3
ENDBRANCH   1   2
BRANCH   1  22
ATOM     22  C   UNL A   1      31.568  29.323  26.644  1.00  0.00     0.023 C 
BRANCH  22  23
ATOM     23  C   UNL A   1      32.525  30.404  26.153  1.00  0.00     0.116 C 
BRANCH  23  24
ATOM     24  N   UNL A   1      32.233  31.734  26.676  1.00  0.00    -0.352 N 
ATOM     25  C   UNL A   1      33.022  32.559  27.458  1.00  0.00     0.251 C 
ATOM     26  H   UNL A   1      31.349  32.097  26.441  1.00  0.00     0.163 HD
ATOM     27  O   UNL A   1      32.598  33.618  27.875  1.00  0.00    -0.269 OA
BRANCH  25  28
ATOM     28  C   UNL A   1      34.378  32.089  27.817  1.00  0.00     0.039 A 
ATOM     29  C   UNL A   1      35.423  33.011  27.874  1.00  0.00     0.014 A 
ATOM     30  C   UNL A   1      34.568  30.769  28.226  1.00  0.00     0.014 A 
ATOM     31  C   UNL A   1      36.634  32.639  28.464  1.00  0.00     0.010 A 
ATOM     32  C   UNL A   1      35.735  30.432  28.898  1.00  0.00     0.010 A 
ATOM     33  C   UNL A   1      36.774  31.368  29.043  1.00  0.00    -0.014 A 
BRANCH  33  34
ATOM     34  C   UNL A   1      37.984  30.974  29.816  1.00  0.00     0.031 A 
ATOM     35  C   UNL A   1      38.929  29.961  29.233  1.00  0.00     0.074 A 
ATOM     36  C   UNL A   1      38.168  31.428  31.073  1.00  0.00     0.049 A 
ATOM     37  N   UNL A   1      39.910  29.313  29.804  1.00  0.00    -0.248 NA
ATOM     38  C   UNL A   1      38.700  29.594  27.827  1.00  0.00     0.031 C 
ATOM     39  C   UNL A   1      37.307  32.389  31.766  1.00  0.00     0.029 A 
ATOM     40  N   UNL A   1      39.130  31.120  32.005  1.00  0.00    -0.354 N 
ATOM     41  C   UNL A   1      40.392  28.434  28.840  1.00  0.00     0.074 A 
ATOM     42  C   UNL A   1      39.553  28.593  27.671  1.00  0.00     0.031 C 
ATOM     43  C   UNL A   1      37.789  32.604  33.002  1.00  0.00     0.029 A 
ATOM     44  C   UNL A   1      38.956  31.755  33.215  1.00  0.00     0.049 A 
ATOM     45  H   UNL A   1      39.876  30.504  31.824  1.00  0.00     0.167 HD
ATOM     46  C   UNL A   1      41.450  27.589  28.915  1.00  0.00     0.034 A 
ATOM     47  C   UNL A   1      39.642  31.644  34.371  1.00  0.00     0.034 A 
ATOM     48  C   UNL A   1      42.294  27.472  30.076  1.00  0.00     0.049 A 
ATOM     49  C   UNL A   1      40.811  30.691  34.437  1.00  0.00     0.074 A 
ATOM     50  C   UNL A   1      43.424  26.690  30.244  1.00  0.00     0.029 A 
ATOM     51  N   UNL A   1      42.105  28.157  31.270  1.00  0.00    -0.354 N 
ATOM     52  N   UNL A   1      41.270  29.883  33.510  1.00  0.00    -0.248 NA
ATOM     53  C   UNL A   1      41.555  30.636  35.703  1.00  0.00     0.031 C 
ATOM     54  C   UNL A   1      43.883  26.859  31.555  1.00  0.00     0.029 A 
ATOM     55  C   UNL A   1      43.084  27.801  32.182  1.00  0.00     0.049 A 
ATOM     56  H   UNL A   1      41.380  28.801  31.441  1.00  0.00     0.167 HD
ATOM     57  C   UNL A   1      42.381  29.256  34.067  1.00  0.00     0.074 A 
ATOM     58  C   UNL A   1      42.522  29.777  35.411  1.00  0.00     0.031 C 
ATOM     59  C   UNL A   1      43.216  28.341  33.514  1.00  0.00     0.034 A 
BRANCH  46  60
ATOM     60  C   UNL A   1      41.725  26.717  27.714  1.00  0.00     0.023 A 
ATOM     61  C   UNL A   1      41.252  25.396  27.637  1.00  0.00     0.031 A 
ATOM     62  C   UNL A   1      42.508  27.198  26.649  1.00  0.00     0.131 A 
ATOM     63  C   UNL A   1      41.642  24.573  26.571  1.00  0.00     0.055 A 
ATOM     64  C   UNL A   1      42.817  26.402  25.545  1.00  0.00     0.041 A 
ATOM     65  F   UNL A   1      43.006  28.445  26.675  1.00  0.00    -0.206 F 
ATOM     66  C   UNL A   1      42.399  25.075  25.510  1.00  0.00     0.022 A 
BRANCH  63  67
ATOM     67  S   UNL A   1      41.281  22.800  26.675  1.00  0.00     0.124 S 
ATOM     68  O   UNL A   1      41.957  22.292  25.483  1.00  0.00    -0.237 OA
ATOM     69  O   UNL A   1      41.875  22.430  27.953  1.00  0.00    -0.237 OA
ATOM     70  O   UNL A   1      39.821  22.744  26.625  1.00  0.00    -0.744 OA
ENDBRANCH  63  67
ENDBRANCH  46  60
BRANCH  47  71
ATOM     71  C   UNL A   1      39.245  32.439  35.569  1.00  0.00     0.023 A 
ATOM     72  C   UNL A   1      39.680  33.764  35.733  1.00  0.00     0.031 A 
ATOM     73  C   UNL A   1      38.462  31.873  36.592  1.00  0.00     0.131 A 
ATOM     74  C   UNL A   1      39.371  34.463  36.910  1.00  0.00     0.055 A 
ATOM     75  C   UNL A   1      38.114  32.591  37.739  1.00  0.00     0.041 A 
ATOM     76  F   UNL A   1      38.015  30.611  36.485  1.00  0.00    -0.206 F 
ATOM     77  C   UNL A   1      38.581  33.890  37.909  1.00  0.00     0.022 A 
BRANCH  74  78
ATOM     78  S   UNL A   1      40.093  36.110  37.157  1.00  0.00     0.124 S 
ATOM     79  O   UNL A   1      39.257  36.642  38.229  1.00  0.00    -0.237 OA
ATOM     80  O   UNL A   1      41.469  35.786  37.516  1.00  0.00    -0.237 OA
ATOM     81  O   UNL A   1      39.924  36.754  35.856  1.00  0.00    -0.744 OA
ENDBRANCH  74  78
ENDBRANCH  47  71
BRANCH  59  82
ATOM     82  C   UNL A   1      44.403  27.902  34.333  1.00  0.00     0.023 A 
ATOM     83  C   UNL A   1      44.351  26.786  35.184  1.00  0.00     0.031 A 
ATOM     84  C   UNL A   1      45.618  28.602  34.226  1.00  0.00     0.131 A 
ATOM     85  C   UNL A   1      45.487  26.421  35.922  1.00  0.00     0.055 A 
ATOM     86  C   UNL A   1      46.758  28.204  34.924  1.00  0.00     0.041 A 
ATOM     87  F   UNL A   1      45.720  29.675  33.425  1.00  0.00    -0.206 F 
ATOM     88  C   UNL A   1      46.695  27.112  35.784  1.00  0.00     0.022 A 
BRANCH  85  89
ATOM     89  S   UNL A   1      45.359  25.052  37.105  1.00  0.00     0.124 S 
ATOM     90  O   UNL A   1      46.759  24.804  37.434  1.00  0.00    -0.237 OA
ATOM     91  O   UNL A   1      44.546  25.631  38.170  1.00  0.00    -0.237 OA
ATOM     92  O   UNL A   1      44.706  23.993  36.336  1.00  0.00    -0.744 OA
ENDBRANCH  85  89
ENDBRANCH  59  82
ENDBRANCH  33  34
ENDBRANCH  25  28
ENDBRANCH  23  24
ENDBRANCH  22  23
ENDBRANCH   1  22
TORSDOF 17
ENDMDL
MODEL 2
REMARK VINA RESULT:     -11.8      1.854      3.105
REMARK SMILES CC[C@@H]1CCCN1C(=O)N1CC[C@@H](C(=O)NCCCCNC(=O)c2ccc(-c3c4nc(c(-c5cc(S(=O)(=O)[O-])ccc5F)c5ccc([nH]5)c(-c5cc(S(=O)(=O)[O-])ccc5F)c5nc(c(-c6cc(S(=O)(=O)[O-])ccc6F)c6ccc3[nH]6)C=C5)C=C4)cc2)[C@@H]1C
REMARK SMILES IDX 18 1 17 2 16 3 14 4 15 5 13 7 10 8 11 9 87 10 12 11 88 12
REMARK SMILES IDX 8 13 9 14 7 15 3 16 4 17 5 18 6 19 2 20 1 21 19 22 20 23
REMARK SMILES IDX 21 24 22 25 23 27 24 28 25 29 86 30 26 31 85 32 27 33 28 34
REMARK SMILES IDX 29 35 79 36 30 37 84 38 78 39 80 40 31 41 83 42 77 43 76 44
REMARK SMILES IDX 32 46 64 47 44 48 63 49 45 50 48 51 62 52 81 53 46 54 47 55
REMARK SMILES IDX 61 57 82 58 49 59 33 60 34 61 42 62 35 63 41 64 43 65 40 66
REMARK SMILES IDX 36 67 37 68 38 69 39 70 65 71 66 72 74 73 67 74 73 75 75 76
REMARK SMILES IDX 72 77 68 78 69 79 70 80 71 81 50 82 51 83 59 84 52 85 58 86
REMARK SMILES IDX 60 87 57 88 53 89 54 90 55 91 56 92
REMARK H PARENT 16 6 21 26 80 45 48 56
REMARK Flexibility Score: inf
ROOT
ATOM      1  C   UNL A   1      30.906  29.954  24.628  1.00  0.00     0.023 C 
ENDROOT
BRANCH   1   2
ATOM      2  C   UNL A   1      30.593  29.215  23.335  1.00  0.00     0.116 C 
BRANCH   2   3
ATOM      3  N   UNL A   1      29.702  28.084  23.490  1.00  0.00    -0.356 N 
ATOM      4  C   UNL A   1      29.989  26.769  23.703  1.00  0.00     0.225 C 
ATOM      5  O   UNL A   1      29.034  25.998  23.842  1.00  0.00    -0.275 OA
ATOM      6  H   UNL A   1      28.743  28.298  23.434  1.00  0.00     0.163 HD
BRANCH   4   7
ATOM      7  C   UNL A   1      31.411  26.225  23.807  1.00  0.00     0.102 C 
ATOM      8  N   UNL A   1      32.266  24.092  24.490  1.00  0.00    -0.321 N 
ATOM      9  C   UNL A   1      31.975  23.996  23.075  1.00  0.00     0.122 C 
ATOM     10  C   UNL A   1      31.678  25.329  25.025  1.00  0.00     0.096 C 
ATOM     11  C   UNL A   1      31.858  25.422  22.586  1.00  0.00     0.037 C 
ATOM     12  C   UNL A   1      32.601  25.979  26.052  1.00  0.00     0.032 C 
BRANCH   8  13
ATOM     13  C   UNL A   1      32.227  22.955  25.262  1.00  0.00     0.320 C 
ATOM     14  O   UNL A   1      31.196  22.660  25.872  1.00  0.00    -0.248 OA
BRANCH  13  15
ATOM     15  N   UNL A   1      33.342  22.143  25.301  1.00  0.00    -0.322 N 
ATOM     16  C   UNL A   1      33.742  21.024  24.428  1.00  0.00     0.086 C 
ATOM     17  C   UNL A   1      35.068  20.574  25.059  1.00  0.00     0.027 C 
ATOM     18  C   UNL A   1      35.719  21.895  25.426  1.00  0.00     0.024 C 
ATOM     19  C   UNL A   1      34.544  22.753  25.871  1.00  0.00     0.122 C 
BRANCH  16  20
ATOM     20  C   UNL A   1      32.816  19.847  24.103  1.00  0.00     0.022 C 
ATOM     21  C   UNL A   1      32.616  18.797  25.192  1.00  0.00     0.006 C 
ENDBRANCH  16  20
ENDBRANCH  13  15
ENDBRANCH   8  13
ENDBRANCH   4   7
ENDBRANCH   2   3
ENDBRANCH   1   2
BRANCH   1  22
ATOM     22  C   UNL A   1      32.272  29.664  25.235  1.00  0.00     0.023 C 
BRANCH  22  23
ATOM     23  C   UNL A   1      32.441  30.071  26.694  1.00  0.00     0.116 C 
BRANCH  23  24
ATOM     24  N   UNL A   1      32.239  31.495  26.939  1.00  0.00    -0.352 N 
ATOM     25  C   UNL A   1      33.119  32.427  27.460  1.00  0.00     0.251 C 
ATOM     26  H   UNL A   1      31.349  31.843  26.699  1.00  0.00     0.163 HD
ATOM     27  O   UNL A   1      32.767  33.571  27.670  1.00  0.00    -0.269 OA
BRANCH  25  28
ATOM     28  C   UNL A   1      34.484  31.976  27.806  1.00  0.00     0.039 A 
ATOM     29  C   UNL A   1      35.498  32.926  27.942  1.00  0.00     0.014 A 
ATOM     30  C   UNL A   1      34.712  30.638  28.126  1.00  0.00     0.014 A 
ATOM     31  C   UNL A   1      36.713  32.552  28.523  1.00  0.00     0.010 A 
ATOM     32  C   UNL A   1      35.882  30.293  28.791  1.00  0.00     0.010 A 
ATOM     33  C   UNL A   1      36.887  31.249  29.015  1.00  0.00    -0.014 A 
BRANCH  33  34
ATOM     34  C   UNL A   1      38.099  30.842  29.777  1.00  0.00     0.031 A 
ATOM     35  C   UNL A   1      39.048  29.847  29.168  1.00  0.00     0.074 A 
ATOM     36  C   UNL A   1      38.283  31.265  31.045  1.00  0.00     0.049 A 
ATOM     37  N   UNL A   1      40.033  29.190  29.722  1.00  0.00    -0.248 NA
ATOM     38  C   UNL A   1      38.820  29.515  27.754  1.00  0.00     0.031 C 
ATOM     39  C   UNL A   1      37.417  32.204  31.763  1.00  0.00     0.029 A 
ATOM     40  N   UNL A   1      39.247  30.938  31.969  1.00  0.00    -0.354 N 
ATOM     41  C   UNL A   1      40.518  28.338  28.736  1.00  0.00     0.074 A 
ATOM     42  C   UNL A   1      39.677  28.522  27.572  1.00  0.00     0.031 C 
ATOM     43  C   UNL A   1      37.899  32.389  33.003  1.00  0.00     0.029 A 
ATOM     44  C   UNL A   1      39.071  31.541  33.194  1.00  0.00     0.049 A 
ATOM     45  H   UNL A   1      39.995  30.330  31.771  1.00  0.00     0.167 HD
ATOM     46  C   UNL A   1      41.580  27.496  28.789  1.00  0.00     0.034 A 
ATOM     47  C   UNL A   1      39.758  31.404  34.347  1.00  0.00     0.034 A 
ATOM     48  C   UNL A   1      42.426  27.353  29.946  1.00  0.00     0.049 A 
ATOM     49  C   UNL A   1      40.931  30.455  34.388  1.00  0.00     0.074 A 
ATOM     50  C   UNL A   1      43.560  26.573  30.094  1.00  0.00     0.029 A 
ATOM     51  N   UNL A   1      42.234  28.007  31.157  1.00  0.00    -0.354 N 
ATOM     52  N   UNL A   1      41.393  29.673  33.441  1.00  0.00    -0.248 NA
ATOM     53  C   UNL A   1      41.676  30.371  35.652  1.00  0.00     0.031 C 
ATOM     54  C   UNL A   1      44.019  26.711  31.408  1.00  0.00     0.029 A 
ATOM     55  C   UNL A   1      43.216  27.633  32.060  1.00  0.00     0.049 A 
ATOM     56  H   UNL A   1      41.506  28.644  31.345  1.00  0.00     0.167 HD
ATOM     57  C   UNL A   1      42.507  29.037  33.981  1.00  0.00     0.074 A 
ATOM     58  C   UNL A   1      42.647  29.524  35.338  1.00  0.00     0.031 C 
ATOM     59  C   UNL A   1      43.346  28.140  33.405  1.00  0.00     0.034 A 
BRANCH  46  60
ATOM     60  C   UNL A   1      41.858  26.656  27.566  1.00  0.00     0.023 A 
ATOM     61  C   UNL A   1      41.458  25.311  27.488  1.00  0.00     0.031 A 
ATOM     62  C   UNL A   1      42.573  27.193  26.481  1.00  0.00     0.131 A 
ATOM     63  C   UNL A   1      41.853  24.525  26.396  1.00  0.00     0.055 A 
ATOM     64  C   UNL A   1      42.884  26.430  25.354  1.00  0.00     0.041 A 
ATOM     65  F   UNL A   1      43.000  28.466  26.506  1.00  0.00    -0.206 F 
ATOM     66  C   UNL A   1      42.540  25.082  25.316  1.00  0.00     0.022 A 
BRANCH  63  67
ATOM     67  S   UNL A   1      41.595  22.733  26.488  1.00  0.00     0.124 S 
ATOM     68  O   UNL A   1      42.204  22.415  27.778  1.00  0.00    -0.237 OA
ATOM     69  O   UNL A   1      40.144  22.617  26.421  1.00  0.00    -0.237 OA
ATOM     70  O   UNL A   1      42.318  22.223  25.325  1.00  0.00    -0.744 OA
ENDBRANCH  63  67
ENDBRANCH  46  60
BRANCH  47  71
ATOM     71  C   UNL A   1      39.358  32.167  35.565  1.00  0.00     0.023 A 
ATOM     72  C   UNL A   1      38.605  31.560  36.582  1.00  0.00     0.031 A 
ATOM     73  C   UNL A   1      39.682  33.529  35.710  1.00  0.00     0.131 A 
ATOM     74  C   UNL A   1      38.161  32.320  37.675  1.00  0.00     0.055 A 
ATOM     75  C   UNL A   1      39.282  34.268  36.826  1.00  0.00     0.041 A 
ATOM     76  F   UNL A   1      40.404  34.158  34.770  1.00  0.00    -0.206 F 
ATOM     77  C   UNL A   1      38.504  33.667  37.810  1.00  0.00     0.022 A 
BRANCH  74  78
ATOM     78  S   UNL A   1      37.050  31.541  38.880  1.00  0.00     0.124 S 
ATOM     79  O   UNL A   1      35.883  32.415  38.816  1.00  0.00    -0.237 OA
ATOM     80  O   UNL A   1      36.882  30.205  38.319  1.00  0.00    -0.237 OA
ATOM     81  O   UNL A   1      37.806  31.600  40.129  1.00  0.00    -0.744 OA
ENDBRANCH  74  78
ENDBRANCH  47  71
BRANCH  59  82
ATOM     82  C   UNL A   1      44.536  27.686  34.211  1.00  0.00     0.023 A 
ATOM     83  C   UNL A   1      44.501  26.528  35.005  1.00  0.00     0.031 A 
ATOM     84  C   UNL A   1      45.736  28.416  34.151  1.00  0.00     0.131 A 
ATOM     85  C   UNL A   1      45.639  26.150  35.734  1.00  0.00     0.055 A 
ATOM     86  C   UNL A   1      46.879  28.008  34.839  1.00  0.00     0.041 A 
ATOM     87  F   UNL A   1      45.821  29.530  33.406  1.00  0.00    -0.206 F 
ATOM     88  C   UNL A   1      46.832  26.873  35.642  1.00  0.00     0.022 A 
BRANCH  85  89
ATOM     89  S   UNL A   1      45.531  24.721  36.846  1.00  0.00     0.124 S 
ATOM     90  O   UNL A   1      46.905  24.232  36.844  1.00  0.00    -0.237 OA
ATOM     91  O   UNL A   1      45.071  25.325  38.092  1.00  0.00    -0.237 OA
ATOM     92  O   UNL A   1      44.561  23.846  36.188  1.00  0.00    -0.744 OA
ENDBRANCH  85  89
ENDBRANCH  59  82
ENDBRANCH  33  34
ENDBRANCH  25  28
ENDBRANCH  23  24
ENDBRANCH  22  23
ENDBRANCH   1  22
TORSDOF 17
ENDMDL
MODEL 3
REMARK VINA RESULT:     -11.6      0.602      7.822
REMARK SMILES CC[C@@H]1CCCN1C(=O)N1CC[C@@H](C(=O)NCCCCNC(=O)c2ccc(-c3c4nc(c(-c5cc(S(=O)(=O)[O-])ccc5F)c5ccc([nH]5)c(-c5cc(S(=O)(=O)[O-])ccc5F)c5nc(c(-c6cc(S(=O)(=O)[O-])ccc6F)c6ccc3[nH]6)C=C5)C=C4)cc2)[C@@H]1C
REMARK SMILES IDX 18 1 17 2 16 3 14 4 15 5 13 7 10 8 11 9 87 10 12 11 88 12
REMARK SMILES IDX 8 13 9 14 7 15 3 16 4 17 5 18 6 19 2 20 1 21 19 22 20 23
REMARK SMILES IDX 21 24 22 25 23 27 24 28 25 29 86 30 26 31 85 32 27 33 28 34
REMARK SMILES IDX 29 35 79 36 30 37 84 38 78 39 80 40 31 41 83 42 77 43 76 44
REMARK SMILES IDX 32 46 64 47 44 48 63 49 45 50 48 51 62 52 81 53 46 54 47 55
REMARK SMILES IDX 61 57 82 58 49 59 33 60 34 61 42 62 35 63 41 64 43 65 40 66
REMARK SMILES IDX 36 67 37 68 38 69 39 70 65 71 66 72 74 73 67 74 73 75 75 76
REMARK SMILES IDX 72 77 68 78 69 79 70 80 71 81 50 82 51 83 59 84 52 85 58 86
REMARK SMILES IDX 60 87 57 88 53 89 54 90 55 91 56 92
REMARK H PARENT 16 6 21 26 80 45 48 56
REMARK Flexibility Score: inf
ROOT
ATOM      1  C   UNL A   1      32.133  27.992  27.238  1.00  0.00     0.023 C 
ENDROOT
BRANCH   1   2
ATOM      2  C   UNL A   1      32.048  26.784  26.317  1.00  0.00     0.116 C 
BRANCH   2   3
ATOM      3  N   UNL A   1      31.429  25.618  26.913  1.00  0.00    -0.356 N 
ATOM      4  C   UNL A   1      31.639  24.295  26.665  1.00  0.00     0.225 C 
ATOM      5  O   UNL A   1      31.002  23.484  27.345  1.00  0.00    -0.275 OA
ATOM      6  H   UNL A   1      30.753  25.811  27.602  1.00  0.00     0.163 HD
BRANCH   4   7
ATOM      7  C   UNL A   1      32.631  23.782  25.625  1.00  0.00     0.102 C 
ATOM      8  N   UNL A   1      33.361  24.677  23.524  1.00  0.00    -0.321 N 
ATOM      9  C   UNL A   1      34.215  25.248  24.545  1.00  0.00     0.122 C 
ATOM     10  C   UNL A   1      32.218  24.007  24.164  1.00  0.00     0.096 C 
ATOM     11  C   UNL A   1      34.035  24.369  25.764  1.00  0.00     0.037 C 
ATOM     12  C   UNL A   1      31.861  22.714  23.438  1.00  0.00     0.032 C 
BRANCH   8  13
ATOM     13  C   UNL A   1      33.151  25.375  22.359  1.00  0.00     0.320 C 
ATOM     14  O   UNL A   1      33.263  24.805  21.271  1.00  0.00    -0.248 OA
BRANCH  13  15
ATOM     15  N   UNL A   1      32.773  26.700  22.440  1.00  0.00    -0.322 N 
ATOM     16  C   UNL A   1      31.678  27.339  23.192  1.00  0.00     0.086 C 
ATOM     17  C   UNL A   1      31.835  28.817  22.807  1.00  0.00     0.027 C 
ATOM     18  C   UNL A   1      33.343  28.994  22.808  1.00  0.00     0.024 C 
ATOM     19  C   UNL A   1      33.851  27.672  22.254  1.00  0.00     0.122 C 
BRANCH  16  20
ATOM     20  C   UNL A   1      30.223  26.863  23.113  1.00  0.00     0.022 C 
ATOM     21  C   UNL A   1      29.135  27.922  23.254  1.00  0.00     0.006 C 
ENDBRANCH  16  20
ENDBRANCH  13  15
ENDBRANCH   8  13
ENDBRANCH   4   7
ENDBRANCH   2   3
ENDBRANCH   1   2
BRANCH   1  22
ATOM     22  C   UNL A   1      31.647  29.306  26.640  1.00  0.00     0.023 C 
BRANCH  22  23
ATOM     23  C   UNL A   1      32.742  30.261  26.180  1.00  0.00     0.116 C 
BRANCH  23  24
ATOM     24  N   UNL A   1      32.607  31.615  26.705  1.00  0.00    -0.352 N 
ATOM     25  C   UNL A   1      33.469  32.328  27.519  1.00  0.00     0.251 C 
ATOM     26  H   UNL A   1      31.785  32.090  26.445  1.00  0.00     0.163 HD
ATOM     27  O   UNL A   1      33.171  33.431  27.932  1.00  0.00    -0.269 OA
BRANCH  25  28
ATOM     28  C   UNL A   1      34.741  31.686  27.917  1.00  0.00     0.039 A 
ATOM     29  C   UNL A   1      35.874  32.479  28.099  1.00  0.00     0.014 A 
ATOM     30  C   UNL A   1      34.761  30.329  28.238  1.00  0.00     0.014 A 
ATOM     31  C   UNL A   1      36.998  31.935  28.726  1.00  0.00     0.010 A 
ATOM     32  C   UNL A   1      35.840  29.819  28.947  1.00  0.00     0.010 A 
ATOM     33  C   UNL A   1      36.964  30.621  29.217  1.00  0.00    -0.014 A 
BRANCH  33  34
ATOM     34  C   UNL A   1      38.073  30.043  30.025  1.00  0.00     0.031 A 
ATOM     35  C   UNL A   1      38.298  30.544  31.424  1.00  0.00     0.074 A 
ATOM     36  C   UNL A   1      38.940  29.171  29.469  1.00  0.00     0.049 A 
ATOM     37  N   UNL A   1      39.315  30.352  32.223  1.00  0.00    -0.248 NA
ATOM     38  C   UNL A   1      37.253  31.420  31.976  1.00  0.00     0.031 C 
ATOM     39  C   UNL A   1      38.851  28.632  28.109  1.00  0.00     0.029 A 
ATOM     40  N   UNL A   1      40.085  28.603  29.973  1.00  0.00    -0.354 N 
ATOM     41  C   UNL A   1      39.051  31.115  33.356  1.00  0.00     0.074 A 
ATOM     42  C   UNL A   1      37.809  31.816  33.111  1.00  0.00     0.031 C 
ATOM     43  C   UNL A   1      39.885  27.801  27.896  1.00  0.00     0.029 A 
ATOM     44  C   UNL A   1      40.743  27.791  29.076  1.00  0.00     0.049 A 
ATOM     45  H   UNL A   1      40.404  28.760  30.890  1.00  0.00     0.167 HD
ATOM     46  C   UNL A   1      39.769  31.205  34.503  1.00  0.00     0.034 A 
ATOM     47  C   UNL A   1      41.917  27.135  29.183  1.00  0.00     0.034 A 
ATOM     48  C   UNL A   1      40.985  30.471  34.742  1.00  0.00     0.049 A 
ATOM     49  C   UNL A   1      42.705  27.255  30.465  1.00  0.00     0.074 A 
ATOM     50  C   UNL A   1      41.763  30.442  35.886  1.00  0.00     0.029 A 
ATOM     51  N   UNL A   1      41.601  29.632  33.821  1.00  0.00    -0.354 N 
ATOM     52  N   UNL A   1      42.433  27.962  31.537  1.00  0.00    -0.248 NA
ATOM     53  C   UNL A   1      43.957  26.490  30.552  1.00  0.00     0.031 C 
ATOM     54  C   UNL A   1      42.878  29.633  35.637  1.00  0.00     0.029 A 
ATOM     55  C   UNL A   1      42.758  29.098  34.365  1.00  0.00     0.049 A 
ATOM     56  H   UNL A   1      41.264  29.445  32.915  1.00  0.00     0.167 HD
ATOM     57  C   UNL A   1      43.456  27.691  32.442  1.00  0.00     0.074 A 
ATOM     58  C   UNL A   1      44.353  26.760  31.789  1.00  0.00     0.031 C 
ATOM     59  C   UNL A   1      43.633  28.161  33.702  1.00  0.00     0.034 A 
BRANCH  46  60
ATOM     60  C   UNL A   1      39.258  32.148  35.565  1.00  0.00     0.023 A 
ATOM     61  C   UNL A   1      39.658  33.494  35.611  1.00  0.00     0.031 A 
ATOM     62  C   UNL A   1      38.394  31.684  36.574  1.00  0.00     0.131 A 
ATOM     63  C   UNL A   1      39.272  34.303  36.689  1.00  0.00     0.055 A 
ATOM     64  C   UNL A   1      37.939  32.520  37.595  1.00  0.00     0.041 A 
ATOM     65  F   UNL A   1      37.993  30.403  36.596  1.00  0.00    -0.206 F 
ATOM     66  C   UNL A   1      38.394  33.834  37.667  1.00  0.00     0.022 A 
BRANCH  63  67
ATOM     67  S   UNL A   1      40.067  35.922  36.877  1.00  0.00     0.124 S 
ATOM     68  O   UNL A   1      39.351  36.469  38.028  1.00  0.00    -0.237 OA
ATOM     69  O   UNL A   1      41.462  35.566  37.102  1.00  0.00    -0.237 OA
ATOM     70  O   UNL A   1      39.788  36.590  35.607  1.00  0.00    -0.744 OA
ENDBRANCH  63  67
ENDBRANCH  46  60
BRANCH  47  71
ATOM     71  C   UNL A   1      42.437  26.317  28.049  1.00  0.00     0.023 A 
ATOM     72  C   UNL A   1      41.952  25.021  27.812  1.00  0.00     0.031 A 
ATOM     73  C   UNL A   1      43.459  26.800  27.211  1.00  0.00     0.131 A 
ATOM     74  C   UNL A   1      42.519  24.234  26.798  1.00  0.00     0.055 A 
ATOM     75  C   UNL A   1      43.984  26.032  26.169  1.00  0.00     0.041 A 
ATOM     76  F   UNL A   1      43.956  28.035  27.389  1.00  0.00    -0.206 F 
ATOM     77  C   UNL A   1      43.523  24.735  25.967  1.00  0.00     0.022 A 
BRANCH  74  78
ATOM     78  S   UNL A   1      41.983  22.508  26.635  1.00  0.00     0.124 S 
ATOM     79  O   UNL A   1      40.531  22.641  26.700  1.00  0.00    -0.237 OA
ATOM     80  O   UNL A   1      42.536  22.140  25.337  1.00  0.00    -0.237 OA
ATOM     81  O   UNL A   1      42.601  21.850  27.784  1.00  0.00    -0.744 OA
ENDBRANCH  74  78
ENDBRANCH  47  71
BRANCH  59  82
ATOM     82  C   UNL A   1      44.798  27.616  34.488  1.00  0.00     0.023 A 
ATOM     83  C   UNL A   1      44.695  26.449  35.263  1.00  0.00     0.031 A 
ATOM     84  C   UNL A   1      46.044  28.266  34.425  1.00  0.00     0.131 A 
ATOM     85  C   UNL A   1      45.813  25.985  35.973  1.00  0.00     0.055 A 
ATOM     86  C   UNL A   1      47.164  27.772  35.094  1.00  0.00     0.041 A 
ATOM     87  F   UNL A   1      46.194  29.385  33.698  1.00  0.00    -0.206 F 
ATOM     88  C   UNL A   1      47.050  26.629  35.879  1.00  0.00     0.022 A 
BRANCH  85  89
ATOM     89  S   UNL A   1      45.622  24.547  37.062  1.00  0.00     0.124 S 
ATOM     90  O   UNL A   1      44.583  23.785  36.378  1.00  0.00    -0.237 OA
ATOM     91  O   UNL A   1      46.958  23.961  37.045  1.00  0.00    -0.237 OA
ATOM     92  O   UNL A   1      45.221  25.134  38.340  1.00  0.00    -0.744 OA
ENDBRANCH  85  89
ENDBRANCH  59  82
ENDBRANCH  33  34
ENDBRANCH  25  28
ENDBRANCH  23  24
ENDBRANCH  22  23
ENDBRANCH   1  22
TORSDOF 17
ENDMDL
