MODEL 1
REMARK VINA RESULT:      -8.6      0.000      0.000
REMARK SMILES CCOc1ccccc1N1C(=O)/C(=C\c2ccc(OCC(=O)NCCCCNC(=O)c3ccc(-c4c5nc(c(-c6cc(S(=O)(=O)[O-])ccc6F)c6ccc([nH]6)c(-c6cc(S(=O)(=O)[O-])ccc6F)c6nc(c(-c7cc(S(=O)(=O)[O-])ccc7F)c7ccc4[nH]7)C=C6)C=C5)cc3)cc2)SC1=S
REMARK SMILES IDX 24 1 23 2 21 3 22 4 20 6 19 7 18 8 15 9 16 10 95 11 17 12
REMARK SMILES IDX 94 13 14 14 10 15 11 16 97 17 12 18 13 19 96 20 98 21 9 22
REMARK SMILES IDX 4 23 5 24 6 25 8 26 7 27 3 28 2 29 1 30 25 31 26 32 27 33
REMARK SMILES IDX 28 34 29 35 30 37 31 38 32 39 93 40 33 41 92 42 34 43 35 44
REMARK SMILES IDX 36 45 86 46 37 47 91 48 85 49 87 50 38 51 90 52 84 53 83 54
REMARK SMILES IDX 39 56 71 57 51 58 70 59 52 60 55 61 69 62 88 63 53 64 54 65
REMARK SMILES IDX 68 67 89 68 56 69 40 70 41 71 49 72 42 73 48 74 50 75 47 76
REMARK SMILES IDX 43 77 44 78 45 79 46 80 72 81 73 82 81 83 74 84 80 85 82 86
REMARK SMILES IDX 79 87 75 88 76 89 77 90 78 91 57 92 58 93 66 94 59 95 65 96
REMARK SMILES IDX 67 97 64 98 60 99 61 100 62 101 63 102
REMARK H PARENT 23 5 28 36 87 55 55 66
REMARK Flexibility Score: inf
ROOT
ATOM      1  C   UNL A   1      42.018  23.003  28.563  1.00  0.00     0.116 C 
ENDROOT
BRANCH   1   2
ATOM      2  N   UNL A   1      40.940  22.327  27.869  1.00  0.00    -0.353 N 
ATOM      3  C   UNL A   1      40.065  22.833  26.951  1.00  0.00     0.257 C 
ATOM      4  O   UNL A   1      39.245  22.074  26.428  1.00  0.00    -0.271 OA
ATOM      5  H   UNL A   1      40.821  21.375  28.091  1.00  0.00     0.163 HD
BRANCH   3   6
ATOM      6  C   UNL A   1      40.156  24.308  26.532  1.00  0.00     0.329 C 
BRANCH   6   7
ATOM      7  O   UNL A   1      39.303  25.239  27.176  1.00  0.00    -0.484 OA
BRANCH   7   8
ATOM      8  C   UNL A   1      39.868  26.384  27.664  1.00  0.00     0.120 A 
ATOM      9  C   UNL A   1      40.829  28.687  28.947  1.00  0.00    -0.024 A 
ATOM     10  C   UNL A   1      40.457  27.573  29.699  1.00  0.00     0.012 A 
ATOM     11  C   UNL A   1      40.783  28.620  27.550  1.00  0.00     0.012 A 
ATOM     12  C   UNL A   1      39.984  26.426  29.056  1.00  0.00     0.047 A 
ATOM     13  C   UNL A   1      40.303  27.473  26.910  1.00  0.00     0.047 A 
BRANCH   9  14
ATOM     14  C   UNL A   1      41.204  29.930  29.624  1.00  0.00     0.029 C 
ATOM     15  N   UNL A   1      38.328  32.114  30.091  1.00  0.00    -0.257 N 
ATOM     16  C   UNL A   1      38.845  30.847  29.852  1.00  0.00     0.270 C 
ATOM     17  C   UNL A   1      39.195  33.054  30.627  1.00  0.00     0.153 C 
ATOM     18  O   UNL A   1      38.219  29.849  29.529  1.00  0.00    -0.268 OA
ATOM     19  C   UNL A   1      40.331  30.872  30.013  1.00  0.00     0.081 C 
ATOM     20  S   UNL A   1      40.824  32.373  30.699  1.00  0.00    -0.054 SA
ATOM     21  S   UNL A   1      38.879  34.571  31.255  1.00  0.00    -0.051 S 
BRANCH  15  22
ATOM     22  C   UNL A   1      36.985  32.386  29.709  1.00  0.00     0.093 A 
ATOM     23  C   UNL A   1      35.968  32.481  30.675  1.00  0.00     0.143 A 
ATOM     24  C   UNL A   1      34.660  32.801  30.307  1.00  0.00     0.049 A 
ATOM     25  C   UNL A   1      34.363  33.071  28.970  1.00  0.00     0.004 A 
ATOM     26  C   UNL A   1      36.678  32.694  28.375  1.00  0.00     0.031 A 
ATOM     27  C   UNL A   1      35.371  33.024  28.008  1.00  0.00     0.002 A 
BRANCH  23  28
ATOM     28  O   UNL A   1      36.259  32.257  31.995  1.00  0.00    -0.492 OA
BRANCH  28  29
ATOM     29  C   UNL A   1      35.159  32.552  32.861  1.00  0.00     0.226 C 
ATOM     30  C   UNL A   1      35.588  33.660  33.809  1.00  0.00     0.049 C 
ENDBRANCH  28  29
ENDBRANCH  23  28
ENDBRANCH  15  22
ENDBRANCH   9  14
ENDBRANCH   7   8
ENDBRANCH   6   7
ENDBRANCH   3   6
ENDBRANCH   1   2
BRANCH   1  31
ATOM     31  C   UNL A   1      43.363  22.851  27.854  1.00  0.00     0.023 C 
BRANCH  31  32
ATOM     32  C   UNL A   1      43.367  21.917  26.639  1.00  0.00     0.023 C 
BRANCH  32  33
ATOM     33  C   UNL A   1      43.268  22.588  25.271  1.00  0.00     0.116 C 
BRANCH  33  34
ATOM     34  N   UNL A   1      44.546  22.683  24.582  1.00  0.00    -0.352 N 
ATOM     35  C   UNL A   1      45.494  23.680  24.616  1.00  0.00     0.251 C 
ATOM     36  H   UNL A   1      44.766  21.916  24.005  1.00  0.00     0.163 HD
ATOM     37  O   UNL A   1      46.467  23.612  23.868  1.00  0.00    -0.269 OA
BRANCH  35  38
ATOM     38  C   UNL A   1      45.327  24.850  25.509  1.00  0.00     0.039 A 
ATOM     39  C   UNL A   1      44.120  25.556  25.467  1.00  0.00     0.014 A 
ATOM     40  C   UNL A   1      46.336  25.245  26.391  1.00  0.00     0.014 A 
ATOM     41  C   UNL A   1      43.888  26.591  26.379  1.00  0.00     0.010 A 
ATOM     42  C   UNL A   1      46.082  26.241  27.334  1.00  0.00     0.010 A 
ATOM     43  C   UNL A   1      44.846  26.906  27.356  1.00  0.00    -0.014 A 
BRANCH  43  44
ATOM     44  C   UNL A   1      44.543  27.863  28.454  1.00  0.00     0.031 A 
ATOM     45  C   UNL A   1      44.722  29.343  28.256  1.00  0.00     0.074 A 
ATOM     46  C   UNL A   1      44.196  27.382  29.666  1.00  0.00     0.049 A 
ATOM     47  N   UNL A   1      44.614  30.311  29.130  1.00  0.00    -0.248 NA
ATOM     48  C   UNL A   1      45.094  29.788  26.905  1.00  0.00     0.031 C 
ATOM     49  C   UNL A   1      44.030  25.962  29.993  1.00  0.00     0.029 A 
ATOM     50  N   UNL A   1      43.945  28.025  30.853  1.00  0.00    -0.354 N 
ATOM     51  C   UNL A   1      44.918  31.480  28.442  1.00  0.00     0.074 A 
ATOM     52  C   UNL A   1      45.250  31.093  27.087  1.00  0.00     0.031 C 
ATOM     53  C   UNL A   1      43.704  25.845  31.290  1.00  0.00     0.029 A 
ATOM     54  C   UNL A   1      43.684  27.170  31.900  1.00  0.00     0.049 A 
ATOM     55  H   UNL A   1      43.949  29.004  30.946  1.00  0.00     0.167 HD
ATOM     56  C   UNL A   1      44.908  32.758  28.899  1.00  0.00     0.034 A 
ATOM     57  C   UNL A   1      43.482  27.417  33.209  1.00  0.00     0.034 A 
ATOM     58  C   UNL A   1      44.557  33.131  30.248  1.00  0.00     0.049 A 
ATOM     59  C   UNL A   1      43.507  28.844  33.696  1.00  0.00     0.074 A 
ATOM     60  C   UNL A   1      44.419  34.402  30.781  1.00  0.00     0.029 A 
ATOM     61  N   UNL A   1      44.307  32.240  31.282  1.00  0.00    -0.354 N 
ATOM     62  N   UNL A   1      43.723  29.944  33.013  1.00  0.00    -0.248 NA
ATOM     63  C   UNL A   1      43.259  29.063  35.127  1.00  0.00     0.031 C 
ATOM     64  C   UNL A   1      44.157  34.278  32.150  1.00  0.00     0.029 A 
ATOM     65  C   UNL A   1      44.064  32.932  32.459  1.00  0.00     0.049 A 
ATOM     66  H   UNL A   1      44.302  31.259  31.194  1.00  0.00     0.167 HD
ATOM     67  C   UNL A   1      43.621  30.985  33.930  1.00  0.00     0.074 A 
ATOM     68  C   UNL A   1      43.303  30.384  35.209  1.00  0.00     0.031 C 
ATOM     69  C   UNL A   1      43.776  32.319  33.735  1.00  0.00     0.034 A 
BRANCH  56  70
ATOM     70  C   UNL A   1      45.316  33.848  27.940  1.00  0.00     0.023 A 
ATOM     71  C   UNL A   1      46.663  34.085  27.616  1.00  0.00     0.031 A 
ATOM     72  C   UNL A   1      44.340  34.657  27.332  1.00  0.00     0.131 A 
ATOM     73  C   UNL A   1      47.002  35.139  26.754  1.00  0.00     0.055 A 
ATOM     74  C   UNL A   1      44.678  35.661  26.423  1.00  0.00     0.041 A 
ATOM     75  F   UNL A   1      43.039  34.488  27.616  1.00  0.00    -0.206 F 
ATOM     76  C   UNL A   1      46.017  35.914  26.137  1.00  0.00     0.022 A 
BRANCH  73  77
ATOM     77  S   UNL A   1      48.753  35.551  26.531  1.00  0.00     0.124 S 
ATOM     78  O   UNL A   1      49.014  35.018  25.196  1.00  0.00    -0.237 OA
ATOM     79  O   UNL A   1      48.754  37.004  26.651  1.00  0.00    -0.237 OA
ATOM     80  O   UNL A   1      49.415  34.835  27.621  1.00  0.00    -0.744 OA
ENDBRANCH  73  77
ENDBRANCH  56  70
BRANCH  57  81
ATOM     81  C   UNL A   1      43.280  26.295  34.169  1.00  0.00     0.023 A 
ATOM     82  C   UNL A   1      44.342  25.452  34.528  1.00  0.00     0.031 A 
ATOM     83  C   UNL A   1      42.008  26.021  34.703  1.00  0.00     0.131 A 
ATOM     84  C   UNL A   1      44.105  24.343  35.356  1.00  0.00     0.055 A 
ATOM     85  C   UNL A   1      41.787  24.948  35.568  1.00  0.00     0.041 A 
ATOM     86  F   UNL A   1      40.958  26.802  34.397  1.00  0.00    -0.206 F 
ATOM     87  C   UNL A   1      42.838  24.093  35.888  1.00  0.00     0.022 A 
BRANCH  84  88
ATOM     88  S   UNL A   1      45.465  23.180  35.655  1.00  0.00     0.124 S 
ATOM     89  O   UNL A   1      45.584  23.230  37.108  1.00  0.00    -0.237 OA
ATOM     90  O   UNL A   1      44.931  21.942  35.097  1.00  0.00    -0.237 OA
ATOM     91  O   UNL A   1      46.581  23.766  34.917  1.00  0.00    -0.744 OA
ENDBRANCH  84  88
ENDBRANCH  57  81
BRANCH  69  92
ATOM     92  C   UNL A   1      43.587  33.210  34.936  1.00  0.00     0.023 A 
ATOM     93  C   UNL A   1      42.330  33.751  35.257  1.00  0.00     0.031 A 
ATOM     94  C   UNL A   1      44.679  33.534  35.760  1.00  0.00     0.131 A 
ATOM     95  C   UNL A   1      42.204  34.626  36.346  1.00  0.00     0.055 A 
ATOM     96  C   UNL A   1      44.538  34.364  36.874  1.00  0.00     0.041 A 
ATOM     97  F   UNL A   1      45.903  33.048  35.497  1.00  0.00    -0.206 F 
ATOM     98  C   UNL A   1      43.297  34.924  37.166  1.00  0.00     0.022 A 
BRANCH  95  99
ATOM     99  S   UNL A   1      40.605  35.432  36.637  1.00  0.00     0.124 S 
ATOM    100  O   UNL A   1      40.964  36.482  37.585  1.00  0.00    -0.237 OA
ATOM    101  O   UNL A   1      40.234  35.882  35.299  1.00  0.00    -0.237 OA
ATOM    102  O   UNL A   1      39.775  34.361  37.181  1.00  0.00    -0.744 OA
ENDBRANCH  95  99
ENDBRANCH  69  92
ENDBRANCH  43  44
ENDBRANCH  35  38
ENDBRANCH  33  34
ENDBRANCH  32  33
ENDBRANCH  31  32
ENDBRANCH   1  31
TORSDOF 20
ENDMDL
MODEL 2
REMARK VINA RESULT:      -8.6      4.113      8.748
REMARK SMILES CCOc1ccccc1N1C(=O)/C(=C\c2ccc(OCC(=O)NCCCCNC(=O)c3ccc(-c4c5nc(c(-c6cc(S(=O)(=O)[O-])ccc6F)c6ccc([nH]6)c(-c6cc(S(=O)(=O)[O-])ccc6F)c6nc(c(-c7cc(S(=O)(=O)[O-])ccc7F)c7ccc4[nH]7)C=C6)C=C5)cc3)cc2)SC1=S
REMARK SMILES IDX 24 1 23 2 21 3 22 4 20 6 19 7 18 8 15 9 16 10 95 11 17 12
REMARK SMILES IDX 94 13 14 14 10 15 11 16 97 17 12 18 13 19 96 20 98 21 9 22
REMARK SMILES IDX 4 23 5 24 6 25 8 26 7 27 3 28 2 29 1 30 25 31 26 32 27 33
REMARK SMILES IDX 28 34 29 35 30 37 31 38 32 39 93 40 33 41 92 42 34 43 35 44
REMARK SMILES IDX 36 45 86 46 37 47 91 48 85 49 87 50 38 51 90 52 84 53 83 54
REMARK SMILES IDX 39 56 71 57 51 58 70 59 52 60 55 61 69 62 88 63 53 64 54 65
REMARK SMILES IDX 68 67 89 68 56 69 40 70 41 71 49 72 42 73 48 74 50 75 47 76
REMARK SMILES IDX 43 77 44 78 45 79 46 80 72 81 73 82 81 83 74 84 80 85 82 86
REMARK SMILES IDX 79 87 75 88 76 89 77 90 78 91 57 92 58 93 66 94 59 95 65 96
REMARK SMILES IDX 67 97 64 98 60 99 61 100 62 101 63 102
REMARK H PARENT 23 5 28 36 87 55 55 66
REMARK Flexibility Score: inf
ROOT
ATOM      1  C   UNL A   1      33.413  27.024  25.542  1.00  0.00     0.116 C 
ENDROOT
BRANCH   1   2
ATOM      2  N   UNL A   1      32.211  26.292  25.196  1.00  0.00    -0.353 N 
ATOM      3  C   UNL A   1      32.033  25.353  24.220  1.00  0.00     0.257 C 
ATOM      4  O   UNL A   1      30.937  24.797  24.120  1.00  0.00    -0.271 OA
ATOM      5  H   UNL A   1      31.414  26.500  25.735  1.00  0.00     0.163 HD
BRANCH   3   6
ATOM      6  C   UNL A   1      33.209  24.951  23.316  1.00  0.00     0.329 C 
BRANCH   6   7
ATOM      7  O   UNL A   1      33.578  23.583  23.270  1.00  0.00    -0.484 OA
BRANCH   7   8
ATOM      8  C   UNL A   1      34.666  23.196  24.001  1.00  0.00     0.120 A 
ATOM      9  C   UNL A   1      36.997  22.219  25.221  1.00  0.00    -0.024 A 
ATOM     10  C   UNL A   1      36.977  22.460  23.847  1.00  0.00     0.012 A 
ATOM     11  C   UNL A   1      35.871  22.532  25.990  1.00  0.00     0.012 A 
ATOM     12  C   UNL A   1      35.817  22.952  23.245  1.00  0.00     0.047 A 
ATOM     13  C   UNL A   1      34.709  23.017  25.382  1.00  0.00     0.047 A 
BRANCH   9  14
ATOM     14  C   UNL A   1      38.168  21.586  25.832  1.00  0.00     0.029 C 
ATOM     15  N   UNL A   1      40.733  24.036  26.651  1.00  0.00    -0.257 N 
ATOM     16  C   UNL A   1      39.409  23.741  26.358  1.00  0.00     0.270 C 
ATOM     17  C   UNL A   1      41.535  22.983  27.061  1.00  0.00     0.153 C 
ATOM     18  O   UNL A   1      38.512  24.539  26.128  1.00  0.00    -0.268 OA
ATOM     19  C   UNL A   1      39.221  22.258  26.323  1.00  0.00     0.081 C 
ATOM     20  S   UNL A   1      40.629  21.471  26.926  1.00  0.00    -0.054 SA
ATOM     21  S   UNL A   1      43.076  22.995  27.712  1.00  0.00    -0.051 S 
BRANCH  15  22
ATOM     22  C   UNL A   1      41.198  25.366  26.445  1.00  0.00     0.093 A 
ATOM     23  C   UNL A   1      40.924  26.375  27.385  1.00  0.00     0.143 A 
ATOM     24  C   UNL A   1      41.425  27.667  27.210  1.00  0.00     0.049 A 
ATOM     25  C   UNL A   1      42.239  27.952  26.114  1.00  0.00     0.004 A 
ATOM     26  C   UNL A   1      42.045  25.659  25.367  1.00  0.00     0.031 A 
ATOM     27  C   UNL A   1      42.553  26.949  25.198  1.00  0.00     0.002 A 
BRANCH  23  28
ATOM     28  O   UNL A   1      40.159  26.094  28.486  1.00  0.00    -0.492 OA
BRANCH  28  29
ATOM     29  C   UNL A   1      39.207  27.122  28.775  1.00  0.00     0.226 C 
ATOM     30  C   UNL A   1      39.128  27.283  30.283  1.00  0.00     0.049 C 
ENDBRANCH  28  29
ENDBRANCH  23  28
ENDBRANCH  15  22
ENDBRANCH   9  14
ENDBRANCH   7   8
ENDBRANCH   6   7
ENDBRANCH   3   6
ENDBRANCH   1   2
BRANCH   1  31
ATOM     31  C   UNL A   1      33.205  28.538  25.533  1.00  0.00     0.023 C 
BRANCH  31  32
ATOM     32  C   UNL A   1      33.292  29.223  26.901  1.00  0.00     0.023 C 
BRANCH  32  33
ATOM     33  C   UNL A   1      34.345  30.321  27.040  1.00  0.00     0.116 C 
BRANCH  33  34
ATOM     34  N   UNL A   1      33.810  31.568  27.568  1.00  0.00    -0.352 N 
ATOM     35  C   UNL A   1      34.328  32.415  28.521  1.00  0.00     0.251 C 
ATOM     36  H   UNL A   1      32.949  31.847  27.184  1.00  0.00     0.163 HD
ATOM     37  O   UNL A   1      33.658  33.372  28.904  1.00  0.00    -0.269 OA
BRANCH  35  38
ATOM     38  C   UNL A   1      35.658  32.156  29.118  1.00  0.00     0.039 A 
ATOM     39  C   UNL A   1      36.588  33.201  29.160  1.00  0.00     0.014 A 
ATOM     40  C   UNL A   1      35.991  30.906  29.648  1.00  0.00     0.014 A 
ATOM     41  C   UNL A   1      37.807  33.022  29.820  1.00  0.00     0.010 A 
ATOM     42  C   UNL A   1      37.184  30.746  30.353  1.00  0.00     0.010 A 
ATOM     43  C   UNL A   1      38.093  31.810  30.470  1.00  0.00    -0.014 A 
BRANCH  43  44
ATOM     44  C   UNL A   1      39.290  31.664  31.341  1.00  0.00     0.031 A 
ATOM     45  C   UNL A   1      40.543  31.013  30.825  1.00  0.00     0.074 A 
ATOM     46  C   UNL A   1      39.207  32.036  32.635  1.00  0.00     0.049 A 
ATOM     47  N   UNL A   1      41.637  30.702  31.470  1.00  0.00    -0.248 NA
ATOM     48  C   UNL A   1      40.556  30.642  29.402  1.00  0.00     0.031 C 
ATOM     49  C   UNL A   1      38.030  32.642  33.265  1.00  0.00     0.029 A 
ATOM     50  N   UNL A   1      40.116  31.940  33.660  1.00  0.00    -0.354 N 
ATOM     51  C   UNL A   1      42.467  30.087  30.540  1.00  0.00     0.074 A 
ATOM     52  C   UNL A   1      41.731  30.037  29.293  1.00  0.00     0.031 C 
ATOM     53  C   UNL A   1      38.290  32.863  34.564  1.00  0.00     0.029 A 
ATOM     54  C   UNL A   1      39.629  32.374  34.873  1.00  0.00     0.049 A 
ATOM     55  H   UNL A   1      41.029  31.595  33.540  1.00  0.00     0.167 HD
ATOM     56  C   UNL A   1      43.729  29.620  30.709  1.00  0.00     0.034 A 
ATOM     57  C   UNL A   1      40.183  32.355  36.102  1.00  0.00     0.034 A 
ATOM     58  C   UNL A   1      44.458  29.692  31.953  1.00  0.00     0.049 A 
ATOM     59  C   UNL A   1      41.575  31.801  36.267  1.00  0.00     0.074 A 
ATOM     60  C   UNL A   1      45.774  29.339  32.201  1.00  0.00     0.029 A 
ATOM     61  N   UNL A   1      43.932  30.130  33.161  1.00  0.00    -0.354 N 
ATOM     62  N   UNL A   1      42.373  31.290  35.358  1.00  0.00    -0.248 NA
ATOM     63  C   UNL A   1      42.142  31.822  37.622  1.00  0.00     0.031 C 
ATOM     64  C   UNL A   1      46.020  29.496  33.570  1.00  0.00     0.029 A 
ATOM     65  C   UNL A   1      44.880  30.011  34.165  1.00  0.00     0.049 A 
ATOM     66  H   UNL A   1      43.018  30.476  33.286  1.00  0.00     0.167 HD
ATOM     67  C   UNL A   1      43.541  30.945  36.031  1.00  0.00     0.074 A 
ATOM     68  C   UNL A   1      43.352  31.325  37.416  1.00  0.00     0.031 C 
ATOM     69  C   UNL A   1      44.670  30.366  35.548  1.00  0.00     0.034 A 
BRANCH  56  70
ATOM     70  C   UNL A   1      44.397  28.959  29.529  1.00  0.00     0.023 A 
ATOM     71  C   UNL A   1      45.102  29.700  28.566  1.00  0.00     0.031 A 
ATOM     72  C   UNL A   1      44.334  27.563  29.371  1.00  0.00     0.131 A 
ATOM     73  C   UNL A   1      45.669  29.050  27.459  1.00  0.00     0.055 A 
ATOM     74  C   UNL A   1      44.958  26.915  28.304  1.00  0.00     0.041 A 
ATOM     75  F   UNL A   1      43.660  26.806  30.251  1.00  0.00    -0.206 F 
ATOM     76  C   UNL A   1      45.622  27.659  27.334  1.00  0.00     0.022 A 
BRANCH  73  77
ATOM     77  S   UNL A   1      46.380  30.058  26.130  1.00  0.00     0.124 S 
ATOM     78  O   UNL A   1      45.387  31.122  26.003  1.00  0.00    -0.237 OA
ATOM     79  O   UNL A   1      47.670  30.450  26.685  1.00  0.00    -0.237 OA
ATOM     80  O   UNL A   1      46.444  29.136  24.997  1.00  0.00    -0.744 OA
ENDBRANCH  73  77
ENDBRANCH  56  70
BRANCH  57  81
ATOM     81  C   UNL A   1      39.414  32.833  37.285  1.00  0.00     0.023 A 
ATOM     82  C   UNL A   1      38.454  32.017  37.901  1.00  0.00     0.031 A 
ATOM     83  C   UNL A   1      39.595  34.135  37.787  1.00  0.00     0.131 A 
ATOM     84  C   UNL A   1      37.673  32.525  38.951  1.00  0.00     0.055 A 
ATOM     85  C   UNL A   1      38.854  34.618  38.867  1.00  0.00     0.041 A 
ATOM     86  F   UNL A   1      40.507  34.954  37.239  1.00  0.00    -0.206 F 
ATOM     87  C   UNL A   1      37.875  33.815  39.446  1.00  0.00     0.022 A 
BRANCH  84  88
ATOM     88  S   UNL A   1      36.327  31.499  39.603  1.00  0.00     0.124 S 
ATOM     89  O   UNL A   1      36.520  30.253  38.871  1.00  0.00    -0.237 OA
ATOM     90  O   UNL A   1      36.639  31.461  41.028  1.00  0.00    -0.237 OA
ATOM     91  O   UNL A   1      35.125  32.251  39.250  1.00  0.00    -0.744 OA
ENDBRANCH  84  88
ENDBRANCH  57  81
BRANCH  69  92
ATOM     92  C   UNL A   1      45.786  30.126  36.533  1.00  0.00     0.023 A 
ATOM     93  C   UNL A   1      45.888  28.919  37.245  1.00  0.00     0.031 A 
ATOM     94  C   UNL A   1      46.750  31.121  36.771  1.00  0.00     0.131 A 
ATOM     95  C   UNL A   1      46.903  28.755  38.199  1.00  0.00     0.055 A 
ATOM     96  C   UNL A   1      47.790  30.932  37.683  1.00  0.00     0.041 A 
ATOM     97  F   UNL A   1      46.697  32.294  36.120  1.00  0.00    -0.206 F 
ATOM     98  C   UNL A   1      47.865  29.748  38.412  1.00  0.00     0.022 A 
BRANCH  95  99
ATOM     99  S   UNL A   1      46.912  27.252  39.215  1.00  0.00     0.124 S 
ATOM    100  O   UNL A   1      47.716  26.343  38.404  1.00  0.00    -0.237 OA
ATOM    101  O   UNL A   1      47.530  27.716  40.454  1.00  0.00    -0.237 OA
ATOM    102  O   UNL A   1      45.498  26.903  39.324  1.00  0.00    -0.744 OA
ENDBRANCH  95  99
ENDBRANCH  69  92
ENDBRANCH  43  44
ENDBRANCH  35  38
ENDBRANCH  33  34
ENDBRANCH  32  33
ENDBRANCH  31  32
ENDBRANCH   1  31
TORSDOF 20
ENDMDL
MODEL 3
REMARK VINA RESULT:      -8.5      3.284     11.132
REMARK SMILES CCOc1ccccc1N1C(=O)/C(=C\c2ccc(OCC(=O)NCCCCNC(=O)c3ccc(-c4c5nc(c(-c6cc(S(=O)(=O)[O-])ccc6F)c6ccc([nH]6)c(-c6cc(S(=O)(=O)[O-])ccc6F)c6nc(c(-c7cc(S(=O)(=O)[O-])ccc7F)c7ccc4[nH]7)C=C6)C=C5)cc3)cc2)SC1=S
REMARK SMILES IDX 24 1 23 2 21 3 22 4 20 6 19 7 18 8 15 9 16 10 95 11 17 12
REMARK SMILES IDX 94 13 14 14 10 15 11 16 97 17 12 18 13 19 96 20 98 21 9 22
REMARK SMILES IDX 4 23 5 24 6 25 8 26 7 27 3 28 2 29 1 30 25 31 26 32 27 33
REMARK SMILES IDX 28 34 29 35 30 37 31 38 32 39 93 40 33 41 92 42 34 43 35 44
REMARK SMILES IDX 36 45 86 46 37 47 91 48 85 49 87 50 38 51 90 52 84 53 83 54
REMARK SMILES IDX 39 56 71 57 51 58 70 59 52 60 55 61 69 62 88 63 53 64 54 65
REMARK SMILES IDX 68 67 89 68 56 69 40 70 41 71 49 72 42 73 48 74 50 75 47 76
REMARK SMILES IDX 43 77 44 78 45 79 46 80 72 81 73 82 81 83 74 84 80 85 82 86
REMARK SMILES IDX 79 87 75 88 76 89 77 90 78 91 57 92 58 93 66 94 59 95 65 96
REMARK SMILES IDX 67 97 64 98 60 99 61 100 62 101 63 102
REMARK H PARENT 23 5 28 36 87 55 55 66
REMARK Flexibility Score: inf
ROOT
ATOM      1  C   UNL A   1      34.777  32.376  31.214  1.00  0.00     0.116 C 
ENDROOT
BRANCH   1   2
ATOM      2  N   UNL A   1      34.349  33.374  30.254  1.00  0.00    -0.353 N 
ATOM      3  C   UNL A   1      34.180  33.245  28.905  1.00  0.00     0.257 C 
ATOM      4  O   UNL A   1      33.749  34.206  28.263  1.00  0.00    -0.271 OA
ATOM      5  H   UNL A   1      34.155  34.266  30.623  1.00  0.00     0.163 HD
BRANCH   3   6
ATOM      6  C   UNL A   1      34.456  31.898  28.220  1.00  0.00     0.329 C 
BRANCH   6   7
ATOM      7  O   UNL A   1      35.700  31.727  27.561  1.00  0.00    -0.484 OA
BRANCH   7   8
ATOM      8  C   UNL A   1      36.711  31.133  28.262  1.00  0.00     0.120 A 
ATOM      9  C   UNL A   1      38.568  29.646  29.752  1.00  0.00    -0.024 A 
ATOM     10  C   UNL A   1      37.637  28.992  28.945  1.00  0.00     0.012 A 
ATOM     11  C   UNL A   1      38.611  31.045  29.757  1.00  0.00     0.012 A 
ATOM     12  C   UNL A   1      36.718  29.736  28.201  1.00  0.00     0.047 A 
ATOM     13  C   UNL A   1      37.684  31.786  29.016  1.00  0.00     0.047 A 
BRANCH   9  14
ATOM     14  C   UNL A   1      39.447  28.868  30.627  1.00  0.00     0.029 C 
ATOM     15  N   UNL A   1      42.397  27.688  28.849  1.00  0.00    -0.257 N 
ATOM     16  C   UNL A   1      41.326  28.567  28.943  1.00  0.00     0.270 C 
ATOM     17  C   UNL A   1      42.765  27.022  30.007  1.00  0.00     0.153 C 
ATOM     18  O   UNL A   1      40.945  29.353  28.087  1.00  0.00    -0.268 OA
ATOM     19  C   UNL A   1      40.650  28.396  30.265  1.00  0.00     0.081 C 
ATOM     20  S   UNL A   1      41.600  27.386  31.286  1.00  0.00    -0.054 SA
ATOM     21  S   UNL A   1      44.118  26.093  30.329  1.00  0.00    -0.051 S 
BRANCH  15  22
ATOM     22  C   UNL A   1      42.994  27.473  27.575  1.00  0.00     0.093 A 
ATOM     23  C   UNL A   1      42.546  26.436  26.739  1.00  0.00     0.143 A 
ATOM     24  C   UNL A   1      43.093  26.257  25.466  1.00  0.00     0.049 A 
ATOM     25  C   UNL A   1      44.067  27.141  25.001  1.00  0.00     0.004 A 
ATOM     26  C   UNL A   1      43.948  28.373  27.080  1.00  0.00     0.031 A 
ATOM     27  C   UNL A   1      44.489  28.200  25.804  1.00  0.00     0.002 A 
BRANCH  23  28
ATOM     28  O   UNL A   1      41.561  25.587  27.171  1.00  0.00    -0.492 OA
BRANCH  28  29
ATOM     29  C   UNL A   1      40.259  25.976  26.722  1.00  0.00     0.226 C 
ATOM     30  C   UNL A   1      39.253  25.579  27.789  1.00  0.00     0.049 C 
ENDBRANCH  28  29
ENDBRANCH  23  28
ENDBRANCH  15  22
ENDBRANCH   9  14
ENDBRANCH   7   8
ENDBRANCH   6   7
ENDBRANCH   3   6
ENDBRANCH   1   2
BRANCH   1  31
ATOM     31  C   UNL A   1      34.404  32.740  32.650  1.00  0.00     0.023 C 
BRANCH  31  32
ATOM     32  C   UNL A   1      34.175  34.232  32.914  1.00  0.00     0.023 C 
BRANCH  32  33
ATOM     33  C   UNL A   1      35.308  34.974  33.622  1.00  0.00     0.116 C 
BRANCH  33  34
ATOM     34  N   UNL A   1      35.487  34.564  35.007  1.00  0.00    -0.352 N 
ATOM     35  C   UNL A   1      36.455  33.766  35.572  1.00  0.00     0.251 C 
ATOM     36  H   UNL A   1      34.814  34.912  35.635  1.00  0.00     0.163 HD
ATOM     37  O   UNL A   1      36.363  33.454  36.757  1.00  0.00    -0.269 OA
BRANCH  35  38
ATOM     38  C   UNL A   1      37.576  33.247  34.755  1.00  0.00     0.039 A 
ATOM     39  C   UNL A   1      38.813  33.897  34.824  1.00  0.00     0.014 A 
ATOM     40  C   UNL A   1      37.425  32.123  33.937  1.00  0.00     0.014 A 
ATOM     41  C   UNL A   1      39.919  33.363  34.156  1.00  0.00     0.010 A 
ATOM     42  C   UNL A   1      38.541  31.562  33.315  1.00  0.00     0.010 A 
ATOM     43  C   UNL A   1      39.805  32.160  33.441  1.00  0.00    -0.014 A 
BRANCH  43  44
ATOM     44  C   UNL A   1      41.003  31.472  32.890  1.00  0.00     0.031 A 
ATOM     45  C   UNL A   1      41.678  30.369  33.658  1.00  0.00     0.074 A 
ATOM     46  C   UNL A   1      41.540  31.916  31.734  1.00  0.00     0.049 A 
ATOM     47  N   UNL A   1      42.790  29.736  33.387  1.00  0.00    -0.248 NA
ATOM     48  C   UNL A   1      41.027  29.939  34.904  1.00  0.00     0.031 C 
ATOM     49  C   UNL A   1      41.001  33.008  30.918  1.00  0.00     0.029 A 
ATOM     50  N   UNL A   1      42.668  31.524  31.056  1.00  0.00    -0.354 N 
ATOM     51  C   UNL A   1      42.984  28.842  34.433  1.00  0.00     0.074 A 
ATOM     52  C   UNL A   1      41.891  29.043  35.362  1.00  0.00     0.031 C 
ATOM     53  C   UNL A   1      41.796  33.195  29.853  1.00  0.00     0.029 A 
ATOM     54  C   UNL A   1      42.925  32.275  29.931  1.00  0.00     0.049 A 
ATOM     55  H   UNL A   1      43.238  30.777  31.345  1.00  0.00     0.167 HD
ATOM     56  C   UNL A   1      43.977  27.931  34.595  1.00  0.00     0.034 A 
ATOM     57  C   UNL A   1      43.965  32.249  29.074  1.00  0.00     0.034 A 
ATOM     58  C   UNL A   1      45.051  27.730  33.653  1.00  0.00     0.049 A 
ATOM     59  C   UNL A   1      45.070  31.248  29.295  1.00  0.00     0.074 A 
ATOM     60  C   UNL A   1      46.046  26.767  33.676  1.00  0.00     0.029 A 
ATOM     61  N   UNL A   1      45.283  28.512  32.530  1.00  0.00    -0.354 N 
ATOM     62  N   UNL A   1      45.197  30.358  30.252  1.00  0.00    -0.248 NA
ATOM     63  C   UNL A   1      46.169  31.246  28.321  1.00  0.00     0.031 C 
ATOM     64  C   UNL A   1      46.919  27.012  32.608  1.00  0.00     0.029 A 
ATOM     65  C   UNL A   1      46.432  28.085  31.881  1.00  0.00     0.049 A 
ATOM     66  H   UNL A   1      44.716  29.261  32.237  1.00  0.00     0.167 HD
ATOM     67  C   UNL A   1      46.382  29.681  29.984  1.00  0.00     0.074 A 
ATOM     68  C   UNL A   1      46.920  30.250  28.765  1.00  0.00     0.031 C 
ATOM     69  C   UNL A   1      46.974  28.679  30.682  1.00  0.00     0.034 A 
BRANCH  56  70
ATOM     70  C   UNL A   1      43.966  27.100  35.854  1.00  0.00     0.023 A 
ATOM     71  C   UNL A   1      44.490  27.583  37.065  1.00  0.00     0.031 A 
ATOM     72  C   UNL A   1      43.414  25.807  35.843  1.00  0.00     0.131 A 
ATOM     73  C   UNL A   1      44.501  26.759  38.202  1.00  0.00     0.055 A 
ATOM     74  C   UNL A   1      43.367  25.017  36.993  1.00  0.00     0.041 A 
ATOM     75  F   UNL A   1      42.915  25.287  34.710  1.00  0.00    -0.206 F 
ATOM     76  C   UNL A   1      43.921  25.488  38.180  1.00  0.00     0.022 A 
BRANCH  73  77
ATOM     77  S   UNL A   1      45.377  27.332  39.682  1.00  0.00     0.124 S 
ATOM     78  O   UNL A   1      45.078  28.763  39.666  1.00  0.00    -0.237 OA
ATOM     79  O   UNL A   1      44.743  26.560  40.743  1.00  0.00    -0.237 OA
ATOM     80  O   UNL A   1      46.771  26.991  39.409  1.00  0.00    -0.744 OA
ENDBRANCH  73  77
ENDBRANCH  56  70
BRANCH  57  81
ATOM     81  C   UNL A   1      44.042  33.225  27.949  1.00  0.00     0.023 A 
ATOM     82  C   UNL A   1      44.286  34.585  28.190  1.00  0.00     0.031 A 
ATOM     83  C   UNL A   1      43.825  32.816  26.621  1.00  0.00     0.131 A 
ATOM     84  C   UNL A   1      44.257  35.499  27.125  1.00  0.00     0.055 A 
ATOM     85  C   UNL A   1      43.849  33.720  25.559  1.00  0.00     0.041 A 
ATOM     86  F   UNL A   1      43.594  31.524  26.336  1.00  0.00    -0.206 F 
ATOM     87  C   UNL A   1      44.053  35.075  25.810  1.00  0.00     0.022 A 
BRANCH  84  88
ATOM     88  S   UNL A   1      44.404  37.268  27.498  1.00  0.00     0.124 S 
ATOM     89  O   UNL A   1      44.669  37.248  28.933  1.00  0.00    -0.237 OA
ATOM     90  O   UNL A   1      45.519  37.665  26.645  1.00  0.00    -0.237 OA
ATOM     91  O   UNL A   1      43.102  37.807  27.111  1.00  0.00    -0.744 OA
ENDBRANCH  84  88
ENDBRANCH  57  81
BRANCH  69  92
ATOM     92  C   UNL A   1      48.264  28.132  30.126  1.00  0.00     0.023 A 
ATOM     93  C   UNL A   1      48.271  27.160  29.110  1.00  0.00     0.031 A 
ATOM     94  C   UNL A   1      49.500  28.575  30.629  1.00  0.00     0.131 A 
ATOM     95  C   UNL A   1      49.488  26.628  28.661  1.00  0.00     0.055 A 
ATOM     96  C   UNL A   1      50.711  28.080  30.141  1.00  0.00     0.041 A 
ATOM     97  F   UNL A   1      49.551  29.499  31.602  1.00  0.00    -0.206 F 
ATOM     98  C   UNL A   1      50.709  27.092  29.159  1.00  0.00     0.022 A 
BRANCH  95  99
ATOM     99  S   UNL A   1      49.457  25.264  27.466  1.00  0.00     0.124 S 
ATOM    100  O   UNL A   1      50.171  24.214  28.186  1.00  0.00    -0.237 OA
ATOM    101  O   UNL A   1      48.025  25.046  27.278  1.00  0.00    -0.237 OA
ATOM    102  O   UNL A   1      50.157  25.808  26.305  1.00  0.00    -0.744 OA
ENDBRANCH  95  99
ENDBRANCH  69  92
ENDBRANCH  43  44
ENDBRANCH  35  38
ENDBRANCH  33  34
ENDBRANCH  32  33
ENDBRANCH  31  32
ENDBRANCH   1  31
TORSDOF 20
ENDMDL
