MODEL 1
REMARK VINA RESULT:     -12.3      0.000      0.000
REMARK SMILES CC(C)N1C(=O)C[C@@H]([N@@H+]2CC[C@H](C(=O)NCCCCNC(=O)c3ccc(-c4c5nc(c(-c6cc(S(=O)(=O)[O-])ccc6F)c6ccc([nH]6)c(-c6cc(S(=O)(=O)[O-])ccc6F)c6nc(c(-c7cc(S(=O)(=O)[O-])ccc7F)c7ccc4[nH]7)C=C6)C=C5)cc3)[C@@H]2C)C1=O
REMARK SMILES IDX 18 1 17 2 16 3 15 4 13 5 14 6 12 8 9 9 10 10 86 11 11 13
REMARK SMILES IDX 87 14 8 15 4 16 5 17 88 18 6 19 7 20 89 21 2 22 1 23 3 24
REMARK SMILES IDX 19 25 20 26 21 27 22 29 23 30 24 31 85 32 25 33 84 34 26 35
REMARK SMILES IDX 27 36 28 37 78 38 29 39 83 40 77 41 79 42 30 43 82 44 76 45
REMARK SMILES IDX 75 46 31 48 63 49 43 50 62 51 44 52 47 53 61 54 80 55 45 56
REMARK SMILES IDX 46 57 60 59 81 60 48 61 32 62 33 63 41 64 34 65 40 66 42 67
REMARK SMILES IDX 39 68 35 69 36 70 37 71 38 72 64 73 65 74 73 75 66 76 72 77
REMARK SMILES IDX 74 78 71 79 67 80 68 81 69 82 70 83 49 84 50 85 58 86 51 87
REMARK SMILES IDX 57 88 59 89 56 90 52 91 53 92 54 93 55 94
REMARK H PARENT 15 7 9 12 20 28 79 47 47 58
REMARK Flexibility Score: inf
ROOT
ATOM      1  C   UNL A   1      36.183  21.228  25.608  1.00  0.00     0.023 C 
ENDROOT
BRANCH   1   2
ATOM      2  C   UNL A   1      35.233  20.247  24.920  1.00  0.00     0.023 C 
BRANCH   2   3
ATOM      3  C   UNL A   1      33.765  20.377  25.318  1.00  0.00     0.116 C 
BRANCH   3   4
ATOM      4  N   UNL A   1      33.059  21.362  24.520  1.00  0.00    -0.356 N 
ATOM      5  C   UNL A   1      32.796  22.675  24.764  1.00  0.00     0.229 C 
ATOM      6  O   UNL A   1      32.259  23.330  23.870  1.00  0.00    -0.275 OA
ATOM      7  H   UNL A   1      32.714  21.025  23.662  1.00  0.00     0.163 HD
BRANCH   5   8
ATOM      8  C   UNL A   1      33.135  23.287  26.117  1.00  0.00     0.142 C 
ATOM      9  N   UNL A   1      32.404  25.563  26.469  1.00  0.00    -0.321 N 
ATOM     10  C   UNL A   1      33.662  25.592  25.722  1.00  0.00     0.264 C 
ATOM     11  C   UNL A   1      32.008  24.159  26.700  1.00  0.00     0.194 C 
ATOM     12  H   UNL A   1      32.549  25.957  27.400  1.00  0.00     0.349 HD
ATOM     13  C   UNL A   1      34.310  24.248  25.988  1.00  0.00     0.081 C 
ATOM     14  C   UNL A   1      30.588  23.705  26.354  1.00  0.00     0.076 C 
BRANCH   9  15
ATOM     15  C   UNL A   1      31.381  26.525  26.026  1.00  0.00     0.284 C 
ATOM     16  N   UNL A   1      31.774  28.854  26.158  1.00  0.00    -0.275 N 
ATOM     17  C   UNL A   1      31.871  28.541  24.832  1.00  0.00     0.236 C 
ATOM     18  C   UNL A   1      31.382  27.771  26.909  1.00  0.00     0.288 C 
ATOM     19  O   UNL A   1      32.132  29.294  23.906  1.00  0.00    -0.274 OA
ATOM     20  C   UNL A   1      31.543  27.097  24.626  1.00  0.00     0.176 C 
ATOM     21  O   UNL A   1      31.103  27.791  28.102  1.00  0.00    -0.267 OA
BRANCH  16  22
ATOM     22  C   UNL A   1      32.038  30.159  26.775  1.00  0.00     0.087 C 
ATOM     23  C   UNL A   1      33.542  30.458  26.782  1.00  0.00     0.031 C 
ATOM     24  C   UNL A   1      31.297  31.343  26.148  1.00  0.00     0.031 C 
ENDBRANCH  16  22
ENDBRANCH   9  15
ENDBRANCH   5   8
ENDBRANCH   3   4
ENDBRANCH   2   3
ENDBRANCH   1   2
BRANCH   1  25
ATOM     25  C   UNL A   1      37.572  21.344  24.987  1.00  0.00     0.116 C 
BRANCH  25  26
ATOM     26  N   UNL A   1      38.526  20.399  25.548  1.00  0.00    -0.352 N 
ATOM     27  C   UNL A   1      39.669  20.636  26.274  1.00  0.00     0.251 C 
ATOM     28  H   UNL A   1      38.322  19.449  25.383  1.00  0.00     0.163 HD
ATOM     29  O   UNL A   1      40.422  19.703  26.536  1.00  0.00    -0.269 OA
BRANCH  27  30
ATOM     30  C   UNL A   1      40.006  22.012  26.699  1.00  0.00     0.039 A 
ATOM     31  C   UNL A   1      41.011  22.195  27.651  1.00  0.00     0.014 A 
ATOM     32  C   UNL A   1      39.357  23.120  26.144  1.00  0.00     0.014 A 
ATOM     33  C   UNL A   1      41.426  23.487  27.982  1.00  0.00     0.010 A 
ATOM     34  C   UNL A   1      39.824  24.404  26.417  1.00  0.00     0.010 A 
ATOM     35  C   UNL A   1      40.874  24.600  27.327  1.00  0.00    -0.014 A 
BRANCH  35  36
ATOM     36  C   UNL A   1      41.419  25.967  27.547  1.00  0.00     0.031 A 
ATOM     37  C   UNL A   1      42.774  26.347  27.019  1.00  0.00     0.074 A 
ATOM     38  C   UNL A   1      40.716  26.843  28.294  1.00  0.00     0.049 A 
ATOM     39  N   UNL A   1      43.437  27.465  27.170  1.00  0.00    -0.248 NA
ATOM     40  C   UNL A   1      43.488  25.324  26.242  1.00  0.00     0.031 C 
ATOM     41  C   UNL A   1      39.412  26.573  28.904  1.00  0.00     0.029 A 
ATOM     42  N   UNL A   1      41.000  28.130  28.680  1.00  0.00    -0.354 N 
ATOM     43  C   UNL A   1      44.652  27.278  26.519  1.00  0.00     0.074 A 
ATOM     44  C   UNL A   1      44.652  25.918  26.022  1.00  0.00     0.031 C 
ATOM     45  C   UNL A   1      39.002  27.664  29.569  1.00  0.00     0.029 A 
ATOM     46  C   UNL A   1      40.033  28.692  29.481  1.00  0.00     0.049 A 
ATOM     47  H   UNL A   1      41.819  28.606  28.410  1.00  0.00     0.167 HD
ATOM     48  C   UNL A   1      45.663  28.165  26.340  1.00  0.00     0.034 A 
ATOM     49  C   UNL A   1      39.987  29.890  30.098  1.00  0.00     0.034 A 
ATOM     50  C   UNL A   1      45.642  29.519  26.846  1.00  0.00     0.049 A 
ATOM     51  C   UNL A   1      41.137  30.848  29.913  1.00  0.00     0.074 A 
ATOM     52  C   UNL A   1      46.574  30.524  26.654  1.00  0.00     0.029 A 
ATOM     53  N   UNL A   1      44.652  30.051  27.663  1.00  0.00    -0.354 N 
ATOM     54  N   UNL A   1      42.244  30.685  29.228  1.00  0.00    -0.248 NA
ATOM     55  C   UNL A   1      41.025  32.151  30.580  1.00  0.00     0.031 C 
ATOM     56  C   UNL A   1      46.195  31.627  27.425  1.00  0.00     0.029 A 
ATOM     57  C   UNL A   1      44.978  31.350  28.027  1.00  0.00     0.049 A 
ATOM     58  H   UNL A   1      43.837  29.576  27.943  1.00  0.00     0.167 HD
ATOM     59  C   UNL A   1      42.955  31.873  29.368  1.00  0.00     0.074 A 
ATOM     60  C   UNL A   1      42.138  32.750  30.182  1.00  0.00     0.031 C 
ATOM     61  C   UNL A   1      44.173  32.208  28.866  1.00  0.00     0.034 A 
BRANCH  48  62
ATOM     62  C   UNL A   1      46.891  27.683  25.602  1.00  0.00     0.023 A 
ATOM     63  C   UNL A   1      47.134  28.025  24.259  1.00  0.00     0.031 A 
ATOM     64  C   UNL A   1      47.822  26.843  26.242  1.00  0.00     0.131 A 
ATOM     65  C   UNL A   1      48.226  27.464  23.579  1.00  0.00     0.055 A 
ATOM     66  C   UNL A   1      48.955  26.361  25.584  1.00  0.00     0.041 A 
ATOM     67  F   UNL A   1      47.636  26.463  27.516  1.00  0.00    -0.206 F 
ATOM     68  C   UNL A   1      49.153  26.656  24.239  1.00  0.00     0.022 A 
BRANCH  65  69
ATOM     69  S   UNL A   1      48.322  27.671  21.779  1.00  0.00     0.124 S 
ATOM     70  O   UNL A   1      47.003  28.220  21.473  1.00  0.00    -0.237 OA
ATOM     71  O   UNL A   1      49.446  28.587  21.626  1.00  0.00    -0.237 OA
ATOM     72  O   UNL A   1      48.550  26.313  21.289  1.00  0.00    -0.744 OA
ENDBRANCH  65  69
ENDBRANCH  48  62
BRANCH  49  73
ATOM     73  C   UNL A   1      38.830  30.237  30.973  1.00  0.00     0.023 A 
ATOM     74  C   UNL A   1      37.750  30.993  30.489  1.00  0.00     0.031 A 
ATOM     75  C   UNL A   1      38.798  29.825  32.318  1.00  0.00     0.131 A 
ATOM     76  C   UNL A   1      36.699  31.341  31.354  1.00  0.00     0.055 A 
ATOM     77  C   UNL A   1      37.726  30.128  33.158  1.00  0.00     0.041 A 
ATOM     78  F   UNL A   1      39.804  29.098  32.830  1.00  0.00    -0.206 F 
ATOM     79  C   UNL A   1      36.672  30.900  32.679  1.00  0.00     0.022 A 
BRANCH  76  80
ATOM     80  S   UNL A   1      35.394  32.440  30.739  1.00  0.00     0.124 S 
ATOM     81  O   UNL A   1      35.084  31.840  29.446  1.00  0.00    -0.237 OA
ATOM     82  O   UNL A   1      34.372  32.303  31.771  1.00  0.00    -0.237 OA
ATOM     83  O   UNL A   1      36.048  33.745  30.681  1.00  0.00    -0.744 OA
ENDBRANCH  76  80
ENDBRANCH  49  73
BRANCH  61  84
ATOM     84  C   UNL A   1      44.683  33.597  29.175  1.00  0.00     0.023 A 
ATOM     85  C   UNL A   1      44.268  34.717  28.434  1.00  0.00     0.031 A 
ATOM     86  C   UNL A   1      45.606  33.800  30.216  1.00  0.00     0.131 A 
ATOM     87  C   UNL A   1      44.819  35.980  28.706  1.00  0.00     0.055 A 
ATOM     88  C   UNL A   1      46.098  35.068  30.527  1.00  0.00     0.041 A 
ATOM     89  F   UNL A   1      46.045  32.766  30.954  1.00  0.00    -0.206 F 
ATOM     90  C   UNL A   1      45.716  36.165  29.761  1.00  0.00     0.022 A 
BRANCH  87  91
ATOM     91  S   UNL A   1      44.427  37.359  27.595  1.00  0.00     0.124 S 
ATOM     92  O   UNL A   1      45.711  37.595  26.943  1.00  0.00    -0.237 OA
ATOM     93  O   UNL A   1      43.377  36.794  26.753  1.00  0.00    -0.237 OA
ATOM     94  O   UNL A   1      43.990  38.417  28.504  1.00  0.00    -0.744 OA
ENDBRANCH  87  91
ENDBRANCH  61  84
ENDBRANCH  35  36
ENDBRANCH  27  30
ENDBRANCH  25  26
ENDBRANCH   1  25
TORSDOF 16
ENDMDL
MODEL 2
REMARK VINA RESULT:     -12.1      5.341      8.941
REMARK SMILES CC(C)N1C(=O)C[C@@H]([N@@H+]2CC[C@H](C(=O)NCCCCNC(=O)c3ccc(-c4c5nc(c(-c6cc(S(=O)(=O)[O-])ccc6F)c6ccc([nH]6)c(-c6cc(S(=O)(=O)[O-])ccc6F)c6nc(c(-c7cc(S(=O)(=O)[O-])ccc7F)c7ccc4[nH]7)C=C6)C=C5)cc3)[C@@H]2C)C1=O
REMARK SMILES IDX 18 1 17 2 16 3 15 4 13 5 14 6 12 8 9 9 10 10 86 11 11 13
REMARK SMILES IDX 87 14 8 15 4 16 5 17 88 18 6 19 7 20 89 21 2 22 1 23 3 24
REMARK SMILES IDX 19 25 20 26 21 27 22 29 23 30 24 31 85 32 25 33 84 34 26 35
REMARK SMILES IDX 27 36 28 37 78 38 29 39 83 40 77 41 79 42 30 43 82 44 76 45
REMARK SMILES IDX 75 46 31 48 63 49 43 50 62 51 44 52 47 53 61 54 80 55 45 56
REMARK SMILES IDX 46 57 60 59 81 60 48 61 32 62 33 63 41 64 34 65 40 66 42 67
REMARK SMILES IDX 39 68 35 69 36 70 37 71 38 72 64 73 65 74 73 75 66 76 72 77
REMARK SMILES IDX 74 78 71 79 67 80 68 81 69 82 70 83 49 84 50 85 58 86 51 87
REMARK SMILES IDX 57 88 59 89 56 90 52 91 53 92 54 93 55 94
REMARK H PARENT 15 7 9 12 20 28 79 47 47 58
REMARK Flexibility Score: inf
ROOT
ATOM      1  C   UNL A   1      32.069  30.646  26.683  1.00  0.00     0.023 C 
ENDROOT
BRANCH   1   2
ATOM      2  C   UNL A   1      31.956  29.223  27.230  1.00  0.00     0.023 C 
BRANCH   2   3
ATOM      3  C   UNL A   1      33.089  28.281  26.830  1.00  0.00     0.116 C 
BRANCH   3   4
ATOM      4  N   UNL A   1      32.883  27.690  25.520  1.00  0.00    -0.356 N 
ATOM      5  C   UNL A   1      32.530  26.424  25.167  1.00  0.00     0.229 C 
ATOM      6  O   UNL A   1      32.318  26.198  23.975  1.00  0.00    -0.275 OA
ATOM      7  H   UNL A   1      33.020  28.306  24.765  1.00  0.00     0.163 HD
BRANCH   5   8
ATOM      8  C   UNL A   1      32.436  25.330  26.223  1.00  0.00     0.142 C 
ATOM      9  N   UNL A   1      32.801  23.070  25.450  1.00  0.00    -0.321 N 
ATOM     10  C   UNL A   1      31.412  23.437  25.168  1.00  0.00     0.264 C 
ATOM     11  C   UNL A   1      33.493  24.223  26.060  1.00  0.00     0.194 C 
ATOM     12  H   UNL A   1      32.825  22.337  26.160  1.00  0.00     0.349 HD
ATOM     13  C   UNL A   1      31.111  24.589  26.105  1.00  0.00     0.081 C 
ATOM     14  C   UNL A   1      34.839  24.686  25.497  1.00  0.00     0.076 C 
BRANCH   9  15
ATOM     15  C   UNL A   1      33.485  22.314  24.388  1.00  0.00     0.284 C 
ATOM     16  N   UNL A   1      33.520  19.949  24.420  1.00  0.00    -0.275 N 
ATOM     17  C   UNL A   1      32.639  20.288  23.433  1.00  0.00     0.236 C 
ATOM     18  C   UNL A   1      34.142  21.055  24.948  1.00  0.00     0.288 C 
ATOM     19  O   UNL A   1      31.982  19.536  22.730  1.00  0.00    -0.274 OA
ATOM     20  C   UNL A   1      32.613  21.773  23.264  1.00  0.00     0.176 C 
ATOM     21  O   UNL A   1      35.059  21.040  25.761  1.00  0.00    -0.267 OA
BRANCH  16  22
ATOM     22  C   UNL A   1      33.819  18.596  24.905  1.00  0.00     0.087 C 
ATOM     23  C   UNL A   1      32.609  18.009  25.643  1.00  0.00     0.031 C 
ATOM     24  C   UNL A   1      34.282  17.603  23.837  1.00  0.00     0.031 C 
ENDBRANCH  16  22
ENDBRANCH   9  15
ENDBRANCH   5   8
ENDBRANCH   3   4
ENDBRANCH   2   3
ENDBRANCH   1   2
BRANCH   1  25
ATOM     25  C   UNL A   1      33.196  31.490  27.272  1.00  0.00     0.116 C 
BRANCH  25  26
ATOM     26  N   UNL A   1      32.835  32.892  27.424  1.00  0.00    -0.352 N 
ATOM     27  C   UNL A   1      33.340  33.837  28.286  1.00  0.00     0.251 C 
ATOM     28  H   UNL A   1      32.125  33.210  26.821  1.00  0.00     0.163 HD
ATOM     29  O   UNL A   1      32.799  34.936  28.361  1.00  0.00    -0.269 OA
BRANCH  27  30
ATOM     30  C   UNL A   1      34.501  33.513  29.145  1.00  0.00     0.039 A 
ATOM     31  C   UNL A   1      34.305  32.691  30.256  1.00  0.00     0.014 A 
ATOM     32  C   UNL A   1      35.779  33.994  28.845  1.00  0.00     0.014 A 
ATOM     33  C   UNL A   1      35.404  32.278  31.014  1.00  0.00     0.010 A 
ATOM     34  C   UNL A   1      36.881  33.521  29.555  1.00  0.00     0.010 A 
ATOM     35  C   UNL A   1      36.706  32.645  30.637  1.00  0.00    -0.014 A 
BRANCH  35  36
ATOM     36  C   UNL A   1      37.894  32.080  31.334  1.00  0.00     0.031 A 
ATOM     37  C   UNL A   1      38.710  30.990  30.698  1.00  0.00     0.074 A 
ATOM     38  C   UNL A   1      38.188  32.504  32.580  1.00  0.00     0.049 A 
ATOM     39  N   UNL A   1      39.733  30.333  31.182  1.00  0.00    -0.248 NA
ATOM     40  C   UNL A   1      38.303  30.563  29.352  1.00  0.00     0.031 C 
ATOM     41  C   UNL A   1      37.439  33.521  33.323  1.00  0.00     0.029 A 
ATOM     42  N   UNL A   1      39.183  32.128  33.449  1.00  0.00    -0.354 N 
ATOM     43  C   UNL A   1      40.087  29.407  30.207  1.00  0.00     0.074 A 
ATOM     44  C   UNL A   1      39.130  29.552  29.130  1.00  0.00     0.031 C 
ATOM     45  C   UNL A   1      38.011  33.700  34.523  1.00  0.00     0.029 A 
ATOM     46  C   UNL A   1      39.132  32.777  34.661  1.00  0.00     0.049 A 
ATOM     47  H   UNL A   1      39.868  31.457  33.226  1.00  0.00     0.167 HD
ATOM     48  C   UNL A   1      41.123  28.530  30.206  1.00  0.00     0.034 A 
ATOM     49  C   UNL A   1      39.884  32.632  35.770  1.00  0.00     0.034 A 
ATOM     50  C   UNL A   1      42.066  28.402  31.293  1.00  0.00     0.049 A 
ATOM     51  C   UNL A   1      41.009  31.628  35.760  1.00  0.00     0.074 A 
ATOM     52  C   UNL A   1      43.196  27.606  31.363  1.00  0.00     0.029 A 
ATOM     53  N   UNL A   1      41.977  29.067  32.511  1.00  0.00    -0.354 N 
ATOM     54  N   UNL A   1      41.380  30.815  34.799  1.00  0.00    -0.248 NA
ATOM     55  C   UNL A   1      41.818  31.530  36.980  1.00  0.00     0.031 C 
ATOM     56  C   UNL A   1      43.736  27.721  32.648  1.00  0.00     0.029 A 
ATOM     57  C   UNL A   1      43.001  28.659  33.355  1.00  0.00     0.049 A 
ATOM     58  H   UNL A   1      41.288  29.731  32.741  1.00  0.00     0.167 HD
ATOM     59  C   UNL A   1      42.478  30.118  35.294  1.00  0.00     0.074 A 
ATOM     60  C   UNL A   1      42.722  30.627  36.629  1.00  0.00     0.031 C 
ATOM     61  C   UNL A   1      43.218  29.147  34.698  1.00  0.00     0.034 A 
BRANCH  48  62
ATOM     62  C   UNL A   1      41.261  27.616  29.010  1.00  0.00     0.023 A 
ATOM     63  C   UNL A   1      42.250  27.817  28.030  1.00  0.00     0.031 A 
ATOM     64  C   UNL A   1      40.373  26.540  28.831  1.00  0.00     0.131 A 
ATOM     65  C   UNL A   1      42.271  27.014  26.879  1.00  0.00     0.055 A 
ATOM     66  C   UNL A   1      40.457  25.688  27.727  1.00  0.00     0.041 A 
ATOM     67  F   UNL A   1      39.393  26.306  29.720  1.00  0.00    -0.206 F 
ATOM     68  C   UNL A   1      41.399  25.934  26.734  1.00  0.00     0.022 A 
BRANCH  65  69
ATOM     69  S   UNL A   1      43.345  27.506  25.502  1.00  0.00     0.124 S 
ATOM     70  O   UNL A   1      44.021  26.248  25.190  1.00  0.00    -0.237 OA
ATOM     71  O   UNL A   1      42.388  27.979  24.509  1.00  0.00    -0.237 OA
ATOM     72  O   UNL A   1      44.203  28.535  26.086  1.00  0.00    -0.744 OA
ENDBRANCH  65  69
ENDBRANCH  48  62
BRANCH  49  73
ATOM     73  C   UNL A   1      39.578  33.431  36.992  1.00  0.00     0.023 A 
ATOM     74  C   UNL A   1      38.829  32.891  38.048  1.00  0.00     0.031 A 
ATOM     75  C   UNL A   1      40.021  34.761  37.109  1.00  0.00     0.131 A 
ATOM     76  C   UNL A   1      38.518  33.687  39.163  1.00  0.00     0.055 A 
ATOM     77  C   UNL A   1      39.756  35.531  38.242  1.00  0.00     0.041 A 
ATOM     78  F   UNL A   1      40.744  35.326  36.129  1.00  0.00    -0.206 F 
ATOM     79  C   UNL A   1      38.991  34.997  39.275  1.00  0.00     0.022 A 
BRANCH  76  80
ATOM     80  S   UNL A   1      37.426  33.007  40.442  1.00  0.00     0.124 S 
ATOM     81  O   UNL A   1      38.276  31.986  41.046  1.00  0.00    -0.237 OA
ATOM     82  O   UNL A   1      37.153  34.182  41.262  1.00  0.00    -0.237 OA
ATOM     83  O   UNL A   1      36.286  32.500  39.681  1.00  0.00    -0.744 OA
ENDBRANCH  76  80
ENDBRANCH  49  73
BRANCH  61  84
ATOM     84  C   UNL A   1      44.378  28.586  35.488  1.00  0.00     0.023 A 
ATOM     85  C   UNL A   1      44.211  27.518  36.387  1.00  0.00     0.031 A 
ATOM     86  C   UNL A   1      45.665  29.136  35.349  1.00  0.00     0.131 A 
ATOM     87  C   UNL A   1      45.299  27.073  37.155  1.00  0.00     0.055 A 
ATOM     88  C   UNL A   1      46.757  28.643  36.065  1.00  0.00     0.041 A 
ATOM     89  F   UNL A   1      45.884  30.163  34.511  1.00  0.00    -0.206 F 
ATOM     90  C   UNL A   1      46.575  27.615  36.984  1.00  0.00     0.022 A 
BRANCH  87  91
ATOM     91  S   UNL A   1      45.002  25.844  38.457  1.00  0.00     0.124 S 
ATOM     92  O   UNL A   1      46.350  25.612  38.965  1.00  0.00    -0.237 OA
ATOM     93  O   UNL A   1      44.095  26.553  39.354  1.00  0.00    -0.237 OA
ATOM     94  O   UNL A   1      44.408  24.719  37.737  1.00  0.00    -0.744 OA
ENDBRANCH  87  91
ENDBRANCH  61  84
ENDBRANCH  35  36
ENDBRANCH  27  30
ENDBRANCH  25  26
ENDBRANCH   1  25
TORSDOF 16
ENDMDL
MODEL 3
REMARK VINA RESULT:     -12.0      5.017      8.465
REMARK SMILES CC(C)N1C(=O)C[C@@H]([N@@H+]2CC[C@H](C(=O)NCCCCNC(=O)c3ccc(-c4c5nc(c(-c6cc(S(=O)(=O)[O-])ccc6F)c6ccc([nH]6)c(-c6cc(S(=O)(=O)[O-])ccc6F)c6nc(c(-c7cc(S(=O)(=O)[O-])ccc7F)c7ccc4[nH]7)C=C6)C=C5)cc3)[C@@H]2C)C1=O
REMARK SMILES IDX 18 1 17 2 16 3 15 4 13 5 14 6 12 8 9 9 10 10 86 11 11 13
REMARK SMILES IDX 87 14 8 15 4 16 5 17 88 18 6 19 7 20 89 21 2 22 1 23 3 24
REMARK SMILES IDX 19 25 20 26 21 27 22 29 23 30 24 31 85 32 25 33 84 34 26 35
REMARK SMILES IDX 27 36 28 37 78 38 29 39 83 40 77 41 79 42 30 43 82 44 76 45
REMARK SMILES IDX 75 46 31 48 63 49 43 50 62 51 44 52 47 53 61 54 80 55 45 56
REMARK SMILES IDX 46 57 60 59 81 60 48 61 32 62 33 63 41 64 34 65 40 66 42 67
REMARK SMILES IDX 39 68 35 69 36 70 37 71 38 72 64 73 65 74 73 75 66 76 72 77
REMARK SMILES IDX 74 78 71 79 67 80 68 81 69 82 70 83 49 84 50 85 58 86 51 87
REMARK SMILES IDX 57 88 59 89 56 90 52 91 53 92 54 93 55 94
REMARK H PARENT 15 7 9 12 20 28 79 47 47 58
REMARK Flexibility Score: inf
ROOT
ATOM      1  C   UNL A   1      32.427  30.055  25.529  1.00  0.00     0.023 C 
ENDROOT
BRANCH   1   2
ATOM      2  C   UNL A   1      31.349  29.514  24.590  1.00  0.00     0.023 C 
BRANCH   2   3
ATOM      3  C   UNL A   1      31.345  27.998  24.411  1.00  0.00     0.116 C 
BRANCH   3   4
ATOM      4  N   UNL A   1      32.310  27.336  25.271  1.00  0.00    -0.356 N 
ATOM      5  C   UNL A   1      32.922  26.126  25.146  1.00  0.00     0.229 C 
ATOM      6  O   UNL A   1      33.789  25.833  25.970  1.00  0.00    -0.275 OA
ATOM      7  H   UNL A   1      32.561  27.844  26.075  1.00  0.00     0.163 HD
BRANCH   5   8
ATOM      8  C   UNL A   1      32.512  25.170  24.034  1.00  0.00     0.142 C 
ATOM      9  N   UNL A   1      33.230  22.876  24.285  1.00  0.00    -0.321 N 
ATOM     10  C   UNL A   1      34.339  23.649  23.721  1.00  0.00     0.264 C 
ATOM     11  C   UNL A   1      32.090  23.779  24.541  1.00  0.00     0.194 C 
ATOM     12  H   UNL A   1      32.892  22.207  23.592  1.00  0.00     0.349 HD
ATOM     13  C   UNL A   1      33.694  24.880  23.117  1.00  0.00     0.081 C 
ATOM     14  C   UNL A   1      31.405  23.765  25.909  1.00  0.00     0.076 C 
BRANCH   9  15
ATOM     15  C   UNL A   1      33.602  21.893  25.316  1.00  0.00     0.284 C 
ATOM     16  N   UNL A   1      33.976  19.628  24.746  1.00  0.00    -0.275 N 
ATOM     17  C   UNL A   1      35.214  20.153  24.984  1.00  0.00     0.236 C 
ATOM     18  C   UNL A   1      32.977  20.530  25.025  1.00  0.00     0.288 C 
ATOM     19  O   UNL A   1      36.293  19.588  24.896  1.00  0.00    -0.274 OA
ATOM     20  C   UNL A   1      35.083  21.569  25.448  1.00  0.00     0.176 C 
ATOM     21  O   UNL A   1      31.775  20.294  25.015  1.00  0.00    -0.267 OA
BRANCH  16  22
ATOM     22  C   UNL A   1      33.673  18.277  24.258  1.00  0.00     0.087 C 
ATOM     23  C   UNL A   1      33.076  17.420  25.382  1.00  0.00     0.031 C 
ATOM     24  C   UNL A   1      32.753  18.211  23.038  1.00  0.00     0.031 C 
ENDBRANCH  16  22
ENDBRANCH   9  15
ENDBRANCH   5   8
ENDBRANCH   3   4
ENDBRANCH   2   3
ENDBRANCH   1   2
BRANCH   1  25
ATOM     25  C   UNL A   1      31.929  30.573  26.876  1.00  0.00     0.116 C 
BRANCH  25  26
ATOM     26  N   UNL A   1      31.958  32.025  26.972  1.00  0.00    -0.352 N 
ATOM     27  C   UNL A   1      32.917  32.847  27.516  1.00  0.00     0.251 C 
ATOM     28  H   UNL A   1      31.175  32.486  26.591  1.00  0.00     0.163 HD
ATOM     29  O   UNL A   1      32.688  34.047  27.631  1.00  0.00    -0.269 OA
BRANCH  27  30
ATOM     30  C   UNL A   1      34.195  32.278  27.996  1.00  0.00     0.039 A 
ATOM     31  C   UNL A   1      35.309  33.115  28.089  1.00  0.00     0.014 A 
ATOM     32  C   UNL A   1      34.293  30.936  28.377  1.00  0.00     0.014 A 
ATOM     33  C   UNL A   1      36.495  32.630  28.648  1.00  0.00     0.010 A 
ATOM     34  C   UNL A   1      35.450  30.477  29.002  1.00  0.00     0.010 A 
ATOM     35  C   UNL A   1      36.558  31.324  29.159  1.00  0.00    -0.014 A 
BRANCH  35  36
ATOM     36  C   UNL A   1      37.756  30.849  29.904  1.00  0.00     0.031 A 
ATOM     37  C   UNL A   1      38.702  29.860  29.284  1.00  0.00     0.074 A 
ATOM     38  C   UNL A   1      37.944  31.257  31.175  1.00  0.00     0.049 A 
ATOM     39  N   UNL A   1      39.756  29.285  29.804  1.00  0.00    -0.248 NA
ATOM     40  C   UNL A   1      38.407  29.442  27.906  1.00  0.00     0.031 C 
ATOM     41  C   UNL A   1      37.065  32.176  31.904  1.00  0.00     0.029 A 
ATOM     42  N   UNL A   1      38.924  30.946  32.086  1.00  0.00    -0.354 N 
ATOM     43  C   UNL A   1      40.245  28.428  28.824  1.00  0.00     0.074 A 
ATOM     44  C   UNL A   1      39.336  28.519  27.701  1.00  0.00     0.031 C 
ATOM     45  C   UNL A   1      37.555  32.368  33.138  1.00  0.00     0.029 A 
ATOM     46  C   UNL A   1      38.749  31.548  33.311  1.00  0.00     0.049 A 
ATOM     47  H   UNL A   1      39.679  30.349  31.882  1.00  0.00     0.167 HD
ATOM     48  C   UNL A   1      41.358  27.651  28.856  1.00  0.00     0.034 A 
ATOM     49  C   UNL A   1      39.454  31.437  34.455  1.00  0.00     0.034 A 
ATOM     50  C   UNL A   1      42.251  27.575  29.989  1.00  0.00     0.049 A 
ATOM     51  C   UNL A   1      40.667  30.543  34.478  1.00  0.00     0.074 A 
ATOM     52  C   UNL A   1      43.446  26.886  30.097  1.00  0.00     0.029 A 
ATOM     53  N   UNL A   1      42.038  28.189  31.217  1.00  0.00    -0.354 N 
ATOM     54  N   UNL A   1      41.162  29.798  33.517  1.00  0.00    -0.248 NA
ATOM     55  C   UNL A   1      41.418  30.480  35.738  1.00  0.00     0.031 C 
ATOM     56  C   UNL A   1      43.906  27.008  31.413  1.00  0.00     0.029 A 
ATOM     57  C   UNL A   1      43.051  27.850  32.104  1.00  0.00     0.049 A 
ATOM     58  H   UNL A   1      41.279  28.779  31.428  1.00  0.00     0.167 HD
ATOM     59  C   UNL A   1      42.293  29.190  34.052  1.00  0.00     0.074 A 
ATOM     60  C   UNL A   1      42.419  29.676  35.411  1.00  0.00     0.031 C 
ATOM     61  C   UNL A   1      43.151  28.312  33.470  1.00  0.00     0.034 A 
BRANCH  48  62
ATOM     62  C   UNL A   1      41.643  26.793  27.644  1.00  0.00     0.023 A 
ATOM     63  C   UNL A   1      41.269  25.438  27.587  1.00  0.00     0.031 A 
ATOM     64  C   UNL A   1      42.324  27.330  26.536  1.00  0.00     0.131 A 
ATOM     65  C   UNL A   1      41.653  24.650  26.491  1.00  0.00     0.055 A 
ATOM     66  C   UNL A   1      42.624  26.562  25.410  1.00  0.00     0.041 A 
ATOM     67  F   UNL A   1      42.727  28.611  26.537  1.00  0.00    -0.206 F 
ATOM     68  C   UNL A   1      42.304  25.209  25.390  1.00  0.00     0.022 A 
BRANCH  65  69
ATOM     69  S   UNL A   1      41.436  22.852  26.602  1.00  0.00     0.124 S 
ATOM     70  O   UNL A   1      42.208  22.389  25.450  1.00  0.00    -0.237 OA
ATOM     71  O   UNL A   1      41.999  22.546  27.912  1.00  0.00    -0.237 OA
ATOM     72  O   UNL A   1      39.990  22.673  26.484  1.00  0.00    -0.744 OA
ENDBRANCH  65  69
ENDBRANCH  48  62
BRANCH  49  73
ATOM     73  C   UNL A   1      39.011  32.165  35.680  1.00  0.00     0.023 A 
ATOM     74  C   UNL A   1      38.341  31.502  36.719  1.00  0.00     0.031 A 
ATOM     75  C   UNL A   1      39.241  33.546  35.817  1.00  0.00     0.131 A 
ATOM     76  C   UNL A   1      37.896  32.227  37.838  1.00  0.00     0.055 A 
ATOM     77  C   UNL A   1      38.845  34.251  36.954  1.00  0.00     0.041 A 
ATOM     78  F   UNL A   1      39.881  34.227  34.854  1.00  0.00    -0.206 F 
ATOM     79  C   UNL A   1      38.158  33.592  37.969  1.00  0.00     0.022 A 
BRANCH  76  80
ATOM     80  S   UNL A   1      36.905  31.370  39.093  1.00  0.00     0.124 S 
ATOM     81  O   UNL A   1      36.761  30.044  38.504  1.00  0.00    -0.237 OA
ATOM     82  O   UNL A   1      37.764  31.460  40.269  1.00  0.00    -0.237 OA
ATOM     83  O   UNL A   1      35.679  32.162  39.157  1.00  0.00    -0.744 OA
ENDBRANCH  76  80
ENDBRANCH  49  73
BRANCH  61  84
ATOM     84  C   UNL A   1      44.316  27.835  34.306  1.00  0.00     0.023 A 
ATOM     85  C   UNL A   1      44.265  26.627  35.024  1.00  0.00     0.031 A 
ATOM     86  C   UNL A   1      45.489  28.607  34.397  1.00  0.00     0.131 A 
ATOM     87  C   UNL A   1      45.340  26.254  35.845  1.00  0.00     0.055 A 
ATOM     88  C   UNL A   1      46.582  28.197  35.162  1.00  0.00     0.041 A 
ATOM     89  F   UNL A   1      45.593  29.774  33.741  1.00  0.00    -0.206 F 
ATOM     90  C   UNL A   1      46.507  27.021  35.902  1.00  0.00     0.022 A 
BRANCH  87  91
ATOM     91  S   UNL A   1      45.154  24.805  36.921  1.00  0.00     0.124 S 
ATOM     92  O   UNL A   1      44.907  25.423  38.219  1.00  0.00    -0.237 OA
ATOM     93  O   UNL A   1      44.020  24.112  36.317  1.00  0.00    -0.237 OA
ATOM     94  O   UNL A   1      46.438  24.118  36.796  1.00  0.00    -0.744 OA
ENDBRANCH  87  91
ENDBRANCH  61  84
ENDBRANCH  35  36
ENDBRANCH  27  30
ENDBRANCH  25  26
ENDBRANCH   1  25
TORSDOF 16
ENDMDL
