MODEL 1
REMARK VINA RESULT:     -12.2      0.000      0.000
REMARK SMILES C[C@H]1CCC[C@H](C)N1C(=O)[C@H]1[C@@H](C(=O)NCCCCNC(=O)c2ccc(-c3c4nc(c(-c5cc(S(=O)(=O)[O-])ccc5F)c5ccc([nH]5)c(-c5cc(S(=O)(=O)[O-])ccc5F)c5nc(c(-c6cc(S(=O)(=O)[O-])ccc6F)c6ccc3[nH]6)C=C5)C=C4)cc2)[C@H]2CC[C@@H]1O2
REMARK SMILES IDX 18 1 17 2 16 3 15 4 13 5 14 6 12 8 11 9 89 10 86 11 88 12
REMARK SMILES IDX 90 13 87 14 9 15 1 16 2 17 3 18 8 19 4 20 6 21 5 22 7 23
REMARK SMILES IDX 10 24 19 25 20 26 21 27 22 29 23 30 24 31 85 32 25 33 84 34
REMARK SMILES IDX 26 35 27 36 28 37 78 38 29 39 83 40 77 41 79 42 30 43 82 44
REMARK SMILES IDX 76 45 75 46 31 48 63 49 43 50 62 51 44 52 47 53 61 54 80 55
REMARK SMILES IDX 45 56 46 57 60 59 81 60 48 61 32 62 33 63 41 64 34 65 40 66
REMARK SMILES IDX 42 67 39 68 35 69 36 70 37 71 38 72 64 73 65 74 73 75 66 76
REMARK SMILES IDX 72 77 74 78 71 79 67 80 68 81 69 82 70 83 49 84 50 85 58 86
REMARK SMILES IDX 51 87 57 88 59 89 56 90 52 91 53 92 54 93 55 94
REMARK H PARENT 15 7 20 28 79 47 47 58
REMARK Flexibility Score: inf
ROOT
ATOM      1  C   UNL A   1      31.782  31.631  26.994  1.00  0.00     0.023 C 
ENDROOT
BRANCH   1   2
ATOM      2  C   UNL A   1      32.063  30.437  26.081  1.00  0.00     0.023 C 
BRANCH   2   3
ATOM      3  C   UNL A   1      33.308  29.632  26.449  1.00  0.00     0.116 C 
BRANCH   3   4
ATOM      4  N   UNL A   1      34.001  29.098  25.280  1.00  0.00    -0.356 N 
ATOM      5  C   UNL A   1      33.594  28.132  24.393  1.00  0.00     0.226 C 
ATOM      6  O   UNL A   1      34.293  27.906  23.406  1.00  0.00    -0.275 OA
ATOM      7  H   UNL A   1      34.888  29.485  25.102  1.00  0.00     0.163 HD
BRANCH   5   8
ATOM      8  C   UNL A   1      32.314  27.400  24.693  1.00  0.00     0.122 C 
ATOM      9  C   UNL A   1      32.212  25.886  24.876  1.00  0.00     0.122 C 
ATOM     10  C   UNL A   1      30.812  25.635  24.256  1.00  0.00     0.132 C 
ATOM     11  C   UNL A   1      31.152  27.730  23.755  1.00  0.00     0.132 C 
ATOM     12  C   UNL A   1      30.748  25.593  22.743  1.00  0.00     0.035 C 
ATOM     13  O   UNL A   1      30.154  26.942  24.466  1.00  0.00    -0.373 OA
ATOM     14  C   UNL A   1      31.028  27.050  22.387  1.00  0.00     0.035 C 
BRANCH   9  15
ATOM     15  C   UNL A   1      33.395  25.035  24.429  1.00  0.00     0.229 C 
ATOM     16  C   UNL A   1      31.957  23.668  26.975  1.00  0.00     0.031 C 
ATOM     17  C   UNL A   1      33.418  23.473  26.559  1.00  0.00     0.082 C 
ATOM     18  C   UNL A   1      33.649  21.946  26.717  1.00  0.00     0.025 C 
ATOM     19  N   UNL A   1      33.868  23.960  25.209  1.00  0.00    -0.337 N 
ATOM     20  C   UNL A   1      35.045  21.491  26.349  1.00  0.00     0.004 C 
ATOM     21  C   UNL A   1      35.203  23.446  24.771  1.00  0.00     0.082 C 
ATOM     22  C   UNL A   1      35.343  21.930  24.932  1.00  0.00     0.025 C 
ATOM     23  C   UNL A   1      36.354  24.185  25.470  1.00  0.00     0.031 C 
ATOM     24  O   UNL A   1      33.912  25.279  23.334  1.00  0.00    -0.274 OA
ENDBRANCH   9  15
ENDBRANCH   5   8
ENDBRANCH   3   4
ENDBRANCH   2   3
ENDBRANCH   1   2
BRANCH   1  25
ATOM     25  C   UNL A   1      32.991  32.507  27.308  1.00  0.00     0.116 C 
BRANCH  25  26
ATOM     26  N   UNL A   1      32.633  33.885  27.605  1.00  0.00    -0.352 N 
ATOM     27  C   UNL A   1      33.139  34.714  28.580  1.00  0.00     0.251 C 
ATOM     28  H   UNL A   1      31.935  34.278  27.032  1.00  0.00     0.163 HD
ATOM     29  O   UNL A   1      32.613  35.803  28.789  1.00  0.00    -0.269 OA
BRANCH  27  30
ATOM     30  C   UNL A   1      34.290  34.266  29.395  1.00  0.00     0.039 A 
ATOM     31  C   UNL A   1      34.052  33.510  30.545  1.00  0.00     0.014 A 
ATOM     32  C   UNL A   1      35.600  34.561  29.006  1.00  0.00     0.014 A 
ATOM     33  C   UNL A   1      35.130  32.988  31.262  1.00  0.00     0.010 A 
ATOM     34  C   UNL A   1      36.669  33.973  29.676  1.00  0.00     0.010 A 
ATOM     35  C   UNL A   1      36.447  33.178  30.811  1.00  0.00    -0.014 A 
BRANCH  35  36
ATOM     36  C   UNL A   1      37.602  32.549  31.508  1.00  0.00     0.031 A 
ATOM     37  C   UNL A   1      38.338  31.403  30.866  1.00  0.00     0.074 A 
ATOM     38  C   UNL A   1      37.950  32.971  32.741  1.00  0.00     0.049 A 
ATOM     39  N   UNL A   1      39.322  30.683  31.340  1.00  0.00    -0.248 NA
ATOM     40  C   UNL A   1      37.888  30.995  29.526  1.00  0.00     0.031 C 
ATOM     41  C   UNL A   1      37.293  34.051  33.481  1.00  0.00     0.029 A 
ATOM     42  N   UNL A   1      38.937  32.541  33.594  1.00  0.00    -0.354 N 
ATOM     43  C   UNL A   1      39.599  29.728  30.366  1.00  0.00     0.074 A 
ATOM     44  C   UNL A   1      38.640  29.928  29.302  1.00  0.00     0.031 C 
ATOM     45  C   UNL A   1      37.917  34.221  34.658  1.00  0.00     0.029 A 
ATOM     46  C   UNL A   1      38.980  33.230  34.785  1.00  0.00     0.049 A 
ATOM     47  H   UNL A   1      39.557  31.809  33.373  1.00  0.00     0.167 HD
ATOM     48  C   UNL A   1      40.574  28.786  30.355  1.00  0.00     0.034 A 
ATOM     49  C   UNL A   1      39.775  33.072  35.862  1.00  0.00     0.034 A 
ATOM     50  C   UNL A   1      41.533  28.612  31.419  1.00  0.00     0.049 A 
ATOM     51  C   UNL A   1      40.827  31.990  35.838  1.00  0.00     0.074 A 
ATOM     52  C   UNL A   1      42.603  27.735  31.475  1.00  0.00     0.029 A 
ATOM     53  N   UNL A   1      41.533  29.314  32.616  1.00  0.00    -0.354 N 
ATOM     54  N   UNL A   1      41.114  31.135  34.884  1.00  0.00    -0.248 NA
ATOM     55  C   UNL A   1      41.668  31.857  37.035  1.00  0.00     0.031 C 
ATOM     56  C   UNL A   1      43.195  27.847  32.737  1.00  0.00     0.029 A 
ATOM     57  C   UNL A   1      42.557  28.860  33.434  1.00  0.00     0.049 A 
ATOM     58  H   UNL A   1      40.900  30.031  32.851  1.00  0.00     0.167 HD
ATOM     59  C   UNL A   1      42.194  30.392  35.351  1.00  0.00     0.074 A 
ATOM     60  C   UNL A   1      42.515  30.908  36.665  1.00  0.00     0.031 C 
ATOM     61  C   UNL A   1      42.865  29.378  34.748  1.00  0.00     0.034 A 
BRANCH  48  62
ATOM     62  C   UNL A   1      40.631  27.851  29.171  1.00  0.00     0.023 A 
ATOM     63  C   UNL A   1      41.549  28.034  28.121  1.00  0.00     0.031 A 
ATOM     64  C   UNL A   1      39.749  26.759  29.087  1.00  0.00     0.131 A 
ATOM     65  C   UNL A   1      41.518  27.183  27.006  1.00  0.00     0.055 A 
ATOM     66  C   UNL A   1      39.780  25.865  28.015  1.00  0.00     0.041 A 
ATOM     67  F   UNL A   1      38.835  26.545  30.046  1.00  0.00    -0.206 F 
ATOM     68  C   UNL A   1      40.659  26.083  26.959  1.00  0.00     0.022 A 
BRANCH  65  69
ATOM     69  S   UNL A   1      42.520  27.615  25.557  1.00  0.00     0.124 S 
ATOM     70  O   UNL A   1      43.854  27.729  26.144  1.00  0.00    -0.237 OA
ATOM     71  O   UNL A   1      42.306  26.475  24.674  1.00  0.00    -0.237 OA
ATOM     72  O   UNL A   1      41.937  28.876  25.101  1.00  0.00    -0.744 OA
ENDBRANCH  65  69
ENDBRANCH  48  62
BRANCH  49  73
ATOM     73  C   UNL A   1      39.616  33.944  37.064  1.00  0.00     0.023 A 
ATOM     74  C   UNL A   1      39.019  33.452  38.236  1.00  0.00     0.031 A 
ATOM     75  C   UNL A   1      39.996  35.298  37.039  1.00  0.00     0.131 A 
ATOM     76  C   UNL A   1      38.763  34.320  39.310  1.00  0.00     0.055 A 
ATOM     77  C   UNL A   1      39.797  36.141  38.133  1.00  0.00     0.041 A 
ATOM     78  F   UNL A   1      40.571  35.822  35.944  1.00  0.00    -0.206 F 
ATOM     79  C   UNL A   1      39.162  35.658  39.272  1.00  0.00     0.022 A 
BRANCH  76  80
ATOM     80  S   UNL A   1      37.798  33.699  40.715  1.00  0.00     0.124 S 
ATOM     81  O   UNL A   1      37.498  34.931  41.434  1.00  0.00    -0.237 OA
ATOM     82  O   UNL A   1      36.672  33.054  40.046  1.00  0.00    -0.237 OA
ATOM     83  O   UNL A   1      38.724  32.791  41.388  1.00  0.00    -0.744 OA
ENDBRANCH  76  80
ENDBRANCH  49  73
BRANCH  61  84
ATOM     84  C   UNL A   1      44.052  28.800  35.482  1.00  0.00     0.023 A 
ATOM     85  C   UNL A   1      43.926  27.703  36.353  1.00  0.00     0.031 A 
ATOM     86  C   UNL A   1      45.329  29.365  35.316  1.00  0.00     0.131 A 
ATOM     87  C   UNL A   1      45.043  27.245  37.067  1.00  0.00     0.055 A 
ATOM     88  C   UNL A   1      46.450  28.861  35.975  1.00  0.00     0.041 A 
ATOM     89  F   UNL A   1      45.509  30.418  34.501  1.00  0.00    -0.206 F 
ATOM     90  C   UNL A   1      46.309  27.803  36.868  1.00  0.00     0.022 A 
BRANCH  87  91
ATOM     91  S   UNL A   1      44.805  25.972  38.337  1.00  0.00     0.124 S 
ATOM     92  O   UNL A   1      44.102  24.931  37.595  1.00  0.00    -0.237 OA
ATOM     93  O   UNL A   1      46.176  25.660  38.728  1.00  0.00    -0.237 OA
ATOM     94  O   UNL A   1      44.010  26.651  39.358  1.00  0.00    -0.744 OA
ENDBRANCH  87  91
ENDBRANCH  61  84
ENDBRANCH  35  36
ENDBRANCH  27  30
ENDBRANCH  25  26
ENDBRANCH   1  25
TORSDOF 15
ENDMDL
MODEL 2
REMARK VINA RESULT:     -12.2      2.579      8.524
REMARK SMILES C[C@H]1CCC[C@H](C)N1C(=O)[C@H]1[C@@H](C(=O)NCCCCNC(=O)c2ccc(-c3c4nc(c(-c5cc(S(=O)(=O)[O-])ccc5F)c5ccc([nH]5)c(-c5cc(S(=O)(=O)[O-])ccc5F)c5nc(c(-c6cc(S(=O)(=O)[O-])ccc6F)c6ccc3[nH]6)C=C5)C=C4)cc2)[C@H]2CC[C@@H]1O2
REMARK SMILES IDX 18 1 17 2 16 3 15 4 13 5 14 6 12 8 11 9 89 10 86 11 88 12
REMARK SMILES IDX 90 13 87 14 9 15 1 16 2 17 3 18 8 19 4 20 6 21 5 22 7 23
REMARK SMILES IDX 10 24 19 25 20 26 21 27 22 29 23 30 24 31 85 32 25 33 84 34
REMARK SMILES IDX 26 35 27 36 28 37 78 38 29 39 83 40 77 41 79 42 30 43 82 44
REMARK SMILES IDX 76 45 75 46 31 48 63 49 43 50 62 51 44 52 47 53 61 54 80 55
REMARK SMILES IDX 45 56 46 57 60 59 81 60 48 61 32 62 33 63 41 64 34 65 40 66
REMARK SMILES IDX 42 67 39 68 35 69 36 70 37 71 38 72 64 73 65 74 73 75 66 76
REMARK SMILES IDX 72 77 74 78 71 79 67 80 68 81 69 82 70 83 49 84 50 85 58 86
REMARK SMILES IDX 51 87 57 88 59 89 56 90 52 91 53 92 54 93 55 94
REMARK H PARENT 15 7 20 28 79 47 47 58
REMARK Flexibility Score: inf
ROOT
ATOM      1  C   UNL A   1      31.676  29.346  26.826  1.00  0.00     0.023 C 
ENDROOT
BRANCH   1   2
ATOM      2  C   UNL A   1      31.842  28.042  27.608  1.00  0.00     0.023 C 
BRANCH   2   3
ATOM      3  C   UNL A   1      32.461  26.895  26.811  1.00  0.00     0.116 C 
BRANCH   3   4
ATOM      4  N   UNL A   1      31.691  25.658  26.909  1.00  0.00    -0.356 N 
ATOM      5  C   UNL A   1      31.959  24.421  26.378  1.00  0.00     0.226 C 
ATOM      6  O   UNL A   1      31.226  23.480  26.676  1.00  0.00    -0.275 OA
ATOM      7  H   UNL A   1      30.859  25.720  27.432  1.00  0.00     0.163 HD
BRANCH   5   8
ATOM      8  C   UNL A   1      33.138  24.298  25.451  1.00  0.00     0.122 C 
ATOM      9  C   UNL A   1      33.201  24.917  24.054  1.00  0.00     0.122 C 
ATOM     10  C   UNL A   1      34.027  23.829  23.317  1.00  0.00     0.132 C 
ATOM     11  C   UNL A   1      33.639  22.870  25.237  1.00  0.00     0.132 C 
ATOM     12  C   UNL A   1      33.268  22.592  22.883  1.00  0.00     0.035 C 
ATOM     13  O   UNL A   1      34.797  23.234  24.430  1.00  0.00    -0.373 OA
ATOM     14  C   UNL A   1      32.958  21.940  24.227  1.00  0.00     0.035 C 
BRANCH   9  15
ATOM     15  C   UNL A   1      31.900  25.417  23.439  1.00  0.00     0.229 C 
ATOM     16  C   UNL A   1      34.003  27.852  23.693  1.00  0.00     0.031 C 
ATOM     17  C   UNL A   1      32.478  27.987  23.647  1.00  0.00     0.082 C 
ATOM     18  C   UNL A   1      32.239  29.180  22.684  1.00  0.00     0.025 C 
ATOM     19  N   UNL A   1      31.648  26.793  23.261  1.00  0.00    -0.337 N 
ATOM     20  C   UNL A   1      30.779  29.511  22.463  1.00  0.00     0.004 C 
ATOM     21  C   UNL A   1      30.221  27.102  22.936  1.00  0.00     0.082 C 
ATOM     22  C   UNL A   1      30.068  28.272  21.961  1.00  0.00     0.025 C 
ATOM     23  C   UNL A   1      29.385  27.328  24.205  1.00  0.00     0.031 C 
ATOM     24  O   UNL A   1      31.076  24.583  23.053  1.00  0.00    -0.274 OA
ENDBRANCH   9  15
ENDBRANCH   5   8
ENDBRANCH   3   4
ENDBRANCH   2   3
ENDBRANCH   1   2
BRANCH   1  25
ATOM     25  C   UNL A   1      32.973  30.090  26.521  1.00  0.00     0.116 C 
BRANCH  25  26
ATOM     26  N   UNL A   1      32.925  31.493  26.899  1.00  0.00    -0.352 N 
ATOM     27  C   UNL A   1      33.808  32.203  27.681  1.00  0.00     0.251 C 
ATOM     28  H   UNL A   1      32.159  32.004  26.549  1.00  0.00     0.163 HD
ATOM     29  O   UNL A   1      33.532  33.348  28.025  1.00  0.00    -0.269 OA
BRANCH  27  30
ATOM     30  C   UNL A   1      35.063  31.563  28.132  1.00  0.00     0.039 A 
ATOM     31  C   UNL A   1      36.243  32.309  28.125  1.00  0.00     0.014 A 
ATOM     32  C   UNL A   1      35.067  30.243  28.592  1.00  0.00     0.014 A 
ATOM     33  C   UNL A   1      37.413  31.753  28.650  1.00  0.00     0.010 A 
ATOM     34  C   UNL A   1      36.213  29.722  29.187  1.00  0.00     0.010 A 
ATOM     35  C   UNL A   1      37.399  30.472  29.225  1.00  0.00    -0.014 A 
BRANCH  35  36
ATOM     36  C   UNL A   1      38.611  29.903  29.875  1.00  0.00     0.031 A 
ATOM     37  C   UNL A   1      39.021  30.369  31.248  1.00  0.00     0.074 A 
ATOM     38  C   UNL A   1      39.371  29.011  29.208  1.00  0.00     0.049 A 
ATOM     39  N   UNL A   1      40.075  30.043  31.950  1.00  0.00    -0.248 NA
ATOM     40  C   UNL A   1      38.144  31.352  31.902  1.00  0.00     0.031 C 
ATOM     41  C   UNL A   1      39.096  28.506  27.861  1.00  0.00     0.029 A 
ATOM     42  N   UNL A   1      40.534  28.374  29.566  1.00  0.00    -0.354 N 
ATOM     43  C   UNL A   1      39.997  30.791  33.121  1.00  0.00     0.074 A 
ATOM     44  C   UNL A   1      38.823  31.627  33.005  1.00  0.00     0.031 C 
ATOM     45  C   UNL A   1      40.041  27.614  27.523  1.00  0.00     0.029 A 
ATOM     46  C   UNL A   1      41.021  27.523  28.601  1.00  0.00     0.049 A 
ATOM     47  H   UNL A   1      40.978  28.513  30.433  1.00  0.00     0.167 HD
ATOM     48  C   UNL A   1      40.820  30.768  34.199  1.00  0.00     0.034 A 
ATOM     49  C   UNL A   1      42.136  26.765  28.579  1.00  0.00     0.034 A 
ATOM     50  C   UNL A   1      41.979  29.914  34.304  1.00  0.00     0.049 A 
ATOM     51  C   UNL A   1      43.055  26.787  29.776  1.00  0.00     0.074 A 
ATOM     52  C   UNL A   1      42.838  29.763  35.379  1.00  0.00     0.029 A 
ATOM     53  N   UNL A   1      42.450  29.080  33.300  1.00  0.00    -0.354 N 
ATOM     54  N   UNL A   1      42.934  27.456  30.899  1.00  0.00    -0.248 NA
ATOM     55  C   UNL A   1      44.256  25.946  29.705  1.00  0.00     0.031 C 
ATOM     56  C   UNL A   1      43.873  28.905  34.994  1.00  0.00     0.029 A 
ATOM     57  C   UNL A   1      43.612  28.446  33.714  1.00  0.00     0.049 A 
ATOM     58  H   UNL A   1      42.023  28.957  32.421  1.00  0.00     0.167 HD
ATOM     59  C   UNL A   1      44.023  27.083  31.683  1.00  0.00     0.074 A 
ATOM     60  C   UNL A   1      44.781  26.122  30.909  1.00  0.00     0.031 C 
ATOM     61  C   UNL A   1      44.364  27.492  32.931  1.00  0.00     0.034 A 
BRANCH  48  62
ATOM     62  C   UNL A   1      40.515  31.715  35.334  1.00  0.00     0.023 A 
ATOM     63  C   UNL A   1      39.466  31.478  36.240  1.00  0.00     0.031 A 
ATOM     64  C   UNL A   1      41.283  32.879  35.511  1.00  0.00     0.131 A 
ATOM     65  C   UNL A   1      39.173  32.422  37.236  1.00  0.00     0.055 A 
ATOM     66  C   UNL A   1      41.041  33.772  36.557  1.00  0.00     0.041 A 
ATOM     67  F   UNL A   1      42.284  33.173  34.665  1.00  0.00    -0.206 F 
ATOM     68  C   UNL A   1      39.971  33.554  37.418  1.00  0.00     0.022 A 
BRANCH  65  69
ATOM     69  S   UNL A   1      37.651  32.219  38.201  1.00  0.00     0.124 S 
ATOM     70  O   UNL A   1      37.336  30.812  37.964  1.00  0.00    -0.237 OA
ATOM     71  O   UNL A   1      38.086  32.557  39.551  1.00  0.00    -0.237 OA
ATOM     72  O   UNL A   1      36.726  33.170  37.587  1.00  0.00    -0.744 OA
ENDBRANCH  65  69
ENDBRANCH  48  62
BRANCH  49  73
ATOM     73  C   UNL A   1      42.466  25.923  27.389  1.00  0.00     0.023 A 
ATOM     74  C   UNL A   1      42.035  24.589  27.310  1.00  0.00     0.031 A 
ATOM     75  C   UNL A   1      43.271  26.417  26.347  1.00  0.00     0.131 A 
ATOM     76  C   UNL A   1      42.460  23.777  26.247  1.00  0.00     0.055 A 
ATOM     77  C   UNL A   1      43.638  25.624  25.259  1.00  0.00     0.041 A 
ATOM     78  F   UNL A   1      43.711  27.686  26.371  1.00  0.00    -0.206 F 
ATOM     79  C   UNL A   1      43.246  24.290  25.212  1.00  0.00     0.022 A 
BRANCH  76  80
ATOM     80  S   UNL A   1      42.063  22.009  26.294  1.00  0.00     0.124 S 
ATOM     81  O   UNL A   1      42.896  21.489  25.216  1.00  0.00    -0.237 OA
ATOM     82  O   UNL A   1      42.464  21.644  27.650  1.00  0.00    -0.237 OA
ATOM     83  O   UNL A   1      40.624  21.977  26.043  1.00  0.00    -0.744 OA
ENDBRANCH  76  80
ENDBRANCH  49  73
BRANCH  61  84
ATOM     84  C   UNL A   1      45.582  26.856  33.559  1.00  0.00     0.023 A 
ATOM     85  C   UNL A   1      45.507  25.639  34.261  1.00  0.00     0.031 A 
ATOM     86  C   UNL A   1      46.836  27.484  33.462  1.00  0.00     0.131 A 
ATOM     87  C   UNL A   1      46.651  25.121  34.886  1.00  0.00     0.055 A 
ATOM     88  C   UNL A   1      47.985  26.929  34.026  1.00  0.00     0.041 A 
ATOM     89  F   UNL A   1      46.967  28.651  32.808  1.00  0.00    -0.206 F 
ATOM     90  C   UNL A   1      47.894  25.748  34.756  1.00  0.00     0.022 A 
BRANCH  87  91
ATOM     91  S   UNL A   1      46.477  23.669  35.959  1.00  0.00     0.124 S 
ATOM     92  O   UNL A   1      47.116  24.123  37.189  1.00  0.00    -0.237 OA
ATOM     93  O   UNL A   1      45.029  23.497  36.019  1.00  0.00    -0.237 OA
ATOM     94  O   UNL A   1      47.195  22.621  35.238  1.00  0.00    -0.744 OA
ENDBRANCH  87  91
ENDBRANCH  61  84
ENDBRANCH  35  36
ENDBRANCH  27  30
ENDBRANCH  25  26
ENDBRANCH   1  25
TORSDOF 15
ENDMDL
MODEL 3
REMARK VINA RESULT:     -12.0      2.684      8.236
REMARK SMILES C[C@H]1CCC[C@H](C)N1C(=O)[C@H]1[C@@H](C(=O)NCCCCNC(=O)c2ccc(-c3c4nc(c(-c5cc(S(=O)(=O)[O-])ccc5F)c5ccc([nH]5)c(-c5cc(S(=O)(=O)[O-])ccc5F)c5nc(c(-c6cc(S(=O)(=O)[O-])ccc6F)c6ccc3[nH]6)C=C5)C=C4)cc2)[C@H]2CC[C@@H]1O2
REMARK SMILES IDX 18 1 17 2 16 3 15 4 13 5 14 6 12 8 11 9 89 10 86 11 88 12
REMARK SMILES IDX 90 13 87 14 9 15 1 16 2 17 3 18 8 19 4 20 6 21 5 22 7 23
REMARK SMILES IDX 10 24 19 25 20 26 21 27 22 29 23 30 24 31 85 32 25 33 84 34
REMARK SMILES IDX 26 35 27 36 28 37 78 38 29 39 83 40 77 41 79 42 30 43 82 44
REMARK SMILES IDX 76 45 75 46 31 48 63 49 43 50 62 51 44 52 47 53 61 54 80 55
REMARK SMILES IDX 45 56 46 57 60 59 81 60 48 61 32 62 33 63 41 64 34 65 40 66
REMARK SMILES IDX 42 67 39 68 35 69 36 70 37 71 38 72 64 73 65 74 73 75 66 76
REMARK SMILES IDX 72 77 74 78 71 79 67 80 68 81 69 82 70 83 49 84 50 85 58 86
REMARK SMILES IDX 51 87 57 88 59 89 56 90 52 91 53 92 54 93 55 94
REMARK H PARENT 15 7 20 28 79 47 47 58
REMARK Flexibility Score: inf
ROOT
ATOM      1  C   UNL A   1      31.713  29.566  26.790  1.00  0.00     0.023 C 
ENDROOT
BRANCH   1   2
ATOM      2  C   UNL A   1      31.409  28.333  27.643  1.00  0.00     0.023 C 
BRANCH   2   3
ATOM      3  C   UNL A   1      31.414  27.011  26.877  1.00  0.00     0.116 C 
BRANCH   3   4
ATOM      4  N   UNL A   1      32.758  26.580  26.502  1.00  0.00    -0.356 N 
ATOM      5  C   UNL A   1      33.238  26.197  25.275  1.00  0.00     0.226 C 
ATOM      6  O   UNL A   1      34.441  25.973  25.156  1.00  0.00    -0.275 OA
ATOM      7  H   UNL A   1      33.414  26.561  27.235  1.00  0.00     0.163 HD
BRANCH   5   8
ATOM      8  C   UNL A   1      32.251  26.067  24.146  1.00  0.00     0.122 C 
ATOM      9  C   UNL A   1      32.134  24.838  23.244  1.00  0.00     0.122 C 
ATOM     10  C   UNL A   1      31.762  25.524  21.904  1.00  0.00     0.132 C 
ATOM     11  C   UNL A   1      32.241  27.238  23.164  1.00  0.00     0.132 C 
ATOM     12  C   UNL A   1      32.907  26.150  21.132  1.00  0.00     0.035 C 
ATOM     13  O   UNL A   1      31.112  26.766  22.374  1.00  0.00    -0.373 OA
ATOM     14  C   UNL A   1      33.273  27.325  22.033  1.00  0.00     0.035 C 
BRANCH   9  15
ATOM     15  C   UNL A   1      33.268  23.821  23.279  1.00  0.00     0.229 C 
ATOM     16  C   UNL A   1      30.919  22.916  25.297  1.00  0.00     0.031 C 
ATOM     17  C   UNL A   1      32.394  22.519  25.405  1.00  0.00     0.082 C 
ATOM     18  C   UNL A   1      32.349  21.006  25.743  1.00  0.00     0.025 C 
ATOM     19  N   UNL A   1      33.314  22.798  24.248  1.00  0.00    -0.337 N 
ATOM     20  C   UNL A   1      33.713  20.366  25.893  1.00  0.00     0.004 C 
ATOM     21  C   UNL A   1      34.635  22.098  24.316  1.00  0.00     0.082 C 
ATOM     22  C   UNL A   1      34.506  20.605  24.626  1.00  0.00     0.025 C 
ATOM     23  C   UNL A   1      35.593  22.787  25.301  1.00  0.00     0.031 C 
ATOM     24  O   UNL A   1      34.136  23.881  22.402  1.00  0.00    -0.274 OA
ENDBRANCH   9  15
ENDBRANCH   5   8
ENDBRANCH   3   4
ENDBRANCH   2   3
ENDBRANCH   1   2
BRANCH   1  25
ATOM     25  C   UNL A   1      33.140  30.097  26.901  1.00  0.00     0.116 C 
BRANCH  25  26
ATOM     26  N   UNL A   1      33.196  31.519  27.198  1.00  0.00    -0.352 N 
ATOM     27  C   UNL A   1      34.165  32.218  27.880  1.00  0.00     0.251 C 
ATOM     28  H   UNL A   1      32.438  32.054  26.867  1.00  0.00     0.163 HD
ATOM     29  O   UNL A   1      33.977  33.395  28.172  1.00  0.00    -0.269 OA
BRANCH  27  30
ATOM     30  C   UNL A   1      35.410  31.530  28.289  1.00  0.00     0.039 A 
ATOM     31  C   UNL A   1      36.608  32.248  28.298  1.00  0.00     0.014 A 
ATOM     32  C   UNL A   1      35.388  30.193  28.694  1.00  0.00     0.014 A 
ATOM     33  C   UNL A   1      37.769  31.645  28.786  1.00  0.00     0.010 A 
ATOM     34  C   UNL A   1      36.528  29.621  29.253  1.00  0.00     0.010 A 
ATOM     35  C   UNL A   1      37.732  30.341  29.307  1.00  0.00    -0.014 A 
BRANCH  35  36
ATOM     36  C   UNL A   1      38.937  29.717  29.919  1.00  0.00     0.031 A 
ATOM     37  C   UNL A   1      39.435  30.192  31.258  1.00  0.00     0.074 A 
ATOM     38  C   UNL A   1      39.613  28.766  29.243  1.00  0.00     0.049 A 
ATOM     39  N   UNL A   1      40.499  29.822  31.922  1.00  0.00    -0.248 NA
ATOM     40  C   UNL A   1      38.648  31.241  31.923  1.00  0.00     0.031 C 
ATOM     41  C   UNL A   1      39.248  28.246  27.924  1.00  0.00     0.029 A 
ATOM     42  N   UNL A   1      40.753  28.071  29.567  1.00  0.00    -0.354 N 
ATOM     43  C   UNL A   1      40.519  30.602  33.074  1.00  0.00     0.074 A 
ATOM     44  C   UNL A   1      39.391  31.503  32.987  1.00  0.00     0.031 C 
ATOM     45  C   UNL A   1      40.123  27.291  27.569  1.00  0.00     0.029 A 
ATOM     46  C   UNL A   1      41.144  27.168  28.604  1.00  0.00     0.049 A 
ATOM     47  H   UNL A   1      41.242  28.205  30.410  1.00  0.00     0.167 HD
ATOM     48  C   UNL A   1      41.387  30.556  34.115  1.00  0.00     0.034 A 
ATOM     49  C   UNL A   1      42.211  26.345  28.554  1.00  0.00     0.034 A 
ATOM     50  C   UNL A   1      42.499  29.639  34.193  1.00  0.00     0.049 A 
ATOM     51  C   UNL A   1      43.183  26.343  29.709  1.00  0.00     0.074 A 
ATOM     52  C   UNL A   1      43.396  29.463  35.232  1.00  0.00     0.029 A 
ATOM     53  N   UNL A   1      42.875  28.754  33.192  1.00  0.00    -0.354 N 
ATOM     54  N   UNL A   1      43.153  27.045  30.817  1.00  0.00    -0.248 NA
ATOM     55  C   UNL A   1      44.330  25.431  29.608  1.00  0.00     0.031 C 
ATOM     56  C   UNL A   1      44.361  28.537  34.826  1.00  0.00     0.029 A 
ATOM     57  C   UNL A   1      44.015  28.062  33.571  1.00  0.00     0.049 A 
ATOM     58  H   UNL A   1      42.401  28.634  32.336  1.00  0.00     0.167 HD
ATOM     59  C   UNL A   1      44.254  26.628  31.562  1.00  0.00     0.074 A 
ATOM     60  C   UNL A   1      44.918  25.605  30.782  1.00  0.00     0.031 C 
ATOM     61  C   UNL A   1      44.674  27.047  32.782  1.00  0.00     0.034 A 
BRANCH  48  62
ATOM     62  C   UNL A   1      41.190  31.548  35.237  1.00  0.00     0.023 A 
ATOM     63  C   UNL A   1      40.117  31.446  36.141  1.00  0.00     0.031 A 
ATOM     64  C   UNL A   1      42.087  32.618  35.403  1.00  0.00     0.131 A 
ATOM     65  C   UNL A   1      39.932  32.430  37.123  1.00  0.00     0.055 A 
ATOM     66  C   UNL A   1      41.946  33.547  36.435  1.00  0.00     0.041 A 
ATOM     67  F   UNL A   1      43.118  32.782  34.558  1.00  0.00    -0.206 F 
ATOM     68  C   UNL A   1      40.855  33.465  37.294  1.00  0.00     0.022 A 
BRANCH  65  69
ATOM     69  S   UNL A   1      38.393  32.418  38.083  1.00  0.00     0.124 S 
ATOM     70  O   UNL A   1      38.900  32.324  39.451  1.00  0.00    -0.237 OA
ATOM     71  O   UNL A   1      37.782  33.690  37.715  1.00  0.00    -0.237 OA
ATOM     72  O   UNL A   1      37.696  31.227  37.600  1.00  0.00    -0.744 OA
ENDBRANCH  65  69
ENDBRANCH  48  62
BRANCH  49  73
ATOM     73  C   UNL A   1      42.437  25.457  27.375  1.00  0.00     0.023 A 
ATOM     74  C   UNL A   1      41.936  24.145  27.355  1.00  0.00     0.031 A 
ATOM     75  C   UNL A   1      43.212  25.881  26.280  1.00  0.00     0.131 A 
ATOM     76  C   UNL A   1      42.264  23.285  26.296  1.00  0.00     0.055 A 
ATOM     77  C   UNL A   1      43.483  25.041  25.198  1.00  0.00     0.041 A 
ATOM     78  F   UNL A   1      43.717  27.125  26.245  1.00  0.00    -0.206 F 
ATOM     79  C   UNL A   1      43.022  23.729  25.209  1.00  0.00     0.022 A 
BRANCH  76  80
ATOM     80  S   UNL A   1      41.781  21.541  26.414  1.00  0.00     0.124 S 
ATOM     81  O   UNL A   1      42.605  20.934  25.375  1.00  0.00    -0.237 OA
ATOM     82  O   UNL A   1      42.141  21.219  27.791  1.00  0.00    -0.237 OA
ATOM     83  O   UNL A   1      40.346  21.567  26.138  1.00  0.00    -0.744 OA
ENDBRANCH  76  80
ENDBRANCH  49  73
BRANCH  61  84
ATOM     84  C   UNL A   1      45.880  26.355  33.373  1.00  0.00     0.023 A 
ATOM     85  C   UNL A   1      45.773  25.137  34.067  1.00  0.00     0.031 A 
ATOM     86  C   UNL A   1      47.157  26.931  33.247  1.00  0.00     0.131 A 
ATOM     87  C   UNL A   1      46.911  24.567  34.659  1.00  0.00     0.055 A 
ATOM     88  C   UNL A   1      48.295  26.324  33.777  1.00  0.00     0.041 A 
ATOM     89  F   UNL A   1      47.319  28.097  32.599  1.00  0.00    -0.206 F 
ATOM     90  C   UNL A   1      48.175  25.142  34.501  1.00  0.00     0.022 A 
BRANCH  87  91
ATOM     91  S   UNL A   1      46.704  23.114  35.725  1.00  0.00     0.124 S 
ATOM     92  O   UNL A   1      45.354  23.307  36.242  1.00  0.00    -0.237 OA
ATOM     93  O   UNL A   1      46.875  22.010  34.786  1.00  0.00    -0.237 OA
ATOM     94  O   UNL A   1      47.772  23.257  36.712  1.00  0.00    -0.744 OA
ENDBRANCH  87  91
ENDBRANCH  61  84
ENDBRANCH  35  36
ENDBRANCH  27  30
ENDBRANCH  25  26
ENDBRANCH   1  25
TORSDOF 15
ENDMDL
