MODEL 1
REMARK VINA RESULT:     -12.8      0.000      0.000
REMARK SMILES CN(c1ccc(C(=O)NCCCCNC(=O)c2ccc(-c3c4nc(c(-c5cc(S(=O)(=O)[O-])ccc5F)c5ccc([nH]5)c(-c5cc(S(=O)(=O)[O-])ccc5F)c5nc(c(-c6cc(S(=O)(=O)[O-])ccc6F)c6ccc3[nH]6)C=C5)C=C4)cc2)c(F)c1F)[C@H]1C[C@H]2CC[C@@H](C1)[NH2+]2
REMARK SMILES IDX 12 1 11 2 10 3 9 4 7 5 8 6 6 8 3 9 4 10 82 11 5 12 80 13
REMARK SMILES IDX 83 14 81 15 2 16 1 17 84 18 85 19 90 20 86 21 89 22 87 23
REMARK SMILES IDX 91 24 88 25 13 28 14 29 15 30 16 32 17 33 18 34 79 35 19 36
REMARK SMILES IDX 78 37 20 38 21 39 22 40 72 41 23 42 77 43 71 44 73 45 24 46
REMARK SMILES IDX 76 47 70 48 69 49 25 51 57 52 37 53 56 54 38 55 41 56 55 57
REMARK SMILES IDX 74 58 39 59 40 60 54 62 75 63 42 64 26 65 27 66 35 67 28 68
REMARK SMILES IDX 34 69 36 70 33 71 29 72 30 73 31 74 32 75 58 76 59 77 67 78
REMARK SMILES IDX 60 79 66 80 68 81 65 82 61 83 62 84 63 85 64 86 43 87 44 88
REMARK SMILES IDX 52 89 45 90 51 91 53 92 50 93 46 94 47 95 48 96 49 97
REMARK H PARENT 9 7 91 26 91 27 14 31 73 50 41 61
REMARK Flexibility Score: inf
ROOT
ATOM      1  C   UNL A   1      31.996  29.915  25.350  1.00  0.00     0.023 C 
ENDROOT
BRANCH   1   2
ATOM      2  C   UNL A   1      33.256  29.214  24.851  1.00  0.00     0.023 C 
BRANCH   2   3
ATOM      3  C   UNL A   1      33.348  28.969  23.350  1.00  0.00     0.116 C 
BRANCH   3   4
ATOM      4  N   UNL A   1      32.081  29.033  22.640  1.00  0.00    -0.352 N 
ATOM      5  C   UNL A   1      31.096  28.078  22.513  1.00  0.00     0.254 C 
ATOM      6  O   UNL A   1      30.070  28.344  21.892  1.00  0.00    -0.269 OA
ATOM      7  H   UNL A   1      31.900  29.885  22.180  1.00  0.00     0.163 HD
BRANCH   5   8
ATOM      8  C   UNL A   1      31.293  26.696  22.999  1.00  0.00     0.078 A 
ATOM      9  C   UNL A   1      32.176  24.192  24.010  1.00  0.00     0.076 A 
ATOM     10  C   UNL A   1      32.399  24.569  22.670  1.00  0.00     0.030 A 
ATOM     11  C   UNL A   1      31.343  25.045  24.760  1.00  0.00     0.182 A 
ATOM     12  C   UNL A   1      31.987  25.810  22.173  1.00  0.00     0.019 A 
ATOM     13  C   UNL A   1      30.878  26.256  24.247  1.00  0.00     0.173 A 
ATOM     14  F   UNL A   1      31.068  24.790  26.049  1.00  0.00    -0.201 F 
ATOM     15  F   UNL A   1      30.082  27.011  25.018  1.00  0.00    -0.203 F 
BRANCH   9  16
ATOM     16  N   UNL A   1      32.852  23.088  24.544  1.00  0.00    -0.369 N 
ATOM     17  C   UNL A   1      32.665  21.826  23.831  1.00  0.00     0.144 C 
BRANCH  16  18
ATOM     18  C   UNL A   1      33.786  23.213  25.694  1.00  0.00     0.093 C 
ATOM     19  C   UNL A   1      34.382  21.852  26.113  1.00  0.00     0.090 C 
ATOM     20  C   UNL A   1      34.825  24.347  25.554  1.00  0.00     0.090 C 
ATOM     21  C   UNL A   1      35.881  21.689  25.838  1.00  0.00     0.184 C 
ATOM     22  C   UNL A   1      36.273  23.888  25.324  1.00  0.00     0.184 C 
ATOM     23  C   UNL A   1      36.213  21.678  24.351  1.00  0.00     0.071 C 
ATOM     24  N   UNL A   1      36.617  22.864  26.318  1.00  0.00    -0.341 N 
ATOM     25  C   UNL A   1      36.530  23.133  24.024  1.00  0.00     0.071 C 
ATOM     26  H   UNL A   1      37.622  22.689  26.332  1.00  0.00     0.346 HD
ATOM     27  H   UNL A   1      36.377  23.131  27.272  1.00  0.00     0.346 HD
ENDBRANCH  16  18
ENDBRANCH   9  16
ENDBRANCH   5   8
ENDBRANCH   3   4
ENDBRANCH   2   3
ENDBRANCH   1   2
BRANCH   1  28
ATOM     28  C   UNL A   1      32.022  30.407  26.793  1.00  0.00     0.116 C 
BRANCH  28  29
ATOM     29  N   UNL A   1      32.102  31.854  26.917  1.00  0.00    -0.352 N 
ATOM     30  C   UNL A   1      33.102  32.644  27.442  1.00  0.00     0.251 C 
ATOM     31  H   UNL A   1      31.321  32.345  26.573  1.00  0.00     0.163 HD
ATOM     32  O   UNL A   1      32.934  33.852  27.536  1.00  0.00    -0.269 OA
BRANCH  30  33
ATOM     33  C   UNL A   1      34.354  32.024  27.939  1.00  0.00     0.039 A 
ATOM     34  C   UNL A   1      35.447  32.848  28.219  1.00  0.00     0.014 A 
ATOM     35  C   UNL A   1      34.445  30.647  28.155  1.00  0.00     0.014 A 
ATOM     36  C   UNL A   1      36.593  32.306  28.806  1.00  0.00     0.010 A 
ATOM     37  C   UNL A   1      35.554  30.123  28.816  1.00  0.00     0.010 A 
ATOM     38  C   UNL A   1      36.637  30.947  29.159  1.00  0.00    -0.014 A 
BRANCH  38  39
ATOM     39  C   UNL A   1      37.795  30.373  29.898  1.00  0.00     0.031 A 
ATOM     40  C   UNL A   1      38.065  30.788  31.319  1.00  0.00     0.074 A 
ATOM     41  C   UNL A   1      38.653  29.549  29.260  1.00  0.00     0.049 A 
ATOM     42  N   UNL A   1      39.075  30.485  32.093  1.00  0.00    -0.248 NA
ATOM     43  C   UNL A   1      37.086  31.695  31.939  1.00  0.00     0.031 C 
ATOM     44  C   UNL A   1      38.534  29.121  27.863  1.00  0.00     0.029 A 
ATOM     45  N   UNL A   1      39.805  28.938  29.692  1.00  0.00    -0.354 N 
ATOM     46  C   UNL A   1      38.871  31.184  33.278  1.00  0.00     0.074 A 
ATOM     47  C   UNL A   1      37.665  31.965  33.099  1.00  0.00     0.031 C 
ATOM     48  C   UNL A   1      39.561  28.310  27.560  1.00  0.00     0.029 A 
ATOM     49  C   UNL A   1      40.436  28.192  28.722  1.00  0.00     0.049 A 
ATOM     50  H   UNL A   1      40.147  29.027  30.611  1.00  0.00     0.167 HD
ATOM     51  C   UNL A   1      39.611  31.165  34.413  1.00  0.00     0.034 A 
ATOM     52  C   UNL A   1      41.595  27.504  28.758  1.00  0.00     0.034 A 
ATOM     53  C   UNL A   1      40.791  30.353  34.588  1.00  0.00     0.049 A 
ATOM     54  C   UNL A   1      42.384  27.474  30.044  1.00  0.00     0.074 A 
ATOM     55  C   UNL A   1      41.562  30.189  35.727  1.00  0.00     0.029 A 
ATOM     56  N   UNL A   1      41.375  29.575  33.598  1.00  0.00    -0.354 N 
ATOM     57  N   UNL A   1      42.134  28.084  31.179  1.00  0.00    -0.248 NA
ATOM     58  C   UNL A   1      43.602  26.655  30.056  1.00  0.00     0.031 C 
ATOM     59  C   UNL A   1      42.644  29.362  35.408  1.00  0.00     0.029 A 
ATOM     60  C   UNL A   1      42.512  28.952  34.091  1.00  0.00     0.049 A 
ATOM     61  H   UNL A   1      41.034  29.480  32.680  1.00  0.00     0.167 HD
ATOM     62  C   UNL A   1      43.149  27.694  32.049  1.00  0.00     0.074 A 
ATOM     63  C   UNL A   1      44.002  26.785  31.312  1.00  0.00     0.031 C 
ATOM     64  C   UNL A   1      43.356  28.052  33.342  1.00  0.00     0.034 A 
BRANCH  51  65
ATOM     65  C   UNL A   1      39.180  32.066  35.546  1.00  0.00     0.023 A 
ATOM     66  C   UNL A   1      39.619  33.397  35.645  1.00  0.00     0.031 A 
ATOM     67  C   UNL A   1      38.321  31.581  36.548  1.00  0.00     0.131 A 
ATOM     68  C   UNL A   1      39.257  34.175  36.755  1.00  0.00     0.055 A 
ATOM     69  C   UNL A   1      37.902  32.384  37.612  1.00  0.00     0.041 A 
ATOM     70  F   UNL A   1      37.883  30.312  36.519  1.00  0.00    -0.206 F 
ATOM     71  C   UNL A   1      38.380  33.686  37.726  1.00  0.00     0.022 A 
BRANCH  68  72
ATOM     72  S   UNL A   1      40.046  35.792  36.976  1.00  0.00     0.124 S 
ATOM     73  O   UNL A   1      39.423  36.258  38.211  1.00  0.00    -0.237 OA
ATOM     74  O   UNL A   1      41.460  35.445  37.064  1.00  0.00    -0.237 OA
ATOM     75  O   UNL A   1      39.660  36.530  35.775  1.00  0.00    -0.744 OA
ENDBRANCH  68  72
ENDBRANCH  51  65
BRANCH  52  76
ATOM     76  C   UNL A   1      42.098  26.798  27.543  1.00  0.00     0.023 A 
ATOM     77  C   UNL A   1      41.882  25.422  27.363  1.00  0.00     0.031 A 
ATOM     78  C   UNL A   1      42.849  27.481  26.570  1.00  0.00     0.131 A 
ATOM     79  C   UNL A   1      42.460  24.761  26.267  1.00  0.00     0.055 A 
ATOM     80  C   UNL A   1      43.375  26.830  25.453  1.00  0.00     0.041 A 
ATOM     81  F   UNL A   1      43.078  28.798  26.690  1.00  0.00    -0.206 F 
ATOM     82  C   UNL A   1      43.195  25.458  25.304  1.00  0.00     0.022 A 
BRANCH  79  83
ATOM     83  S   UNL A   1      42.318  22.956  26.168  1.00  0.00     0.124 S 
ATOM     84  O   UNL A   1      40.885  22.758  26.357  1.00  0.00    -0.237 OA
ATOM     85  O   UNL A   1      42.832  22.685  24.830  1.00  0.00    -0.237 OA
ATOM     86  O   UNL A   1      43.162  22.488  27.265  1.00  0.00    -0.744 OA
ENDBRANCH  79  83
ENDBRANCH  52  76
BRANCH  64  87
ATOM     87  C   UNL A   1      44.527  27.416  34.050  1.00  0.00     0.023 A 
ATOM     88  C   UNL A   1      44.385  26.238  34.804  1.00  0.00     0.031 A 
ATOM     89  C   UNL A   1      45.801  28.006  33.976  1.00  0.00     0.131 A 
ATOM     90  C   UNL A   1      45.486  25.718  35.499  1.00  0.00     0.055 A 
ATOM     91  C   UNL A   1      46.906  27.453  34.623  1.00  0.00     0.041 A 
ATOM     92  F   UNL A   1      45.991  29.134  33.272  1.00  0.00    -0.206 F 
ATOM     93  C   UNL A   1      46.749  26.309  35.400  1.00  0.00     0.022 A 
BRANCH  90  94
ATOM     94  S   UNL A   1      45.230  24.307  36.610  1.00  0.00     0.124 S 
ATOM     95  O   UNL A   1      44.306  24.861  37.595  1.00  0.00    -0.237 OA
ATOM     96  O   UNL A   1      44.675  23.300  35.711  1.00  0.00    -0.237 OA
ATOM     97  O   UNL A   1      46.571  24.016  37.112  1.00  0.00    -0.744 OA
ENDBRANCH  90  94
ENDBRANCH  64  87
ENDBRANCH  38  39
ENDBRANCH  30  33
ENDBRANCH  28  29
ENDBRANCH   1  28
TORSDOF 16
ENDMDL
MODEL 2
REMARK VINA RESULT:     -12.7      0.700      7.686
REMARK SMILES CN(c1ccc(C(=O)NCCCCNC(=O)c2ccc(-c3c4nc(c(-c5cc(S(=O)(=O)[O-])ccc5F)c5ccc([nH]5)c(-c5cc(S(=O)(=O)[O-])ccc5F)c5nc(c(-c6cc(S(=O)(=O)[O-])ccc6F)c6ccc3[nH]6)C=C5)C=C4)cc2)c(F)c1F)[C@H]1C[C@H]2CC[C@@H](C1)[NH2+]2
REMARK SMILES IDX 12 1 11 2 10 3 9 4 7 5 8 6 6 8 3 9 4 10 82 11 5 12 80 13
REMARK SMILES IDX 83 14 81 15 2 16 1 17 84 18 85 19 90 20 86 21 89 22 87 23
REMARK SMILES IDX 91 24 88 25 13 28 14 29 15 30 16 32 17 33 18 34 79 35 19 36
REMARK SMILES IDX 78 37 20 38 21 39 22 40 72 41 23 42 77 43 71 44 73 45 24 46
REMARK SMILES IDX 76 47 70 48 69 49 25 51 57 52 37 53 56 54 38 55 41 56 55 57
REMARK SMILES IDX 74 58 39 59 40 60 54 62 75 63 42 64 26 65 27 66 35 67 28 68
REMARK SMILES IDX 34 69 36 70 33 71 29 72 30 73 31 74 32 75 58 76 59 77 67 78
REMARK SMILES IDX 60 79 66 80 68 81 65 82 61 83 62 84 63 85 64 86 43 87 44 88
REMARK SMILES IDX 52 89 45 90 51 91 53 92 50 93 46 94 47 95 48 96 49 97
REMARK H PARENT 9 7 91 26 91 27 14 31 73 50 41 61
REMARK Flexibility Score: inf
ROOT
ATOM      1  C   UNL A   1      31.991  29.967  25.260  1.00  0.00     0.023 C 
ENDROOT
BRANCH   1   2
ATOM      2  C   UNL A   1      33.188  29.146  24.787  1.00  0.00     0.023 C 
BRANCH   2   3
ATOM      3  C   UNL A   1      33.337  28.968  23.280  1.00  0.00     0.116 C 
BRANCH   3   4
ATOM      4  N   UNL A   1      32.089  28.993  22.534  1.00  0.00    -0.352 N 
ATOM      5  C   UNL A   1      31.120  28.023  22.413  1.00  0.00     0.254 C 
ATOM      6  O   UNL A   1      30.108  28.256  21.754  1.00  0.00    -0.269 OA
ATOM      7  H   UNL A   1      31.913  29.827  22.041  1.00  0.00     0.163 HD
BRANCH   5   8
ATOM      8  C   UNL A   1      31.318  26.660  22.950  1.00  0.00     0.078 A 
ATOM      9  C   UNL A   1      32.196  24.207  24.081  1.00  0.00     0.076 A 
ATOM     10  C   UNL A   1      32.479  24.548  22.742  1.00  0.00     0.030 A 
ATOM     11  C   UNL A   1      31.311  25.064  24.762  1.00  0.00     0.182 A 
ATOM     12  C   UNL A   1      32.068  25.765  22.187  1.00  0.00     0.019 A 
ATOM     13  C   UNL A   1      30.849  26.250  24.189  1.00  0.00     0.173 A 
ATOM     14  F   UNL A   1      30.976  24.842  26.042  1.00  0.00    -0.201 F 
ATOM     15  F   UNL A   1      30.002  27.012  24.896  1.00  0.00    -0.203 F 
BRANCH   9  16
ATOM     16  N   UNL A   1      32.866  23.133  24.681  1.00  0.00    -0.369 N 
ATOM     17  C   UNL A   1      32.616  21.821  24.089  1.00  0.00     0.144 C 
BRANCH  16  18
ATOM     18  C   UNL A   1      33.850  23.329  25.778  1.00  0.00     0.093 C 
ATOM     19  C   UNL A   1      34.454  21.995  26.267  1.00  0.00     0.090 C 
ATOM     20  C   UNL A   1      34.890  24.439  25.514  1.00  0.00     0.090 C 
ATOM     21  C   UNL A   1      35.937  21.796  25.939  1.00  0.00     0.184 C 
ATOM     22  C   UNL A   1      36.324  23.949  25.254  1.00  0.00     0.184 C 
ATOM     23  C   UNL A   1      36.204  21.677  24.443  1.00  0.00     0.071 C 
ATOM     24  N   UNL A   1      36.703  22.995  26.302  1.00  0.00    -0.341 N 
ATOM     25  C   UNL A   1      36.517  23.103  24.001  1.00  0.00     0.071 C 
ATOM     26  H   UNL A   1      37.706  22.810  26.285  1.00  0.00     0.346 HD
ATOM     27  H   UNL A   1      36.506  23.331  27.245  1.00  0.00     0.346 HD
ENDBRANCH  16  18
ENDBRANCH   9  16
ENDBRANCH   5   8
ENDBRANCH   3   4
ENDBRANCH   2   3
ENDBRANCH   1   2
BRANCH   1  28
ATOM     28  C   UNL A   1      32.022  30.433  26.711  1.00  0.00     0.116 C 
BRANCH  28  29
ATOM     29  N   UNL A   1      31.932  31.876  26.865  1.00  0.00    -0.352 N 
ATOM     30  C   UNL A   1      32.827  32.766  27.418  1.00  0.00     0.251 C 
ATOM     31  H   UNL A   1      31.102  32.279  26.521  1.00  0.00     0.163 HD
ATOM     32  O   UNL A   1      32.518  33.943  27.534  1.00  0.00    -0.269 OA
BRANCH  30  33
ATOM     33  C   UNL A   1      34.138  32.285  27.918  1.00  0.00     0.039 A 
ATOM     34  C   UNL A   1      35.166  33.213  28.108  1.00  0.00     0.014 A 
ATOM     35  C   UNL A   1      34.349  30.939  28.223  1.00  0.00     0.014 A 
ATOM     36  C   UNL A   1      36.367  32.809  28.696  1.00  0.00     0.010 A 
ATOM     37  C   UNL A   1      35.513  30.554  28.884  1.00  0.00     0.010 A 
ATOM     38  C   UNL A   1      36.532  31.486  29.138  1.00  0.00    -0.014 A 
BRANCH  38  39
ATOM     39  C   UNL A   1      37.752  31.061  29.878  1.00  0.00     0.031 A 
ATOM     40  C   UNL A   1      38.689  30.050  29.273  1.00  0.00     0.074 A 
ATOM     41  C   UNL A   1      37.966  31.515  31.131  1.00  0.00     0.049 A 
ATOM     42  N   UNL A   1      39.740  29.476  29.799  1.00  0.00    -0.248 NA
ATOM     43  C   UNL A   1      38.379  29.598  27.907  1.00  0.00     0.031 C 
ATOM     44  C   UNL A   1      37.098  32.451  31.851  1.00  0.00     0.029 A 
ATOM     45  N   UNL A   1      38.968  31.241  32.029  1.00  0.00    -0.354 N 
ATOM     46  C   UNL A   1      40.200  28.575  28.843  1.00  0.00     0.074 A 
ATOM     47  C   UNL A   1      39.282  28.647  27.726  1.00  0.00     0.031 C 
ATOM     48  C   UNL A   1      37.610  32.680  33.071  1.00  0.00     0.029 A 
ATOM     49  C   UNL A   1      38.819  31.880  33.240  1.00  0.00     0.049 A 
ATOM     50  H   UNL A   1      39.722  30.643  31.827  1.00  0.00     0.167 HD
ATOM     51  C   UNL A   1      41.294  27.776  28.888  1.00  0.00     0.034 A 
ATOM     52  C   UNL A   1      39.560  31.816  34.365  1.00  0.00     0.034 A 
ATOM     53  C   UNL A   1      42.219  27.743  29.995  1.00  0.00     0.049 A 
ATOM     54  C   UNL A   1      40.789  30.941  34.377  1.00  0.00     0.074 A 
ATOM     55  C   UNL A   1      43.407  27.040  30.103  1.00  0.00     0.029 A 
ATOM     56  N   UNL A   1      42.060  28.438  31.186  1.00  0.00    -0.354 N 
ATOM     57  N   UNL A   1      41.250  30.153  33.434  1.00  0.00    -0.248 NA
ATOM     58  C   UNL A   1      41.604  30.959  35.599  1.00  0.00     0.031 C 
ATOM     59  C   UNL A   1      43.932  27.260  31.381  1.00  0.00     0.029 A 
ATOM     60  C   UNL A   1      43.111  28.157  32.045  1.00  0.00     0.049 A 
ATOM     61  H   UNL A   1      41.310  29.041  31.391  1.00  0.00     0.167 HD
ATOM     62  C   UNL A   1      42.426  29.606  33.940  1.00  0.00     0.074 A 
ATOM     63  C   UNL A   1      42.611  30.167  35.262  1.00  0.00     0.031 C 
ATOM     64  C   UNL A   1      43.279  28.721  33.363  1.00  0.00     0.034 A 
BRANCH  51  65
ATOM     65  C   UNL A   1      41.536  26.855  27.716  1.00  0.00     0.023 A 
ATOM     66  C   UNL A   1      41.093  25.521  27.716  1.00  0.00     0.031 A 
ATOM     67  C   UNL A   1      42.230  27.317  26.584  1.00  0.00     0.131 A 
ATOM     68  C   UNL A   1      41.408  24.677  26.641  1.00  0.00     0.055 A 
ATOM     69  C   UNL A   1      42.474  26.494  25.482  1.00  0.00     0.041 A 
ATOM     70  F   UNL A   1      42.694  28.576  26.533  1.00  0.00    -0.206 F 
ATOM     71  C   UNL A   1      42.073  25.162  25.512  1.00  0.00     0.022 A 
BRANCH  68  72
ATOM     72  S   UNL A   1      41.044  22.907  26.791  1.00  0.00     0.124 S 
ATOM     73  O   UNL A   1      41.519  22.623  28.143  1.00  0.00    -0.237 OA
ATOM     74  O   UNL A   1      39.599  22.864  26.599  1.00  0.00    -0.237 OA
ATOM     75  O   UNL A   1      41.834  22.302  25.721  1.00  0.00    -0.744 OA
ENDBRANCH  68  72
ENDBRANCH  51  65
BRANCH  52  76
ATOM     76  C   UNL A   1      39.162  32.583  35.582  1.00  0.00     0.023 A 
ATOM     77  C   UNL A   1      39.584  33.909  35.773  1.00  0.00     0.031 A 
ATOM     78  C   UNL A   1      38.399  31.981  36.598  1.00  0.00     0.131 A 
ATOM     79  C   UNL A   1      39.289  34.571  36.975  1.00  0.00     0.055 A 
ATOM     80  C   UNL A   1      38.062  32.662  37.768  1.00  0.00     0.041 A 
ATOM     81  F   UNL A   1      37.964  30.718  36.462  1.00  0.00    -0.206 F 
ATOM     82  C   UNL A   1      38.520  33.960  37.970  1.00  0.00     0.022 A 
BRANCH  79  83
ATOM     83  S   UNL A   1      40.008  36.211  37.263  1.00  0.00     0.124 S 
ATOM     84  O   UNL A   1      39.857  36.837  35.955  1.00  0.00    -0.237 OA
ATOM     85  O   UNL A   1      39.156  36.732  38.326  1.00  0.00    -0.237 OA
ATOM     86  O   UNL A   1      41.383  35.914  37.658  1.00  0.00    -0.744 OA
ENDBRANCH  79  83
ENDBRANCH  52  76
BRANCH  64  87
ATOM     87  C   UNL A   1      44.514  28.349  34.147  1.00  0.00     0.023 A 
ATOM     88  C   UNL A   1      44.535  27.244  35.016  1.00  0.00     0.031 A 
ATOM     89  C   UNL A   1      45.683  29.121  34.028  1.00  0.00     0.131 A 
ATOM     90  C   UNL A   1      45.683  26.975  35.775  1.00  0.00     0.055 A 
ATOM     91  C   UNL A   1      46.842  28.814  34.742  1.00  0.00     0.041 A 
ATOM     92  F   UNL A   1      45.717  30.189  33.215  1.00  0.00    -0.206 F 
ATOM     93  C   UNL A   1      46.842  27.743  35.631  1.00  0.00     0.022 A 
BRANCH  90  94
ATOM     94  S   UNL A   1      45.616  25.659  37.021  1.00  0.00     0.124 S 
ATOM     95  O   UNL A   1      46.981  25.145  36.993  1.00  0.00    -0.237 OA
ATOM     96  O   UNL A   1      45.233  26.389  38.225  1.00  0.00    -0.237 OA
ATOM     97  O   UNL A   1      44.599  24.745  36.502  1.00  0.00    -0.744 OA
ENDBRANCH  90  94
ENDBRANCH  64  87
ENDBRANCH  38  39
ENDBRANCH  30  33
ENDBRANCH  28  29
ENDBRANCH   1  28
TORSDOF 16
ENDMDL
MODEL 3
REMARK VINA RESULT:     -12.6      1.556      7.537
REMARK SMILES CN(c1ccc(C(=O)NCCCCNC(=O)c2ccc(-c3c4nc(c(-c5cc(S(=O)(=O)[O-])ccc5F)c5ccc([nH]5)c(-c5cc(S(=O)(=O)[O-])ccc5F)c5nc(c(-c6cc(S(=O)(=O)[O-])ccc6F)c6ccc3[nH]6)C=C5)C=C4)cc2)c(F)c1F)[C@H]1C[C@H]2CC[C@@H](C1)[NH2+]2
REMARK SMILES IDX 12 1 11 2 10 3 9 4 7 5 8 6 6 8 3 9 4 10 82 11 5 12 80 13
REMARK SMILES IDX 83 14 81 15 2 16 1 17 84 18 85 19 90 20 86 21 89 22 87 23
REMARK SMILES IDX 91 24 88 25 13 28 14 29 15 30 16 32 17 33 18 34 79 35 19 36
REMARK SMILES IDX 78 37 20 38 21 39 22 40 72 41 23 42 77 43 71 44 73 45 24 46
REMARK SMILES IDX 76 47 70 48 69 49 25 51 57 52 37 53 56 54 38 55 41 56 55 57
REMARK SMILES IDX 74 58 39 59 40 60 54 62 75 63 42 64 26 65 27 66 35 67 28 68
REMARK SMILES IDX 34 69 36 70 33 71 29 72 30 73 31 74 32 75 58 76 59 77 67 78
REMARK SMILES IDX 60 79 66 80 68 81 65 82 61 83 62 84 63 85 64 86 43 87 44 88
REMARK SMILES IDX 52 89 45 90 51 91 53 92 50 93 46 94 47 95 48 96 49 97
REMARK H PARENT 9 7 91 26 91 27 14 31 73 50 41 61
REMARK Flexibility Score: inf
ROOT
ATOM      1  C   UNL A   1      31.955  29.866  25.303  1.00  0.00     0.023 C 
ENDROOT
BRANCH   1   2
ATOM      2  C   UNL A   1      33.137  29.045  24.795  1.00  0.00     0.023 C 
BRANCH   2   3
ATOM      3  C   UNL A   1      33.299  28.950  23.282  1.00  0.00     0.116 C 
BRANCH   3   4
ATOM      4  N   UNL A   1      32.053  28.957  22.532  1.00  0.00    -0.352 N 
ATOM      5  C   UNL A   1      31.060  28.005  22.471  1.00  0.00     0.254 C 
ATOM      6  O   UNL A   1      30.055  28.219  21.795  1.00  0.00    -0.269 OA
ATOM      7  H   UNL A   1      31.898  29.760  21.984  1.00  0.00     0.163 HD
BRANCH   5   8
ATOM      8  C   UNL A   1      31.223  26.676  23.097  1.00  0.00     0.078 A 
ATOM      9  C   UNL A   1      32.008  24.311  24.460  1.00  0.00     0.076 A 
ATOM     10  C   UNL A   1      32.468  24.603  23.159  1.00  0.00     0.030 A 
ATOM     11  C   UNL A   1      31.008  25.163  24.966  1.00  0.00     0.182 A 
ATOM     12  C   UNL A   1      32.102  25.777  22.493  1.00  0.00     0.019 A 
ATOM     13  C   UNL A   1      30.595  26.303  24.276  1.00  0.00     0.173 A 
ATOM     14  F   UNL A   1      30.501  24.985  26.196  1.00  0.00    -0.201 F 
ATOM     15  F   UNL A   1      29.631  27.062  24.818  1.00  0.00    -0.203 F 
BRANCH   9  16
ATOM     16  N   UNL A   1      32.619  23.291  25.201  1.00  0.00    -0.369 N 
ATOM     17  C   UNL A   1      32.081  21.948  24.993  1.00  0.00     0.144 C 
BRANCH  16  18
ATOM     18  C   UNL A   1      33.807  23.541  26.059  1.00  0.00     0.093 C 
ATOM     19  C   UNL A   1      34.376  22.239  26.662  1.00  0.00     0.090 C 
ATOM     20  C   UNL A   1      34.869  24.467  25.428  1.00  0.00     0.090 C 
ATOM     21  C   UNL A   1      35.747  21.820  26.123  1.00  0.00     0.184 C 
ATOM     22  C   UNL A   1      36.179  23.779  25.014  1.00  0.00     0.184 C 
ATOM     23  C   UNL A   1      35.713  21.438  24.648  1.00  0.00     0.071 C 
ATOM     24  N   UNL A   1      36.668  22.963  26.131  1.00  0.00    -0.341 N 
ATOM     25  C   UNL A   1      36.057  22.729  23.914  1.00  0.00     0.071 C 
ATOM     26  H   UNL A   1      37.630  22.663  25.974  1.00  0.00     0.346 HD
ATOM     27  H   UNL A   1      36.684  23.463  27.020  1.00  0.00     0.346 HD
ENDBRANCH  16  18
ENDBRANCH   9  16
ENDBRANCH   5   8
ENDBRANCH   3   4
ENDBRANCH   2   3
ENDBRANCH   1   2
BRANCH   1  28
ATOM     28  C   UNL A   1      32.030  30.332  26.752  1.00  0.00     0.116 C 
BRANCH  28  29
ATOM     29  N   UNL A   1      31.977  31.777  26.907  1.00  0.00    -0.352 N 
ATOM     30  C   UNL A   1      32.887  32.641  27.478  1.00  0.00     0.251 C 
ATOM     31  H   UNL A   1      31.165  32.205  26.548  1.00  0.00     0.163 HD
ATOM     32  O   UNL A   1      32.609  33.827  27.589  1.00  0.00    -0.269 OA
BRANCH  30  33
ATOM     33  C   UNL A   1      34.174  32.124  28.001  1.00  0.00     0.039 A 
ATOM     34  C   UNL A   1      35.224  33.022  28.212  1.00  0.00     0.014 A 
ATOM     35  C   UNL A   1      34.340  30.771  28.309  1.00  0.00     0.014 A 
ATOM     36  C   UNL A   1      36.402  32.583  28.821  1.00  0.00     0.010 A 
ATOM     37  C   UNL A   1      35.481  30.353  28.990  1.00  0.00     0.010 A 
ATOM     38  C   UNL A   1      36.521  31.255  29.264  1.00  0.00    -0.014 A 
BRANCH  38  39
ATOM     39  C   UNL A   1      37.714  30.795  30.027  1.00  0.00     0.031 A 
ATOM     40  C   UNL A   1      38.682  29.826  29.403  1.00  0.00     0.074 A 
ATOM     41  C   UNL A   1      37.875  31.178  31.311  1.00  0.00     0.049 A 
ATOM     42  N   UNL A   1      39.716  29.228  29.936  1.00  0.00    -0.248 NA
ATOM     43  C   UNL A   1      38.429  29.451  28.002  1.00  0.00     0.031 C 
ATOM     44  C   UNL A   1      36.972  32.067  32.048  1.00  0.00     0.029 A 
ATOM     45  N   UNL A   1      38.843  30.859  32.231  1.00  0.00    -0.354 N 
ATOM     46  C   UNL A   1      40.220  28.387  28.950  1.00  0.00     0.074 A 
ATOM     47  C   UNL A   1      39.346  28.517  27.803  1.00  0.00     0.031 C 
ATOM     48  C   UNL A   1      37.435  32.228  33.299  1.00  0.00     0.029 A 
ATOM     49  C   UNL A   1      38.642  31.426  33.470  1.00  0.00     0.049 A 
ATOM     50  H   UNL A   1      39.610  30.277  32.025  1.00  0.00     0.167 HD
ATOM     51  C   UNL A   1      41.317  27.592  28.992  1.00  0.00     0.034 A 
ATOM     52  C   UNL A   1      39.339  31.302  34.618  1.00  0.00     0.034 A 
ATOM     53  C   UNL A   1      42.199  27.501  30.131  1.00  0.00     0.049 A 
ATOM     54  C   UNL A   1      40.574  30.435  34.629  1.00  0.00     0.074 A 
ATOM     55  C   UNL A   1      43.387  26.799  30.246  1.00  0.00     0.029 A 
ATOM     56  N   UNL A   1      41.988  28.126  31.352  1.00  0.00    -0.354 N 
ATOM     57  N   UNL A   1      41.078  29.704  33.661  1.00  0.00    -0.248 NA
ATOM     58  C   UNL A   1      41.339  30.387  35.880  1.00  0.00     0.031 C 
ATOM     59  C   UNL A   1      43.860  26.949  31.553  1.00  0.00     0.029 A 
ATOM     60  C   UNL A   1      43.006  27.801  32.235  1.00  0.00     0.049 A 
ATOM     61  H   UNL A   1      41.225  28.711  31.562  1.00  0.00     0.167 HD
ATOM     62  C   UNL A   1      42.237  29.135  34.181  1.00  0.00     0.074 A 
ATOM     63  C   UNL A   1      42.365  29.622  35.539  1.00  0.00     0.031 C 
ATOM     64  C   UNL A   1      43.119  28.290  33.589  1.00  0.00     0.034 A 
BRANCH  51  65
ATOM     65  C   UNL A   1      41.613  26.741  27.780  1.00  0.00     0.023 A 
ATOM     66  C   UNL A   1      41.189  25.404  27.691  1.00  0.00     0.031 A 
ATOM     67  C   UNL A   1      42.337  27.274  26.700  1.00  0.00     0.131 A 
ATOM     68  C   UNL A   1      41.552  24.626  26.582  1.00  0.00     0.055 A 
ATOM     69  C   UNL A   1      42.631  26.518  25.563  1.00  0.00     0.041 A 
ATOM     70  F   UNL A   1      42.785  28.540  26.735  1.00  0.00    -0.206 F 
ATOM     71  C   UNL A   1      42.249  25.181  25.505  1.00  0.00     0.022 A 
BRANCH  68  72
ATOM     72  S   UNL A   1      41.210  22.845  26.621  1.00  0.00     0.124 S 
ATOM     73  O   UNL A   1      41.743  22.472  27.928  1.00  0.00    -0.237 OA
ATOM     74  O   UNL A   1      39.759  22.800  26.486  1.00  0.00    -0.237 OA
ATOM     75  O   UNL A   1      41.959  22.326  25.479  1.00  0.00    -0.744 OA
ENDBRANCH  68  72
ENDBRANCH  51  65
BRANCH  52  76
ATOM     76  C   UNL A   1      38.888  31.996  35.859  1.00  0.00     0.023 A 
ATOM     77  C   UNL A   1      38.206  31.301  36.871  1.00  0.00     0.031 A 
ATOM     78  C   UNL A   1      39.086  33.378  36.027  1.00  0.00     0.131 A 
ATOM     79  C   UNL A   1      37.696  31.998  37.978  1.00  0.00     0.055 A 
ATOM     80  C   UNL A   1      38.625  34.057  37.155  1.00  0.00     0.041 A 
ATOM     81  F   UNL A   1      39.739  34.088  35.094  1.00  0.00    -0.206 F 
ATOM     82  C   UNL A   1      37.911  33.370  38.133  1.00  0.00     0.022 A 
BRANCH  79  83
ATOM     83  S   UNL A   1      36.661  31.103  39.168  1.00  0.00     0.124 S 
ATOM     84  O   UNL A   1      35.484  31.960  39.245  1.00  0.00    -0.237 OA
ATOM     85  O   UNL A   1      36.477  29.818  38.500  1.00  0.00    -0.237 OA
ATOM     86  O   UNL A   1      37.485  31.064  40.374  1.00  0.00    -0.744 OA
ENDBRANCH  79  83
ENDBRANCH  52  76
BRANCH  64  87
ATOM     87  C   UNL A   1      44.325  27.881  34.398  1.00  0.00     0.023 A 
ATOM     88  C   UNL A   1      44.326  26.719  35.190  1.00  0.00     0.031 A 
ATOM     89  C   UNL A   1      45.486  28.674  34.384  1.00  0.00     0.131 A 
ATOM     90  C   UNL A   1      45.444  26.413  35.977  1.00  0.00     0.055 A 
ATOM     91  C   UNL A   1      46.617  28.333  35.125  1.00  0.00     0.041 A 
ATOM     92  F   UNL A   1      45.537  29.795  33.648  1.00  0.00    -0.206 F 
ATOM     93  C   UNL A   1      46.596  27.204  35.937  1.00  0.00     0.022 A 
BRANCH  90  94
ATOM     94  S   UNL A   1      45.345  25.012  37.126  1.00  0.00     0.124 S 
ATOM     95  O   UNL A   1      44.407  24.126  36.444  1.00  0.00    -0.237 OA
ATOM     96  O   UNL A   1      46.730  24.555  37.181  1.00  0.00    -0.237 OA
ATOM     97  O   UNL A   1      44.843  25.615  38.360  1.00  0.00    -0.744 OA
ENDBRANCH  90  94
ENDBRANCH  64  87
ENDBRANCH  38  39
ENDBRANCH  30  33
ENDBRANCH  28  29
ENDBRANCH   1  28
TORSDOF 16
ENDMDL
