MODEL 1
REMARK VINA RESULT:     -10.8      0.000      0.000
REMARK SMILES CC[NH2+][C@]1(C(=O)NCCCCNC(=O)c2ccc(-c3c4nc(c(-c5cc(S(=O)(=O)[O-])ccc5F)c5ccc([nH]5)c(-c5cc(S(=O)(=O)[O-])ccc5F)c5nc(c(-c6cc(S(=O)(=O)[O-])ccc6F)c6ccc3[nH]6)C=C5)C=C4)cc2)CCC[C@@H]1CCSc1ccccc1F
REMARK SMILES IDX 9 1 8 2 7 3 5 4 6 5 4 7 78 8 81 9 79 10 80 11 3 12 2 15 1 16
REMARK SMILES IDX 82 17 83 18 84 19 85 20 86 21 90 22 87 23 89 24 91 25 88 26
REMARK SMILES IDX 10 27 11 28 12 29 13 30 14 32 15 33 16 34 77 35 17 36 76 37
REMARK SMILES IDX 18 38 19 39 20 40 70 41 21 42 75 43 69 44 71 45 22 46 74 47
REMARK SMILES IDX 68 48 67 49 23 51 55 52 35 53 54 54 36 55 39 56 53 57 72 58
REMARK SMILES IDX 37 59 38 60 52 62 73 63 40 64 24 65 25 66 33 67 26 68 32 69
REMARK SMILES IDX 34 70 31 71 27 72 28 73 29 74 30 75 56 76 57 77 65 78 58 79
REMARK SMILES IDX 64 80 66 81 63 82 59 83 60 84 61 85 62 86 41 87 42 88 50 89
REMARK SMILES IDX 43 90 49 91 51 92 48 93 44 94 45 95 46 96 47 97
REMARK H PARENT 7 6 3 13 3 14 12 31 71 50 39 61
REMARK Flexibility Score: inf
ROOT
ATOM      1  C   UNL A   1      31.907  27.690  25.587  1.00  0.00     0.023 C 
ENDROOT
BRANCH   1   2
ATOM      2  C   UNL A   1      31.763  26.374  24.833  1.00  0.00     0.116 C 
BRANCH   2   3
ATOM      3  N   UNL A   1      32.527  26.305  23.597  1.00  0.00    -0.351 N 
ATOM      4  C   UNL A   1      33.481  25.391  23.207  1.00  0.00     0.281 C 
ATOM      5  O   UNL A   1      34.043  25.570  22.126  1.00  0.00    -0.268 OA
ATOM      6  H   UNL A   1      32.334  27.016  22.944  1.00  0.00     0.163 HD
BRANCH   4   7
ATOM      7  C   UNL A   1      33.858  24.204  24.152  1.00  0.00     0.178 C 
ATOM      8  C   UNL A   1      34.737  24.797  25.301  1.00  0.00     0.079 C 
ATOM      9  C   UNL A   1      32.699  23.681  25.064  1.00  0.00     0.061 C 
ATOM     10  C   UNL A   1      34.683  23.824  26.464  1.00  0.00     0.008 C 
ATOM     11  C   UNL A   1      33.421  23.016  26.249  1.00  0.00     0.011 C 
BRANCH   7  12
ATOM     12  N   UNL A   1      34.545  23.124  23.390  1.00  0.00    -0.334 N 
ATOM     13  H   UNL A   1      34.350  22.233  23.847  1.00  0.00     0.347 HD
ATOM     14  H   UNL A   1      34.187  23.156  22.436  1.00  0.00     0.347 HD
BRANCH  12  15
ATOM     15  C   UNL A   1      36.005  23.297  23.311  1.00  0.00     0.257 C 
ATOM     16  C   UNL A   1      36.722  22.102  23.920  1.00  0.00     0.071 C 
ENDBRANCH  12  15
ENDBRANCH   7  12
BRANCH   9  17
ATOM     17  C   UNL A   1      31.585  22.783  24.516  1.00  0.00     0.022 C 
BRANCH  17  18
ATOM     18  C   UNL A   1      31.805  21.276  24.771  1.00  0.00     0.075 C 
BRANCH  18  19
ATOM     19  S   UNL A   1      32.528  20.318  23.379  1.00  0.00    -0.123 SA
BRANCH  19  20
ATOM     20  C   UNL A   1      32.764  18.694  24.092  1.00  0.00     0.043 A 
ATOM     21  C   UNL A   1      32.667  18.497  25.474  1.00  0.00     0.018 A 
ATOM     22  C   UNL A   1      33.136  17.602  23.297  1.00  0.00     0.136 A 
ATOM     23  C   UNL A   1      32.882  17.226  26.028  1.00  0.00     0.001 A 
ATOM     24  C   UNL A   1      33.295  16.327  23.833  1.00  0.00     0.040 A 
ATOM     25  F   UNL A   1      33.329  17.754  21.979  1.00  0.00    -0.206 F 
ATOM     26  C   UNL A   1      33.170  16.136  25.204  1.00  0.00     0.003 A 
ENDBRANCH  19  20
ENDBRANCH  18  19
ENDBRANCH  17  18
ENDBRANCH   9  17
ENDBRANCH   4   7
ENDBRANCH   2   3
ENDBRANCH   1   2
BRANCH   1  27
ATOM     27  C   UNL A   1      33.164  27.810  26.435  1.00  0.00     0.023 C 
BRANCH  27  28
ATOM     28  C   UNL A   1      34.098  28.938  26.024  1.00  0.00     0.116 C 
BRANCH  28  29
ATOM     29  N   UNL A   1      33.641  30.249  26.464  1.00  0.00    -0.352 N 
ATOM     30  C   UNL A   1      34.149  31.059  27.450  1.00  0.00     0.251 C 
ATOM     31  H   UNL A   1      32.857  30.606  25.987  1.00  0.00     0.163 HD
ATOM     32  O   UNL A   1      33.538  32.072  27.787  1.00  0.00    -0.269 OA
BRANCH  30  33
ATOM     33  C   UNL A   1      35.407  30.679  28.123  1.00  0.00     0.039 A 
ATOM     34  C   UNL A   1      35.381  29.675  29.092  1.00  0.00     0.014 A 
ATOM     35  C   UNL A   1      36.615  31.281  27.762  1.00  0.00     0.014 A 
ATOM     36  C   UNL A   1      36.580  29.223  29.645  1.00  0.00     0.010 A 
ATOM     37  C   UNL A   1      37.813  30.764  28.241  1.00  0.00     0.010 A 
ATOM     38  C   UNL A   1      37.809  29.733  29.191  1.00  0.00    -0.014 A 
BRANCH  38  39
ATOM     39  C   UNL A   1      39.096  29.200  29.706  1.00  0.00     0.031 A 
ATOM     40  C   UNL A   1      39.751  29.837  30.902  1.00  0.00     0.074 A 
ATOM     41  C   UNL A   1      39.696  28.177  29.067  1.00  0.00     0.049 A 
ATOM     42  N   UNL A   1      40.888  29.541  31.478  1.00  0.00    -0.248 NA
ATOM     43  C   UNL A   1      39.049  30.977  31.511  1.00  0.00     0.031 C 
ATOM     44  C   UNL A   1      39.181  27.512  27.866  1.00  0.00     0.029 A 
ATOM     45  N   UNL A   1      40.865  27.513  29.334  1.00  0.00    -0.354 N 
ATOM     46  C   UNL A   1      41.039  30.461  32.511  1.00  0.00     0.074 A 
ATOM     47  C   UNL A   1      39.916  31.370  32.431  1.00  0.00     0.031 C 
ATOM     48  C   UNL A   1      40.009  26.513  27.526  1.00  0.00     0.029 A 
ATOM     49  C   UNL A   1      41.137  26.493  28.451  1.00  0.00     0.049 A 
ATOM     50  H   UNL A   1      41.456  27.743  30.087  1.00  0.00     0.167 HD
ATOM     51  C   UNL A   1      42.011  30.524  33.455  1.00  0.00     0.034 A 
ATOM     52  C   UNL A   1      42.181  25.641  28.391  1.00  0.00     0.034 A 
ATOM     53  C   UNL A   1      43.120  29.604  33.522  1.00  0.00     0.049 A 
ATOM     54  C   UNL A   1      43.262  25.747  29.437  1.00  0.00     0.074 A 
ATOM     55  C   UNL A   1      44.134  29.543  34.461  1.00  0.00     0.029 A 
ATOM     56  N   UNL A   1      43.369  28.589  32.606  1.00  0.00    -0.354 N 
ATOM     57  N   UNL A   1      43.360  26.587  30.443  1.00  0.00    -0.248 NA
ATOM     58  C   UNL A   1      44.363  24.781  29.348  1.00  0.00     0.031 C 
ATOM     59  C   UNL A   1      45.032  28.543  34.075  1.00  0.00     0.029 A 
ATOM     60  C   UNL A   1      44.537  27.919  32.941  1.00  0.00     0.049 A 
ATOM     61  H   UNL A   1      42.799  28.376  31.832  1.00  0.00     0.167 HD
ATOM     62  C   UNL A   1      44.520  26.227  31.123  1.00  0.00     0.074 A 
ATOM     63  C   UNL A   1      45.070  25.081  30.426  1.00  0.00     0.031 C 
ATOM     64  C   UNL A   1      45.081  26.789  32.225  1.00  0.00     0.034 A 
BRANCH  51  65
ATOM     65  C   UNL A   1      41.919  31.638  34.473  1.00  0.00     0.023 A 
ATOM     66  C   UNL A   1      41.018  31.581  35.552  1.00  0.00     0.031 A 
ATOM     67  C   UNL A   1      42.718  32.787  34.347  1.00  0.00     0.131 A 
ATOM     68  C   UNL A   1      40.884  32.680  36.414  1.00  0.00     0.055 A 
ATOM     69  C   UNL A   1      42.643  33.841  35.260  1.00  0.00     0.041 A 
ATOM     70  F   UNL A   1      43.580  32.913  33.326  1.00  0.00    -0.206 F 
ATOM     71  C   UNL A   1      41.709  33.799  36.292  1.00  0.00     0.022 A 
BRANCH  68  72
ATOM     72  S   UNL A   1      39.511  32.687  37.601  1.00  0.00     0.124 S 
ATOM     73  O   UNL A   1      40.217  32.522  38.869  1.00  0.00    -0.237 OA
ATOM     74  O   UNL A   1      38.904  33.993  37.372  1.00  0.00    -0.237 OA
ATOM     75  O   UNL A   1      38.701  31.540  37.194  1.00  0.00    -0.744 OA
ENDBRANCH  68  72
ENDBRANCH  51  65
BRANCH  52  76
ATOM     76  C   UNL A   1      42.264  24.618  27.309  1.00  0.00     0.023 A 
ATOM     77  C   UNL A   1      41.489  23.448  27.357  1.00  0.00     0.031 A 
ATOM     78  C   UNL A   1      43.155  24.771  26.231  1.00  0.00     0.131 A 
ATOM     79  C   UNL A   1      41.657  22.455  26.380  1.00  0.00     0.055 A 
ATOM     80  C   UNL A   1      43.276  23.807  25.229  1.00  0.00     0.041 A 
ATOM     81  F   UNL A   1      43.918  25.872  26.132  1.00  0.00    -0.206 F 
ATOM     82  C   UNL A   1      42.535  22.633  25.308  1.00  0.00     0.022 A 
BRANCH  79  83
ATOM     83  S   UNL A   1      40.776  20.881  26.580  1.00  0.00     0.124 S 
ATOM     84  O   UNL A   1      40.829  20.694  28.026  1.00  0.00    -0.237 OA
ATOM     85  O   UNL A   1      39.465  21.194  26.021  1.00  0.00    -0.237 OA
ATOM     86  O   UNL A   1      41.577  19.941  25.799  1.00  0.00    -0.744 OA
ENDBRANCH  79  83
ENDBRANCH  52  76
BRANCH  64  87
ATOM     87  C   UNL A   1      46.335  26.137  32.761  1.00  0.00     0.023 A 
ATOM     88  C   UNL A   1      47.605  26.429  32.234  1.00  0.00     0.031 A 
ATOM     89  C   UNL A   1      46.253  25.188  33.796  1.00  0.00     0.131 A 
ATOM     90  C   UNL A   1      48.730  25.727  32.691  1.00  0.00     0.055 A 
ATOM     91  C   UNL A   1      47.386  24.545  34.297  1.00  0.00     0.041 A 
ATOM     92  F   UNL A   1      45.066  24.866  34.337  1.00  0.00    -0.206 F 
ATOM     93  C   UNL A   1      48.632  24.801  33.732  1.00  0.00     0.022 A 
BRANCH  90  94
ATOM     94  S   UNL A   1      50.308  25.954  31.823  1.00  0.00     0.124 S 
ATOM     95  O   UNL A   1      51.265  25.931  32.924  1.00  0.00    -0.237 OA
ATOM     96  O   UNL A   1      50.339  24.803  30.927  1.00  0.00    -0.237 OA
ATOM     97  O   UNL A   1      50.152  27.249  31.163  1.00  0.00    -0.744 OA
ENDBRANCH  90  94
ENDBRANCH  64  87
ENDBRANCH  38  39
ENDBRANCH  30  33
ENDBRANCH  28  29
ENDBRANCH  27  28
ENDBRANCH   1  27
TORSDOF 20
ENDMDL
MODEL 2
REMARK VINA RESULT:     -10.8      2.501      3.126
REMARK SMILES CC[NH2+][C@]1(C(=O)NCCCCNC(=O)c2ccc(-c3c4nc(c(-c5cc(S(=O)(=O)[O-])ccc5F)c5ccc([nH]5)c(-c5cc(S(=O)(=O)[O-])ccc5F)c5nc(c(-c6cc(S(=O)(=O)[O-])ccc6F)c6ccc3[nH]6)C=C5)C=C4)cc2)CCC[C@@H]1CCSc1ccccc1F
REMARK SMILES IDX 9 1 8 2 7 3 5 4 6 5 4 7 78 8 81 9 79 10 80 11 3 12 2 15 1 16
REMARK SMILES IDX 82 17 83 18 84 19 85 20 86 21 90 22 87 23 89 24 91 25 88 26
REMARK SMILES IDX 10 27 11 28 12 29 13 30 14 32 15 33 16 34 77 35 17 36 76 37
REMARK SMILES IDX 18 38 19 39 20 40 70 41 21 42 75 43 69 44 71 45 22 46 74 47
REMARK SMILES IDX 68 48 67 49 23 51 55 52 35 53 54 54 36 55 39 56 53 57 72 58
REMARK SMILES IDX 37 59 38 60 52 62 73 63 40 64 24 65 25 66 33 67 26 68 32 69
REMARK SMILES IDX 34 70 31 71 27 72 28 73 29 74 30 75 56 76 57 77 65 78 58 79
REMARK SMILES IDX 64 80 66 81 63 82 59 83 60 84 61 85 62 86 41 87 42 88 50 89
REMARK SMILES IDX 43 90 49 91 51 92 48 93 44 94 45 95 46 96 47 97
REMARK H PARENT 7 6 3 13 3 14 12 31 71 50 39 61
REMARK Flexibility Score: inf
ROOT
ATOM      1  C   UNL A   1      31.491  28.150  27.238  1.00  0.00     0.023 C 
ENDROOT
BRANCH   1   2
ATOM      2  C   UNL A   1      32.271  26.906  26.834  1.00  0.00     0.116 C 
BRANCH   2   3
ATOM      3  N   UNL A   1      31.444  25.738  26.574  1.00  0.00    -0.351 N 
ATOM      4  C   UNL A   1      31.644  24.703  25.688  1.00  0.00     0.281 C 
ATOM      5  O   UNL A   1      30.766  23.842  25.598  1.00  0.00    -0.268 OA
ATOM      6  H   UNL A   1      30.620  25.679  27.110  1.00  0.00     0.163 HD
BRANCH   4   7
ATOM      7  C   UNL A   1      32.928  24.675  24.796  1.00  0.00     0.178 C 
ATOM      8  C   UNL A   1      34.152  24.828  25.756  1.00  0.00     0.079 C 
ATOM      9  C   UNL A   1      33.317  23.269  24.229  1.00  0.00     0.061 C 
ATOM     10  C   UNL A   1      35.373  24.300  25.024  1.00  0.00     0.008 C 
ATOM     11  C   UNL A   1      34.827  23.378  23.954  1.00  0.00     0.011 C 
BRANCH   7  12
ATOM     12  N   UNL A   1      32.868  25.738  23.754  1.00  0.00    -0.334 N 
ATOM     13  H   UNL A   1      33.130  26.625  24.183  1.00  0.00     0.347 HD
ATOM     14  H   UNL A   1      33.508  25.463  23.009  1.00  0.00     0.347 HD
BRANCH  12  15
ATOM     15  C   UNL A   1      31.536  25.890  23.145  1.00  0.00     0.257 C 
ATOM     16  C   UNL A   1      31.232  27.356  22.878  1.00  0.00     0.071 C 
ENDBRANCH  12  15
ENDBRANCH   7  12
BRANCH   9  17
ATOM     17  C   UNL A   1      32.578  22.647  23.040  1.00  0.00     0.022 C 
BRANCH  17  18
ATOM     18  C   UNL A   1      32.418  21.114  23.128  1.00  0.00     0.075 C 
BRANCH  18  19
ATOM     19  S   UNL A   1      32.190  20.420  24.815  1.00  0.00    -0.123 SA
BRANCH  19  20
ATOM     20  C   UNL A   1      33.042  18.850  24.719  1.00  0.00     0.043 A 
ATOM     21  C   UNL A   1      32.336  17.645  24.820  1.00  0.00     0.018 A 
ATOM     22  C   UNL A   1      34.438  18.788  24.629  1.00  0.00     0.136 A 
ATOM     23  C   UNL A   1      33.016  16.418  24.772  1.00  0.00     0.001 A 
ATOM     24  C   UNL A   1      35.113  17.575  24.524  1.00  0.00     0.040 A 
ATOM     25  F   UNL A   1      35.170  19.912  24.618  1.00  0.00    -0.206 F 
ATOM     26  C   UNL A   1      34.400  16.384  24.597  1.00  0.00     0.003 A 
ENDBRANCH  19  20
ENDBRANCH  18  19
ENDBRANCH  17  18
ENDBRANCH   9  17
ENDBRANCH   4   7
ENDBRANCH   2   3
ENDBRANCH   1   2
BRANCH   1  27
ATOM     27  C   UNL A   1      31.406  29.230  26.170  1.00  0.00     0.023 C 
BRANCH  27  28
ATOM     28  C   UNL A   1      32.667  30.067  26.017  1.00  0.00     0.116 C 
BRANCH  28  29
ATOM     29  N   UNL A   1      32.491  31.450  26.440  1.00  0.00    -0.352 N 
ATOM     30  C   UNL A   1      33.256  32.198  27.301  1.00  0.00     0.251 C 
ATOM     31  H   UNL A   1      31.713  31.914  26.054  1.00  0.00     0.163 HD
ATOM     32  O   UNL A   1      32.868  33.308  27.659  1.00  0.00    -0.269 OA
BRANCH  30  33
ATOM     33  C   UNL A   1      34.521  31.639  27.818  1.00  0.00     0.039 A 
ATOM     34  C   UNL A   1      35.614  32.487  27.996  1.00  0.00     0.014 A 
ATOM     35  C   UNL A   1      34.609  30.289  28.170  1.00  0.00     0.014 A 
ATOM     36  C   UNL A   1      36.774  31.996  28.598  1.00  0.00     0.010 A 
ATOM     37  C   UNL A   1      35.727  29.828  28.856  1.00  0.00     0.010 A 
ATOM     38  C   UNL A   1      36.823  30.674  29.073  1.00  0.00    -0.014 A 
BRANCH  38  39
ATOM     39  C   UNL A   1      38.017  30.164  29.794  1.00  0.00     0.031 A 
ATOM     40  C   UNL A   1      38.323  30.652  31.185  1.00  0.00     0.074 A 
ATOM     41  C   UNL A   1      38.848  29.300  29.179  1.00  0.00     0.049 A 
ATOM     42  N   UNL A   1      39.332  30.355  31.963  1.00  0.00    -0.248 NA
ATOM     43  C   UNL A   1      37.386  31.628  31.764  1.00  0.00     0.031 C 
ATOM     44  C   UNL A   1      38.681  28.796  27.812  1.00  0.00     0.029 A 
ATOM     45  N   UNL A   1      39.996  28.691  29.616  1.00  0.00    -0.354 N 
ATOM     46  C   UNL A   1      39.155  31.110  33.118  1.00  0.00     0.074 A 
ATOM     47  C   UNL A   1      37.985  31.934  32.904  1.00  0.00     0.031 C 
ATOM     48  C   UNL A   1      39.666  27.926  27.541  1.00  0.00     0.029 A 
ATOM     49  C   UNL A   1      40.562  27.845  28.690  1.00  0.00     0.049 A 
ATOM     50  H   UNL A   1      40.379  28.844  30.510  1.00  0.00     0.167 HD
ATOM     51  C   UNL A   1      39.884  31.096  34.260  1.00  0.00     0.034 A 
ATOM     52  C   UNL A   1      41.678  27.093  28.758  1.00  0.00     0.034 A 
ATOM     53  C   UNL A   1      41.045  30.262  34.456  1.00  0.00     0.049 A 
ATOM     54  C   UNL A   1      42.487  27.114  30.030  1.00  0.00     0.074 A 
ATOM     55  C   UNL A   1      41.830  30.130  35.588  1.00  0.00     0.029 A 
ATOM     56  N   UNL A   1      41.595  29.424  33.494  1.00  0.00    -0.354 N 
ATOM     57  N   UNL A   1      42.274  27.790  31.136  1.00  0.00    -0.248 NA
ATOM     58  C   UNL A   1      43.679  26.258  30.068  1.00  0.00     0.031 C 
ATOM     59  C   UNL A   1      42.893  29.272  35.288  1.00  0.00     0.029 A 
ATOM     60  C   UNL A   1      42.727  28.798  33.996  1.00  0.00     0.049 A 
ATOM     61  H   UNL A   1      41.234  29.293  32.588  1.00  0.00     0.167 HD
ATOM     62  C   UNL A   1      43.289  27.415  32.011  1.00  0.00     0.074 A 
ATOM     63  C   UNL A   1      44.098  26.437  31.311  1.00  0.00     0.031 C 
ATOM     64  C   UNL A   1      43.533  27.837  33.279  1.00  0.00     0.034 A 
BRANCH  51  65
ATOM     65  C   UNL A   1      39.454  32.027  35.371  1.00  0.00     0.023 A 
ATOM     66  C   UNL A   1      39.969  33.331  35.484  1.00  0.00     0.031 A 
ATOM     67  C   UNL A   1      38.539  31.596  36.347  1.00  0.00     0.131 A 
ATOM     68  C   UNL A   1      39.628  34.127  36.589  1.00  0.00     0.055 A 
ATOM     69  C   UNL A   1      38.136  32.426  37.397  1.00  0.00     0.041 A 
ATOM     70  F   UNL A   1      38.029  30.355  36.309  1.00  0.00    -0.206 F 
ATOM     71  C   UNL A   1      38.695  33.693  37.531  1.00  0.00     0.022 A 
BRANCH  68  72
ATOM     72  S   UNL A   1      40.540  35.673  36.855  1.00  0.00     0.124 S 
ATOM     73  O   UNL A   1      40.674  35.688  38.310  1.00  0.00    -0.237 OA
ATOM     74  O   UNL A   1      41.768  35.449  36.103  1.00  0.00    -0.237 OA
ATOM     75  O   UNL A   1      39.649  36.695  36.309  1.00  0.00    -0.744 OA
ENDBRANCH  68  72
ENDBRANCH  51  65
BRANCH  52  76
ATOM     76  C   UNL A   1      42.105  26.261  27.596  1.00  0.00     0.023 A 
ATOM     77  C   UNL A   1      41.710  24.919  27.483  1.00  0.00     0.031 A 
ATOM     78  C   UNL A   1      42.954  26.782  26.602  1.00  0.00     0.131 A 
ATOM     79  C   UNL A   1      42.204  24.128  26.433  1.00  0.00     0.055 A 
ATOM     80  C   UNL A   1      43.396  26.008  25.528  1.00  0.00     0.041 A 
ATOM     81  F   UNL A   1      43.360  28.061  26.658  1.00  0.00    -0.206 F 
ATOM     82  C   UNL A   1      43.033  24.668  25.447  1.00  0.00     0.022 A 
BRANCH  79  83
ATOM     83  S   UNL A   1      41.822  22.355  26.427  1.00  0.00     0.124 S 
ATOM     84  O   UNL A   1      42.289  21.947  27.748  1.00  0.00    -0.237 OA
ATOM     85  O   UNL A   1      40.377  22.357  26.229  1.00  0.00    -0.237 OA
ATOM     86  O   UNL A   1      42.603  21.843  25.303  1.00  0.00    -0.744 OA
ENDBRANCH  79  83
ENDBRANCH  52  76
BRANCH  64  87
ATOM     87  C   UNL A   1      44.702  27.204  33.997  1.00  0.00     0.023 A 
ATOM     88  C   UNL A   1      44.542  26.079  34.824  1.00  0.00     0.031 A 
ATOM     89  C   UNL A   1      45.992  27.754  33.874  1.00  0.00     0.131 A 
ATOM     90  C   UNL A   1      45.634  25.585  35.553  1.00  0.00     0.055 A 
ATOM     91  C   UNL A   1      47.089  27.213  34.545  1.00  0.00     0.041 A 
ATOM     92  F   UNL A   1      46.205  28.831  33.100  1.00  0.00    -0.206 F 
ATOM     93  C   UNL A   1      46.911  26.133  35.404  1.00  0.00     0.022 A 
BRANCH  90  94
ATOM     94  S   UNL A   1      45.340  24.291  36.790  1.00  0.00     0.124 S 
ATOM     95  O   UNL A   1      44.987  23.148  35.954  1.00  0.00    -0.237 OA
ATOM     96  O   UNL A   1      46.628  24.210  37.470  1.00  0.00    -0.237 OA
ATOM     97  O   UNL A   1      44.246  24.831  37.596  1.00  0.00    -0.744 OA
ENDBRANCH  90  94
ENDBRANCH  64  87
ENDBRANCH  38  39
ENDBRANCH  30  33
ENDBRANCH  28  29
ENDBRANCH  27  28
ENDBRANCH   1  27
TORSDOF 20
ENDMDL
MODEL 3
REMARK VINA RESULT:     -10.8      2.961      8.317
REMARK SMILES CC[NH2+][C@]1(C(=O)NCCCCNC(=O)c2ccc(-c3c4nc(c(-c5cc(S(=O)(=O)[O-])ccc5F)c5ccc([nH]5)c(-c5cc(S(=O)(=O)[O-])ccc5F)c5nc(c(-c6cc(S(=O)(=O)[O-])ccc6F)c6ccc3[nH]6)C=C5)C=C4)cc2)CCC[C@@H]1CCSc1ccccc1F
REMARK SMILES IDX 9 1 8 2 7 3 5 4 6 5 4 7 78 8 81 9 79 10 80 11 3 12 2 15 1 16
REMARK SMILES IDX 82 17 83 18 84 19 85 20 86 21 90 22 87 23 89 24 91 25 88 26
REMARK SMILES IDX 10 27 11 28 12 29 13 30 14 32 15 33 16 34 77 35 17 36 76 37
REMARK SMILES IDX 18 38 19 39 20 40 70 41 21 42 75 43 69 44 71 45 22 46 74 47
REMARK SMILES IDX 68 48 67 49 23 51 55 52 35 53 54 54 36 55 39 56 53 57 72 58
REMARK SMILES IDX 37 59 38 60 52 62 73 63 40 64 24 65 25 66 33 67 26 68 32 69
REMARK SMILES IDX 34 70 31 71 27 72 28 73 29 74 30 75 56 76 57 77 65 78 58 79
REMARK SMILES IDX 64 80 66 81 63 82 59 83 60 84 61 85 62 86 41 87 42 88 50 89
REMARK SMILES IDX 43 90 49 91 51 92 48 93 44 94 45 95 46 96 47 97
REMARK H PARENT 7 6 3 13 3 14 12 31 71 50 39 61
REMARK Flexibility Score: inf
ROOT
ATOM      1  C   UNL A   1      31.591  30.235  25.634  1.00  0.00     0.023 C 
ENDROOT
BRANCH   1   2
ATOM      2  C   UNL A   1      32.583  29.100  25.420  1.00  0.00     0.116 C 
BRANCH   2   3
ATOM      3  N   UNL A   1      33.421  29.251  24.240  1.00  0.00    -0.351 N 
ATOM      4  C   UNL A   1      33.637  28.373  23.202  1.00  0.00     0.281 C 
ATOM      5  O   UNL A   1      34.445  28.698  22.330  1.00  0.00    -0.268 OA
ATOM      6  H   UNL A   1      33.902  30.107  24.174  1.00  0.00     0.163 HD
BRANCH   4   7
ATOM      7  C   UNL A   1      32.910  26.989  23.184  1.00  0.00     0.178 C 
ATOM      8  C   UNL A   1      33.094  26.395  21.750  1.00  0.00     0.079 C 
ATOM      9  C   UNL A   1      33.642  25.838  23.951  1.00  0.00     0.061 C 
ATOM     10  C   UNL A   1      32.871  24.897  21.844  1.00  0.00     0.008 C 
ATOM     11  C   UNL A   1      33.110  24.550  23.299  1.00  0.00     0.011 C 
BRANCH   7  12
ATOM     12  N   UNL A   1      31.479  27.142  23.572  1.00  0.00    -0.334 N 
ATOM     13  H   UNL A   1      31.122  26.228  23.851  1.00  0.00     0.347 HD
ATOM     14  H   UNL A   1      31.446  27.819  24.333  1.00  0.00     0.347 HD
BRANCH  12  15
ATOM     15  C   UNL A   1      30.629  27.665  22.490  1.00  0.00     0.257 C 
ATOM     16  C   UNL A   1      29.534  28.558  23.051  1.00  0.00     0.071 C 
ENDBRANCH  12  15
ENDBRANCH   7  12
BRANCH   9  17
ATOM     17  C   UNL A   1      33.611  25.742  25.480  1.00  0.00     0.022 C 
BRANCH  17  18
ATOM     18  C   UNL A   1      34.208  24.434  26.042  1.00  0.00     0.075 C 
BRANCH  18  19
ATOM     19  S   UNL A   1      33.012  23.260  26.799  1.00  0.00    -0.123 SA
BRANCH  19  20
ATOM     20  C   UNL A   1      33.208  21.790  25.799  1.00  0.00     0.043 A 
ATOM     21  C   UNL A   1      32.131  21.268  25.073  1.00  0.00     0.018 A 
ATOM     22  C   UNL A   1      34.415  21.079  25.787  1.00  0.00     0.136 A 
ATOM     23  C   UNL A   1      32.287  20.098  24.314  1.00  0.00     0.001 A 
ATOM     24  C   UNL A   1      34.593  19.950  24.992  1.00  0.00     0.040 A 
ATOM     25  F   UNL A   1      35.453  21.486  26.533  1.00  0.00    -0.206 F 
ATOM     26  C   UNL A   1      33.525  19.455  24.253  1.00  0.00     0.003 A 
ENDBRANCH  19  20
ENDBRANCH  18  19
ENDBRANCH  17  18
ENDBRANCH   9  17
ENDBRANCH   4   7
ENDBRANCH   2   3
ENDBRANCH   1   2
BRANCH   1  27
ATOM     27  C   UNL A   1      31.786  31.025  26.919  1.00  0.00     0.023 C 
BRANCH  27  28
ATOM     28  C   UNL A   1      33.019  31.916  26.931  1.00  0.00     0.116 C 
BRANCH  28  29
ATOM     29  N   UNL A   1      32.716  33.307  27.241  1.00  0.00    -0.352 N 
ATOM     30  C   UNL A   1      33.256  34.117  28.210  1.00  0.00     0.251 C 
ATOM     31  H   UNL A   1      32.028  33.726  26.675  1.00  0.00     0.163 HD
ATOM     32  O   UNL A   1      32.769  35.225  28.424  1.00  0.00    -0.269 OA
BRANCH  30  33
ATOM     33  C   UNL A   1      34.394  33.627  29.012  1.00  0.00     0.039 A 
ATOM     34  C   UNL A   1      34.163  32.676  30.008  1.00  0.00     0.014 A 
ATOM     35  C   UNL A   1      35.692  34.072  28.748  1.00  0.00     0.014 A 
ATOM     36  C   UNL A   1      35.246  32.117  30.688  1.00  0.00     0.010 A 
ATOM     37  C   UNL A   1      36.773  33.444  29.357  1.00  0.00     0.010 A 
ATOM     38  C   UNL A   1      36.562  32.464  30.337  1.00  0.00    -0.014 A 
BRANCH  38  39
ATOM     39  C   UNL A   1      37.725  31.812  30.990  1.00  0.00     0.031 A 
ATOM     40  C   UNL A   1      38.522  30.774  30.247  1.00  0.00     0.074 A 
ATOM     41  C   UNL A   1      38.032  32.120  32.265  1.00  0.00     0.049 A 
ATOM     42  N   UNL A   1      39.546  30.068  30.655  1.00  0.00    -0.248 NA
ATOM     43  C   UNL A   1      38.091  30.466  28.874  1.00  0.00     0.031 C 
ATOM     44  C   UNL A   1      37.300  33.074  33.103  1.00  0.00     0.029 A 
ATOM     45  N   UNL A   1      39.037  31.669  33.082  1.00  0.00    -0.354 N 
ATOM     46  C   UNL A   1      39.875  29.230  29.593  1.00  0.00     0.074 A 
ATOM     47  C   UNL A   1      38.895  29.464  28.555  1.00  0.00     0.031 C 
ATOM     48  C   UNL A   1      37.904  33.165  34.298  1.00  0.00     0.029 A 
ATOM     49  C   UNL A   1      39.035  32.244  34.332  1.00  0.00     0.049 A 
ATOM     50  H   UNL A   1      39.699  30.998  32.800  1.00  0.00     0.167 HD
ATOM     51  C   UNL A   1      40.916  28.368  29.485  1.00  0.00     0.034 A 
ATOM     52  C   UNL A   1      39.849  32.047  35.388  1.00  0.00     0.034 A 
ATOM     53  C   UNL A   1      41.888  28.154  30.530  1.00  0.00     0.049 A 
ATOM     54  C   UNL A   1      40.984  31.064  35.252  1.00  0.00     0.074 A 
ATOM     55  C   UNL A   1      43.009  27.343  30.511  1.00  0.00     0.029 A 
ATOM     56  N   UNL A   1      41.849  28.747  31.787  1.00  0.00    -0.354 N 
ATOM     57  N   UNL A   1      41.318  30.322  34.220  1.00  0.00    -0.248 NA
ATOM     58  C   UNL A   1      41.862  30.904  36.418  1.00  0.00     0.031 C 
ATOM     59  C   UNL A   1      43.605  27.388  31.776  1.00  0.00     0.029 A 
ATOM     60  C   UNL A   1      42.908  28.293  32.561  1.00  0.00     0.049 A 
ATOM     61  H   UNL A   1      41.170  29.394  32.084  1.00  0.00     0.167 HD
ATOM     62  C   UNL A   1      42.463  29.631  34.605  1.00  0.00     0.074 A 
ATOM     63  C   UNL A   1      42.773  30.063  35.953  1.00  0.00     0.031 C 
ATOM     64  C   UNL A   1      43.194  28.722  33.910  1.00  0.00     0.034 A 
BRANCH  51  65
ATOM     65  C   UNL A   1      41.036  27.583  28.199  1.00  0.00     0.023 A 
ATOM     66  C   UNL A   1      40.667  26.228  28.122  1.00  0.00     0.031 A 
ATOM     67  C   UNL A   1      41.556  28.187  27.041  1.00  0.00     0.131 A 
ATOM     68  C   UNL A   1      40.894  25.504  26.942  1.00  0.00     0.055 A 
ATOM     69  C   UNL A   1      41.698  27.483  25.843  1.00  0.00     0.041 A 
ATOM     70  F   UNL A   1      41.950  29.470  27.056  1.00  0.00    -0.206 F 
ATOM     71  C   UNL A   1      41.382  26.129  25.793  1.00  0.00     0.022 A 
BRANCH  68  72
ATOM     72  S   UNL A   1      40.686  23.701  26.979  1.00  0.00     0.124 S 
ATOM     73  O   UNL A   1      41.012  23.396  28.370  1.00  0.00    -0.237 OA
ATOM     74  O   UNL A   1      39.288  23.538  26.598  1.00  0.00    -0.237 OA
ATOM     75  O   UNL A   1      41.661  23.224  26.000  1.00  0.00    -0.744 OA
ENDBRANCH  68  72
ENDBRANCH  51  65
BRANCH  52  76
ATOM     76  C   UNL A   1      39.628  32.785  36.666  1.00  0.00     0.023 A 
ATOM     77  C   UNL A   1      38.738  32.299  37.637  1.00  0.00     0.031 A 
ATOM     78  C   UNL A   1      40.269  34.012  36.917  1.00  0.00     0.131 A 
ATOM     79  C   UNL A   1      38.471  33.059  38.786  1.00  0.00     0.055 A 
ATOM     80  C   UNL A   1      40.045  34.736  38.089  1.00  0.00     0.041 A 
ATOM     81  F   UNL A   1      41.133  34.521  36.024  1.00  0.00    -0.206 F 
ATOM     82  C   UNL A   1      39.130  34.267  39.025  1.00  0.00     0.022 A 
BRANCH  79  83
ATOM     83  S   UNL A   1      37.177  32.490  39.924  1.00  0.00     0.124 S 
ATOM     84  O   UNL A   1      35.989  32.564  39.081  1.00  0.00    -0.237 OA
ATOM     85  O   UNL A   1      37.641  31.149  40.263  1.00  0.00    -0.237 OA
ATOM     86  O   UNL A   1      37.232  33.461  41.014  1.00  0.00    -0.744 OA
ENDBRANCH  79  83
ENDBRANCH  52  76
BRANCH  64  87
ATOM     87  C   UNL A   1      44.426  28.171  34.591  1.00  0.00     0.023 A 
ATOM     88  C   UNL A   1      44.355  27.095  35.493  1.00  0.00     0.031 A 
ATOM     89  C   UNL A   1      45.685  28.752  34.355  1.00  0.00     0.131 A 
ATOM     90  C   UNL A   1      45.506  26.681  36.180  1.00  0.00     0.055 A 
ATOM     91  C   UNL A   1      46.839  28.288  34.988  1.00  0.00     0.041 A 
ATOM     92  F   UNL A   1      45.814  29.785  33.506  1.00  0.00    -0.206 F 
ATOM     93  C   UNL A   1      46.751  27.258  35.919  1.00  0.00     0.022 A 
BRANCH  90  94
ATOM     94  S   UNL A   1      45.332  25.458  37.509  1.00  0.00     0.124 S 
ATOM     95  O   UNL A   1      44.135  24.731  37.096  1.00  0.00    -0.237 OA
ATOM     96  O   UNL A   1      46.587  24.720  37.420  1.00  0.00    -0.237 OA
ATOM     97  O   UNL A   1      45.178  26.277  38.710  1.00  0.00    -0.744 OA
ENDBRANCH  90  94
ENDBRANCH  64  87
ENDBRANCH  38  39
ENDBRANCH  30  33
ENDBRANCH  28  29
ENDBRANCH  27  28
ENDBRANCH   1  27
TORSDOF 20
ENDMDL
