MODEL 1
REMARK VINA RESULT:     -11.4      0.000      0.000
REMARK SMILES CC(C)OCCS(=O)(=O)N1CCC[C@H](C(=O)NCCCCNC(=O)c2ccc(-c3c4nc(c(-c5cc(S(=O)(=O)[O-])ccc5F)c5ccc([nH]5)c(-c5cc(S(=O)(=O)[O-])ccc5F)c5nc(c(-c6cc(S(=O)(=O)[O-])ccc6F)c6ccc3[nH]6)C=C5)C=C4)cc2)C1
REMARK SMILES IDX 18 1 17 2 15 3 16 4 14 6 10 7 11 8 88 9 12 10 13 11 7 12
REMARK SMILES IDX 8 13 9 14 6 15 5 16 4 17 2 18 1 19 3 20 19 21 20 22 21 23
REMARK SMILES IDX 22 24 23 25 24 27 25 28 26 29 87 30 27 31 86 32 28 33 29 34
REMARK SMILES IDX 30 35 80 36 31 37 85 38 79 39 81 40 32 41 84 42 78 43 77 44
REMARK SMILES IDX 33 46 65 47 45 48 64 49 46 50 49 51 63 52 82 53 47 54 48 55
REMARK SMILES IDX 62 57 83 58 50 59 34 60 35 61 43 62 36 63 42 64 44 65 41 66
REMARK SMILES IDX 37 67 38 68 39 69 40 70 66 71 67 72 75 73 68 74 74 75 76 76
REMARK SMILES IDX 73 77 69 78 70 79 71 80 72 81 51 82 52 83 60 84 53 85 59 86
REMARK SMILES IDX 61 87 58 88 54 89 55 90 56 91 57 92
REMARK H PARENT 17 5 22 26 81 45 49 56
REMARK Flexibility Score: inf
ROOT
ATOM      1  C   UNL A   1      33.035  28.787  23.479  1.00  0.00     0.116 C 
ENDROOT
BRANCH   1   2
ATOM      2  N   UNL A   1      31.829  29.335  22.926  1.00  0.00    -0.356 N 
ATOM      3  C   UNL A   1      30.781  28.664  22.398  1.00  0.00     0.224 C 
ATOM      4  O   UNL A   1      29.882  29.320  21.866  1.00  0.00    -0.275 OA
ATOM      5  H   UNL A   1      31.757  30.317  22.930  1.00  0.00     0.163 HD
BRANCH   3   6
ATOM      6  C   UNL A   1      30.690  27.144  22.460  1.00  0.00     0.093 C 
ATOM      7  N   UNL A   1      31.557  25.840  24.517  1.00  0.00    -0.201 NA
ATOM      8  C   UNL A   1      32.389  24.980  23.654  1.00  0.00     0.102 C 
ATOM      9  C   UNL A   1      30.449  26.562  23.843  1.00  0.00     0.115 C 
ATOM     10  C   UNL A   1      32.810  25.702  22.373  1.00  0.00     0.018 C 
ATOM     11  C   UNL A   1      31.660  26.341  21.607  1.00  0.00     0.016 C 
BRANCH   7  12
ATOM     12  S   UNL A   1      31.381  25.399  26.165  1.00  0.00     0.216 S 
ATOM     13  O   UNL A   1      30.050  24.847  26.325  1.00  0.00    -0.212 OA
ATOM     14  O   UNL A   1      31.771  26.564  26.926  1.00  0.00    -0.212 OA
BRANCH  12  15
ATOM     15  C   UNL A   1      32.618  24.110  26.510  1.00  0.00     0.182 C 
BRANCH  15  16
ATOM     16  C   UNL A   1      32.160  22.657  26.269  1.00  0.00     0.178 C 
BRANCH  16  17
ATOM     17  O   UNL A   1      33.196  21.668  26.451  1.00  0.00    -0.378 OA
BRANCH  17  18
ATOM     18  C   UNL A   1      33.488  20.776  25.368  1.00  0.00     0.112 C 
ATOM     19  C   UNL A   1      32.837  19.404  25.462  1.00  0.00     0.038 C 
ATOM     20  C   UNL A   1      33.154  21.419  24.063  1.00  0.00     0.038 C 
ENDBRANCH  17  18
ENDBRANCH  16  17
ENDBRANCH  15  16
ENDBRANCH  12  15
ENDBRANCH   7  12
ENDBRANCH   3   6
ENDBRANCH   1   2
BRANCH   1  21
ATOM     21  C   UNL A   1      33.174  29.163  24.944  1.00  0.00     0.023 C 
BRANCH  21  22
ATOM     22  C   UNL A   1      32.063  30.081  25.408  1.00  0.00     0.023 C 
BRANCH  22  23
ATOM     23  C   UNL A   1      32.211  30.507  26.860  1.00  0.00     0.116 C 
BRANCH  23  24
ATOM     24  N   UNL A   1      32.107  31.954  27.048  1.00  0.00    -0.352 N 
ATOM     25  C   UNL A   1      33.061  32.789  27.584  1.00  0.00     0.251 C 
ATOM     26  H   UNL A   1      31.264  32.376  26.763  1.00  0.00     0.163 HD
ATOM     27  O   UNL A   1      32.823  33.957  27.855  1.00  0.00    -0.269 OA
BRANCH  25  28
ATOM     28  C   UNL A   1      34.374  32.181  27.849  1.00  0.00     0.039 A 
ATOM     29  C   UNL A   1      35.485  33.009  27.990  1.00  0.00     0.014 A 
ATOM     30  C   UNL A   1      34.409  30.834  28.221  1.00  0.00     0.014 A 
ATOM     31  C   UNL A   1      36.632  32.490  28.585  1.00  0.00     0.010 A 
ATOM     32  C   UNL A   1      35.502  30.369  28.931  1.00  0.00     0.010 A 
ATOM     33  C   UNL A   1      36.632  31.185  29.109  1.00  0.00    -0.014 A 
BRANCH  33  34
ATOM     34  C   UNL A   1      37.817  30.635  29.813  1.00  0.00     0.031 A 
ATOM     35  C   UNL A   1      38.100  31.081  31.222  1.00  0.00     0.074 A 
ATOM     36  C   UNL A   1      38.656  29.791  29.179  1.00  0.00     0.049 A 
ATOM     37  N   UNL A   1      39.112  30.789  31.996  1.00  0.00    -0.248 NA
ATOM     38  C   UNL A   1      37.139  32.021  31.822  1.00  0.00     0.031 C 
ATOM     39  C   UNL A   1      38.518  29.335  27.793  1.00  0.00     0.029 A 
ATOM     40  N   UNL A   1      39.796  29.164  29.618  1.00  0.00    -0.354 N 
ATOM     41  C   UNL A   1      38.911  31.519  33.163  1.00  0.00     0.074 A 
ATOM     42  C   UNL A   1      37.743  32.342  32.952  1.00  0.00     0.031 C 
ATOM     43  C   UNL A   1      39.508  28.471  27.513  1.00  0.00     0.029 A 
ATOM     44  C   UNL A   1      40.380  28.348  28.675  1.00  0.00     0.049 A 
ATOM     45  H   UNL A   1      40.161  29.286  30.524  1.00  0.00     0.167 HD
ATOM     46  C   UNL A   1      39.609  31.472  34.322  1.00  0.00     0.034 A 
ATOM     47  C   UNL A   1      41.496  27.595  28.742  1.00  0.00     0.034 A 
ATOM     48  C   UNL A   1      40.761  30.629  34.519  1.00  0.00     0.049 A 
ATOM     49  C   UNL A   1      42.276  27.575  30.034  1.00  0.00     0.074 A 
ATOM     50  C   UNL A   1      41.522  30.464  35.661  1.00  0.00     0.029 A 
ATOM     51  N   UNL A   1      41.320  29.812  33.544  1.00  0.00    -0.354 N 
ATOM     52  N   UNL A   1      42.041  28.228  31.151  1.00  0.00    -0.248 NA
ATOM     53  C   UNL A   1      43.459  26.709  30.081  1.00  0.00     0.031 C 
ATOM     54  C   UNL A   1      42.584  29.605  35.356  1.00  0.00     0.029 A 
ATOM     55  C   UNL A   1      42.435  29.163  34.050  1.00  0.00     0.049 A 
ATOM     56  H   UNL A   1      40.975  29.709  32.628  1.00  0.00     0.167 HD
ATOM     57  C   UNL A   1      43.033  27.825  32.042  1.00  0.00     0.074 A 
ATOM     58  C   UNL A   1      43.854  26.861  31.336  1.00  0.00     0.031 C 
ATOM     59  C   UNL A   1      43.246  28.212  33.326  1.00  0.00     0.034 A 
BRANCH  46  60
ATOM     60  C   UNL A   1      39.142  32.368  35.444  1.00  0.00     0.023 A 
ATOM     61  C   UNL A   1      39.574  33.704  35.548  1.00  0.00     0.031 A 
ATOM     62  C   UNL A   1      38.300  31.872  36.453  1.00  0.00     0.131 A 
ATOM     63  C   UNL A   1      39.243  34.463  36.680  1.00  0.00     0.055 A 
ATOM     64  C   UNL A   1      37.894  32.664  37.529  1.00  0.00     0.041 A 
ATOM     65  F   UNL A   1      37.874  30.599  36.424  1.00  0.00    -0.206 F 
ATOM     66  C   UNL A   1      38.381  33.963  37.657  1.00  0.00     0.022 A 
BRANCH  63  67
ATOM     67  S   UNL A   1      40.090  36.046  36.938  1.00  0.00     0.124 S 
ATOM     68  O   UNL A   1      39.798  36.742  35.685  1.00  0.00    -0.237 OA
ATOM     69  O   UNL A   1      39.430  36.569  38.128  1.00  0.00    -0.237 OA
ATOM     70  O   UNL A   1      41.489  35.661  37.116  1.00  0.00    -0.744 OA
ENDBRANCH  63  67
ENDBRANCH  46  60
BRANCH  47  71
ATOM     71  C   UNL A   1      41.954  26.808  27.558  1.00  0.00     0.023 A 
ATOM     72  C   UNL A   1      41.682  25.434  27.447  1.00  0.00     0.031 A 
ATOM     73  C   UNL A   1      42.708  27.412  26.537  1.00  0.00     0.131 A 
ATOM     74  C   UNL A   1      42.200  24.701  26.367  1.00  0.00     0.055 A 
ATOM     75  C   UNL A   1      43.172  26.691  25.434  1.00  0.00     0.041 A 
ATOM     76  F   UNL A   1      42.994  28.723  26.589  1.00  0.00    -0.206 F 
ATOM     77  C   UNL A   1      42.931  25.325  25.352  1.00  0.00     0.022 A 
BRANCH  74  78
ATOM     78  S   UNL A   1      41.985  22.900  26.350  1.00  0.00     0.124 S 
ATOM     79  O   UNL A   1      42.710  22.504  27.552  1.00  0.00    -0.237 OA
ATOM     80  O   UNL A   1      40.532  22.769  26.405  1.00  0.00    -0.237 OA
ATOM     81  O   UNL A   1      42.598  22.495  25.088  1.00  0.00    -0.744 OA
ENDBRANCH  74  78
ENDBRANCH  47  71
BRANCH  59  82
ATOM     82  C   UNL A   1      44.386  27.553  34.064  1.00  0.00     0.023 A 
ATOM     83  C   UNL A   1      44.208  26.371  34.804  1.00  0.00     0.031 A 
ATOM     84  C   UNL A   1      45.673  28.121  34.023  1.00  0.00     0.131 A 
ATOM     85  C   UNL A   1      45.285  25.828  35.519  1.00  0.00     0.055 A 
ATOM     86  C   UNL A   1      46.755  27.536  34.680  1.00  0.00     0.041 A 
ATOM     87  F   UNL A   1      45.900  29.250  33.334  1.00  0.00    -0.206 F 
ATOM     88  C   UNL A   1      46.562  26.390  35.445  1.00  0.00     0.022 A 
BRANCH  85  89
ATOM     89  S   UNL A   1      44.973  24.429  36.631  1.00  0.00     0.124 S 
ATOM     90  O   UNL A   1      43.982  24.987  37.546  1.00  0.00    -0.237 OA
ATOM     91  O   UNL A   1      44.488  23.403  35.714  1.00  0.00    -0.237 OA
ATOM     92  O   UNL A   1      46.283  24.163  37.223  1.00  0.00    -0.744 OA
ENDBRANCH  85  89
ENDBRANCH  59  82
ENDBRANCH  33  34
ENDBRANCH  25  28
ENDBRANCH  23  24
ENDBRANCH  22  23
ENDBRANCH  21  22
ENDBRANCH   1  21
TORSDOF 19
ENDMDL
MODEL 2
REMARK VINA RESULT:     -11.2      5.264      8.903
REMARK SMILES CC(C)OCCS(=O)(=O)N1CCC[C@H](C(=O)NCCCCNC(=O)c2ccc(-c3c4nc(c(-c5cc(S(=O)(=O)[O-])ccc5F)c5ccc([nH]5)c(-c5cc(S(=O)(=O)[O-])ccc5F)c5nc(c(-c6cc(S(=O)(=O)[O-])ccc6F)c6ccc3[nH]6)C=C5)C=C4)cc2)C1
REMARK SMILES IDX 18 1 17 2 15 3 16 4 14 6 10 7 11 8 88 9 12 10 13 11 7 12
REMARK SMILES IDX 8 13 9 14 6 15 5 16 4 17 2 18 1 19 3 20 19 21 20 22 21 23
REMARK SMILES IDX 22 24 23 25 24 27 25 28 26 29 87 30 27 31 86 32 28 33 29 34
REMARK SMILES IDX 30 35 80 36 31 37 85 38 79 39 81 40 32 41 84 42 78 43 77 44
REMARK SMILES IDX 33 46 65 47 45 48 64 49 46 50 49 51 63 52 82 53 47 54 48 55
REMARK SMILES IDX 62 57 83 58 50 59 34 60 35 61 43 62 36 63 42 64 44 65 41 66
REMARK SMILES IDX 37 67 38 68 39 69 40 70 66 71 67 72 75 73 68 74 74 75 76 76
REMARK SMILES IDX 73 77 69 78 70 79 71 80 72 81 51 82 52 83 60 84 53 85 59 86
REMARK SMILES IDX 61 87 58 88 54 89 55 90 56 91 57 92
REMARK H PARENT 17 5 22 26 81 45 49 56
REMARK Flexibility Score: inf
ROOT
ATOM      1  C   UNL A   1      36.616  21.718  25.497  1.00  0.00     0.116 C 
ENDROOT
BRANCH   1   2
ATOM      2  N   UNL A   1      35.664  21.929  26.550  1.00  0.00    -0.356 N 
ATOM      3  C   UNL A   1      34.502  22.616  26.489  1.00  0.00     0.224 C 
ATOM      4  O   UNL A   1      33.872  22.782  27.537  1.00  0.00    -0.275 OA
ATOM      5  H   UNL A   1      35.883  21.524  27.420  1.00  0.00     0.163 HD
BRANCH   3   6
ATOM      6  C   UNL A   1      33.964  23.167  25.173  1.00  0.00     0.093 C 
ATOM      7  N   UNL A   1      31.806  24.587  25.106  1.00  0.00    -0.201 NA
ATOM      8  C   UNL A   1      31.225  23.703  24.078  1.00  0.00     0.102 C 
ATOM      9  C   UNL A   1      33.280  24.520  25.265  1.00  0.00     0.115 C 
ATOM     10  C   UNL A   1      31.771  22.278  24.183  1.00  0.00     0.018 C 
ATOM     11  C   UNL A   1      33.291  22.191  24.221  1.00  0.00     0.016 C 
BRANCH   7  12
ATOM     12  S   UNL A   1      30.998  26.060  25.452  1.00  0.00     0.216 S 
ATOM     13  O   UNL A   1      32.002  27.013  25.883  1.00  0.00    -0.212 OA
ATOM     14  O   UNL A   1      29.910  25.711  26.338  1.00  0.00    -0.212 OA
BRANCH  12  15
ATOM     15  C   UNL A   1      30.243  26.635  23.898  1.00  0.00     0.182 C 
BRANCH  15  16
ATOM     16  C   UNL A   1      30.248  28.161  23.675  1.00  0.00     0.178 C 
BRANCH  16  17
ATOM     17  O   UNL A   1      29.672  28.579  22.418  1.00  0.00    -0.378 OA
BRANCH  17  18
ATOM     18  C   UNL A   1      28.467  29.357  22.443  1.00  0.00     0.112 C 
ATOM     19  C   UNL A   1      27.280  28.694  23.126  1.00  0.00     0.038 C 
ATOM     20  C   UNL A   1      28.729  30.698  23.044  1.00  0.00     0.038 C 
ENDBRANCH  17  18
ENDBRANCH  16  17
ENDBRANCH  15  16
ENDBRANCH  12  15
ENDBRANCH   7  12
ENDBRANCH   3   6
ENDBRANCH   1   2
BRANCH   1  21
ATOM     21  C   UNL A   1      36.382  20.381  24.817  1.00  0.00     0.023 C 
BRANCH  21  22
ATOM     22  C   UNL A   1      37.567  19.450  24.961  1.00  0.00     0.023 C 
BRANCH  22  23
ATOM     23  C   UNL A   1      38.714  20.062  25.748  1.00  0.00     0.116 C 
BRANCH  23  24
ATOM     24  N   UNL A   1      39.902  19.210  25.793  1.00  0.00    -0.352 N 
ATOM     25  C   UNL A   1      41.180  19.590  26.132  1.00  0.00     0.251 C 
ATOM     26  H   UNL A   1      39.773  18.263  25.555  1.00  0.00     0.163 HD
ATOM     27  O   UNL A   1      42.140  18.847  25.981  1.00  0.00    -0.269 OA
BRANCH  25  28
ATOM     28  C   UNL A   1      41.329  20.959  26.648  1.00  0.00     0.039 A 
ATOM     29  C   UNL A   1      42.171  21.183  27.735  1.00  0.00     0.014 A 
ATOM     30  C   UNL A   1      40.845  22.011  25.865  1.00  0.00     0.014 A 
ATOM     31  C   UNL A   1      42.594  22.484  27.996  1.00  0.00     0.010 A 
ATOM     32  C   UNL A   1      41.377  23.276  26.049  1.00  0.00     0.010 A 
ATOM     33  C   UNL A   1      42.245  23.531  27.125  1.00  0.00    -0.014 A 
BRANCH  33  34
ATOM     34  C   UNL A   1      42.743  24.913  27.339  1.00  0.00     0.031 A 
ATOM     35  C   UNL A   1      41.840  25.917  28.002  1.00  0.00     0.074 A 
ATOM     36  C   UNL A   1      43.965  25.274  26.897  1.00  0.00     0.049 A 
ATOM     37  N   UNL A   1      42.039  27.190  28.222  1.00  0.00    -0.248 NA
ATOM     38  C   UNL A   1      40.517  25.434  28.430  1.00  0.00     0.031 C 
ATOM     39  C   UNL A   1      44.905  24.402  26.187  1.00  0.00     0.029 A 
ATOM     40  N   UNL A   1      44.629  26.473  26.980  1.00  0.00    -0.354 N 
ATOM     41  C   UNL A   1      40.863  27.656  28.800  1.00  0.00     0.074 A 
ATOM     42  C   UNL A   1      39.926  26.557  28.799  1.00  0.00     0.031 C 
ATOM     43  C   UNL A   1      46.036  25.084  25.938  1.00  0.00     0.029 A 
ATOM     44  C   UNL A   1      45.887  26.452  26.422  1.00  0.00     0.049 A 
ATOM     45  H   UNL A   1      44.240  27.274  27.400  1.00  0.00     0.167 HD
ATOM     46  C   UNL A   1      40.603  28.876  29.328  1.00  0.00     0.034 A 
ATOM     47  C   UNL A   1      46.810  27.428  26.310  1.00  0.00     0.034 A 
ATOM     48  C   UNL A   1      41.559  29.954  29.337  1.00  0.00     0.049 A 
ATOM     49  C   UNL A   1      46.493  28.788  26.881  1.00  0.00     0.074 A 
ATOM     50  C   UNL A   1      41.426  31.217  29.880  1.00  0.00     0.029 A 
ATOM     51  N   UNL A   1      42.826  29.894  28.769  1.00  0.00    -0.354 N 
ATOM     52  N   UNL A   1      45.396  29.199  27.478  1.00  0.00    -0.248 NA
ATOM     53  C   UNL A   1      47.540  29.811  26.778  1.00  0.00     0.031 C 
ATOM     54  C   UNL A   1      42.582  31.946  29.577  1.00  0.00     0.029 A 
ATOM     55  C   UNL A   1      43.473  31.109  28.923  1.00  0.00     0.049 A 
ATOM     56  H   UNL A   1      43.207  29.104  28.322  1.00  0.00     0.167 HD
ATOM     57  C   UNL A   1      45.636  30.520  27.847  1.00  0.00     0.074 A 
ATOM     58  C   UNL A   1      46.987  30.828  27.422  1.00  0.00     0.031 C 
ATOM     59  C   UNL A   1      44.818  31.399  28.483  1.00  0.00     0.034 A 
BRANCH  46  60
ATOM     60  C   UNL A   1      39.230  29.092  29.919  1.00  0.00     0.023 A 
ATOM     61  C   UNL A   1      38.228  29.788  29.217  1.00  0.00     0.031 A 
ATOM     62  C   UNL A   1      38.933  28.649  31.218  1.00  0.00     0.131 A 
ATOM     63  C   UNL A   1      37.017  30.103  29.851  1.00  0.00     0.055 A 
ATOM     64  C   UNL A   1      37.688  28.882  31.808  1.00  0.00     0.041 A 
ATOM     65  F   UNL A   1      39.855  28.003  31.949  1.00  0.00    -0.206 F 
ATOM     66  C   UNL A   1      36.728  29.628  31.131  1.00  0.00     0.022 A 
BRANCH  63  67
ATOM     67  S   UNL A   1      35.899  31.281  29.042  1.00  0.00     0.124 S 
ATOM     68  O   UNL A   1      35.149  30.404  28.144  1.00  0.00    -0.237 OA
ATOM     69  O   UNL A   1      35.152  31.832  30.167  1.00  0.00    -0.237 OA
ATOM     70  O   UNL A   1      36.807  32.213  28.376  1.00  0.00    -0.744 OA
ENDBRANCH  63  67
ENDBRANCH  46  60
BRANCH  47  71
ATOM     71  C   UNL A   1      48.111  27.168  25.625  1.00  0.00     0.023 A 
ATOM     72  C   UNL A   1      48.273  27.411  24.251  1.00  0.00     0.031 A 
ATOM     73  C   UNL A   1      49.204  26.632  26.329  1.00  0.00     0.131 A 
ATOM     74  C   UNL A   1      49.479  27.074  23.616  1.00  0.00     0.055 A 
ATOM     75  C   UNL A   1      50.421  26.352  25.705  1.00  0.00     0.041 A 
ATOM     76  F   UNL A   1      49.107  26.382  27.645  1.00  0.00    -0.206 F 
ATOM     77  C   UNL A   1      50.560  26.560  24.337  1.00  0.00     0.022 A 
BRANCH  74  78
ATOM     78  S   UNL A   1      49.590  27.232  21.811  1.00  0.00     0.124 S 
ATOM     79  O   UNL A   1      51.002  26.954  21.576  1.00  0.00    -0.237 OA
ATOM     80  O   UNL A   1      48.651  26.209  21.361  1.00  0.00    -0.237 OA
ATOM     81  O   UNL A   1      49.174  28.610  21.563  1.00  0.00    -0.744 OA
ENDBRANCH  74  78
ENDBRANCH  47  71
BRANCH  59  82
ATOM     82  C   UNL A   1      45.384  32.762  28.797  1.00  0.00     0.023 A 
ATOM     83  C   UNL A   1      45.158  33.870  27.962  1.00  0.00     0.031 A 
ATOM     84  C   UNL A   1      46.162  32.953  29.953  1.00  0.00     0.131 A 
ATOM     85  C   UNL A   1      45.752  35.104  28.264  1.00  0.00     0.055 A 
ATOM     86  C   UNL A   1      46.692  34.200  30.286  1.00  0.00     0.041 A 
ATOM     87  F   UNL A   1      46.412  31.930  30.786  1.00  0.00    -0.206 F 
ATOM     88  C   UNL A   1      46.500  35.281  29.432  1.00  0.00     0.022 A 
BRANCH  85  89
ATOM     89  S   UNL A   1      45.619  36.453  27.059  1.00  0.00     0.124 S 
ATOM     90  O   UNL A   1      46.008  35.789  25.819  1.00  0.00    -0.237 OA
ATOM     91  O   UNL A   1      44.213  36.829  27.166  1.00  0.00    -0.237 OA
ATOM     92  O   UNL A   1      46.567  37.450  27.554  1.00  0.00    -0.744 OA
ENDBRANCH  85  89
ENDBRANCH  59  82
ENDBRANCH  33  34
ENDBRANCH  25  28
ENDBRANCH  23  24
ENDBRANCH  22  23
ENDBRANCH  21  22
ENDBRANCH   1  21
TORSDOF 19
ENDMDL
MODEL 3
REMARK VINA RESULT:     -10.9      2.700      8.508
REMARK SMILES CC(C)OCCS(=O)(=O)N1CCC[C@H](C(=O)NCCCCNC(=O)c2ccc(-c3c4nc(c(-c5cc(S(=O)(=O)[O-])ccc5F)c5ccc([nH]5)c(-c5cc(S(=O)(=O)[O-])ccc5F)c5nc(c(-c6cc(S(=O)(=O)[O-])ccc6F)c6ccc3[nH]6)C=C5)C=C4)cc2)C1
REMARK SMILES IDX 18 1 17 2 15 3 16 4 14 6 10 7 11 8 88 9 12 10 13 11 7 12
REMARK SMILES IDX 8 13 9 14 6 15 5 16 4 17 2 18 1 19 3 20 19 21 20 22 21 23
REMARK SMILES IDX 22 24 23 25 24 27 25 28 26 29 87 30 27 31 86 32 28 33 29 34
REMARK SMILES IDX 30 35 80 36 31 37 85 38 79 39 81 40 32 41 84 42 78 43 77 44
REMARK SMILES IDX 33 46 65 47 45 48 64 49 46 50 49 51 63 52 82 53 47 54 48 55
REMARK SMILES IDX 62 57 83 58 50 59 34 60 35 61 43 62 36 63 42 64 44 65 41 66
REMARK SMILES IDX 37 67 38 68 39 69 40 70 66 71 67 72 75 73 68 74 74 75 76 76
REMARK SMILES IDX 73 77 69 78 70 79 71 80 72 81 51 82 52 83 60 84 53 85 59 86
REMARK SMILES IDX 61 87 58 88 54 89 55 90 56 91 57 92
REMARK H PARENT 17 5 22 26 81 45 49 56
REMARK Flexibility Score: inf
ROOT
ATOM      1  C   UNL A   1      34.269  29.083  27.143  1.00  0.00     0.116 C 
ENDROOT
BRANCH   1   2
ATOM      2  N   UNL A   1      32.971  28.690  27.614  1.00  0.00    -0.356 N 
ATOM      3  C   UNL A   1      32.236  27.625  27.223  1.00  0.00     0.224 C 
ATOM      4  O   UNL A   1      31.089  27.520  27.665  1.00  0.00    -0.275 OA
ATOM      5  H   UNL A   1      32.568  29.265  28.304  1.00  0.00     0.163 HD
BRANCH   3   6
ATOM      6  C   UNL A   1      32.795  26.570  26.276  1.00  0.00     0.093 C 
ATOM      7  N   UNL A   1      32.094  26.507  23.789  1.00  0.00    -0.201 NA
ATOM      8  C   UNL A   1      31.715  25.086  23.904  1.00  0.00     0.102 C 
ATOM      9  C   UNL A   1      33.001  27.027  24.842  1.00  0.00     0.115 C 
ATOM     10  C   UNL A   1      31.280  24.730  25.327  1.00  0.00     0.018 C 
ATOM     11  C   UNL A   1      32.267  25.150  26.408  1.00  0.00     0.016 C 
BRANCH   7  12
ATOM     12  S   UNL A   1      32.157  27.199  22.221  1.00  0.00     0.216 S 
ATOM     13  O   UNL A   1      31.210  26.478  21.392  1.00  0.00    -0.212 OA
ATOM     14  O   UNL A   1      33.556  27.222  21.858  1.00  0.00    -0.212 OA
BRANCH  12  15
ATOM     15  C   UNL A   1      31.628  28.934  22.378  1.00  0.00     0.182 C 
BRANCH  15  16
ATOM     16  C   UNL A   1      30.134  29.154  22.691  1.00  0.00     0.178 C 
BRANCH  16  17
ATOM     17  O   UNL A   1      29.829  30.450  23.251  1.00  0.00    -0.378 OA
BRANCH  17  18
ATOM     18  C   UNL A   1      28.645  31.126  22.807  1.00  0.00     0.112 C 
ATOM     19  C   UNL A   1      27.374  30.777  23.566  1.00  0.00     0.038 C 
ATOM     20  C   UNL A   1      28.861  32.603  22.810  1.00  0.00     0.038 C 
ENDBRANCH  17  18
ENDBRANCH  16  17
ENDBRANCH  15  16
ENDBRANCH  12  15
ENDBRANCH   7  12
ENDBRANCH   3   6
ENDBRANCH   1   2
BRANCH   1  21
ATOM     21  C   UNL A   1      34.754  30.322  27.873  1.00  0.00     0.023 C 
BRANCH  21  22
ATOM     22  C   UNL A   1      33.739  31.445  27.833  1.00  0.00     0.023 C 
BRANCH  22  23
ATOM     23  C   UNL A   1      34.353  32.792  27.486  1.00  0.00     0.116 C 
BRANCH  23  24
ATOM     24  N   UNL A   1      33.474  33.921  27.789  1.00  0.00    -0.352 N 
ATOM     25  C   UNL A   1      33.429  34.645  28.958  1.00  0.00     0.251 C 
ATOM     26  H   UNL A   1      32.845  34.191  27.080  1.00  0.00     0.163 HD
ATOM     27  O   UNL A   1      32.550  35.464  29.182  1.00  0.00    -0.269 OA
BRANCH  25  28
ATOM     28  C   UNL A   1      34.481  34.345  29.941  1.00  0.00     0.039 A 
ATOM     29  C   UNL A   1      34.183  33.511  31.017  1.00  0.00     0.014 A 
ATOM     30  C   UNL A   1      35.799  34.678  29.613  1.00  0.00     0.014 A 
ATOM     31  C   UNL A   1      35.234  32.941  31.731  1.00  0.00     0.010 A 
ATOM     32  C   UNL A   1      36.831  34.003  30.241  1.00  0.00     0.010 A 
ATOM     33  C   UNL A   1      36.563  33.138  31.316  1.00  0.00    -0.014 A 
BRANCH  33  34
ATOM     34  C   UNL A   1      37.696  32.483  32.017  1.00  0.00     0.031 A 
ATOM     35  C   UNL A   1      38.394  31.329  31.351  1.00  0.00     0.074 A 
ATOM     36  C   UNL A   1      38.057  32.883  33.253  1.00  0.00     0.049 A 
ATOM     37  N   UNL A   1      39.353  30.566  31.807  1.00  0.00    -0.248 NA
ATOM     38  C   UNL A   1      37.915  30.952  30.011  1.00  0.00     0.031 C 
ATOM     39  C   UNL A   1      37.413  33.952  34.023  1.00  0.00     0.029 A 
ATOM     40  N   UNL A   1      39.054  32.437  34.083  1.00  0.00    -0.354 N 
ATOM     41  C   UNL A   1      39.578  29.617  30.816  1.00  0.00     0.074 A 
ATOM     42  C   UNL A   1      38.589  29.838  29.787  1.00  0.00     0.031 C 
ATOM     43  C   UNL A   1      38.060  34.103  35.191  1.00  0.00     0.029 A 
ATOM     44  C   UNL A   1      39.129  33.115  35.279  1.00  0.00     0.049 A 
ATOM     45  H   UNL A   1      39.662  31.699  33.844  1.00  0.00     0.167 HD
ATOM     46  C   UNL A   1      40.551  28.678  30.747  1.00  0.00     0.034 A 
ATOM     47  C   UNL A   1      39.960  32.949  36.327  1.00  0.00     0.034 A 
ATOM     48  C   UNL A   1      41.540  28.487  31.776  1.00  0.00     0.049 A 
ATOM     49  C   UNL A   1      41.022  31.880  36.243  1.00  0.00     0.074 A 
ATOM     50  C   UNL A   1      42.599  27.599  31.799  1.00  0.00     0.029 A 
ATOM     51  N   UNL A   1      41.589  29.197  32.970  1.00  0.00    -0.354 N 
ATOM     52  N   UNL A   1      41.260  31.026  35.273  1.00  0.00    -0.248 NA
ATOM     53  C   UNL A   1      41.935  31.762  37.386  1.00  0.00     0.031 C 
ATOM     54  C   UNL A   1      43.243  27.720  33.035  1.00  0.00     0.029 A 
ATOM     55  C   UNL A   1      42.641  28.744  33.750  1.00  0.00     0.049 A 
ATOM     56  H   UNL A   1      40.965  29.915  33.226  1.00  0.00     0.167 HD
ATOM     57  C   UNL A   1      42.370  30.290  35.678  1.00  0.00     0.074 A 
ATOM     58  C   UNL A   1      42.763  30.814  36.971  1.00  0.00     0.031 C 
ATOM     59  C   UNL A   1      43.011  29.276  35.041  1.00  0.00     0.034 A 
BRANCH  46  60
ATOM     60  C   UNL A   1      40.567  27.792  29.525  1.00  0.00     0.023 A 
ATOM     61  C   UNL A   1      41.483  28.000  28.476  1.00  0.00     0.031 A 
ATOM     62  C   UNL A   1      39.624  26.762  29.375  1.00  0.00     0.131 A 
ATOM     63  C   UNL A   1      41.374  27.257  27.291  1.00  0.00     0.055 A 
ATOM     64  C   UNL A   1      39.583  25.961  28.232  1.00  0.00     0.041 A 
ATOM     65  F   UNL A   1      38.708  26.530  30.329  1.00  0.00    -0.206 F 
ATOM     66  C   UNL A   1      40.450  26.218  27.173  1.00  0.00     0.022 A 
BRANCH  63  67
ATOM     67  S   UNL A   1      42.343  27.782  25.850  1.00  0.00     0.124 S 
ATOM     68  O   UNL A   1      41.576  28.937  25.386  1.00  0.00    -0.237 OA
ATOM     69  O   UNL A   1      43.646  28.075  26.435  1.00  0.00    -0.237 OA
ATOM     70  O   UNL A   1      42.300  26.619  24.966  1.00  0.00    -0.744 OA
ENDBRANCH  63  67
ENDBRANCH  46  60
BRANCH  47  71
ATOM     71  C   UNL A   1      39.823  33.800  37.547  1.00  0.00     0.023 A 
ATOM     72  C   UNL A   1      39.054  33.382  38.645  1.00  0.00     0.031 A 
ATOM     73  C   UNL A   1      40.429  35.067  37.615  1.00  0.00     0.131 A 
ATOM     74  C   UNL A   1      38.870  34.240  39.741  1.00  0.00     0.055 A 
ATOM     75  C   UNL A   1      40.291  35.894  38.732  1.00  0.00     0.041 A 
ATOM     76  F   UNL A   1      41.179  35.518  36.596  1.00  0.00    -0.206 F 
ATOM     77  C   UNL A   1      39.496  35.488  39.798  1.00  0.00     0.022 A 
BRANCH  74  78
ATOM     78  S   UNL A   1      37.725  33.742  41.058  1.00  0.00     0.124 S 
ATOM     79  O   UNL A   1      37.378  35.029  41.651  1.00  0.00    -0.237 OA
ATOM     80  O   UNL A   1      36.668  33.078  40.303  1.00  0.00    -0.237 OA
ATOM     81  O   UNL A   1      38.534  32.864  41.899  1.00  0.00    -0.744 OA
ENDBRANCH  74  78
ENDBRANCH  47  71
BRANCH  59  82
ATOM     82  C   UNL A   1      44.232  28.701  35.716  1.00  0.00     0.023 A 
ATOM     83  C   UNL A   1      44.140  27.660  36.657  1.00  0.00     0.031 A 
ATOM     84  C   UNL A   1      45.509  29.204  35.410  1.00  0.00     0.131 A 
ATOM     85  C   UNL A   1      45.296  27.198  37.301  1.00  0.00     0.055 A 
ATOM     86  C   UNL A   1      46.663  28.691  36.002  1.00  0.00     0.041 A 
ATOM     87  F   UNL A   1      45.656  30.199  34.521  1.00  0.00    -0.206 F 
ATOM     88  C   UNL A   1      46.560  27.691  36.964  1.00  0.00     0.022 A 
BRANCH  85  89
ATOM     89  S   UNL A   1      45.120  26.009  38.659  1.00  0.00     0.124 S 
ATOM     90  O   UNL A   1      44.328  24.954  38.036  1.00  0.00    -0.237 OA
ATOM     91  O   UNL A   1      46.508  25.671  38.960  1.00  0.00    -0.237 OA
ATOM     92  O   UNL A   1      44.429  26.773  39.696  1.00  0.00    -0.744 OA
ENDBRANCH  85  89
ENDBRANCH  59  82
ENDBRANCH  33  34
ENDBRANCH  25  28
ENDBRANCH  23  24
ENDBRANCH  22  23
ENDBRANCH  21  22
ENDBRANCH   1  21
TORSDOF 19
ENDMDL
