MODEL 1
REMARK VINA RESULT:     -12.7      0.000      0.000
REMARK SMILES Cc1nn(C)cc1-c1cc(C(=O)NCCCCNC(=O)c2ccc(-c3c4nc(c(-c5cc(S(=O)(=O)[O-])ccc5F)c5ccc([nH]5)c(-c5cc(S(=O)(=O)[O-])ccc5F)c5nc(c(-c6cc(S(=O)(=O)[O-])ccc6F)c6ccc3[nH]6)C=C5)C=C4)cc2)n2nc(C)c(Br)c2n1
REMARK SMILES IDX 16 1 15 2 14 3 13 4 11 5 12 6 10 8 8 9 9 10 91 11 90 12
REMARK SMILES IDX 84 13 88 14 85 15 86 16 89 17 87 18 7 19 1 20 2 21 3 22 4 23
REMARK SMILES IDX 6 24 5 25 17 26 18 27 19 28 20 30 21 31 22 32 83 33 23 34
REMARK SMILES IDX 82 35 24 36 25 37 26 38 76 39 27 40 81 41 75 42 77 43 28 44
REMARK SMILES IDX 80 45 74 46 73 47 29 49 61 50 41 51 60 52 42 53 45 54 59 55
REMARK SMILES IDX 78 56 43 57 44 58 58 60 79 61 46 62 30 63 31 64 39 65 32 66
REMARK SMILES IDX 38 67 40 68 37 69 33 70 34 71 35 72 36 73 62 74 63 75 71 76
REMARK SMILES IDX 64 77 70 78 72 79 69 80 65 81 66 82 67 83 68 84 47 85 48 86
REMARK SMILES IDX 56 87 49 88 55 89 57 90 54 91 50 92 51 93 52 94 53 95
REMARK H PARENT 13 7 18 29 77 48 45 59
REMARK Flexibility Score: inf
ROOT
ATOM      1  C   UNL A   1      32.389  31.670  27.146  1.00  0.00     0.023 C 
ENDROOT
BRANCH   1   2
ATOM      2  C   UNL A   1      31.790  30.272  26.878  1.00  0.00     0.023 C 
BRANCH   2   3
ATOM      3  C   UNL A   1      32.801  29.123  26.996  1.00  0.00     0.116 C 
BRANCH   3   4
ATOM      4  N   UNL A   1      32.108  27.849  27.143  1.00  0.00    -0.351 N 
ATOM      5  C   UNL A   1      31.383  27.024  26.336  1.00  0.00     0.270 C 
ATOM      6  O   UNL A   1      30.866  26.057  26.898  1.00  0.00    -0.268 OA
ATOM      7  H   UNL A   1      32.183  27.494  28.059  1.00  0.00     0.163 HD
BRANCH   5   8
ATOM      8  C   UNL A   1      31.193  27.232  24.865  1.00  0.00     0.134 A 
ATOM      9  C   UNL A   1      30.137  28.174  22.919  1.00  0.00     0.079 A 
ATOM     10  C   UNL A   1      30.223  28.037  24.395  1.00  0.00     0.063 A 
ATOM     11  N   UNL A   1      30.779  27.482  22.036  1.00  0.00    -0.227 NA
ATOM     12  C   UNL A   1      31.680  26.586  22.544  1.00  0.00     0.171 A 
ATOM     13  N   UNL A   1      31.944  26.476  23.929  1.00  0.00    -0.208 N 
ATOM     14  C   UNL A   1      32.473  25.645  21.935  1.00  0.00     0.085 A 
ATOM     15  N   UNL A   1      32.934  25.560  24.144  1.00  0.00    -0.170 NA
ATOM     16  C   UNL A   1      33.208  25.023  22.952  1.00  0.00     0.076 A 
ATOM     17  Br  UNL A   1      32.565  25.239  20.109  1.00  0.00    -0.045 Br
ATOM     18  C   UNL A   1      34.183  23.910  22.845  1.00  0.00     0.070 C 
BRANCH   9  19
ATOM     19  C   UNL A   1      29.221  29.199  22.488  1.00  0.00     0.041 A 
ATOM     20  C   UNL A   1      26.923  28.400  23.476  1.00  0.00     0.069 C 
ATOM     21  C   UNL A   1      27.818  29.295  22.698  1.00  0.00     0.069 A 
ATOM     22  N   UNL A   1      27.304  30.371  22.091  1.00  0.00    -0.178 NA
ATOM     23  N   UNL A   1      28.364  30.968  21.524  1.00  0.00    -0.275 N 
ATOM     24  C   UNL A   1      29.543  30.331  21.767  1.00  0.00     0.119 A 
ATOM     25  C   UNL A   1      28.160  32.146  20.716  1.00  0.00     0.173 C 
ENDBRANCH   9  19
ENDBRANCH   5   8
ENDBRANCH   3   4
ENDBRANCH   2   3
ENDBRANCH   1   2
BRANCH   1  26
ATOM     26  C   UNL A   1      33.859  31.681  27.610  1.00  0.00     0.116 C 
BRANCH  26  27
ATOM     27  N   UNL A   1      34.182  32.940  28.259  1.00  0.00    -0.352 N 
ATOM     28  C   UNL A   1      35.026  33.239  29.294  1.00  0.00     0.251 C 
ATOM     29  H   UNL A   1      33.707  33.719  27.888  1.00  0.00     0.163 HD
ATOM     30  O   UNL A   1      34.855  34.311  29.875  1.00  0.00    -0.269 OA
BRANCH  28  31
ATOM     31  C   UNL A   1      36.114  32.338  29.737  1.00  0.00     0.039 A 
ATOM     32  C   UNL A   1      35.970  31.713  30.983  1.00  0.00     0.014 A 
ATOM     33  C   UNL A   1      37.324  32.229  29.050  1.00  0.00     0.014 A 
ATOM     34  C   UNL A   1      37.016  30.963  31.528  1.00  0.00     0.010 A 
ATOM     35  C   UNL A   1      38.375  31.481  29.604  1.00  0.00     0.010 A 
ATOM     36  C   UNL A   1      38.231  30.835  30.842  1.00  0.00    -0.014 A 
BRANCH  36  37
ATOM     37  C   UNL A   1      39.274  29.941  31.400  1.00  0.00     0.031 A 
ATOM     38  C   UNL A   1      39.354  28.575  30.803  1.00  0.00     0.074 A 
ATOM     39  C   UNL A   1      40.361  30.393  32.064  1.00  0.00     0.049 A 
ATOM     40  N   UNL A   1      39.962  28.345  29.677  1.00  0.00    -0.248 NA
ATOM     41  C   UNL A   1      38.577  27.441  31.298  1.00  0.00     0.031 C 
ATOM     42  C   UNL A   1      40.957  31.717  31.842  1.00  0.00     0.029 A 
ATOM     43  N   UNL A   1      41.280  29.739  32.858  1.00  0.00    -0.354 N 
ATOM     44  C   UNL A   1      39.623  27.067  29.278  1.00  0.00     0.074 A 
ATOM     45  C   UNL A   1      38.774  26.537  30.324  1.00  0.00     0.031 C 
ATOM     46  C   UNL A   1      42.214  31.714  32.331  1.00  0.00     0.029 A 
ATOM     47  C   UNL A   1      42.461  30.460  33.041  1.00  0.00     0.049 A 
ATOM     48  H   UNL A   1      41.119  28.853  33.255  1.00  0.00     0.167 HD
ATOM     49  C   UNL A   1      40.051  26.524  28.107  1.00  0.00     0.034 A 
ATOM     50  C   UNL A   1      43.699  29.912  33.207  1.00  0.00     0.034 A 
ATOM     51  C   UNL A   1      40.912  27.357  27.320  1.00  0.00     0.049 A 
ATOM     52  C   UNL A   1      43.904  29.246  31.866  1.00  0.00     0.074 A 
ATOM     53  C   UNL A   1      40.789  28.244  26.272  1.00  0.00     0.029 A 
ATOM     54  N   UNL A   1      42.239  27.430  27.675  1.00  0.00    -0.354 N 
ATOM     55  N   UNL A   1      44.216  29.840  30.744  1.00  0.00    -0.248 NA
ATOM     56  C   UNL A   1      43.411  27.877  31.715  1.00  0.00     0.031 C 
ATOM     57  C   UNL A   1      41.918  29.118  26.377  1.00  0.00     0.029 A 
ATOM     58  C   UNL A   1      42.626  28.738  27.517  1.00  0.00     0.049 A 
ATOM     59  H   UNL A   1      42.804  26.686  27.985  1.00  0.00     0.167 HD
ATOM     60  C   UNL A   1      43.699  29.024  29.734  1.00  0.00     0.074 A 
ATOM     61  C   UNL A   1      43.241  27.822  30.402  1.00  0.00     0.031 C 
ATOM     62  C   UNL A   1      43.502  29.430  28.444  1.00  0.00     0.034 A 
BRANCH  49  63
ATOM     63  C   UNL A   1      39.835  25.114  27.724  1.00  0.00     0.023 A 
ATOM     64  C   UNL A   1      38.739  24.693  26.960  1.00  0.00     0.031 A 
ATOM     65  C   UNL A   1      40.867  24.199  27.996  1.00  0.00     0.131 A 
ATOM     66  C   UNL A   1      38.716  23.378  26.470  1.00  0.00     0.055 A 
ATOM     67  C   UNL A   1      40.843  22.898  27.503  1.00  0.00     0.041 A 
ATOM     68  F   UNL A   1      41.941  24.586  28.707  1.00  0.00    -0.206 F 
ATOM     69  C   UNL A   1      39.766  22.485  26.728  1.00  0.00     0.022 A 
BRANCH  66  70
ATOM     70  S   UNL A   1      37.352  22.784  25.431  1.00  0.00     0.124 S 
ATOM     71  O   UNL A   1      37.737  21.394  25.180  1.00  0.00    -0.237 OA
ATOM     72  O   UNL A   1      36.202  22.960  26.319  1.00  0.00    -0.237 OA
ATOM     73  O   UNL A   1      37.385  23.661  24.273  1.00  0.00    -0.744 OA
ENDBRANCH  66  70
ENDBRANCH  49  63
BRANCH  50  74
ATOM     74  C   UNL A   1      43.932  29.187  34.505  1.00  0.00     0.023 A 
ATOM     75  C   UNL A   1      43.374  27.940  34.829  1.00  0.00     0.031 A 
ATOM     76  C   UNL A   1      44.758  29.778  35.487  1.00  0.00     0.131 A 
ATOM     77  C   UNL A   1      43.475  27.430  36.135  1.00  0.00     0.055 A 
ATOM     78  C   UNL A   1      44.915  29.235  36.767  1.00  0.00     0.041 A 
ATOM     79  F   UNL A   1      45.430  30.910  35.222  1.00  0.00    -0.206 F 
ATOM     80  C   UNL A   1      44.242  28.069  37.108  1.00  0.00     0.022 A 
BRANCH  77  81
ATOM     81  S   UNL A   1      42.544  25.945  36.612  1.00  0.00     0.124 S 
ATOM     82  O   UNL A   1      43.604  25.001  36.959  1.00  0.00    -0.237 OA
ATOM     83  O   UNL A   1      41.758  26.451  37.732  1.00  0.00    -0.237 OA
ATOM     84  O   UNL A   1      41.791  25.620  35.405  1.00  0.00    -0.744 OA
ENDBRANCH  77  81
ENDBRANCH  50  74
BRANCH  62  85
ATOM     85  C   UNL A   1      44.030  30.786  28.079  1.00  0.00     0.023 A 
ATOM     86  C   UNL A   1      43.488  31.952  28.656  1.00  0.00     0.031 A 
ATOM     87  C   UNL A   1      45.002  30.930  27.077  1.00  0.00     0.131 A 
ATOM     88  C   UNL A   1      43.865  33.212  28.174  1.00  0.00     0.055 A 
ATOM     89  C   UNL A   1      45.418  32.190  26.641  1.00  0.00     0.041 A 
ATOM     90  F   UNL A   1      45.525  29.853  26.470  1.00  0.00    -0.206 F 
ATOM     91  C   UNL A   1      44.838  33.337  27.179  1.00  0.00     0.022 A 
BRANCH  88  92
ATOM     92  S   UNL A   1      43.058  34.720  28.776  1.00  0.00     0.124 S 
ATOM     93  O   UNL A   1      44.192  35.610  29.027  1.00  0.00    -0.237 OA
ATOM     94  O   UNL A   1      42.224  35.090  27.634  1.00  0.00    -0.237 OA
ATOM     95  O   UNL A   1      42.334  34.288  29.965  1.00  0.00    -0.744 OA
ENDBRANCH  88  92
ENDBRANCH  62  85
ENDBRANCH  36  37
ENDBRANCH  28  31
ENDBRANCH  26  27
ENDBRANCH   1  26
TORSDOF 15
ENDMDL
MODEL 2
REMARK VINA RESULT:     -12.1      3.417      6.523
REMARK SMILES Cc1nn(C)cc1-c1cc(C(=O)NCCCCNC(=O)c2ccc(-c3c4nc(c(-c5cc(S(=O)(=O)[O-])ccc5F)c5ccc([nH]5)c(-c5cc(S(=O)(=O)[O-])ccc5F)c5nc(c(-c6cc(S(=O)(=O)[O-])ccc6F)c6ccc3[nH]6)C=C5)C=C4)cc2)n2nc(C)c(Br)c2n1
REMARK SMILES IDX 16 1 15 2 14 3 13 4 11 5 12 6 10 8 8 9 9 10 91 11 90 12
REMARK SMILES IDX 84 13 88 14 85 15 86 16 89 17 87 18 7 19 1 20 2 21 3 22 4 23
REMARK SMILES IDX 6 24 5 25 17 26 18 27 19 28 20 30 21 31 22 32 83 33 23 34
REMARK SMILES IDX 82 35 24 36 25 37 26 38 76 39 27 40 81 41 75 42 77 43 28 44
REMARK SMILES IDX 80 45 74 46 73 47 29 49 61 50 41 51 60 52 42 53 45 54 59 55
REMARK SMILES IDX 78 56 43 57 44 58 58 60 79 61 46 62 30 63 31 64 39 65 32 66
REMARK SMILES IDX 38 67 40 68 37 69 33 70 34 71 35 72 36 73 62 74 63 75 71 76
REMARK SMILES IDX 64 77 70 78 72 79 69 80 65 81 66 82 67 83 68 84 47 85 48 86
REMARK SMILES IDX 56 87 49 88 55 89 57 90 54 91 50 92 51 93 52 94 53 95
REMARK H PARENT 13 7 18 29 77 48 45 59
REMARK Flexibility Score: inf
ROOT
ATOM      1  C   UNL A   1      34.062  29.263  26.497  1.00  0.00     0.023 C 
ENDROOT
BRANCH   1   2
ATOM      2  C   UNL A   1      33.409  27.881  26.721  1.00  0.00     0.023 C 
BRANCH   2   3
ATOM      3  C   UNL A   1      31.996  27.943  27.317  1.00  0.00     0.116 C 
BRANCH   3   4
ATOM      4  N   UNL A   1      31.302  26.677  27.114  1.00  0.00    -0.351 N 
ATOM      5  C   UNL A   1      30.693  26.046  26.071  1.00  0.00     0.270 C 
ATOM      6  O   UNL A   1      30.119  24.993  26.355  1.00  0.00    -0.268 OA
ATOM      7  H   UNL A   1      31.265  26.143  27.940  1.00  0.00     0.163 HD
BRANCH   5   8
ATOM      8  C   UNL A   1      30.689  26.550  24.661  1.00  0.00     0.134 A 
ATOM      9  C   UNL A   1      29.915  27.925  22.845  1.00  0.00     0.079 A 
ATOM     10  C   UNL A   1      29.819  27.495  24.263  1.00  0.00     0.063 A 
ATOM     11  N   UNL A   1      30.625  27.378  21.914  1.00  0.00    -0.227 NA
ATOM     12  C   UNL A   1      31.418  26.340  22.323  1.00  0.00     0.171 A 
ATOM     13  N   UNL A   1      31.511  25.943  23.677  1.00  0.00    -0.208 N 
ATOM     14  C   UNL A   1      32.235  25.485  21.625  1.00  0.00     0.085 A 
ATOM     15  N   UNL A   1      32.425  24.937  23.807  1.00  0.00    -0.170 NA
ATOM     16  C   UNL A   1      32.815  24.627  22.567  1.00  0.00     0.076 A 
ATOM     17  Br  UNL A   1      32.524  25.439  19.775  1.00  0.00    -0.045 Br
ATOM     18  C   UNL A   1      33.744  23.492  22.342  1.00  0.00     0.070 C 
BRANCH   9  19
ATOM     19  C   UNL A   1      29.105  29.074  22.535  1.00  0.00     0.041 A 
ATOM     20  C   UNL A   1      26.744  28.412  23.476  1.00  0.00     0.069 C 
ATOM     21  C   UNL A   1      27.719  29.288  22.778  1.00  0.00     0.069 A 
ATOM     22  N   UNL A   1      27.313  30.467  22.290  1.00  0.00    -0.178 NA
ATOM     23  N   UNL A   1      28.424  31.010  21.769  1.00  0.00    -0.275 N 
ATOM     24  C   UNL A   1      29.534  30.236  21.926  1.00  0.00     0.119 A 
ATOM     25  C   UNL A   1      28.334  32.278  21.087  1.00  0.00     0.173 C 
ENDBRANCH   9  19
ENDBRANCH   5   8
ENDBRANCH   3   4
ENDBRANCH   2   3
ENDBRANCH   1   2
BRANCH   1  26
ATOM     26  C   UNL A   1      33.897  30.266  27.655  1.00  0.00     0.116 C 
BRANCH  26  27
ATOM     27  N   UNL A   1      34.477  31.552  27.306  1.00  0.00    -0.352 N 
ATOM     28  C   UNL A   1      35.605  32.190  27.746  1.00  0.00     0.251 C 
ATOM     29  H   UNL A   1      33.965  32.056  26.633  1.00  0.00     0.163 HD
ATOM     30  O   UNL A   1      35.682  33.404  27.555  1.00  0.00    -0.269 OA
BRANCH  28  31
ATOM     31  C   UNL A   1      36.716  31.490  28.431  1.00  0.00     0.039 A 
ATOM     32  C   UNL A   1      37.470  32.225  29.357  1.00  0.00     0.014 A 
ATOM     33  C   UNL A   1      37.133  30.209  28.069  1.00  0.00     0.014 A 
ATOM     34  C   UNL A   1      38.616  31.675  29.936  1.00  0.00     0.010 A 
ATOM     35  C   UNL A   1      38.289  29.663  28.647  1.00  0.00     0.010 A 
ATOM     36  C   UNL A   1      39.038  30.385  29.591  1.00  0.00    -0.014 A 
BRANCH  36  37
ATOM     37  C   UNL A   1      40.194  29.796  30.309  1.00  0.00     0.031 A 
ATOM     38  C   UNL A   1      41.544  30.259  29.872  1.00  0.00     0.074 A 
ATOM     39  C   UNL A   1      40.097  29.234  31.535  1.00  0.00     0.049 A 
ATOM     40  N   UNL A   1      42.052  31.386  30.272  1.00  0.00    -0.248 NA
ATOM     41  C   UNL A   1      42.299  29.617  28.798  1.00  0.00     0.031 C 
ATOM     42  C   UNL A   1      39.081  29.614  32.525  1.00  0.00     0.029 A 
ATOM     43  N   UNL A   1      40.967  28.428  32.238  1.00  0.00    -0.354 N 
ATOM     44  C   UNL A   1      43.160  31.641  29.488  1.00  0.00     0.074 A 
ATOM     45  C   UNL A   1      43.285  30.507  28.597  1.00  0.00     0.031 C 
ATOM     46  C   UNL A   1      39.482  29.191  33.742  1.00  0.00     0.029 A 
ATOM     47  C   UNL A   1      40.688  28.375  33.605  1.00  0.00     0.049 A 
ATOM     48  H   UNL A   1      41.711  27.938  31.818  1.00  0.00     0.167 HD
ATOM     49  C   UNL A   1      43.904  32.773  29.610  1.00  0.00     0.034 A 
ATOM     50  C   UNL A   1      41.616  28.219  34.591  1.00  0.00     0.034 A 
ATOM     51  C   UNL A   1      43.480  33.681  30.635  1.00  0.00     0.049 A 
ATOM     52  C   UNL A   1      42.409  29.498  34.449  1.00  0.00     0.074 A 
ATOM     53  C   UNL A   1      42.686  34.802  30.736  1.00  0.00     0.029 A 
ATOM     54  N   UNL A   1      43.844  33.403  31.932  1.00  0.00    -0.354 N 
ATOM     55  N   UNL A   1      42.045  30.686  34.852  1.00  0.00    -0.248 NA
ATOM     56  C   UNL A   1      43.531  29.490  33.509  1.00  0.00     0.031 C 
ATOM     57  C   UNL A   1      42.251  34.841  32.100  1.00  0.00     0.029 A 
ATOM     58  C   UNL A   1      42.767  33.707  32.727  1.00  0.00     0.049 A 
ATOM     59  H   UNL A   1      44.713  33.050  32.234  1.00  0.00     0.167 HD
ATOM     60  C   UNL A   1      42.706  31.585  34.009  1.00  0.00     0.074 A 
ATOM     61  C   UNL A   1      43.622  30.781  33.225  1.00  0.00     0.031 C 
ATOM     62  C   UNL A   1      42.353  32.897  33.858  1.00  0.00     0.034 A 
BRANCH  49  63
ATOM     63  C   UNL A   1      45.176  33.006  28.897  1.00  0.00     0.023 A 
ATOM     64  C   UNL A   1      45.268  33.797  27.744  1.00  0.00     0.031 A 
ATOM     65  C   UNL A   1      46.358  32.551  29.508  1.00  0.00     0.131 A 
ATOM     66  C   UNL A   1      46.539  34.132  27.250  1.00  0.00     0.055 A 
ATOM     67  C   UNL A   1      47.615  32.890  29.017  1.00  0.00     0.041 A 
ATOM     68  F   UNL A   1      46.295  31.811  30.628  1.00  0.00    -0.206 F 
ATOM     69  C   UNL A   1      47.709  33.692  27.885  1.00  0.00     0.022 A 
BRANCH  66  70
ATOM     70  S   UNL A   1      46.731  35.195  25.792  1.00  0.00     0.124 S 
ATOM     71  O   UNL A   1      46.135  36.453  26.246  1.00  0.00    -0.237 OA
ATOM     72  O   UNL A   1      48.185  35.220  25.630  1.00  0.00    -0.237 OA
ATOM     73  O   UNL A   1      45.999  34.497  24.749  1.00  0.00    -0.744 OA
ENDBRANCH  66  70
ENDBRANCH  49  63
BRANCH  50  74
ATOM     74  C   UNL A   1      42.278  26.870  34.669  1.00  0.00     0.023 A 
ATOM     75  C   UNL A   1      43.345  26.462  33.852  1.00  0.00     0.031 A 
ATOM     76  C   UNL A   1      41.814  25.926  35.612  1.00  0.00     0.131 A 
ATOM     77  C   UNL A   1      43.768  25.122  33.848  1.00  0.00     0.055 A 
ATOM     78  C   UNL A   1      42.284  24.609  35.654  1.00  0.00     0.041 A 
ATOM     79  F   UNL A   1      40.880  26.266  36.515  1.00  0.00    -0.206 F 
ATOM     80  C   UNL A   1      43.245  24.191  34.743  1.00  0.00     0.022 A 
BRANCH  77  81
ATOM     81  S   UNL A   1      44.973  24.547  32.616  1.00  0.00     0.124 S 
ATOM     82  O   UNL A   1      45.128  25.713  31.751  1.00  0.00    -0.237 OA
ATOM     83  O   UNL A   1      46.118  24.234  33.465  1.00  0.00    -0.237 OA
ATOM     84  O   UNL A   1      44.306  23.402  32.005  1.00  0.00    -0.744 OA
ENDBRANCH  77  81
ENDBRANCH  50  74
BRANCH  62  85
ATOM     85  C   UNL A   1      41.295  33.418  34.784  1.00  0.00     0.023 A 
ATOM     86  C   UNL A   1      39.935  33.118  34.570  1.00  0.00     0.031 A 
ATOM     87  C   UNL A   1      41.624  34.304  35.821  1.00  0.00     0.131 A 
ATOM     88  C   UNL A   1      38.948  33.756  35.332  1.00  0.00     0.055 A 
ATOM     89  C   UNL A   1      40.639  34.893  36.617  1.00  0.00     0.041 A 
ATOM     90  F   UNL A   1      42.901  34.653  36.045  1.00  0.00    -0.206 F 
ATOM     91  C   UNL A   1      39.294  34.632  36.364  1.00  0.00     0.022 A 
BRANCH  88  92
ATOM     92  S   UNL A   1      37.188  33.521  34.964  1.00  0.00     0.124 S 
ATOM     93  O   UNL A   1      36.583  33.502  36.296  1.00  0.00    -0.237 OA
ATOM     94  O   UNL A   1      36.887  34.707  34.165  1.00  0.00    -0.237 OA
ATOM     95  O   UNL A   1      37.139  32.253  34.244  1.00  0.00    -0.744 OA
ENDBRANCH  88  92
ENDBRANCH  62  85
ENDBRANCH  36  37
ENDBRANCH  28  31
ENDBRANCH  26  27
ENDBRANCH   1  26
TORSDOF 15
ENDMDL
MODEL 3
REMARK VINA RESULT:     -12.1      2.019      3.406
REMARK SMILES Cc1nn(C)cc1-c1cc(C(=O)NCCCCNC(=O)c2ccc(-c3c4nc(c(-c5cc(S(=O)(=O)[O-])ccc5F)c5ccc([nH]5)c(-c5cc(S(=O)(=O)[O-])ccc5F)c5nc(c(-c6cc(S(=O)(=O)[O-])ccc6F)c6ccc3[nH]6)C=C5)C=C4)cc2)n2nc(C)c(Br)c2n1
REMARK SMILES IDX 16 1 15 2 14 3 13 4 11 5 12 6 10 8 8 9 9 10 91 11 90 12
REMARK SMILES IDX 84 13 88 14 85 15 86 16 89 17 87 18 7 19 1 20 2 21 3 22 4 23
REMARK SMILES IDX 6 24 5 25 17 26 18 27 19 28 20 30 21 31 22 32 83 33 23 34
REMARK SMILES IDX 82 35 24 36 25 37 26 38 76 39 27 40 81 41 75 42 77 43 28 44
REMARK SMILES IDX 80 45 74 46 73 47 29 49 61 50 41 51 60 52 42 53 45 54 59 55
REMARK SMILES IDX 78 56 43 57 44 58 58 60 79 61 46 62 30 63 31 64 39 65 32 66
REMARK SMILES IDX 38 67 40 68 37 69 33 70 34 71 35 72 36 73 62 74 63 75 71 76
REMARK SMILES IDX 64 77 70 78 72 79 69 80 65 81 66 82 67 83 68 84 47 85 48 86
REMARK SMILES IDX 56 87 49 88 55 89 57 90 54 91 50 92 51 93 52 94 53 95
REMARK H PARENT 13 7 18 29 77 48 45 59
REMARK Flexibility Score: inf
ROOT
ATOM      1  C   UNL A   1      34.743  30.981  27.235  1.00  0.00     0.023 C 
ENDROOT
BRANCH   1   2
ATOM      2  C   UNL A   1      35.037  29.513  27.615  1.00  0.00     0.023 C 
BRANCH   2   3
ATOM      3  C   UNL A   1      34.350  28.481  26.710  1.00  0.00     0.116 C 
BRANCH   3   4
ATOM      4  N   UNL A   1      34.430  28.896  25.314  1.00  0.00    -0.351 N 
ATOM      5  C   UNL A   1      33.736  28.636  24.170  1.00  0.00     0.270 C 
ATOM      6  O   UNL A   1      34.209  29.129  23.144  1.00  0.00    -0.268 OA
ATOM      7  H   UNL A   1      35.173  29.523  25.160  1.00  0.00     0.163 HD
BRANCH   5   8
ATOM      8  C   UNL A   1      32.485  27.816  24.105  1.00  0.00     0.134 A 
ATOM      9  C   UNL A   1      31.231  25.766  23.987  1.00  0.00     0.079 A 
ATOM     10  C   UNL A   1      32.536  26.473  24.035  1.00  0.00     0.063 A 
ATOM     11  N   UNL A   1      30.063  26.299  23.838  1.00  0.00    -0.227 NA
ATOM     12  C   UNL A   1      30.051  27.668  23.797  1.00  0.00     0.171 A 
ATOM     13  N   UNL A   1      31.220  28.443  23.978  1.00  0.00    -0.208 N 
ATOM     14  C   UNL A   1      29.035  28.564  23.580  1.00  0.00     0.085 A 
ATOM     15  N   UNL A   1      30.904  29.771  23.962  1.00  0.00    -0.170 NA
ATOM     16  C   UNL A   1      29.603  29.841  23.667  1.00  0.00     0.076 A 
ATOM     17  Br  UNL A   1      27.236  28.186  23.221  1.00  0.00    -0.045 Br
ATOM     18  C   UNL A   1      28.955  31.162  23.473  1.00  0.00     0.070 C 
BRANCH   9  19
ATOM     19  C   UNL A   1      31.346  24.336  24.119  1.00  0.00     0.041 A 
ATOM     20  C   UNL A   1      30.382  23.879  26.518  1.00  0.00     0.069 C 
ATOM     21  C   UNL A   1      31.008  23.507  25.224  1.00  0.00     0.069 A 
ATOM     22  N   UNL A   1      31.315  22.226  24.986  1.00  0.00    -0.178 NA
ATOM     23  N   UNL A   1      31.817  22.231  23.742  1.00  0.00    -0.275 N 
ATOM     24  C   UNL A   1      31.819  23.463  23.161  1.00  0.00     0.119 A 
ATOM     25  C   UNL A   1      32.321  21.001  23.181  1.00  0.00     0.173 C 
ENDBRANCH   9  19
ENDBRANCH   5   8
ENDBRANCH   3   4
ENDBRANCH   2   3
ENDBRANCH   1   2
BRANCH   1  26
ATOM     26  C   UNL A   1      33.701  31.695  28.118  1.00  0.00     0.116 C 
BRANCH  26  27
ATOM     27  N   UNL A   1      34.182  33.006  28.521  1.00  0.00    -0.352 N 
ATOM     28  C   UNL A   1      35.171  33.384  29.387  1.00  0.00     0.251 C 
ATOM     29  H   UNL A   1      33.709  33.757  28.095  1.00  0.00     0.163 HD
ATOM     30  O   UNL A   1      35.143  34.540  29.812  1.00  0.00    -0.269 OA
BRANCH  28  31
ATOM     31  C   UNL A   1      36.253  32.475  29.828  1.00  0.00     0.039 A 
ATOM     32  C   UNL A   1      36.074  31.796  31.041  1.00  0.00     0.014 A 
ATOM     33  C   UNL A   1      37.486  32.405  29.178  1.00  0.00     0.014 A 
ATOM     34  C   UNL A   1      37.107  31.032  31.588  1.00  0.00     0.010 A 
ATOM     35  C   UNL A   1      38.525  31.643  29.734  1.00  0.00     0.010 A 
ATOM     36  C   UNL A   1      38.346  30.944  30.939  1.00  0.00    -0.014 A 
BRANCH  36  37
ATOM     37  C   UNL A   1      39.379  30.035  31.493  1.00  0.00     0.031 A 
ATOM     38  C   UNL A   1      39.445  28.671  30.889  1.00  0.00     0.074 A 
ATOM     39  C   UNL A   1      40.470  30.472  32.161  1.00  0.00     0.049 A 
ATOM     40  N   UNL A   1      40.051  28.441  29.763  1.00  0.00    -0.248 NA
ATOM     41  C   UNL A   1      38.655  27.543  31.377  1.00  0.00     0.031 C 
ATOM     42  C   UNL A   1      41.080  31.790  31.947  1.00  0.00     0.029 A 
ATOM     43  N   UNL A   1      41.381  29.803  32.952  1.00  0.00    -0.354 N 
ATOM     44  C   UNL A   1      39.699  27.169  29.356  1.00  0.00     0.074 A 
ATOM     45  C   UNL A   1      38.843  26.643  30.398  1.00  0.00     0.031 C 
ATOM     46  C   UNL A   1      42.337  31.771  32.437  1.00  0.00     0.029 A 
ATOM     47  C   UNL A   1      42.569  30.510  33.141  1.00  0.00     0.049 A 
ATOM     48  H   UNL A   1      41.209  28.917  33.345  1.00  0.00     0.167 HD
ATOM     49  C   UNL A   1      40.123  26.627  28.183  1.00  0.00     0.034 A 
ATOM     50  C   UNL A   1      43.800  29.948  33.305  1.00  0.00     0.034 A 
ATOM     51  C   UNL A   1      40.993  27.455  27.401  1.00  0.00     0.049 A 
ATOM     52  C   UNL A   1      44.000  29.287  31.961  1.00  0.00     0.074 A 
ATOM     53  C   UNL A   1      40.881  28.349  26.358  1.00  0.00     0.029 A 
ATOM     54  N   UNL A   1      42.320  27.512  27.758  1.00  0.00    -0.354 N 
ATOM     55  N   UNL A   1      44.320  29.883  30.843  1.00  0.00    -0.248 NA
ATOM     56  C   UNL A   1      43.492  27.924  31.802  1.00  0.00     0.031 C 
ATOM     57  C   UNL A   1      42.020  29.210  26.469  1.00  0.00     0.029 A 
ATOM     58  C   UNL A   1      42.722  28.816  27.607  1.00  0.00     0.049 A 
ATOM     59  H   UNL A   1      42.877  26.760  28.065  1.00  0.00     0.167 HD
ATOM     60  C   UNL A   1      43.796  29.078  29.827  1.00  0.00     0.074 A 
ATOM     61  C   UNL A   1      43.323  27.877  30.488  1.00  0.00     0.031 C 
ATOM     62  C   UNL A   1      43.604  29.494  28.539  1.00  0.00     0.034 A 
BRANCH  49  63
ATOM     63  C   UNL A   1      39.891  25.222  27.792  1.00  0.00     0.023 A 
ATOM     64  C   UNL A   1      38.757  24.807  27.081  1.00  0.00     0.031 A 
ATOM     65  C   UNL A   1      40.939  24.307  27.996  1.00  0.00     0.131 A 
ATOM     66  C   UNL A   1      38.714  23.499  26.574  1.00  0.00     0.055 A 
ATOM     67  C   UNL A   1      40.894  23.013  27.487  1.00  0.00     0.041 A 
ATOM     68  F   UNL A   1      42.047  24.690  28.655  1.00  0.00    -0.206 F 
ATOM     69  C   UNL A   1      39.778  22.607  26.764  1.00  0.00     0.022 A 
BRANCH  66  70
ATOM     70  S   UNL A   1      37.299  22.913  25.601  1.00  0.00     0.124 S 
ATOM     71  O   UNL A   1      37.442  23.673  24.358  1.00  0.00    -0.237 OA
ATOM     72  O   UNL A   1      37.584  21.482  25.490  1.00  0.00    -0.237 OA
ATOM     73  O   UNL A   1      36.146  23.258  26.415  1.00  0.00    -0.744 OA
ENDBRANCH  66  70
ENDBRANCH  49  63
BRANCH  50  74
ATOM     74  C   UNL A   1      44.024  29.214  34.600  1.00  0.00     0.023 A 
ATOM     75  C   UNL A   1      43.247  28.131  35.043  1.00  0.00     0.031 A 
ATOM     76  C   UNL A   1      45.075  29.621  35.452  1.00  0.00     0.131 A 
ATOM     77  C   UNL A   1      43.391  27.636  36.350  1.00  0.00     0.055 A 
ATOM     78  C   UNL A   1      45.263  29.080  36.729  1.00  0.00     0.041 A 
ATOM     79  F   UNL A   1      45.944  30.567  35.060  1.00  0.00    -0.206 F 
ATOM     80  C   UNL A   1      44.394  28.103  37.198  1.00  0.00     0.022 A 
BRANCH  77  81
ATOM     81  S   UNL A   1      42.220  26.409  36.999  1.00  0.00     0.124 S 
ATOM     82  O   UNL A   1      42.386  25.289  36.076  1.00  0.00    -0.237 OA
ATOM     83  O   UNL A   1      42.744  26.201  38.345  1.00  0.00    -0.237 OA
ATOM     84  O   UNL A   1      40.936  27.097  36.918  1.00  0.00    -0.744 OA
ENDBRANCH  77  81
ENDBRANCH  50  74
BRANCH  62  85
ATOM     85  C   UNL A   1      44.148  30.845  28.182  1.00  0.00     0.023 A 
ATOM     86  C   UNL A   1      45.440  30.984  27.637  1.00  0.00     0.031 A 
ATOM     87  C   UNL A   1      43.424  32.010  28.482  1.00  0.00     0.131 A 
ATOM     88  C   UNL A   1      45.999  32.258  27.478  1.00  0.00     0.055 A 
ATOM     89  C   UNL A   1      43.965  33.279  28.267  1.00  0.00     0.041 A 
ATOM     90  F   UNL A   1      42.203  31.934  29.037  1.00  0.00    -0.206 F 
ATOM     91  C   UNL A   1      45.263  33.408  27.778  1.00  0.00     0.022 A 
BRANCH  88  92
ATOM     92  S   UNL A   1      47.720  32.461  26.943  1.00  0.00     0.124 S 
ATOM     93  O   UNL A   1      48.399  32.832  28.184  1.00  0.00    -0.237 OA
ATOM     94  O   UNL A   1      48.037  31.125  26.441  1.00  0.00    -0.237 OA
ATOM     95  O   UNL A   1      47.659  33.511  25.932  1.00  0.00    -0.744 OA
ENDBRANCH  88  92
ENDBRANCH  62  85
ENDBRANCH  36  37
ENDBRANCH  28  31
ENDBRANCH  26  27
ENDBRANCH   1  26
TORSDOF 15
ENDMDL
