MODEL 1
REMARK VINA RESULT:     -12.3      0.000      0.000
REMARK SMILES CC[NH+]1CCC2(CC1)OC[C@H](C(=O)NCCCCNC(=O)c1ccc(-c3c4nc(c(-c5cc(S(=O)(=O)[O-])ccc5F)c5ccc([nH]5)c(-c5cc(S(=O)(=O)[O-])ccc5F)c5nc(c(-c6cc(S(=O)(=O)[O-])ccc6F)c6ccc3[nH]6)C=C5)C=C4)cc1)N2C(=O)c1ccccc1
REMARK SMILES IDX 17 1 16 2 15 3 14 4 12 5 13 6 11 8 3 9 4 10 8 11 5 13 7 14
REMARK SMILES IDX 6 15 9 16 85 17 10 18 2 19 1 20 86 21 87 22 88 23 89 24
REMARK SMILES IDX 93 25 90 26 92 27 91 28 18 29 19 30 20 31 21 33 22 34 23 35
REMARK SMILES IDX 84 36 24 37 83 38 25 39 26 40 27 41 77 42 28 43 82 44 76 45
REMARK SMILES IDX 78 46 29 47 81 48 75 49 74 50 30 52 62 53 42 54 61 55 43 56
REMARK SMILES IDX 46 57 60 58 79 59 44 60 45 61 59 63 80 64 47 65 31 66 32 67
REMARK SMILES IDX 40 68 33 69 39 70 41 71 38 72 34 73 35 74 36 75 37 76 63 77
REMARK SMILES IDX 64 78 72 79 65 80 71 81 73 82 70 83 66 84 67 85 68 86 69 87
REMARK SMILES IDX 48 88 49 89 57 90 50 91 56 92 58 93 55 94 51 95 52 96 53 97
REMARK SMILES IDX 54 98
REMARK H PARENT 14 7 3 12 19 32 78 51 46 62
REMARK Flexibility Score: inf
ROOT
ATOM      1  C   UNL A   1      35.167  21.479  24.961  1.00  0.00     0.023 C 
ENDROOT
BRANCH   1   2
ATOM      2  C   UNL A   1      33.897  21.209  25.772  1.00  0.00     0.023 C 
BRANCH   2   3
ATOM      3  C   UNL A   1      33.084  22.451  26.135  1.00  0.00     0.116 C 
BRANCH   3   4
ATOM      4  N   UNL A   1      31.962  22.644  25.238  1.00  0.00    -0.354 N 
ATOM      5  C   UNL A   1      31.871  23.354  24.077  1.00  0.00     0.245 C 
ATOM      6  O   UNL A   1      30.780  23.312  23.498  1.00  0.00    -0.273 OA
ATOM      7  H   UNL A   1      31.132  22.191  25.510  1.00  0.00     0.163 HD
BRANCH   5   8
ATOM      8  C   UNL A   1      33.051  24.207  23.557  1.00  0.00     0.203 C 
ATOM      9  N   UNL A   1      30.865  28.974  23.372  1.00  0.00    -0.335 N 
ATOM     10  C   UNL A   1      30.383  27.719  23.935  1.00  0.00     0.267 C 
ATOM     11  C   UNL A   1      32.279  28.946  22.990  1.00  0.00     0.267 C 
ATOM     12  H   UNL A   1      30.771  29.589  24.178  1.00  0.00     0.348 HD
ATOM     13  C   UNL A   1      30.720  26.500  23.111  1.00  0.00     0.120 C 
ATOM     14  C   UNL A   1      32.801  27.668  22.325  1.00  0.00     0.120 C 
ATOM     15  C   UNL A   1      32.225  26.348  22.858  1.00  0.00     0.155 C 
ATOM     16  O   UNL A   1      32.299  25.452  21.700  1.00  0.00    -0.352 OA
ATOM     17  N   UNL A   1      32.977  25.623  23.910  1.00  0.00    -0.295 N 
ATOM     18  C   UNL A   1      33.018  24.263  22.050  1.00  0.00     0.198 C 
BRANCH   9  19
ATOM     19  C   UNL A   1      30.035  29.627  22.360  1.00  0.00     0.258 C 
ATOM     20  C   UNL A   1      28.555  29.265  22.374  1.00  0.00     0.071 C 
ENDBRANCH   9  19
BRANCH  17  21
ATOM     21  C   UNL A   1      33.680  26.012  25.040  1.00  0.00     0.256 C 
ATOM     22  O   UNL A   1      34.750  25.497  25.365  1.00  0.00    -0.269 OA
BRANCH  21  23
ATOM     23  C   UNL A   1      33.279  27.130  25.893  1.00  0.00     0.040 A 
ATOM     24  C   UNL A   1      32.103  27.014  26.643  1.00  0.00     0.014 A 
ATOM     25  C   UNL A   1      33.949  28.354  25.821  1.00  0.00     0.014 A 
ATOM     26  C   UNL A   1      31.671  28.088  27.424  1.00  0.00     0.001 A 
ATOM     27  C   UNL A   1      33.532  29.415  26.627  1.00  0.00     0.001 A 
ATOM     28  C   UNL A   1      32.404  29.277  27.437  1.00  0.00     0.000 A 
ENDBRANCH  21  23
ENDBRANCH  17  21
ENDBRANCH   5   8
ENDBRANCH   3   4
ENDBRANCH   2   3
ENDBRANCH   1   2
BRANCH   1  29
ATOM     29  C   UNL A   1      36.389  21.897  25.770  1.00  0.00     0.116 C 
BRANCH  29  30
ATOM     30  N   UNL A   1      37.460  20.914  25.736  1.00  0.00    -0.352 N 
ATOM     31  C   UNL A   1      38.804  21.086  25.981  1.00  0.00     0.251 C 
ATOM     32  H   UNL A   1      37.186  19.998  25.504  1.00  0.00     0.163 HD
ATOM     33  O   UNL A   1      39.582  20.162  25.789  1.00  0.00    -0.269 OA
BRANCH  31  34
ATOM     34  C   UNL A   1      39.298  22.403  26.440  1.00  0.00     0.039 A 
ATOM     35  C   UNL A   1      40.360  22.443  27.348  1.00  0.00     0.014 A 
ATOM     36  C   UNL A   1      38.741  23.589  25.955  1.00  0.00     0.014 A 
ATOM     37  C   UNL A   1      40.911  23.674  27.712  1.00  0.00     0.010 A 
ATOM     38  C   UNL A   1      39.336  24.809  26.264  1.00  0.00     0.010 A 
ATOM     39  C   UNL A   1      40.430  24.864  27.143  1.00  0.00    -0.014 A 
BRANCH  39  40
ATOM     40  C   UNL A   1      41.057  26.177  27.449  1.00  0.00     0.031 A 
ATOM     41  C   UNL A   1      42.458  26.468  26.985  1.00  0.00     0.074 A 
ATOM     42  C   UNL A   1      40.395  27.074  28.207  1.00  0.00     0.049 A 
ATOM     43  N   UNL A   1      43.215  27.506  27.231  1.00  0.00    -0.248 NA
ATOM     44  C   UNL A   1      43.102  25.436  26.158  1.00  0.00     0.031 C 
ATOM     45  C   UNL A   1      39.048  26.890  28.752  1.00  0.00     0.029 A 
ATOM     46  N   UNL A   1      40.769  28.313  28.664  1.00  0.00    -0.354 N 
ATOM     47  C   UNL A   1      44.431  27.246  26.609  1.00  0.00     0.074 A 
ATOM     48  C   UNL A   1      44.326  25.924  26.024  1.00  0.00     0.031 C 
ATOM     49  C   UNL A   1      38.703  27.981  29.452  1.00  0.00     0.029 A 
ATOM     50  C   UNL A   1      39.818  28.924  29.449  1.00  0.00     0.049 A 
ATOM     51  H   UNL A   1      41.636  28.727  28.450  1.00  0.00     0.167 HD
ATOM     52  C   UNL A   1      45.525  28.042  26.515  1.00  0.00     0.034 A 
ATOM     53  C   UNL A   1      39.845  30.101  30.107  1.00  0.00     0.034 A 
ATOM     54  C   UNL A   1      45.605  29.362  27.093  1.00  0.00     0.049 A 
ATOM     55  C   UNL A   1      41.078  30.963  30.004  1.00  0.00     0.074 A 
ATOM     56  C   UNL A   1      46.639  30.278  27.009  1.00  0.00     0.029 A 
ATOM     57  N   UNL A   1      44.617  29.952  27.873  1.00  0.00    -0.354 N 
ATOM     58  N   UNL A   1      42.201  30.725  29.368  1.00  0.00    -0.248 NA
ATOM     59  C   UNL A   1      41.041  32.256  30.698  1.00  0.00     0.031 C 
ATOM     60  C   UNL A   1      46.308  31.390  27.792  1.00  0.00     0.029 A 
ATOM     61  C   UNL A   1      45.032  31.205  28.301  1.00  0.00     0.049 A 
ATOM     62  H   UNL A   1      43.750  29.541  28.090  1.00  0.00     0.167 HD
ATOM     63  C   UNL A   1      42.992  31.855  29.559  1.00  0.00     0.074 A 
ATOM     64  C   UNL A   1      42.212  32.776  30.360  1.00  0.00     0.031 C 
ATOM     65  C   UNL A   1      44.247  32.110  29.109  1.00  0.00     0.034 A 
BRANCH  52  66
ATOM     66  C   UNL A   1      46.726  27.489  25.784  1.00  0.00     0.023 A 
ATOM     67  C   UNL A   1      47.064  27.914  24.487  1.00  0.00     0.031 A 
ATOM     68  C   UNL A   1      47.528  26.498  26.379  1.00  0.00     0.131 A 
ATOM     69  C   UNL A   1      48.116  27.293  23.797  1.00  0.00     0.055 A 
ATOM     70  C   UNL A   1      48.628  25.946  25.719  1.00  0.00     0.041 A 
ATOM     71  F   UNL A   1      47.246  26.036  27.607  1.00  0.00    -0.206 F 
ATOM     72  C   UNL A   1      48.917  26.330  24.414  1.00  0.00     0.022 A 
BRANCH  69  73
ATOM     73  S   UNL A   1      48.321  27.651  22.031  1.00  0.00     0.124 S 
ATOM     74  O   UNL A   1      47.024  28.232  21.695  1.00  0.00    -0.237 OA
ATOM     75  O   UNL A   1      49.454  28.569  22.023  1.00  0.00    -0.237 OA
ATOM     76  O   UNL A   1      48.577  26.338  21.442  1.00  0.00    -0.744 OA
ENDBRANCH  69  73
ENDBRANCH  52  66
BRANCH  53  77
ATOM     77  C   UNL A   1      38.680  30.530  30.932  1.00  0.00     0.023 A 
ATOM     78  C   UNL A   1      37.589  31.198  30.353  1.00  0.00     0.031 A 
ATOM     79  C   UNL A   1      38.656  30.309  32.321  1.00  0.00     0.131 A 
ATOM     80  C   UNL A   1      36.541  31.660  31.164  1.00  0.00     0.055 A 
ATOM     81  C   UNL A   1      37.587  30.725  33.116  1.00  0.00     0.041 A 
ATOM     82  F   UNL A   1      39.672  29.670  32.925  1.00  0.00    -0.206 F 
ATOM     83  C   UNL A   1      36.527  31.417  32.539  1.00  0.00     0.022 A 
BRANCH  80  84
ATOM     84  S   UNL A   1      35.230  32.658  30.405  1.00  0.00     0.124 S 
ATOM     85  O   UNL A   1      35.974  33.821  29.939  1.00  0.00    -0.237 OA
ATOM     86  O   UNL A   1      34.727  31.760  29.371  1.00  0.00    -0.237 OA
ATOM     87  O   UNL A   1      34.309  32.907  31.512  1.00  0.00    -0.744 OA
ENDBRANCH  80  84
ENDBRANCH  53  77
BRANCH  65  88
ATOM     88  C   UNL A   1      44.830  33.465  29.431  1.00  0.00     0.023 A 
ATOM     89  C   UNL A   1      44.691  34.561  28.561  1.00  0.00     0.031 A 
ATOM     90  C   UNL A   1      45.542  33.659  30.629  1.00  0.00     0.131 A 
ATOM     91  C   UNL A   1      45.301  35.784  28.876  1.00  0.00     0.055 A 
ATOM     92  C   UNL A   1      46.093  34.895  30.966  1.00  0.00     0.041 A 
ATOM     93  F   UNL A   1      45.707  32.646  31.497  1.00  0.00    -0.206 F 
ATOM     94  C   UNL A   1      45.986  35.963  30.081  1.00  0.00     0.022 A 
BRANCH  91  95
ATOM     95  S   UNL A   1      45.264  37.120  27.648  1.00  0.00     0.124 S 
ATOM     96  O   UNL A   1      43.844  37.191  27.321  1.00  0.00    -0.237 OA
ATOM     97  O   UNL A   1      45.802  38.249  28.399  1.00  0.00    -0.237 OA
ATOM     98  O   UNL A   1      46.123  36.624  26.575  1.00  0.00    -0.744 OA
ENDBRANCH  91  95
ENDBRANCH  65  88
ENDBRANCH  39  40
ENDBRANCH  31  34
ENDBRANCH  29  30
ENDBRANCH   1  29
TORSDOF 17
ENDMDL
MODEL 2
REMARK VINA RESULT:     -12.3      0.506      7.355
REMARK SMILES CC[NH+]1CCC2(CC1)OC[C@H](C(=O)NCCCCNC(=O)c1ccc(-c3c4nc(c(-c5cc(S(=O)(=O)[O-])ccc5F)c5ccc([nH]5)c(-c5cc(S(=O)(=O)[O-])ccc5F)c5nc(c(-c6cc(S(=O)(=O)[O-])ccc6F)c6ccc3[nH]6)C=C5)C=C4)cc1)N2C(=O)c1ccccc1
REMARK SMILES IDX 17 1 16 2 15 3 14 4 12 5 13 6 11 8 3 9 4 10 8 11 5 13 7 14
REMARK SMILES IDX 6 15 9 16 85 17 10 18 2 19 1 20 86 21 87 22 88 23 89 24
REMARK SMILES IDX 93 25 90 26 92 27 91 28 18 29 19 30 20 31 21 33 22 34 23 35
REMARK SMILES IDX 84 36 24 37 83 38 25 39 26 40 27 41 77 42 28 43 82 44 76 45
REMARK SMILES IDX 78 46 29 47 81 48 75 49 74 50 30 52 62 53 42 54 61 55 43 56
REMARK SMILES IDX 46 57 60 58 79 59 44 60 45 61 59 63 80 64 47 65 31 66 32 67
REMARK SMILES IDX 40 68 33 69 39 70 41 71 38 72 34 73 35 74 36 75 37 76 63 77
REMARK SMILES IDX 64 78 72 79 65 80 71 81 73 82 70 83 66 84 67 85 68 86 69 87
REMARK SMILES IDX 48 88 49 89 57 90 50 91 56 92 58 93 55 94 51 95 52 96 53 97
REMARK SMILES IDX 54 98
REMARK H PARENT 14 7 3 12 19 32 78 51 46 62
REMARK Flexibility Score: inf
ROOT
ATOM      1  C   UNL A   1      35.424  21.899  24.625  1.00  0.00     0.023 C 
ENDROOT
BRANCH   1   2
ATOM      2  C   UNL A   1      34.105  21.244  25.042  1.00  0.00     0.023 C 
BRANCH   2   3
ATOM      3  C   UNL A   1      33.109  22.176  25.732  1.00  0.00     0.116 C 
BRANCH   3   4
ATOM      4  N   UNL A   1      31.967  22.467  24.888  1.00  0.00    -0.354 N 
ATOM      5  C   UNL A   1      31.845  23.315  23.827  1.00  0.00     0.245 C 
ATOM      6  O   UNL A   1      30.743  23.333  23.269  1.00  0.00    -0.273 OA
ATOM      7  H   UNL A   1      31.147  21.974  25.118  1.00  0.00     0.163 HD
BRANCH   5   8
ATOM      8  C   UNL A   1      33.007  24.239  23.394  1.00  0.00     0.203 C 
ATOM      9  N   UNL A   1      30.665  28.934  23.477  1.00  0.00    -0.335 N 
ATOM     10  C   UNL A   1      30.213  27.629  23.942  1.00  0.00     0.267 C 
ATOM     11  C   UNL A   1      32.087  28.978  23.129  1.00  0.00     0.267 C 
ATOM     12  H   UNL A   1      30.532  29.490  24.320  1.00  0.00     0.348 HD
ATOM     13  C   UNL A   1      30.610  26.480  23.047  1.00  0.00     0.120 C 
ATOM     14  C   UNL A   1      32.667  27.766  22.392  1.00  0.00     0.120 C 
ATOM     15  C   UNL A   1      32.124  26.395  22.821  1.00  0.00     0.155 C 
ATOM     16  O   UNL A   1      32.253  25.582  21.607  1.00  0.00    -0.352 OA
ATOM     17  N   UNL A   1      32.877  25.625  23.839  1.00  0.00    -0.295 N 
ATOM     18  C   UNL A   1      33.004  24.396  21.893  1.00  0.00     0.198 C 
BRANCH   9  19
ATOM     19  C   UNL A   1      29.836  29.628  22.492  1.00  0.00     0.258 C 
ATOM     20  C   UNL A   1      28.870  30.669  23.045  1.00  0.00     0.071 C 
ENDBRANCH   9  19
BRANCH  17  21
ATOM     21  C   UNL A   1      33.541  25.958  25.010  1.00  0.00     0.256 C 
ATOM     22  O   UNL A   1      34.559  25.374  25.385  1.00  0.00    -0.269 OA
BRANCH  21  23
ATOM     23  C   UNL A   1      33.166  27.092  25.854  1.00  0.00     0.040 A 
ATOM     24  C   UNL A   1      34.079  28.142  26.013  1.00  0.00     0.014 A 
ATOM     25  C   UNL A   1      32.007  27.045  26.632  1.00  0.00     0.014 A 
ATOM     26  C   UNL A   1      33.765  29.209  26.856  1.00  0.00     0.001 A 
ATOM     27  C   UNL A   1      31.682  28.129  27.450  1.00  0.00     0.001 A 
ATOM     28  C   UNL A   1      32.553  29.215  27.550  1.00  0.00     0.000 A 
ENDBRANCH  21  23
ENDBRANCH  17  21
ENDBRANCH   5   8
ENDBRANCH   3   4
ENDBRANCH   2   3
ENDBRANCH   1   2
BRANCH   1  29
ATOM     29  C   UNL A   1      36.477  22.017  25.720  1.00  0.00     0.116 C 
BRANCH  29  30
ATOM     30  N   UNL A   1      37.477  20.964  25.666  1.00  0.00    -0.352 N 
ATOM     31  C   UNL A   1      38.826  21.033  25.932  1.00  0.00     0.251 C 
ATOM     32  H   UNL A   1      37.143  20.076  25.402  1.00  0.00     0.163 HD
ATOM     33  O   UNL A   1      39.541  20.064  25.718  1.00  0.00    -0.269 OA
BRANCH  31  34
ATOM     34  C   UNL A   1      39.405  22.298  26.437  1.00  0.00     0.039 A 
ATOM     35  C   UNL A   1      40.421  22.236  27.395  1.00  0.00     0.014 A 
ATOM     36  C   UNL A   1      38.973  23.533  25.948  1.00  0.00     0.014 A 
ATOM     37  C   UNL A   1      41.053  23.411  27.809  1.00  0.00     0.010 A 
ATOM     38  C   UNL A   1      39.652  24.694  26.307  1.00  0.00     0.010 A 
ATOM     39  C   UNL A   1      40.702  24.645  27.239  1.00  0.00    -0.014 A 
BRANCH  39  40
ATOM     40  C   UNL A   1      41.420  25.897  27.598  1.00  0.00     0.031 A 
ATOM     41  C   UNL A   1      40.710  26.976  28.369  1.00  0.00     0.074 A 
ATOM     42  C   UNL A   1      42.682  26.091  27.167  1.00  0.00     0.049 A 
ATOM     43  N   UNL A   1      41.125  28.173  28.693  1.00  0.00    -0.248 NA
ATOM     44  C   UNL A   1      39.338  26.676  28.805  1.00  0.00     0.031 C 
ATOM     45  C   UNL A   1      43.461  25.136  26.376  1.00  0.00     0.029 A 
ATOM     46  N   UNL A   1      43.528  27.161  27.318  1.00  0.00    -0.354 N 
ATOM     47  C   UNL A   1      40.061  28.778  29.353  1.00  0.00     0.074 A 
ATOM     48  C   UNL A   1      38.963  27.833  29.328  1.00  0.00     0.031 C 
ATOM     49  C   UNL A   1      44.673  25.655  26.128  1.00  0.00     0.029 A 
ATOM     50  C   UNL A   1      44.745  26.997  26.698  1.00  0.00     0.049 A 
ATOM     51  H   UNL A   1      43.287  27.971  27.823  1.00  0.00     0.167 HD
ATOM     52  C   UNL A   1      40.010  29.999  29.943  1.00  0.00     0.034 A 
ATOM     53  C   UNL A   1      45.794  27.837  26.586  1.00  0.00     0.034 A 
ATOM     54  C   UNL A   1      41.120  30.921  29.968  1.00  0.00     0.049 A 
ATOM     55  C   UNL A   1      45.711  29.195  27.233  1.00  0.00     0.074 A 
ATOM     56  C   UNL A   1      41.200  32.157  30.588  1.00  0.00     0.029 A 
ATOM     57  N   UNL A   1      42.342  30.716  29.338  1.00  0.00    -0.354 N 
ATOM     58  N   UNL A   1      44.715  29.733  27.899  1.00  0.00    -0.248 NA
ATOM     59  C   UNL A   1      46.896  30.055  27.124  1.00  0.00     0.031 C 
ATOM     60  C   UNL A   1      42.439  32.727  30.276  1.00  0.00     0.029 A 
ATOM     61  C   UNL A   1      43.168  31.814  29.529  1.00  0.00     0.049 A 
ATOM     62  H   UNL A   1      42.586  29.908  28.831  1.00  0.00     0.167 HD
ATOM     63  C   UNL A   1      45.168  30.983  28.315  1.00  0.00     0.074 A 
ATOM     64  C   UNL A   1      46.529  31.111  27.835  1.00  0.00     0.031 C 
ATOM     65  C   UNL A   1      44.521  31.934  29.035  1.00  0.00     0.034 A 
BRANCH  52  66
ATOM     66  C   UNL A   1      38.703  30.409  30.579  1.00  0.00     0.023 A 
ATOM     67  C   UNL A   1      37.746  31.169  29.883  1.00  0.00     0.031 A 
ATOM     68  C   UNL A   1      38.422  30.066  31.914  1.00  0.00     0.131 A 
ATOM     69  C   UNL A   1      36.599  31.630  30.545  1.00  0.00     0.055 A 
ATOM     70  C   UNL A   1      37.236  30.455  32.541  1.00  0.00     0.041 A 
ATOM     71  F   UNL A   1      39.304  29.360  32.639  1.00  0.00    -0.206 F 
ATOM     72  C   UNL A   1      36.324  31.257  31.862  1.00  0.00     0.022 A 
BRANCH  69  73
ATOM     73  S   UNL A   1      35.551  32.852  29.709  1.00  0.00     0.124 S 
ATOM     74  O   UNL A   1      34.510  32.004  29.134  1.00  0.00    -0.237 OA
ATOM     75  O   UNL A   1      35.137  33.718  30.807  1.00  0.00    -0.237 OA
ATOM     76  O   UNL A   1      36.451  33.466  28.734  1.00  0.00    -0.744 OA
ENDBRANCH  69  73
ENDBRANCH  52  66
BRANCH  53  77
ATOM     77  C   UNL A   1      47.007  27.429  25.820  1.00  0.00     0.023 A 
ATOM     78  C   UNL A   1      47.171  27.792  24.475  1.00  0.00     0.031 A 
ATOM     79  C   UNL A   1      48.007  26.638  26.416  1.00  0.00     0.131 A 
ATOM     80  C   UNL A   1      48.285  27.330  23.756  1.00  0.00     0.055 A 
ATOM     81  C   UNL A   1      49.138  26.224  25.712  1.00  0.00     0.041 A 
ATOM     82  F   UNL A   1      47.902  26.267  27.703  1.00  0.00    -0.206 F 
ATOM     83  C   UNL A   1      49.275  26.560  24.369  1.00  0.00     0.022 A 
BRANCH  80  84
ATOM     84  S   UNL A   1      48.380  27.686  21.979  1.00  0.00     0.124 S 
ATOM     85  O   UNL A   1      47.073  28.278  21.724  1.00  0.00    -0.237 OA
ATOM     86  O   UNL A   1      49.521  28.593  21.914  1.00  0.00    -0.237 OA
ATOM     87  O   UNL A   1      48.599  26.371  21.381  1.00  0.00    -0.744 OA
ENDBRANCH  80  84
ENDBRANCH  53  77
BRANCH  65  88
ATOM     88  C   UNL A   1      45.301  33.177  29.389  1.00  0.00     0.023 A 
ATOM     89  C   UNL A   1      45.243  34.341  28.602  1.00  0.00     0.031 A 
ATOM     90  C   UNL A   1      46.121  33.192  30.532  1.00  0.00     0.131 A 
ATOM     91  C   UNL A   1      46.032  35.451  28.939  1.00  0.00     0.055 A 
ATOM     92  C   UNL A   1      46.855  34.321  30.896  1.00  0.00     0.041 A 
ATOM     93  F   UNL A   1      46.215  32.108  31.319  1.00  0.00    -0.206 F 
ATOM     94  C   UNL A   1      46.824  35.455  30.090  1.00  0.00     0.022 A 
BRANCH  91  95
ATOM     95  S   UNL A   1      46.079  36.865  27.803  1.00  0.00     0.124 S 
ATOM     96  O   UNL A   1      46.297  37.981  28.717  1.00  0.00    -0.237 OA
ATOM     97  O   UNL A   1      47.200  36.528  26.931  1.00  0.00    -0.237 OA
ATOM     98  O   UNL A   1      44.766  36.835  27.162  1.00  0.00    -0.744 OA
ENDBRANCH  91  95
ENDBRANCH  65  88
ENDBRANCH  39  40
ENDBRANCH  31  34
ENDBRANCH  29  30
ENDBRANCH   1  29
TORSDOF 17
ENDMDL
MODEL 3
REMARK VINA RESULT:     -12.2      5.349      8.522
REMARK SMILES CC[NH+]1CCC2(CC1)OC[C@H](C(=O)NCCCCNC(=O)c1ccc(-c3c4nc(c(-c5cc(S(=O)(=O)[O-])ccc5F)c5ccc([nH]5)c(-c5cc(S(=O)(=O)[O-])ccc5F)c5nc(c(-c6cc(S(=O)(=O)[O-])ccc6F)c6ccc3[nH]6)C=C5)C=C4)cc1)N2C(=O)c1ccccc1
REMARK SMILES IDX 17 1 16 2 15 3 14 4 12 5 13 6 11 8 3 9 4 10 8 11 5 13 7 14
REMARK SMILES IDX 6 15 9 16 85 17 10 18 2 19 1 20 86 21 87 22 88 23 89 24
REMARK SMILES IDX 93 25 90 26 92 27 91 28 18 29 19 30 20 31 21 33 22 34 23 35
REMARK SMILES IDX 84 36 24 37 83 38 25 39 26 40 27 41 77 42 28 43 82 44 76 45
REMARK SMILES IDX 78 46 29 47 81 48 75 49 74 50 30 52 62 53 42 54 61 55 43 56
REMARK SMILES IDX 46 57 60 58 79 59 44 60 45 61 59 63 80 64 47 65 31 66 32 67
REMARK SMILES IDX 40 68 33 69 39 70 41 71 38 72 34 73 35 74 36 75 37 76 63 77
REMARK SMILES IDX 64 78 72 79 65 80 71 81 73 82 70 83 66 84 67 85 68 86 69 87
REMARK SMILES IDX 48 88 49 89 57 90 50 91 56 92 58 93 55 94 51 95 52 96 53 97
REMARK SMILES IDX 54 98
REMARK H PARENT 14 7 3 12 19 32 78 51 46 62
REMARK Flexibility Score: inf
ROOT
ATOM      1  C   UNL A   1      31.445  32.317  26.805  1.00  0.00     0.023 C 
ENDROOT
BRANCH   1   2
ATOM      2  C   UNL A   1      31.485  30.864  26.324  1.00  0.00     0.023 C 
BRANCH   2   3
ATOM      3  C   UNL A   1      32.399  29.941  27.128  1.00  0.00     0.116 C 
BRANCH   3   4
ATOM      4  N   UNL A   1      31.781  28.654  27.380  1.00  0.00    -0.354 N 
ATOM      5  C   UNL A   1      31.634  27.569  26.567  1.00  0.00     0.245 C 
ATOM      6  O   UNL A   1      31.088  26.582  27.070  1.00  0.00    -0.273 OA
ATOM      7  H   UNL A   1      31.407  28.545  28.284  1.00  0.00     0.163 HD
BRANCH   5   8
ATOM      8  C   UNL A   1      32.076  27.605  25.085  1.00  0.00     0.203 C 
ATOM      9  N   UNL A   1      33.052  22.529  24.186  1.00  0.00    -0.335 N 
ATOM     10  C   UNL A   1      32.432  23.199  25.321  1.00  0.00     0.267 C 
ATOM     11  C   UNL A   1      33.234  23.392  23.016  1.00  0.00     0.267 C 
ATOM     12  H   UNL A   1      32.335  21.842  23.959  1.00  0.00     0.348 HD
ATOM     13  C   UNL A   1      33.071  24.517  25.687  1.00  0.00     0.120 C 
ATOM     14  C   UNL A   1      33.685  24.834  23.272  1.00  0.00     0.120 C 
ATOM     15  C   UNL A   1      33.100  25.510  24.520  1.00  0.00     0.155 C 
ATOM     16  O   UNL A   1      34.138  26.474  24.903  1.00  0.00    -0.352 OA
ATOM     17  N   UNL A   1      31.886  26.348  24.366  1.00  0.00    -0.295 N 
ATOM     18  C   UNL A   1      33.571  27.786  25.001  1.00  0.00     0.198 C 
BRANCH   9  19
ATOM     19  C   UNL A   1      34.230  21.701  24.446  1.00  0.00     0.258 C 
ATOM     20  C   UNL A   1      33.957  20.244  24.801  1.00  0.00     0.071 C 
ENDBRANCH   9  19
BRANCH  17  21
ATOM     21  C   UNL A   1      30.718  26.233  23.628  1.00  0.00     0.256 C 
ATOM     22  O   UNL A   1      30.172  25.149  23.416  1.00  0.00    -0.269 OA
BRANCH  21  23
ATOM     23  C   UNL A   1      29.968  27.381  23.121  1.00  0.00     0.040 A 
ATOM     24  C   UNL A   1      30.663  28.391  22.446  1.00  0.00     0.014 A 
ATOM     25  C   UNL A   1      28.625  27.559  23.462  1.00  0.00     0.014 A 
ATOM     26  C   UNL A   1      29.977  29.523  21.999  1.00  0.00     0.001 A 
ATOM     27  C   UNL A   1      27.936  28.677  22.987  1.00  0.00     0.001 A 
ATOM     28  C   UNL A   1      28.609  29.649  22.245  1.00  0.00     0.000 A 
ENDBRANCH  21  23
ENDBRANCH  17  21
ENDBRANCH   5   8
ENDBRANCH   3   4
ENDBRANCH   2   3
ENDBRANCH   1   2
BRANCH   1  29
ATOM     29  C   UNL A   1      32.779  32.899  27.256  1.00  0.00     0.116 C 
BRANCH  29  30
ATOM     30  N   UNL A   1      32.652  34.212  27.866  1.00  0.00    -0.352 N 
ATOM     31  C   UNL A   1      33.383  34.767  28.893  1.00  0.00     0.251 C 
ATOM     32  H   UNL A   1      31.944  34.786  27.494  1.00  0.00     0.163 HD
ATOM     33  O   UNL A   1      33.056  35.849  29.361  1.00  0.00    -0.269 OA
BRANCH  31  34
ATOM     34  C   UNL A   1      34.537  34.026  29.449  1.00  0.00     0.039 A 
ATOM     35  C   UNL A   1      35.826  34.411  29.074  1.00  0.00     0.014 A 
ATOM     36  C   UNL A   1      34.350  32.981  30.358  1.00  0.00     0.014 A 
ATOM     37  C   UNL A   1      36.931  33.795  29.667  1.00  0.00     0.010 A 
ATOM     38  C   UNL A   1      35.450  32.417  30.999  1.00  0.00     0.010 A 
ATOM     39  C   UNL A   1      36.753  32.821  30.663  1.00  0.00    -0.014 A 
BRANCH  39  40
ATOM     40  C   UNL A   1      37.912  32.215  31.369  1.00  0.00     0.031 A 
ATOM     41  C   UNL A   1      38.687  31.099  30.723  1.00  0.00     0.074 A 
ATOM     42  C   UNL A   1      38.219  32.617  32.619  1.00  0.00     0.049 A 
ATOM     43  N   UNL A   1      39.661  30.375  31.211  1.00  0.00    -0.248 NA
ATOM     44  C   UNL A   1      38.288  30.730  29.357  1.00  0.00     0.031 C 
ATOM     45  C   UNL A   1      37.514  33.661  33.368  1.00  0.00     0.029 A 
ATOM     46  N   UNL A   1      39.190  32.187  33.488  1.00  0.00    -0.354 N 
ATOM     47  C   UNL A   1      39.979  29.451  30.221  1.00  0.00     0.074 A 
ATOM     48  C   UNL A   1      39.052  29.673  29.130  1.00  0.00     0.031 C 
ATOM     49  C   UNL A   1      38.089  33.802  34.572  1.00  0.00     0.029 A 
ATOM     50  C   UNL A   1      39.168  32.829  34.705  1.00  0.00     0.049 A 
ATOM     51  H   UNL A   1      39.842  31.485  33.262  1.00  0.00     0.167 HD
ATOM     52  C   UNL A   1      40.966  28.521  30.214  1.00  0.00     0.034 A 
ATOM     53  C   UNL A   1      39.920  32.644  35.809  1.00  0.00     0.034 A 
ATOM     54  C   UNL A   1      41.889  28.325  31.306  1.00  0.00     0.049 A 
ATOM     55  C   UNL A   1      41.000  31.592  35.786  1.00  0.00     0.074 A 
ATOM     56  C   UNL A   1      42.963  27.455  31.381  1.00  0.00     0.029 A 
ATOM     57  N   UNL A   1      41.844  29.002  32.520  1.00  0.00    -0.354 N 
ATOM     58  N   UNL A   1      41.323  30.761  34.822  1.00  0.00    -0.248 NA
ATOM     59  C   UNL A   1      41.823  31.462  36.994  1.00  0.00     0.031 C 
ATOM     60  C   UNL A   1      43.522  27.555  32.660  1.00  0.00     0.029 A 
ATOM     61  C   UNL A   1      42.849  28.545  33.359  1.00  0.00     0.049 A 
ATOM     62  H   UNL A   1      41.192  29.703  32.750  1.00  0.00     0.167 HD
ATOM     63  C   UNL A   1      42.409  30.031  35.299  1.00  0.00     0.074 A 
ATOM     64  C   UNL A   1      42.692  30.529  36.629  1.00  0.00     0.031 C 
ATOM     65  C   UNL A   1      43.114  29.044  34.689  1.00  0.00     0.034 A 
BRANCH  52  66
ATOM     66  C   UNL A   1      41.072  27.630  28.998  1.00  0.00     0.023 A 
ATOM     67  C   UNL A   1      42.058  27.832  28.016  1.00  0.00     0.031 A 
ATOM     68  C   UNL A   1      40.154  26.583  28.799  1.00  0.00     0.131 A 
ATOM     69  C   UNL A   1      42.051  27.060  26.845  1.00  0.00     0.055 A 
ATOM     70  C   UNL A   1      40.207  25.761  27.672  1.00  0.00     0.041 A 
ATOM     71  F   UNL A   1      39.178  26.352  29.690  1.00  0.00    -0.206 F 
ATOM     72  C   UNL A   1      41.148  26.007  26.678  1.00  0.00     0.022 A 
BRANCH  69  73
ATOM     73  S   UNL A   1      43.137  27.552  25.478  1.00  0.00     0.124 S 
ATOM     74  O   UNL A   1      43.590  26.255  24.980  1.00  0.00    -0.237 OA
ATOM     75  O   UNL A   1      42.232  28.291  24.605  1.00  0.00    -0.237 OA
ATOM     76  O   UNL A   1      44.169  28.354  26.132  1.00  0.00    -0.744 OA
ENDBRANCH  69  73
ENDBRANCH  52  66
BRANCH  53  77
ATOM     77  C   UNL A   1      39.674  33.459  37.033  1.00  0.00     0.023 A 
ATOM     78  C   UNL A   1      39.099  32.889  38.179  1.00  0.00     0.031 A 
ATOM     79  C   UNL A   1      39.980  34.832  37.062  1.00  0.00     0.131 A 
ATOM     80  C   UNL A   1      38.807  33.694  39.291  1.00  0.00     0.055 A 
ATOM     81  C   UNL A   1      39.735  35.618  38.188  1.00  0.00     0.041 A 
ATOM     82  F   UNL A   1      40.536  35.426  35.994  1.00  0.00    -0.206 F 
ATOM     83  C   UNL A   1      39.133  35.052  39.307  1.00  0.00     0.022 A 
BRANCH  80  84
ATOM     84  S   UNL A   1      37.919  32.956  40.690  1.00  0.00     0.124 S 
ATOM     85  O   UNL A   1      38.532  33.638  41.824  1.00  0.00    -0.237 OA
ATOM     86  O   UNL A   1      36.537  33.316  40.394  1.00  0.00    -0.237 OA
ATOM     87  O   UNL A   1      38.228  31.533  40.575  1.00  0.00    -0.744 OA
ENDBRANCH  80  84
ENDBRANCH  53  77
BRANCH  65  88
ATOM     88  C   UNL A   1      44.292  28.475  35.442  1.00  0.00     0.023 A 
ATOM     89  C   UNL A   1      44.143  27.447  36.389  1.00  0.00     0.031 A 
ATOM     90  C   UNL A   1      45.586  28.977  35.209  1.00  0.00     0.131 A 
ATOM     91  C   UNL A   1      45.260  26.992  37.107  1.00  0.00     0.055 A 
ATOM     92  C   UNL A   1      46.701  28.478  35.881  1.00  0.00     0.041 A 
ATOM     93  F   UNL A   1      45.785  29.961  34.316  1.00  0.00    -0.206 F 
ATOM     94  C   UNL A   1      46.540  27.488  36.846  1.00  0.00     0.022 A 
BRANCH  91  95
ATOM     95  S   UNL A   1      45.007  25.801  38.452  1.00  0.00     0.124 S 
ATOM     96  O   UNL A   1      43.972  26.456  39.245  1.00  0.00    -0.237 OA
ATOM     97  O   UNL A   1      44.594  24.601  37.733  1.00  0.00    -0.237 OA
ATOM     98  O   UNL A   1      46.318  25.720  39.091  1.00  0.00    -0.744 OA
ENDBRANCH  91  95
ENDBRANCH  65  88
ENDBRANCH  39  40
ENDBRANCH  31  34
ENDBRANCH  29  30
ENDBRANCH   1  29
TORSDOF 17
ENDMDL
