MODEL 1
REMARK VINA RESULT:     -12.4      0.000      0.000
REMARK SMILES O=C(NCCCCNC(=O)c1cc(-c2cc(Cl)ccc2Cl)cc([N+](=O)[O-])c1)c1ccc(-c2c3nc(c(-c4cc(S(=O)(=O)[O-])ccc4F)c4ccc([nH]4)c(-c4cc(S(=O)(=O)[O-])ccc4F)c4nc(c(-c5cc(S(=O)(=O)[O-])ccc5F)c5ccc2[nH]5)C=C4)C=C3)cc1
REMARK SMILES IDX 4 1 3 2 1 3 2 4 28 6 29 7 90 8 30 9 89 10 31 11 32 12 33 13
REMARK SMILES IDX 83 14 34 15 88 16 82 17 84 18 35 19 87 20 81 21 80 22 36 24
REMARK SMILES IDX 68 25 48 26 67 27 49 28 52 29 66 30 85 31 50 32 51 33 65 35
REMARK SMILES IDX 86 36 53 37 37 38 38 39 46 40 39 41 45 42 47 43 44 44 40 45
REMARK SMILES IDX 41 46 42 47 43 48 69 49 70 50 78 51 71 52 77 53 79 54 76 55
REMARK SMILES IDX 72 56 73 57 74 58 75 59 54 60 55 61 63 62 56 63 62 64 64 65
REMARK SMILES IDX 61 66 57 67 58 68 59 69 60 70 5 71 6 72 7 73 8 74 9 75 10 77
REMARK SMILES IDX 11 78 12 79 27 80 13 81 23 82 22 83 14 84 15 85 20 86 16 87
REMARK SMILES IDX 19 88 21 89 17 90 18 91 24 92 25 93 26 94
REMARK H PARENT 3 5 84 23 52 34 8 76
REMARK Flexibility Score: inf
ROOT
ATOM      1  C   UNL A   1      36.314  22.234  25.740  1.00  0.00     0.116 C 
ENDROOT
BRANCH   1   2
ATOM      2  N   UNL A   1      37.265  21.130  25.741  1.00  0.00    -0.352 N 
ATOM      3  O   UNL A   1      39.295  20.148  25.787  1.00  0.00    -0.269 OA
ATOM      4  C   UNL A   1      38.621  21.160  25.965  1.00  0.00     0.251 C 
ATOM      5  H   UNL A   1      36.884  20.241  25.557  1.00  0.00     0.163 HD
BRANCH   4   6
ATOM      6  C   UNL A   1      39.263  22.420  26.395  1.00  0.00     0.039 A 
ATOM      7  C   UNL A   1      38.824  23.644  25.882  1.00  0.00     0.014 A 
ATOM      8  C   UNL A   1      40.325  22.377  27.301  1.00  0.00     0.014 A 
ATOM      9  C   UNL A   1      39.545  24.800  26.153  1.00  0.00     0.010 A 
ATOM     10  C   UNL A   1      40.989  23.558  27.646  1.00  0.00     0.010 A 
ATOM     11  C   UNL A   1      40.623  24.776  27.052  1.00  0.00    -0.014 A 
BRANCH  11  12
ATOM     12  C   UNL A   1      41.301  26.052  27.402  1.00  0.00     0.031 A 
ATOM     13  C   UNL A   1      42.669  26.381  26.869  1.00  0.00     0.074 A 
ATOM     14  C   UNL A   1      40.647  26.928  28.190  1.00  0.00     0.049 A 
ATOM     15  N   UNL A   1      43.397  27.449  27.079  1.00  0.00    -0.248 NA
ATOM     16  C   UNL A   1      43.305  25.384  25.996  1.00  0.00     0.031 C 
ATOM     17  C   UNL A   1      39.315  26.708  28.764  1.00  0.00     0.029 A 
ATOM     18  N   UNL A   1      40.993  28.178  28.633  1.00  0.00    -0.354 N 
ATOM     19  C   UNL A   1      44.583  27.249  26.381  1.00  0.00     0.074 A 
ATOM     20  C   UNL A   1      44.486  25.942  25.762  1.00  0.00     0.031 C 
ATOM     21  C   UNL A   1      38.941  27.801  29.443  1.00  0.00     0.029 A 
ATOM     22  C   UNL A   1      40.031  28.768  29.421  1.00  0.00     0.049 A 
ATOM     23  H   UNL A   1      41.847  28.613  28.408  1.00  0.00     0.167 HD
ATOM     24  C   UNL A   1      45.649  28.081  26.266  1.00  0.00     0.034 A 
ATOM     25  C   UNL A   1      40.035  29.943  30.079  1.00  0.00     0.034 A 
ATOM     26  C   UNL A   1      45.720  29.385  26.888  1.00  0.00     0.049 A 
ATOM     27  C   UNL A   1      41.247  30.826  29.966  1.00  0.00     0.074 A 
ATOM     28  C   UNL A   1      46.736  30.322  26.806  1.00  0.00     0.029 A 
ATOM     29  N   UNL A   1      44.746  29.932  27.711  1.00  0.00    -0.354 N 
ATOM     30  N   UNL A   1      42.352  30.627  29.284  1.00  0.00    -0.248 NA
ATOM     31  C   UNL A   1      41.212  32.092  30.705  1.00  0.00     0.031 C 
ATOM     32  C   UNL A   1      46.409  31.401  27.633  1.00  0.00     0.029 A 
ATOM     33  C   UNL A   1      45.152  31.177  28.171  1.00  0.00     0.049 A 
ATOM     34  H   UNL A   1      43.890  29.500  27.937  1.00  0.00     0.167 HD
ATOM     35  C   UNL A   1      43.134  31.756  29.498  1.00  0.00     0.074 A 
ATOM     36  C   UNL A   1      42.365  32.640  30.350  1.00  0.00     0.031 C 
ATOM     37  C   UNL A   1      44.378  32.039  29.033  1.00  0.00     0.034 A 
BRANCH  24  38
ATOM     38  C   UNL A   1      46.842  27.595  25.480  1.00  0.00     0.023 A 
ATOM     39  C   UNL A   1      47.055  27.965  24.141  1.00  0.00     0.031 A 
ATOM     40  C   UNL A   1      47.793  26.755  26.088  1.00  0.00     0.131 A 
ATOM     41  C   UNL A   1      48.161  27.459  23.441  1.00  0.00     0.055 A 
ATOM     42  C   UNL A   1      48.928  26.310  25.408  1.00  0.00     0.041 A 
ATOM     43  F   UNL A   1      47.634  26.351  27.359  1.00  0.00    -0.206 F 
ATOM     44  C   UNL A   1      49.112  26.653  24.071  1.00  0.00     0.022 A 
BRANCH  41  45
ATOM     45  S   UNL A   1      48.285  27.777  21.659  1.00  0.00     0.124 S 
ATOM     46  O   UNL A   1      46.959  28.313  21.360  1.00  0.00    -0.237 OA
ATOM     47  O   UNL A   1      49.388  28.728  21.584  1.00  0.00    -0.237 OA
ATOM     48  O   UNL A   1      48.559  26.458  21.091  1.00  0.00    -0.744 OA
ENDBRANCH  41  45
ENDBRANCH  24  38
BRANCH  25  49
ATOM     49  C   UNL A   1      38.878  30.329  30.936  1.00  0.00     0.023 A 
ATOM     50  C   UNL A   1      37.912  31.238  30.484  1.00  0.00     0.031 A 
ATOM     51  C   UNL A   1      38.746  29.820  32.242  1.00  0.00     0.131 A 
ATOM     52  C   UNL A   1      36.883  31.650  31.346  1.00  0.00     0.055 A 
ATOM     53  C   UNL A   1      37.687  30.185  33.072  1.00  0.00     0.041 A 
ATOM     54  F   UNL A   1      39.642  28.944  32.724  1.00  0.00    -0.206 F 
ATOM     55  C   UNL A   1      36.756  31.118  32.631  1.00  0.00     0.022 A 
BRANCH  52  56
ATOM     56  S   UNL A   1      35.771  32.972  30.796  1.00  0.00     0.124 S 
ATOM     57  O   UNL A   1      36.026  33.000  29.360  1.00  0.00    -0.237 OA
ATOM     58  O   UNL A   1      34.468  32.460  31.206  1.00  0.00    -0.237 OA
ATOM     59  O   UNL A   1      36.241  34.142  31.537  1.00  0.00    -0.744 OA
ENDBRANCH  52  56
ENDBRANCH  25  49
BRANCH  37  60
ATOM     60  C   UNL A   1      44.954  33.380  29.414  1.00  0.00     0.023 A 
ATOM     61  C   UNL A   1      44.773  34.517  28.609  1.00  0.00     0.031 A 
ATOM     62  C   UNL A   1      45.722  33.512  30.584  1.00  0.00     0.131 A 
ATOM     63  C   UNL A   1      45.404  35.722  28.950  1.00  0.00     0.055 A 
ATOM     64  C   UNL A   1      46.295  34.730  30.952  1.00  0.00     0.041 A 
ATOM     65  F   UNL A   1      45.930  32.457  31.389  1.00  0.00    -0.206 F 
ATOM     66  C   UNL A   1      46.150  35.840  30.125  1.00  0.00     0.022 A 
BRANCH  63  67
ATOM     67  S   UNL A   1      45.316  37.111  27.786  1.00  0.00     0.124 S 
ATOM     68  O   UNL A   1      43.876  37.271  27.613  1.00  0.00    -0.237 OA
ATOM     69  O   UNL A   1      45.992  38.176  28.520  1.00  0.00    -0.237 OA
ATOM     70  O   UNL A   1      46.031  36.620  26.610  1.00  0.00    -0.744 OA
ENDBRANCH  63  67
ENDBRANCH  37  60
ENDBRANCH  11  12
ENDBRANCH   4   6
ENDBRANCH   1   2
BRANCH   1  71
ATOM     71  C   UNL A   1      34.877  21.780  25.522  1.00  0.00     0.023 C 
BRANCH  71  72
ATOM     72  C   UNL A   1      34.165  21.253  26.765  1.00  0.00     0.023 C 
BRANCH  72  73
ATOM     73  C   UNL A   1      33.627  22.322  27.709  1.00  0.00     0.116 C 
BRANCH  73  74
ATOM     74  N   UNL A   1      32.177  22.434  27.673  1.00  0.00    -0.352 N 
ATOM     75  C   UNL A   1      31.385  23.300  26.968  1.00  0.00     0.251 C 
ATOM     76  H   UNL A   1      31.694  21.790  28.239  1.00  0.00     0.163 HD
ATOM     77  O   UNL A   1      30.170  23.336  27.162  1.00  0.00    -0.269 OA
BRANCH  75  78
ATOM     78  C   UNL A   1      31.980  24.226  25.983  1.00  0.00     0.047 A 
ATOM     79  C   UNL A   1      32.282  25.531  26.394  1.00  0.00     0.023 A 
ATOM     80  C   UNL A   1      32.186  23.838  24.658  1.00  0.00     0.099 A 
ATOM     81  C   UNL A   1      32.853  26.453  25.502  1.00  0.00    -0.009 A 
ATOM     82  C   UNL A   1      32.817  24.725  23.785  1.00  0.00     0.270 A 
ATOM     83  C   UNL A   1      33.168  26.017  24.203  1.00  0.00     0.094 A 
BRANCH  81  84
ATOM     84  C   UNL A   1      33.057  27.855  25.905  1.00  0.00     0.002 A 
ATOM     85  C   UNL A   1      34.127  28.192  26.757  1.00  0.00     0.030 A 
ATOM     86  C   UNL A   1      32.184  28.891  25.502  1.00  0.00     0.048 A 
ATOM     87  C   UNL A   1      34.313  29.509  27.184  1.00  0.00     0.041 A 
ATOM     88  C   UNL A   1      32.381  30.208  25.930  1.00  0.00     0.023 A 
ATOM     89  Cl  UNL A   1      30.802  28.596  24.500  1.00  0.00    -0.084 Cl
ATOM     90  Cl  UNL A   1      35.622  29.891  28.234  1.00  0.00    -0.084 Cl
ATOM     91  C   UNL A   1      33.446  30.517  26.774  1.00  0.00     0.022 A 
ENDBRANCH  81  84
BRANCH  82  92
ATOM     92  N   UNL A   1      33.114  24.296  22.413  1.00  0.00     0.062 N 
ATOM     93  O   UNL A   1      33.066  23.084  22.163  1.00  0.00    -0.258 OA
ATOM     94  O   UNL A   1      33.377  25.176  21.581  1.00  0.00    -0.258 OA
ENDBRANCH  82  92
ENDBRANCH  75  78
ENDBRANCH  73  74
ENDBRANCH  72  73
ENDBRANCH  71  72
ENDBRANCH   1  71
TORSDOF 16
ENDMDL
MODEL 2
REMARK VINA RESULT:     -12.3      5.081     10.310
REMARK SMILES O=C(NCCCCNC(=O)c1cc(-c2cc(Cl)ccc2Cl)cc([N+](=O)[O-])c1)c1ccc(-c2c3nc(c(-c4cc(S(=O)(=O)[O-])ccc4F)c4ccc([nH]4)c(-c4cc(S(=O)(=O)[O-])ccc4F)c4nc(c(-c5cc(S(=O)(=O)[O-])ccc5F)c5ccc2[nH]5)C=C4)C=C3)cc1
REMARK SMILES IDX 4 1 3 2 1 3 2 4 28 6 29 7 90 8 30 9 89 10 31 11 32 12 33 13
REMARK SMILES IDX 83 14 34 15 88 16 82 17 84 18 35 19 87 20 81 21 80 22 36 24
REMARK SMILES IDX 68 25 48 26 67 27 49 28 52 29 66 30 85 31 50 32 51 33 65 35
REMARK SMILES IDX 86 36 53 37 37 38 38 39 46 40 39 41 45 42 47 43 44 44 40 45
REMARK SMILES IDX 41 46 42 47 43 48 69 49 70 50 78 51 71 52 77 53 79 54 76 55
REMARK SMILES IDX 72 56 73 57 74 58 75 59 54 60 55 61 63 62 56 63 62 64 64 65
REMARK SMILES IDX 61 66 57 67 58 68 59 69 60 70 5 71 6 72 7 73 8 74 9 75 10 77
REMARK SMILES IDX 11 78 12 79 27 80 13 81 23 82 22 83 14 84 15 85 20 86 16 87
REMARK SMILES IDX 19 88 21 89 17 90 18 91 24 92 25 93 26 94
REMARK H PARENT 3 5 84 23 52 34 8 76
REMARK Flexibility Score: inf
ROOT
ATOM      1  C   UNL A   1      32.782  28.890  26.085  1.00  0.00     0.116 C 
ENDROOT
BRANCH   1   2
ATOM      2  N   UNL A   1      32.520  30.319  26.191  1.00  0.00    -0.352 N 
ATOM      3  O   UNL A   1      32.743  32.409  27.010  1.00  0.00    -0.269 OA
ATOM      4  C   UNL A   1      33.190  31.267  26.928  1.00  0.00     0.251 C 
ATOM      5  H   UNL A   1      31.759  30.651  25.662  1.00  0.00     0.163 HD
BRANCH   4   6
ATOM      6  C   UNL A   1      34.433  30.897  27.637  1.00  0.00     0.039 A 
ATOM      7  C   UNL A   1      34.609  29.596  28.115  1.00  0.00     0.014 A 
ATOM      8  C   UNL A   1      35.420  31.863  27.845  1.00  0.00     0.014 A 
ATOM      9  C   UNL A   1      35.695  29.305  28.932  1.00  0.00     0.010 A 
ATOM     10  C   UNL A   1      36.560  31.540  28.588  1.00  0.00     0.010 A 
ATOM     11  C   UNL A   1      36.693  30.266  29.162  1.00  0.00    -0.014 A 
BRANCH  11  12
ATOM     12  C   UNL A   1      37.895  29.885  29.950  1.00  0.00     0.031 A 
ATOM     13  C   UNL A   1      38.075  30.345  31.371  1.00  0.00     0.074 A 
ATOM     14  C   UNL A   1      38.813  29.088  29.369  1.00  0.00     0.049 A 
ATOM     15  N   UNL A   1      39.063  30.102  32.194  1.00  0.00    -0.248 NA
ATOM     16  C   UNL A   1      37.016  31.191  31.940  1.00  0.00     0.031 C 
ATOM     17  C   UNL A   1      38.738  28.586  27.993  1.00  0.00     0.029 A 
ATOM     18  N   UNL A   1      39.975  28.546  29.854  1.00  0.00    -0.354 N 
ATOM     19  C   UNL A   1      38.759  30.775  33.371  1.00  0.00     0.074 A 
ATOM     20  C   UNL A   1      37.502  31.461  33.145  1.00  0.00     0.031 C 
ATOM     21  C   UNL A   1      39.781  27.775  27.761  1.00  0.00     0.029 A 
ATOM     22  C   UNL A   1      40.639  27.761  28.939  1.00  0.00     0.049 A 
ATOM     23  H   UNL A   1      40.302  28.702  30.769  1.00  0.00     0.167 HD
ATOM     24  C   UNL A   1      39.462  30.814  34.531  1.00  0.00     0.034 A 
ATOM     25  C   UNL A   1      41.822  27.123  29.024  1.00  0.00     0.034 A 
ATOM     26  C   UNL A   1      40.711  30.115  34.737  1.00  0.00     0.049 A 
ATOM     27  C   UNL A   1      42.598  27.217  30.309  1.00  0.00     0.074 A 
ATOM     28  C   UNL A   1      41.485  30.057  35.884  1.00  0.00     0.029 A 
ATOM     29  N   UNL A   1      41.374  29.363  33.776  1.00  0.00    -0.354 N 
ATOM     30  N   UNL A   1      42.283  27.844  31.420  1.00  0.00    -0.248 NA
ATOM     31  C   UNL A   1      43.885  26.515  30.356  1.00  0.00     0.031 C 
ATOM     32  C   UNL A   1      42.647  29.332  35.595  1.00  0.00     0.029 A 
ATOM     33  C   UNL A   1      42.563  28.868  34.292  1.00  0.00     0.049 A 
ATOM     34  H   UNL A   1      41.048  29.205  32.860  1.00  0.00     0.167 HD
ATOM     35  C   UNL A   1      43.326  27.593  32.303  1.00  0.00     0.074 A 
ATOM     36  C   UNL A   1      44.265  26.737  31.605  1.00  0.00     0.031 C 
ATOM     37  C   UNL A   1      43.495  28.028  33.577  1.00  0.00     0.034 A 
BRANCH  24  38
ATOM     38  C   UNL A   1      38.926  31.670  35.653  1.00  0.00     0.023 A 
ATOM     39  C   UNL A   1      38.252  31.119  36.757  1.00  0.00     0.031 A 
ATOM     40  C   UNL A   1      39.107  33.066  35.623  1.00  0.00     0.131 A 
ATOM     41  C   UNL A   1      37.741  31.961  37.757  1.00  0.00     0.055 A 
ATOM     42  C   UNL A   1      38.657  33.891  36.655  1.00  0.00     0.041 A 
ATOM     43  F   UNL A   1      39.725  33.652  34.586  1.00  0.00    -0.206 F 
ATOM     44  C   UNL A   1      37.960  33.341  37.727  1.00  0.00     0.022 A 
BRANCH  41  45
ATOM     45  S   UNL A   1      36.689  31.240  39.048  1.00  0.00     0.124 S 
ATOM     46  O   UNL A   1      37.595  31.222  40.194  1.00  0.00    -0.237 OA
ATOM     47  O   UNL A   1      35.585  32.190  39.122  1.00  0.00    -0.237 OA
ATOM     48  O   UNL A   1      36.343  29.924  38.515  1.00  0.00    -0.744 OA
ENDBRANCH  41  45
ENDBRANCH  24  38
BRANCH  25  49
ATOM     49  C   UNL A   1      42.364  26.383  27.850  1.00  0.00     0.023 A 
ATOM     50  C   UNL A   1      42.241  24.990  27.750  1.00  0.00     0.031 A 
ATOM     51  C   UNL A   1      43.052  27.059  26.825  1.00  0.00     0.131 A 
ATOM     52  C   UNL A   1      42.839  24.311  26.677  1.00  0.00     0.055 A 
ATOM     53  C   UNL A   1      43.590  26.387  25.728  1.00  0.00     0.041 A 
ATOM     54  F   UNL A   1      43.196  28.394  26.869  1.00  0.00    -0.206 F 
ATOM     55  C   UNL A   1      43.499  25.001  25.658  1.00  0.00     0.022 A 
BRANCH  52  56
ATOM     56  S   UNL A   1      42.829  22.498  26.686  1.00  0.00     0.124 S 
ATOM     57  O   UNL A   1      44.141  22.189  26.127  1.00  0.00    -0.237 OA
ATOM     58  O   UNL A   1      42.652  22.204  28.104  1.00  0.00    -0.237 OA
ATOM     59  O   UNL A   1      41.691  22.159  25.834  1.00  0.00    -0.744 OA
ENDBRANCH  52  56
ENDBRANCH  25  49
BRANCH  37  60
ATOM     60  C   UNL A   1      44.729  27.547  34.299  1.00  0.00     0.023 A 
ATOM     61  C   UNL A   1      44.722  26.370  35.067  1.00  0.00     0.031 A 
ATOM     62  C   UNL A   1      45.918  28.294  34.242  1.00  0.00     0.131 A 
ATOM     63  C   UNL A   1      45.862  26.007  35.799  1.00  0.00     0.055 A 
ATOM     64  C   UNL A   1      47.069  27.894  34.922  1.00  0.00     0.041 A 
ATOM     65  F   UNL A   1      45.979  29.428  33.526  1.00  0.00    -0.206 F 
ATOM     66  C   UNL A   1      47.041  26.753  35.718  1.00  0.00     0.022 A 
BRANCH  63  67
ATOM     67  S   UNL A   1      45.756  24.598  36.936  1.00  0.00     0.124 S 
ATOM     68  O   UNL A   1      45.498  23.490  36.022  1.00  0.00    -0.237 OA
ATOM     69  O   UNL A   1      47.071  24.608  37.569  1.00  0.00    -0.237 OA
ATOM     70  O   UNL A   1      44.643  24.949  37.815  1.00  0.00    -0.744 OA
ENDBRANCH  63  67
ENDBRANCH  37  60
ENDBRANCH  11  12
ENDBRANCH   4   6
ENDBRANCH   1   2
BRANCH   1  71
ATOM     71  C   UNL A   1      33.675  28.534  24.906  1.00  0.00     0.023 C 
BRANCH  71  72
ATOM     72  C   UNL A   1      33.187  29.030  23.547  1.00  0.00     0.023 C 
BRANCH  72  73
ATOM     73  C   UNL A   1      31.971  28.301  22.987  1.00  0.00     0.116 C 
BRANCH  73  74
ATOM     74  N   UNL A   1      32.309  27.366  21.925  1.00  0.00    -0.352 N 
ATOM     75  C   UNL A   1      32.763  26.077  22.007  1.00  0.00     0.251 C 
ATOM     76  H   UNL A   1      32.193  27.712  21.011  1.00  0.00     0.163 HD
ATOM     77  O   UNL A   1      33.124  25.475  20.996  1.00  0.00    -0.269 OA
BRANCH  75  78
ATOM     78  C   UNL A   1      32.852  25.397  23.314  1.00  0.00     0.047 A 
ATOM     79  C   UNL A   1      34.064  24.788  23.667  1.00  0.00     0.023 A 
ATOM     80  C   UNL A   1      31.746  25.307  24.161  1.00  0.00     0.099 A 
ATOM     81  C   UNL A   1      34.209  24.130  24.899  1.00  0.00    -0.009 A 
ATOM     82  C   UNL A   1      31.901  24.717  25.416  1.00  0.00     0.270 A 
ATOM     83  C   UNL A   1      33.126  24.149  25.796  1.00  0.00     0.094 A 
BRANCH  81  84
ATOM     84  C   UNL A   1      35.444  23.391  25.211  1.00  0.00     0.002 A 
ATOM     85  C   UNL A   1      36.564  24.078  25.718  1.00  0.00     0.030 A 
ATOM     86  C   UNL A   1      35.571  22.002  24.979  1.00  0.00     0.048 A 
ATOM     87  C   UNL A   1      37.758  23.402  25.981  1.00  0.00     0.041 A 
ATOM     88  C   UNL A   1      36.769  21.333  25.251  1.00  0.00     0.023 A 
ATOM     89  Cl  UNL A   1      34.284  21.056  24.309  1.00  0.00    -0.084 Cl
ATOM     90  Cl  UNL A   1      39.116  24.267  26.588  1.00  0.00    -0.084 Cl
ATOM     91  C   UNL A   1      37.864  22.034  25.750  1.00  0.00     0.022 A 
ENDBRANCH  81  84
BRANCH  82  92
ATOM     92  N   UNL A   1      30.766  24.693  26.347  1.00  0.00     0.062 N 
ATOM     93  O   UNL A   1      30.777  23.843  27.248  1.00  0.00    -0.258 OA
ATOM     94  O   UNL A   1      29.874  25.537  26.186  1.00  0.00    -0.258 OA
ENDBRANCH  82  92
ENDBRANCH  75  78
ENDBRANCH  73  74
ENDBRANCH  72  73
ENDBRANCH  71  72
ENDBRANCH   1  71
TORSDOF 16
ENDMDL
MODEL 3
REMARK VINA RESULT:     -12.0      4.891      7.472
REMARK SMILES O=C(NCCCCNC(=O)c1cc(-c2cc(Cl)ccc2Cl)cc([N+](=O)[O-])c1)c1ccc(-c2c3nc(c(-c4cc(S(=O)(=O)[O-])ccc4F)c4ccc([nH]4)c(-c4cc(S(=O)(=O)[O-])ccc4F)c4nc(c(-c5cc(S(=O)(=O)[O-])ccc5F)c5ccc2[nH]5)C=C4)C=C3)cc1
REMARK SMILES IDX 4 1 3 2 1 3 2 4 28 6 29 7 90 8 30 9 89 10 31 11 32 12 33 13
REMARK SMILES IDX 83 14 34 15 88 16 82 17 84 18 35 19 87 20 81 21 80 22 36 24
REMARK SMILES IDX 68 25 48 26 67 27 49 28 52 29 66 30 85 31 50 32 51 33 65 35
REMARK SMILES IDX 86 36 53 37 37 38 38 39 46 40 39 41 45 42 47 43 44 44 40 45
REMARK SMILES IDX 41 46 42 47 43 48 69 49 70 50 78 51 71 52 77 53 79 54 76 55
REMARK SMILES IDX 72 56 73 57 74 58 75 59 54 60 55 61 63 62 56 63 62 64 64 65
REMARK SMILES IDX 61 66 57 67 58 68 59 69 60 70 5 71 6 72 7 73 8 74 9 75 10 77
REMARK SMILES IDX 11 78 12 79 27 80 13 81 23 82 22 83 14 84 15 85 20 86 16 87
REMARK SMILES IDX 19 88 21 89 17 90 18 91 24 92 25 93 26 94
REMARK H PARENT 3 5 84 23 52 34 8 76
REMARK Flexibility Score: inf
ROOT
ATOM      1  C   UNL A   1      33.212  29.228  25.448  1.00  0.00     0.116 C 
ENDROOT
BRANCH   1   2
ATOM      2  N   UNL A   1      32.704  30.517  25.901  1.00  0.00    -0.352 N 
ATOM      3  O   UNL A   1      32.535  32.317  27.250  1.00  0.00    -0.269 OA
ATOM      4  C   UNL A   1      33.175  31.324  26.908  1.00  0.00     0.251 C 
ATOM      5  H   UNL A   1      31.915  30.855  25.419  1.00  0.00     0.163 HD
BRANCH   4   6
ATOM      6  C   UNL A   1      34.439  30.977  27.592  1.00  0.00     0.039 A 
ATOM      7  C   UNL A   1      34.619  29.701  28.132  1.00  0.00     0.014 A 
ATOM      8  C   UNL A   1      35.443  31.941  27.714  1.00  0.00     0.014 A 
ATOM      9  C   UNL A   1      35.731  29.440  28.924  1.00  0.00     0.010 A 
ATOM     10  C   UNL A   1      36.605  31.643  28.432  1.00  0.00     0.010 A 
ATOM     11  C   UNL A   1      36.746  30.399  29.068  1.00  0.00    -0.014 A 
BRANCH  11  12
ATOM     12  C   UNL A   1      37.971  30.046  29.831  1.00  0.00     0.031 A 
ATOM     13  C   UNL A   1      39.024  29.146  29.246  1.00  0.00     0.074 A 
ATOM     14  C   UNL A   1      38.134  30.577  31.059  1.00  0.00     0.049 A 
ATOM     15  N   UNL A   1      40.148  28.740  29.779  1.00  0.00    -0.248 NA
ATOM     16  C   UNL A   1      38.783  28.627  27.891  1.00  0.00     0.031 C 
ATOM     17  C   UNL A   1      37.172  31.462  31.725  1.00  0.00     0.029 A 
ATOM     18  N   UNL A   1      39.161  30.472  31.960  1.00  0.00    -0.354 N 
ATOM     19  C   UNL A   1      40.743  27.907  28.838  1.00  0.00     0.074 A 
ATOM     20  C   UNL A   1      39.839  27.844  27.708  1.00  0.00     0.031 C 
ATOM     21  C   UNL A   1      37.676  31.853  32.904  1.00  0.00     0.029 A 
ATOM     22  C   UNL A   1      38.955  31.189  33.116  1.00  0.00     0.049 A 
ATOM     23  H   UNL A   1      39.971  29.936  31.795  1.00  0.00     0.167 HD
ATOM     24  C   UNL A   1      41.933  27.260  28.913  1.00  0.00     0.034 A 
ATOM     25  C   UNL A   1      39.696  31.280  34.237  1.00  0.00     0.034 A 
ATOM     26  C   UNL A   1      42.824  27.343  30.049  1.00  0.00     0.049 A 
ATOM     27  C   UNL A   1      40.992  30.519  34.306  1.00  0.00     0.074 A 
ATOM     28  C   UNL A   1      44.068  26.758  30.212  1.00  0.00     0.029 A 
ATOM     29  N   UNL A   1      42.563  28.045  31.218  1.00  0.00    -0.354 N 
ATOM     30  N   UNL A   1      41.547  29.751  33.396  1.00  0.00    -0.248 NA
ATOM     31  C   UNL A   1      41.763  30.640  35.548  1.00  0.00     0.031 C 
ATOM     32  C   UNL A   1      44.527  27.047  31.502  1.00  0.00     0.029 A 
ATOM     33  C   UNL A   1      43.607  27.879  32.119  1.00  0.00     0.049 A 
ATOM     34  H   UNL A   1      41.756  28.583  31.385  1.00  0.00     0.167 HD
ATOM     35  C   UNL A   1      42.744  29.314  33.952  1.00  0.00     0.074 A 
ATOM     36  C   UNL A   1      42.841  29.925  35.263  1.00  0.00     0.031 C 
ATOM     37  C   UNL A   1      43.680  28.483  33.428  1.00  0.00     0.034 A 
BRANCH  24  38
ATOM     38  C   UNL A   1      42.325  26.369  27.758  1.00  0.00     0.023 A 
ATOM     39  C   UNL A   1      42.118  24.979  27.783  1.00  0.00     0.031 A 
ATOM     40  C   UNL A   1      42.905  26.927  26.603  1.00  0.00     0.131 A 
ATOM     41  C   UNL A   1      42.531  24.190  26.699  1.00  0.00     0.055 A 
ATOM     42  C   UNL A   1      43.251  26.144  25.500  1.00  0.00     0.041 A 
ATOM     43  F   UNL A   1      43.146  28.245  26.528  1.00  0.00    -0.206 F 
ATOM     44  C   UNL A   1      43.075  24.765  25.547  1.00  0.00     0.022 A 
BRANCH  41  45
ATOM     45  S   UNL A   1      42.452  22.384  26.857  1.00  0.00     0.124 S 
ATOM     46  O   UNL A   1      41.407  22.047  25.892  1.00  0.00    -0.237 OA
ATOM     47  O   UNL A   1      43.806  21.976  26.500  1.00  0.00    -0.237 OA
ATOM     48  O   UNL A   1      42.087  22.176  28.257  1.00  0.00    -0.744 OA
ENDBRANCH  41  45
ENDBRANCH  24  38
BRANCH  25  49
ATOM     49  C   UNL A   1      39.212  32.082  35.396  1.00  0.00     0.023 A 
ATOM     50  C   UNL A   1      39.649  33.399  35.601  1.00  0.00     0.031 A 
ATOM     51  C   UNL A   1      38.331  31.525  36.342  1.00  0.00     0.131 A 
ATOM     52  C   UNL A   1      39.244  34.098  36.749  1.00  0.00     0.055 A 
ATOM     53  C   UNL A   1      37.883  32.246  37.448  1.00  0.00     0.041 A 
ATOM     54  F   UNL A   1      37.880  30.268  36.193  1.00  0.00    -0.206 F 
ATOM     55  C   UNL A   1      38.353  33.536  37.665  1.00  0.00     0.022 A 
BRANCH  52  56
ATOM     56  S   UNL A   1      39.984  35.720  37.080  1.00  0.00     0.124 S 
ATOM     57  O   UNL A   1      39.653  36.453  35.863  1.00  0.00    -0.237 OA
ATOM     58  O   UNL A   1      39.279  36.132  38.288  1.00  0.00    -0.237 OA
ATOM     59  O   UNL A   1      41.402  35.416  37.260  1.00  0.00    -0.744 OA
ENDBRANCH  52  56
ENDBRANCH  25  49
BRANCH  37  60
ATOM     60  C   UNL A   1      44.904  28.227  34.270  1.00  0.00     0.023 A 
ATOM     61  C   UNL A   1      44.971  27.146  35.167  1.00  0.00     0.031 A 
ATOM     62  C   UNL A   1      46.008  29.094  34.197  1.00  0.00     0.131 A 
ATOM     63  C   UNL A   1      46.089  26.997  36.000  1.00  0.00     0.055 A 
ATOM     64  C   UNL A   1      47.145  28.905  34.983  1.00  0.00     0.041 A 
ATOM     65  F   UNL A   1      45.997  30.144  33.360  1.00  0.00    -0.206 F 
ATOM     66  C   UNL A   1      47.183  27.861  35.902  1.00  0.00     0.022 A 
BRANCH  63  67
ATOM     67  S   UNL A   1      46.055  25.716  37.284  1.00  0.00     0.124 S 
ATOM     68  O   UNL A   1      46.058  24.492  36.490  1.00  0.00    -0.237 OA
ATOM     69  O   UNL A   1      47.276  25.993  38.033  1.00  0.00    -0.237 OA
ATOM     70  O   UNL A   1      44.812  25.985  38.005  1.00  0.00    -0.744 OA
ENDBRANCH  63  67
ENDBRANCH  37  60
ENDBRANCH  11  12
ENDBRANCH   4   6
ENDBRANCH   1   2
BRANCH   1  71
ATOM     71  C   UNL A   1      32.149  28.375  24.772  1.00  0.00     0.023 C 
BRANCH  71  72
ATOM     72  C   UNL A   1      32.127  28.448  23.247  1.00  0.00     0.023 C 
BRANCH  72  73
ATOM     73  C   UNL A   1      31.084  27.569  22.568  1.00  0.00     0.116 C 
BRANCH  73  74
ATOM     74  N   UNL A   1      31.660  26.640  21.609  1.00  0.00    -0.352 N 
ATOM     75  C   UNL A   1      32.377  25.493  21.826  1.00  0.00     0.251 C 
ATOM     76  H   UNL A   1      31.513  26.870  20.664  1.00  0.00     0.163 HD
ATOM     77  O   UNL A   1      32.903  24.897  20.887  1.00  0.00    -0.269 OA
BRANCH  75  78
ATOM     78  C   UNL A   1      32.553  24.968  23.195  1.00  0.00     0.047 A 
ATOM     79  C   UNL A   1      33.805  24.453  23.554  1.00  0.00     0.023 A 
ATOM     80  C   UNL A   1      31.489  24.928  24.098  1.00  0.00     0.099 A 
ATOM     81  C   UNL A   1      34.033  23.944  24.843  1.00  0.00    -0.009 A 
ATOM     82  C   UNL A   1      31.724  24.490  25.401  1.00  0.00     0.270 A 
ATOM     83  C   UNL A   1      32.990  24.018  25.782  1.00  0.00     0.094 A 
BRANCH  81  84
ATOM     84  C   UNL A   1      35.313  23.296  25.176  1.00  0.00     0.002 A 
ATOM     85  C   UNL A   1      36.391  24.071  25.647  1.00  0.00     0.030 A 
ATOM     86  C   UNL A   1      35.525  21.910  24.999  1.00  0.00     0.048 A 
ATOM     87  C   UNL A   1      37.625  23.482  25.928  1.00  0.00     0.041 A 
ATOM     88  C   UNL A   1      36.764  21.327  25.289  1.00  0.00     0.023 A 
ATOM     89  Cl  UNL A   1      34.297  20.859  24.376  1.00  0.00    -0.084 Cl
ATOM     90  Cl  UNL A   1      38.929  24.453  26.492  1.00  0.00    -0.084 Cl
ATOM     91  C   UNL A   1      37.816  22.115  25.752  1.00  0.00     0.022 A 
ENDBRANCH  81  84
BRANCH  82  92
ATOM     92  N   UNL A   1      30.632  24.523  26.381  1.00  0.00     0.062 N 
ATOM     93  O   UNL A   1      30.611  23.641  27.251  1.00  0.00    -0.258 OA
ATOM     94  O   UNL A   1      29.808  25.443  26.291  1.00  0.00    -0.258 OA
ENDBRANCH  82  92
ENDBRANCH  75  78
ENDBRANCH  73  74
ENDBRANCH  72  73
ENDBRANCH  71  72
ENDBRANCH   1  71
TORSDOF 16
ENDMDL
