MODEL 1
REMARK VINA RESULT:     -12.3      0.000      0.000
REMARK SMILES Nc1ncc(C(=O)NCCCCNC(=O)c2ccc(-c3c4nc(c(-c5cc(S(=O)(=O)[O-])ccc5F)c5ccc([nH]5)c(-c5cc(S(=O)(=O)[O-])ccc5F)c5nc(c(-c6cc(S(=O)(=O)[O-])ccc6F)c6ccc3[nH]6)C=C5)C=C4)cc2)c(-c2ccccc2)n1
REMARK SMILES IDX 11 1 10 2 9 3 8 4 6 5 7 6 5 8 2 9 3 10 86 11 4 12 79 13 1 14
REMARK SMILES IDX 80 17 81 18 85 19 82 20 84 21 83 22 12 23 13 24 14 25 15 27
REMARK SMILES IDX 16 28 17 29 78 30 18 31 77 32 19 33 20 34 21 35 71 36 22 37
REMARK SMILES IDX 76 38 70 39 72 40 23 41 75 42 69 43 68 44 24 46 56 47 36 48
REMARK SMILES IDX 55 49 37 50 40 51 54 52 73 53 38 54 39 55 53 57 74 58 41 59
REMARK SMILES IDX 25 60 26 61 34 62 27 63 33 64 35 65 32 66 28 67 29 68 30 69
REMARK SMILES IDX 31 70 57 71 58 72 66 73 59 74 65 75 67 76 64 77 60 78 61 79
REMARK SMILES IDX 62 80 63 81 42 82 43 83 51 84 44 85 50 86 52 87 49 88 45 89
REMARK SMILES IDX 46 90 47 91 48 92
REMARK H PARENT 8 7 1 15 1 16 13 26 72 45 40 56
REMARK Flexibility Score: inf
ROOT
ATOM      1  C   UNL A   1      32.225  30.697  26.683  1.00  0.00     0.023 C 
ENDROOT
BRANCH   1   2
ATOM      2  C   UNL A   1      32.057  29.360  27.405  1.00  0.00     0.023 C 
BRANCH   2   3
ATOM      3  C   UNL A   1      32.166  28.098  26.563  1.00  0.00     0.116 C 
BRANCH   3   4
ATOM      4  N   UNL A   1      31.091  27.145  26.678  1.00  0.00    -0.352 N 
ATOM      5  C   UNL A   1      30.568  26.287  25.740  1.00  0.00     0.255 C 
ATOM      6  O   UNL A   1      29.688  25.509  26.120  1.00  0.00    -0.269 OA
ATOM      7  H   UNL A   1      30.666  27.102  27.565  1.00  0.00     0.163 HD
BRANCH   5   8
ATOM      8  C   UNL A   1      30.899  26.281  24.292  1.00  0.00     0.084 A 
ATOM      9  C   UNL A   1      31.802  25.951  21.724  1.00  0.00     0.220 A 
ATOM     10  N   UNL A   1      32.268  25.116  22.646  1.00  0.00    -0.221 NA
ATOM     11  N   UNL A   1      30.941  26.933  21.973  1.00  0.00    -0.212 NA
ATOM     12  C   UNL A   1      31.810  25.307  23.906  1.00  0.00     0.131 A 
ATOM     13  C   UNL A   1      30.503  27.110  23.254  1.00  0.00     0.089 A 
BRANCH   9  14
ATOM     14  N   UNL A   1      32.228  25.798  20.439  1.00  0.00    -0.368 N 
ATOM     15  H   UNL A   1      33.090  26.183  20.157  1.00  0.00     0.159 HD
ATOM     16  H   UNL A   1      31.675  25.303  19.793  1.00  0.00     0.159 HD
ENDBRANCH   9  14
BRANCH  13  17
ATOM     17  C   UNL A   1      29.583  28.250  23.336  1.00  0.00     0.001 A 
ATOM     18  C   UNL A   1      28.198  28.118  23.162  1.00  0.00     0.010 A 
ATOM     19  C   UNL A   1      30.103  29.536  23.601  1.00  0.00     0.010 A 
ATOM     20  C   UNL A   1      27.371  29.248  23.185  1.00  0.00     0.001 A 
ATOM     21  C   UNL A   1      29.281  30.662  23.603  1.00  0.00     0.001 A 
ATOM     22  C   UNL A   1      27.915  30.518  23.386  1.00  0.00     0.000 A 
ENDBRANCH  13  17
ENDBRANCH   5   8
ENDBRANCH   3   4
ENDBRANCH   2   3
ENDBRANCH   1   2
BRANCH   1  23
ATOM     23  C   UNL A   1      33.244  31.686  27.246  1.00  0.00     0.116 C 
BRANCH  23  24
ATOM     24  N   UNL A   1      32.728  33.025  27.487  1.00  0.00    -0.352 N 
ATOM     25  C   UNL A   1      33.156  34.025  28.339  1.00  0.00     0.251 C 
ATOM     26  H   UNL A   1      31.937  33.259  26.951  1.00  0.00     0.163 HD
ATOM     27  O   UNL A   1      32.544  35.079  28.386  1.00  0.00    -0.269 OA
BRANCH  25  28
ATOM     28  C   UNL A   1      34.318  33.794  29.233  1.00  0.00     0.039 A 
ATOM     29  C   UNL A   1      34.130  33.042  30.397  1.00  0.00     0.014 A 
ATOM     30  C   UNL A   1      35.588  34.271  28.911  1.00  0.00     0.014 A 
ATOM     31  C   UNL A   1      35.237  32.660  31.163  1.00  0.00     0.010 A 
ATOM     32  C   UNL A   1      36.694  33.814  29.620  1.00  0.00     0.010 A 
ATOM     33  C   UNL A   1      36.536  32.982  30.739  1.00  0.00    -0.014 A 
BRANCH  33  34
ATOM     34  C   UNL A   1      37.743  32.433  31.419  1.00  0.00     0.031 A 
ATOM     35  C   UNL A   1      38.514  31.302  30.794  1.00  0.00     0.074 A 
ATOM     36  C   UNL A   1      38.074  32.874  32.651  1.00  0.00     0.049 A 
ATOM     37  N   UNL A   1      39.486  30.583  31.293  1.00  0.00    -0.248 NA
ATOM     38  C   UNL A   1      38.102  30.901  29.441  1.00  0.00     0.031 C 
ATOM     39  C   UNL A   1      37.373  33.929  33.391  1.00  0.00     0.029 A 
ATOM     40  N   UNL A   1      39.072  32.482  33.508  1.00  0.00    -0.354 N 
ATOM     41  C   UNL A   1      39.780  29.623  30.330  1.00  0.00     0.074 A 
ATOM     42  C   UNL A   1      38.842  29.819  29.245  1.00  0.00     0.031 C 
ATOM     43  C   UNL A   1      37.976  34.113  34.575  1.00  0.00     0.029 A 
ATOM     44  C   UNL A   1      39.073  33.161  34.707  1.00  0.00     0.049 A 
ATOM     45  H   UNL A   1      39.727  31.781  33.287  1.00  0.00     0.167 HD
ATOM     46  C   UNL A   1      40.754  28.677  30.342  1.00  0.00     0.034 A 
ATOM     47  C   UNL A   1      39.857  33.021  35.796  1.00  0.00     0.034 A 
ATOM     48  C   UNL A   1      41.701  28.515  31.420  1.00  0.00     0.049 A 
ATOM     49  C   UNL A   1      40.942  31.976  35.781  1.00  0.00     0.074 A 
ATOM     50  C   UNL A   1      42.769  27.640  31.507  1.00  0.00     0.029 A 
ATOM     51  N   UNL A   1      41.692  29.246  32.602  1.00  0.00    -0.354 N 
ATOM     52  N   UNL A   1      41.237  31.105  34.843  1.00  0.00    -0.248 NA
ATOM     53  C   UNL A   1      41.804  31.900  36.966  1.00  0.00     0.031 C 
ATOM     54  C   UNL A   1      43.370  27.802  32.761  1.00  0.00     0.029 A 
ATOM     55  C   UNL A   1      42.721  28.827  33.431  1.00  0.00     0.049 A 
ATOM     56  H   UNL A   1      41.048  29.960  32.819  1.00  0.00     0.167 HD
ATOM     57  C   UNL A   1      42.338  30.399  35.314  1.00  0.00     0.074 A 
ATOM     58  C   UNL A   1      42.662  30.954  36.613  1.00  0.00     0.031 C 
ATOM     59  C   UNL A   1      43.025  29.386  34.727  1.00  0.00     0.034 A 
BRANCH  46  60
ATOM     60  C   UNL A   1      40.823  27.738  29.160  1.00  0.00     0.023 A 
ATOM     61  C   UNL A   1      41.754  27.922  28.123  1.00  0.00     0.031 A 
ATOM     62  C   UNL A   1      39.917  26.668  29.044  1.00  0.00     0.131 A 
ATOM     63  C   UNL A   1      41.700  27.114  26.978  1.00  0.00     0.055 A 
ATOM     64  C   UNL A   1      39.926  25.810  27.942  1.00  0.00     0.041 A 
ATOM     65  F   UNL A   1      38.992  26.449  29.992  1.00  0.00    -0.206 F 
ATOM     66  C   UNL A   1      40.809  26.042  26.892  1.00  0.00     0.022 A 
BRANCH  63  67
ATOM     67  S   UNL A   1      42.700  27.585  25.541  1.00  0.00     0.124 S 
ATOM     68  O   UNL A   1      42.536  26.421  24.674  1.00  0.00    -0.237 OA
ATOM     69  O   UNL A   1      42.051  28.812  25.092  1.00  0.00    -0.237 OA
ATOM     70  O   UNL A   1      44.041  27.755  26.097  1.00  0.00    -0.744 OA
ENDBRANCH  63  67
ENDBRANCH  46  60
BRANCH  47  71
ATOM     71  C   UNL A   1      39.652  33.886  36.992  1.00  0.00     0.023 A 
ATOM     72  C   UNL A   1      39.046  33.378  38.152  1.00  0.00     0.031 A 
ATOM     73  C   UNL A   1      40.024  35.242  36.983  1.00  0.00     0.131 A 
ATOM     74  C   UNL A   1      38.790  34.227  39.239  1.00  0.00     0.055 A 
ATOM     75  C   UNL A   1      39.811  36.072  38.086  1.00  0.00     0.041 A 
ATOM     76  F   UNL A   1      40.614  35.777  35.903  1.00  0.00    -0.206 F 
ATOM     77  C   UNL A   1      39.179  35.568  39.219  1.00  0.00     0.022 A 
BRANCH  74  78
ATOM     78  S   UNL A   1      37.871  33.570  40.659  1.00  0.00     0.124 S 
ATOM     79  O   UNL A   1      38.834  32.633  41.228  1.00  0.00    -0.237 OA
ATOM     80  O   UNL A   1      37.614  34.777  41.437  1.00  0.00    -0.237 OA
ATOM     81  O   UNL A   1      36.692  32.961  40.048  1.00  0.00    -0.744 OA
ENDBRANCH  74  78
ENDBRANCH  47  71
BRANCH  59  82
ATOM     82  C   UNL A   1      44.224  28.852  35.470  1.00  0.00     0.023 A 
ATOM     83  C   UNL A   1      44.114  27.794  36.388  1.00  0.00     0.031 A 
ATOM     84  C   UNL A   1      45.492  29.425  35.265  1.00  0.00     0.131 A 
ATOM     85  C   UNL A   1      45.245  27.375  37.107  1.00  0.00     0.055 A 
ATOM     86  C   UNL A   1      46.623  28.967  35.941  1.00  0.00     0.041 A 
ATOM     87  F   UNL A   1      45.651  30.441  34.401  1.00  0.00    -0.206 F 
ATOM     88  C   UNL A   1      46.500  27.944  36.878  1.00  0.00     0.022 A 
BRANCH  85  89
ATOM     89  S   UNL A   1      45.036  26.130  38.410  1.00  0.00     0.124 S 
ATOM     90  O   UNL A   1      46.410  25.692  38.634  1.00  0.00    -0.237 OA
ATOM     91  O   UNL A   1      44.430  26.906  39.487  1.00  0.00    -0.237 OA
ATOM     92  O   UNL A   1      44.161  25.134  37.796  1.00  0.00    -0.744 OA
ENDBRANCH  85  89
ENDBRANCH  59  82
ENDBRANCH  33  34
ENDBRANCH  25  28
ENDBRANCH  23  24
ENDBRANCH   1  23
TORSDOF 16
ENDMDL
MODEL 2
REMARK VINA RESULT:     -12.3      2.111      2.604
REMARK SMILES Nc1ncc(C(=O)NCCCCNC(=O)c2ccc(-c3c4nc(c(-c5cc(S(=O)(=O)[O-])ccc5F)c5ccc([nH]5)c(-c5cc(S(=O)(=O)[O-])ccc5F)c5nc(c(-c6cc(S(=O)(=O)[O-])ccc6F)c6ccc3[nH]6)C=C5)C=C4)cc2)c(-c2ccccc2)n1
REMARK SMILES IDX 11 1 10 2 9 3 8 4 6 5 7 6 5 8 2 9 3 10 86 11 4 12 79 13 1 14
REMARK SMILES IDX 80 17 81 18 85 19 82 20 84 21 83 22 12 23 13 24 14 25 15 27
REMARK SMILES IDX 16 28 17 29 78 30 18 31 77 32 19 33 20 34 21 35 71 36 22 37
REMARK SMILES IDX 76 38 70 39 72 40 23 41 75 42 69 43 68 44 24 46 56 47 36 48
REMARK SMILES IDX 55 49 37 50 40 51 54 52 73 53 38 54 39 55 53 57 74 58 41 59
REMARK SMILES IDX 25 60 26 61 34 62 27 63 33 64 35 65 32 66 28 67 29 68 30 69
REMARK SMILES IDX 31 70 57 71 58 72 66 73 59 74 65 75 67 76 64 77 60 78 61 79
REMARK SMILES IDX 62 80 63 81 42 82 43 83 51 84 44 85 50 86 52 87 49 88 45 89
REMARK SMILES IDX 46 90 47 91 48 92
REMARK H PARENT 8 7 1 15 1 16 13 26 72 45 40 56
REMARK Flexibility Score: inf
ROOT
ATOM      1  C   UNL A   1      32.168  30.075  25.405  1.00  0.00     0.023 C 
ENDROOT
BRANCH   1   2
ATOM      2  C   UNL A   1      32.986  28.808  25.155  1.00  0.00     0.023 C 
BRANCH   2   3
ATOM      3  C   UNL A   1      32.871  27.694  26.185  1.00  0.00     0.116 C 
BRANCH   3   4
ATOM      4  N   UNL A   1      31.580  27.065  26.321  1.00  0.00    -0.352 N 
ATOM      5  C   UNL A   1      30.826  26.389  25.392  1.00  0.00     0.255 C 
ATOM      6  O   UNL A   1      29.776  25.874  25.790  1.00  0.00    -0.269 OA
ATOM      7  H   UNL A   1      31.179  27.130  27.217  1.00  0.00     0.163 HD
BRANCH   5   8
ATOM      8  C   UNL A   1      31.113  26.307  23.937  1.00  0.00     0.084 A 
ATOM      9  C   UNL A   1      31.958  25.865  21.366  1.00  0.00     0.220 A 
ATOM     10  N   UNL A   1      32.508  25.127  22.324  1.00  0.00    -0.221 NA
ATOM     11  N   UNL A   1      31.039  26.802  21.581  1.00  0.00    -0.212 NA
ATOM     12  C   UNL A   1      32.076  25.372  23.585  1.00  0.00     0.131 A 
ATOM     13  C   UNL A   1      30.630  27.036  22.862  1.00  0.00     0.089 A 
BRANCH   9  14
ATOM     14  N   UNL A   1      32.354  25.654  20.081  1.00  0.00    -0.368 N 
ATOM     15  H   UNL A   1      32.166  26.330  19.390  1.00  0.00     0.159 HD
ATOM     16  H   UNL A   1      32.829  24.826  19.841  1.00  0.00     0.159 HD
ENDBRANCH   9  14
BRANCH  13  17
ATOM     17  C   UNL A   1      29.636  28.115  22.900  1.00  0.00     0.001 A 
ATOM     18  C   UNL A   1      28.284  27.888  23.197  1.00  0.00     0.010 A 
ATOM     19  C   UNL A   1      30.048  29.439  22.631  1.00  0.00     0.010 A 
ATOM     20  C   UNL A   1      27.364  28.944  23.157  1.00  0.00     0.001 A 
ATOM     21  C   UNL A   1      29.127  30.484  22.570  1.00  0.00     0.001 A 
ATOM     22  C   UNL A   1      27.783  30.234  22.826  1.00  0.00     0.000 A 
ENDBRANCH  13  17
ENDBRANCH   5   8
ENDBRANCH   3   4
ENDBRANCH   2   3
ENDBRANCH   1   2
BRANCH   1  23
ATOM     23  C   UNL A   1      31.950  30.506  26.854  1.00  0.00     0.116 C 
BRANCH  23  24
ATOM     24  N   UNL A   1      31.914  31.946  27.065  1.00  0.00    -0.352 N 
ATOM     25  C   UNL A   1      32.880  32.822  27.521  1.00  0.00     0.251 C 
ATOM     26  H   UNL A   1      31.053  32.368  26.844  1.00  0.00     0.163 HD
ATOM     27  O   UNL A   1      32.613  34.007  27.636  1.00  0.00    -0.269 OA
BRANCH  25  28
ATOM     28  C   UNL A   1      34.215  32.315  27.924  1.00  0.00     0.039 A 
ATOM     29  C   UNL A   1      35.269  33.224  28.050  1.00  0.00     0.014 A 
ATOM     30  C   UNL A   1      34.420  30.968  28.219  1.00  0.00     0.014 A 
ATOM     31  C   UNL A   1      36.487  32.805  28.597  1.00  0.00     0.010 A 
ATOM     32  C   UNL A   1      35.597  30.573  28.848  1.00  0.00     0.010 A 
ATOM     33  C   UNL A   1      36.635  31.491  29.068  1.00  0.00    -0.014 A 
BRANCH  33  34
ATOM     34  C   UNL A   1      37.843  31.060  29.828  1.00  0.00     0.031 A 
ATOM     35  C   UNL A   1      38.785  30.046  29.238  1.00  0.00     0.074 A 
ATOM     36  C   UNL A   1      38.026  31.494  31.093  1.00  0.00     0.049 A 
ATOM     37  N   UNL A   1      39.793  29.425  29.795  1.00  0.00    -0.248 NA
ATOM     38  C   UNL A   1      38.526  29.646  27.847  1.00  0.00     0.031 C 
ATOM     39  C   UNL A   1      37.154  32.436  31.801  1.00  0.00     0.029 A 
ATOM     40  N   UNL A   1      38.994  31.188  32.017  1.00  0.00    -0.354 N 
ATOM     41  C   UNL A   1      40.269  28.537  28.835  1.00  0.00     0.074 A 
ATOM     42  C   UNL A   1      39.400  28.663  27.683  1.00  0.00     0.031 C 
ATOM     43  C   UNL A   1      37.639  32.646  33.034  1.00  0.00     0.029 A 
ATOM     44  C   UNL A   1      38.826  31.821  33.229  1.00  0.00     0.049 A 
ATOM     45  H   UNL A   1      39.741  30.573  31.831  1.00  0.00     0.167 HD
ATOM     46  C   UNL A   1      41.342  27.709  28.900  1.00  0.00     0.034 A 
ATOM     47  C   UNL A   1      39.535  31.734  34.372  1.00  0.00     0.034 A 
ATOM     48  C   UNL A   1      42.216  27.618  30.045  1.00  0.00     0.049 A 
ATOM     49  C   UNL A   1      40.732  30.820  34.417  1.00  0.00     0.074 A 
ATOM     50  C   UNL A   1      43.369  26.867  30.195  1.00  0.00     0.029 A 
ATOM     51  N   UNL A   1      42.032  28.303  31.241  1.00  0.00    -0.354 N 
ATOM     52  N   UNL A   1      41.196  30.020  33.484  1.00  0.00    -0.248 NA
ATOM     53  C   UNL A   1      41.504  30.802  35.666  1.00  0.00     0.031 C 
ATOM     54  C   UNL A   1      43.849  27.054  31.496  1.00  0.00     0.029 A 
ATOM     55  C   UNL A   1      43.037  27.975  32.138  1.00  0.00     0.049 A 
ATOM     56  H   UNL A   1      41.296  28.931  31.423  1.00  0.00     0.167 HD
ATOM     57  C   UNL A   1      42.333  29.428  34.024  1.00  0.00     0.074 A 
ATOM     58  C   UNL A   1      42.490  29.972  35.358  1.00  0.00     0.031 C 
ATOM     59  C   UNL A   1      43.175  28.520  33.468  1.00  0.00     0.034 A 
BRANCH  46  60
ATOM     60  C   UNL A   1      41.608  26.824  27.704  1.00  0.00     0.023 A 
ATOM     61  C   UNL A   1      41.193  25.482  27.670  1.00  0.00     0.031 A 
ATOM     62  C   UNL A   1      42.325  27.316  26.597  1.00  0.00     0.131 A 
ATOM     63  C   UNL A   1      41.575  24.654  26.604  1.00  0.00     0.055 A 
ATOM     64  C   UNL A   1      42.625  26.510  25.497  1.00  0.00     0.041 A 
ATOM     65  F   UNL A   1      42.764  28.585  26.575  1.00  0.00    -0.206 F 
ATOM     66  C   UNL A   1      42.267  25.166  25.504  1.00  0.00     0.022 A 
BRANCH  63  67
ATOM     67  S   UNL A   1      41.295  22.869  26.754  1.00  0.00     0.124 S 
ATOM     68  O   UNL A   1      39.837  22.795  26.697  1.00  0.00    -0.237 OA
ATOM     69  O   UNL A   1      42.007  22.339  25.597  1.00  0.00    -0.237 OA
ATOM     70  O   UNL A   1      41.878  22.538  28.053  1.00  0.00    -0.744 OA
ENDBRANCH  63  67
ENDBRANCH  46  60
BRANCH  47  71
ATOM     71  C   UNL A   1      39.141  32.529  35.570  1.00  0.00     0.023 A 
ATOM     72  C   UNL A   1      39.620  33.835  35.757  1.00  0.00     0.031 A 
ATOM     73  C   UNL A   1      38.308  31.984  36.564  1.00  0.00     0.131 A 
ATOM     74  C   UNL A   1      39.301  34.538  36.929  1.00  0.00     0.055 A 
ATOM     75  C   UNL A   1      37.954  32.705  37.706  1.00  0.00     0.041 A 
ATOM     76  F   UNL A   1      37.815  30.743  36.431  1.00  0.00    -0.206 F 
ATOM     77  C   UNL A   1      38.462  33.987  37.899  1.00  0.00     0.022 A 
BRANCH  74  78
ATOM     78  S   UNL A   1      40.062  36.162  37.202  1.00  0.00     0.124 S 
ATOM     79  O   UNL A   1      41.408  35.792  37.627  1.00  0.00    -0.237 OA
ATOM     80  O   UNL A   1      39.952  36.774  35.882  1.00  0.00    -0.237 OA
ATOM     81  O   UNL A   1      39.223  36.762  38.236  1.00  0.00    -0.744 OA
ENDBRANCH  74  78
ENDBRANCH  47  71
BRANCH  59  82
ATOM     82  C   UNL A   1      44.367  28.101  34.291  1.00  0.00     0.023 A 
ATOM     83  C   UNL A   1      44.319  26.992  35.153  1.00  0.00     0.031 A 
ATOM     84  C   UNL A   1      45.565  28.835  34.219  1.00  0.00     0.131 A 
ATOM     85  C   UNL A   1      45.431  26.680  35.949  1.00  0.00     0.055 A 
ATOM     86  C   UNL A   1      46.686  28.486  34.973  1.00  0.00     0.041 A 
ATOM     87  F   UNL A   1      45.664  29.905  33.414  1.00  0.00    -0.206 F 
ATOM     88  C   UNL A   1      46.618  27.410  35.853  1.00  0.00     0.022 A 
BRANCH  85  89
ATOM     89  S   UNL A   1      45.276  25.354  37.179  1.00  0.00     0.124 S 
ATOM     90  O   UNL A   1      46.571  25.410  37.850  1.00  0.00    -0.237 OA
ATOM     91  O   UNL A   1      44.129  25.793  37.967  1.00  0.00    -0.237 OA
ATOM     92  O   UNL A   1      45.050  24.160  36.368  1.00  0.00    -0.744 OA
ENDBRANCH  85  89
ENDBRANCH  59  82
ENDBRANCH  33  34
ENDBRANCH  25  28
ENDBRANCH  23  24
ENDBRANCH   1  23
TORSDOF 16
ENDMDL
MODEL 3
REMARK VINA RESULT:     -12.2      6.326     11.432
REMARK SMILES Nc1ncc(C(=O)NCCCCNC(=O)c2ccc(-c3c4nc(c(-c5cc(S(=O)(=O)[O-])ccc5F)c5ccc([nH]5)c(-c5cc(S(=O)(=O)[O-])ccc5F)c5nc(c(-c6cc(S(=O)(=O)[O-])ccc6F)c6ccc3[nH]6)C=C5)C=C4)cc2)c(-c2ccccc2)n1
REMARK SMILES IDX 11 1 10 2 9 3 8 4 6 5 7 6 5 8 2 9 3 10 86 11 4 12 79 13 1 14
REMARK SMILES IDX 80 17 81 18 85 19 82 20 84 21 83 22 12 23 13 24 14 25 15 27
REMARK SMILES IDX 16 28 17 29 78 30 18 31 77 32 19 33 20 34 21 35 71 36 22 37
REMARK SMILES IDX 76 38 70 39 72 40 23 41 75 42 69 43 68 44 24 46 56 47 36 48
REMARK SMILES IDX 55 49 37 50 40 51 54 52 73 53 38 54 39 55 53 57 74 58 41 59
REMARK SMILES IDX 25 60 26 61 34 62 27 63 33 64 35 65 32 66 28 67 29 68 30 69
REMARK SMILES IDX 31 70 57 71 58 72 66 73 59 74 65 75 67 76 64 77 60 78 61 79
REMARK SMILES IDX 62 80 63 81 42 82 43 83 51 84 44 85 50 86 52 87 49 88 45 89
REMARK SMILES IDX 46 90 47 91 48 92
REMARK H PARENT 8 7 1 15 1 16 13 26 72 45 40 56
REMARK Flexibility Score: inf
ROOT
ATOM      1  C   UNL A   1      37.099  21.120  24.287  1.00  0.00     0.023 C 
ENDROOT
BRANCH   1   2
ATOM      2  C   UNL A   1      36.979  22.621  24.021  1.00  0.00     0.023 C 
BRANCH   2   3
ATOM      3  C   UNL A   1      35.583  23.222  24.053  1.00  0.00     0.116 C 
BRANCH   3   4
ATOM      4  N   UNL A   1      34.793  23.099  22.853  1.00  0.00    -0.352 N 
ATOM      5  C   UNL A   1      33.441  22.904  22.703  1.00  0.00     0.255 C 
ATOM      6  O   UNL A   1      32.998  22.910  21.550  1.00  0.00    -0.269 OA
ATOM      7  H   UNL A   1      35.301  23.163  22.012  1.00  0.00     0.163 HD
BRANCH   5   8
ATOM      8  C   UNL A   1      32.484  22.593  23.795  1.00  0.00     0.084 A 
ATOM      9  C   UNL A   1      30.662  22.458  25.840  1.00  0.00     0.220 A 
ATOM     10  N   UNL A   1      30.904  23.654  25.317  1.00  0.00    -0.221 NA
ATOM     11  N   UNL A   1      31.254  21.335  25.441  1.00  0.00    -0.212 NA
ATOM     12  C   UNL A   1      31.813  23.692  24.313  1.00  0.00     0.131 A 
ATOM     13  C   UNL A   1      32.174  21.403  24.435  1.00  0.00     0.089 A 
BRANCH   9  14
ATOM     14  N   UNL A   1      29.751  22.365  26.848  1.00  0.00    -0.368 N 
ATOM     15  H   UNL A   1      29.167  23.130  27.056  1.00  0.00     0.159 HD
ATOM     16  H   UNL A   1      29.677  21.534  27.370  1.00  0.00     0.159 HD
ENDBRANCH   9  14
BRANCH  13  17
ATOM     17  C   UNL A   1      32.731  20.076  24.151  1.00  0.00     0.001 A 
ATOM     18  C   UNL A   1      33.836  19.556  24.842  1.00  0.00     0.010 A 
ATOM     19  C   UNL A   1      32.139  19.281  23.145  1.00  0.00     0.010 A 
ATOM     20  C   UNL A   1      34.370  18.310  24.488  1.00  0.00     0.001 A 
ATOM     21  C   UNL A   1      32.684  18.051  22.780  1.00  0.00     0.001 A 
ATOM     22  C   UNL A   1      33.806  17.570  23.447  1.00  0.00     0.000 A 
ENDBRANCH  13  17
ENDBRANCH   5   8
ENDBRANCH   3   4
ENDBRANCH   2   3
ENDBRANCH   1   2
BRANCH   1  23
ATOM     23  C   UNL A   1      37.585  20.678  25.666  1.00  0.00     0.116 C 
BRANCH  23  24
ATOM     24  N   UNL A   1      38.809  19.892  25.659  1.00  0.00    -0.352 N 
ATOM     25  C   UNL A   1      40.087  20.195  26.088  1.00  0.00     0.251 C 
ATOM     26  H   UNL A   1      38.710  18.987  25.284  1.00  0.00     0.163 HD
ATOM     27  O   UNL A   1      40.976  19.369  25.963  1.00  0.00    -0.269 OA
BRANCH  25  28
ATOM     28  C   UNL A   1      40.387  21.538  26.642  1.00  0.00     0.039 A 
ATOM     29  C   UNL A   1      41.222  21.633  27.759  1.00  0.00     0.014 A 
ATOM     30  C   UNL A   1      39.891  22.696  26.044  1.00  0.00     0.014 A 
ATOM     31  C   UNL A   1      41.663  22.888  28.193  1.00  0.00     0.010 A 
ATOM     32  C   UNL A   1      40.403  23.936  26.417  1.00  0.00     0.010 A 
ATOM     33  C   UNL A   1      41.314  24.046  27.479  1.00  0.00    -0.014 A 
BRANCH  33  34
ATOM     34  C   UNL A   1      41.915  25.373  27.791  1.00  0.00     0.031 A 
ATOM     35  C   UNL A   1      41.109  26.416  28.516  1.00  0.00     0.074 A 
ATOM     36  C   UNL A   1      43.143  25.678  27.320  1.00  0.00     0.049 A 
ATOM     37  N   UNL A   1      41.387  27.675  28.739  1.00  0.00    -0.248 NA
ATOM     38  C   UNL A   1      39.793  25.993  29.016  1.00  0.00     0.031 C 
ATOM     39  C   UNL A   1      44.006  24.773  26.555  1.00  0.00     0.029 A 
ATOM     40  N   UNL A   1      43.874  26.837  27.398  1.00  0.00    -0.354 N 
ATOM     41  C   UNL A   1      40.268  28.203  29.376  1.00  0.00     0.074 A 
ATOM     42  C   UNL A   1      39.289  27.140  29.448  1.00  0.00     0.031 C 
ATOM     43  C   UNL A   1      45.153  25.403  26.256  1.00  0.00     0.029 A 
ATOM     44  C   UNL A   1      45.093  26.770  26.761  1.00  0.00     0.049 A 
ATOM     45  H   UNL A   1      43.556  27.643  27.867  1.00  0.00     0.167 HD
ATOM     46  C   UNL A   1      40.082  29.453  29.871  1.00  0.00     0.034 A 
ATOM     47  C   UNL A   1      46.048  27.707  26.587  1.00  0.00     0.034 A 
ATOM     48  C   UNL A   1      41.082  30.493  29.817  1.00  0.00     0.049 A 
ATOM     49  C   UNL A   1      45.827  29.083  27.158  1.00  0.00     0.074 A 
ATOM     50  C   UNL A   1      41.030  31.771  30.346  1.00  0.00     0.029 A 
ATOM     51  N   UNL A   1      42.319  30.374  29.194  1.00  0.00    -0.354 N 
ATOM     52  N   UNL A   1      44.781  29.554  27.798  1.00  0.00    -0.248 NA
ATOM     53  C   UNL A   1      46.918  30.052  26.991  1.00  0.00     0.031 C 
ATOM     54  C   UNL A   1      42.208  32.441  29.996  1.00  0.00     0.029 A 
ATOM     55  C   UNL A   1      43.027  31.561  29.308  1.00  0.00     0.049 A 
ATOM     56  H   UNL A   1      42.646  29.564  28.740  1.00  0.00     0.167 HD
ATOM     57  C   UNL A   1      45.102  30.864  28.136  1.00  0.00     0.074 A 
ATOM     58  C   UNL A   1      46.442  31.104  27.641  1.00  0.00     0.031 C 
ATOM     59  C   UNL A   1      44.360  31.786  28.801  1.00  0.00     0.034 A 
BRANCH  46  60
ATOM     60  C   UNL A   1      38.739  29.760  30.492  1.00  0.00     0.023 A 
ATOM     61  C   UNL A   1      37.736  30.442  29.782  1.00  0.00     0.031 A 
ATOM     62  C   UNL A   1      38.471  29.405  31.826  1.00  0.00     0.131 A 
ATOM     63  C   UNL A   1      36.555  30.829  30.432  1.00  0.00     0.055 A 
ATOM     64  C   UNL A   1      37.257  29.715  32.442  1.00  0.00     0.041 A 
ATOM     65  F   UNL A   1      39.395  28.768  32.564  1.00  0.00    -0.206 F 
ATOM     66  C   UNL A   1      36.297  30.447  31.751  1.00  0.00     0.022 A 
BRANCH  63  67
ATOM     67  S   UNL A   1      35.436  31.974  29.580  1.00  0.00     0.124 S 
ATOM     68  O   UNL A   1      34.530  32.358  30.659  1.00  0.00    -0.237 OA
ATOM     69  O   UNL A   1      36.345  33.012  29.109  1.00  0.00    -0.237 OA
ATOM     70  O   UNL A   1      34.833  31.149  28.534  1.00  0.00    -0.744 OA
ENDBRANCH  63  67
ENDBRANCH  46  60
BRANCH  47  71
ATOM     71  C   UNL A   1      47.297  27.385  25.841  1.00  0.00     0.023 A 
ATOM     72  C   UNL A   1      47.415  27.679  24.473  1.00  0.00     0.031 A 
ATOM     73  C   UNL A   1      48.379  26.747  26.474  1.00  0.00     0.131 A 
ATOM     74  C   UNL A   1      48.569  27.297  23.771  1.00  0.00     0.055 A 
ATOM     75  C   UNL A   1      49.545  26.412  25.781  1.00  0.00     0.041 A 
ATOM     76  F   UNL A   1      48.322  26.450  27.782  1.00  0.00    -0.206 F 
ATOM     77  C   UNL A   1      49.639  26.676  24.418  1.00  0.00     0.022 A 
BRANCH  74  78
ATOM     78  S   UNL A   1      48.620  27.558  21.977  1.00  0.00     0.124 S 
ATOM     79  O   UNL A   1      49.743  28.479  21.842  1.00  0.00    -0.237 OA
ATOM     80  O   UNL A   1      48.839  26.203  21.481  1.00  0.00    -0.237 OA
ATOM     81  O   UNL A   1      47.307  28.124  21.677  1.00  0.00    -0.744 OA
ENDBRANCH  74  78
ENDBRANCH  47  71
BRANCH  59  82
ATOM     82  C   UNL A   1      45.009  33.121  29.068  1.00  0.00     0.023 A 
ATOM     83  C   UNL A   1      45.095  34.115  28.078  1.00  0.00     0.031 A 
ATOM     84  C   UNL A   1      45.564  33.394  30.332  1.00  0.00     0.131 A 
ATOM     85  C   UNL A   1      45.767  35.316  28.352  1.00  0.00     0.055 A 
ATOM     86  C   UNL A   1      46.182  34.612  30.616  1.00  0.00     0.041 A 
ATOM     87  F   UNL A   1      45.511  32.478  31.313  1.00  0.00    -0.206 F 
ATOM     88  C   UNL A   1      46.297  35.576  29.618  1.00  0.00     0.022 A 
BRANCH  85  89
ATOM     89  S   UNL A   1      46.016  36.502  27.001  1.00  0.00     0.124 S 
ATOM     90  O   UNL A   1      44.899  37.422  27.197  1.00  0.00    -0.237 OA
ATOM     91  O   UNL A   1      47.341  37.035  27.295  1.00  0.00    -0.237 OA
ATOM     92  O   UNL A   1      45.933  35.674  25.800  1.00  0.00    -0.744 OA
ENDBRANCH  85  89
ENDBRANCH  59  82
ENDBRANCH  33  34
ENDBRANCH  25  28
ENDBRANCH  23  24
ENDBRANCH   1  23
TORSDOF 16
ENDMDL
