MODEL 1
REMARK VINA RESULT:     -13.2      0.000      0.000
REMARK SMILES O=C(NCCCCNC(=O)c1cc(F)c(F)cc1NS(=O)(=O)c1ccc2c(c1)CCC2)c1ccc(-c2c3nc(c(-c4cc(S(=O)(=O)[O-])ccc4F)c4ccc([nH]4)c(-c4cc(S(=O)(=O)[O-])ccc4F)c4nc(c(-c5cc(S(=O)(=O)[O-])ccc5F)c5ccc2[nH]5)C=C4)C=C3)cc1
REMARK SMILES IDX 5 1 4 2 3 3 1 4 2 5 32 7 33 8 94 9 34 10 93 11 35 12 36 13
REMARK SMILES IDX 37 14 87 15 38 16 92 17 86 18 88 19 39 20 91 21 85 22 84 23
REMARK SMILES IDX 40 25 72 26 52 27 71 28 53 29 56 30 70 31 89 32 54 33 55 34
REMARK SMILES IDX 69 36 90 37 57 38 41 39 42 40 50 41 43 42 49 43 51 44 48 45
REMARK SMILES IDX 44 46 45 47 46 48 47 49 73 50 74 51 82 52 75 53 81 54 83 55
REMARK SMILES IDX 80 56 76 57 77 58 78 59 79 60 58 61 59 62 67 63 60 64 66 65
REMARK SMILES IDX 68 66 65 67 61 68 62 69 63 70 64 71 6 72 7 73 8 74 9 75
REMARK SMILES IDX 10 77 11 78 12 79 18 80 13 81 17 82 14 83 15 84 16 85 19 86
REMARK SMILES IDX 20 88 21 89 22 90 23 91 24 92 28 93 25 94 27 95 26 96 29 97
REMARK SMILES IDX 31 98 30 99
REMARK H PARENT 3 6 88 24 56 35 8 76 19 87
REMARK Flexibility Score: inf
ROOT
ATOM      1  C   UNL A   1      35.484  22.291  24.455  1.00  0.00     0.023 C 
ENDROOT
BRANCH   1   2
ATOM      2  C   UNL A   1      36.271  22.016  25.729  1.00  0.00     0.116 C 
BRANCH   2   3
ATOM      3  N   UNL A   1      37.236  20.934  25.586  1.00  0.00    -0.352 N 
ATOM      4  O   UNL A   1      39.285  19.990  25.490  1.00  0.00    -0.269 OA
ATOM      5  C   UNL A   1      38.599  20.967  25.777  1.00  0.00     0.251 C 
ATOM      6  H   UNL A   1      36.863  20.063  25.317  1.00  0.00     0.163 HD
BRANCH   5   7
ATOM      7  C   UNL A   1      39.230  22.198  26.304  1.00  0.00     0.039 A 
ATOM      8  C   UNL A   1      38.815  23.449  25.847  1.00  0.00     0.014 A 
ATOM      9  C   UNL A   1      40.269  22.099  27.234  1.00  0.00     0.014 A 
ATOM     10  C   UNL A   1      39.546  24.579  26.185  1.00  0.00     0.010 A 
ATOM     11  C   UNL A   1      40.940  23.254  27.653  1.00  0.00     0.010 A 
ATOM     12  C   UNL A   1      40.608  24.501  27.103  1.00  0.00    -0.014 A 
BRANCH  12  13
ATOM     13  C   UNL A   1      41.297  25.760  27.498  1.00  0.00     0.031 A 
ATOM     14  C   UNL A   1      42.662  26.108  26.972  1.00  0.00     0.074 A 
ATOM     15  C   UNL A   1      40.629  26.627  28.285  1.00  0.00     0.049 A 
ATOM     16  N   UNL A   1      43.361  27.199  27.162  1.00  0.00    -0.248 NA
ATOM     17  C   UNL A   1      43.336  25.104  26.136  1.00  0.00     0.031 C 
ATOM     18  C   UNL A   1      39.304  26.382  28.867  1.00  0.00     0.029 A 
ATOM     19  N   UNL A   1      40.941  27.895  28.702  1.00  0.00    -0.354 N 
ATOM     20  C   UNL A   1      44.559  27.014  26.477  1.00  0.00     0.074 A 
ATOM     21  C   UNL A   1      44.504  25.688  25.898  1.00  0.00     0.031 C 
ATOM     22  C   UNL A   1      38.892  27.486  29.503  1.00  0.00     0.029 A 
ATOM     23  C   UNL A   1      39.946  28.491  29.442  1.00  0.00     0.049 A 
ATOM     24  H   UNL A   1      41.796  28.336  28.492  1.00  0.00     0.167 HD
ATOM     25  C   UNL A   1      45.600  27.875  26.341  1.00  0.00     0.034 A 
ATOM     26  C   UNL A   1      39.888  29.705  30.019  1.00  0.00     0.034 A 
ATOM     27  C   UNL A   1      45.637  29.195  26.927  1.00  0.00     0.049 A 
ATOM     28  C   UNL A   1      41.058  30.635  29.852  1.00  0.00     0.074 A 
ATOM     29  C   UNL A   1      46.639  30.147  26.850  1.00  0.00     0.029 A 
ATOM     30  N   UNL A   1      44.625  29.754  27.700  1.00  0.00    -0.354 N 
ATOM     31  N   UNL A   1      42.180  30.439  29.200  1.00  0.00    -0.248 NA
ATOM     32  C   UNL A   1      40.951  31.950  30.494  1.00  0.00     0.031 C 
ATOM     33  C   UNL A   1      46.259  31.254  27.619  1.00  0.00     0.029 A 
ATOM     34  C   UNL A   1      44.989  31.024  28.122  1.00  0.00     0.049 A 
ATOM     35  H   UNL A   1      43.773  29.311  27.917  1.00  0.00     0.167 HD
ATOM     36  C   UNL A   1      42.914  31.609  29.354  1.00  0.00     0.074 A 
ATOM     37  C   UNL A   1      42.086  32.519  30.120  1.00  0.00     0.031 C 
ATOM     38  C   UNL A   1      44.164  31.904  28.914  1.00  0.00     0.034 A 
BRANCH  25  39
ATOM     39  C   UNL A   1      46.801  27.400  25.556  1.00  0.00     0.023 A 
ATOM     40  C   UNL A   1      47.038  27.825  24.238  1.00  0.00     0.031 A 
ATOM     41  C   UNL A   1      47.724  26.513  26.138  1.00  0.00     0.131 A 
ATOM     42  C   UNL A   1      48.141  27.323  23.527  1.00  0.00     0.055 A 
ATOM     43  C   UNL A   1      48.856  26.070  25.451  1.00  0.00     0.041 A 
ATOM     44  F   UNL A   1      47.539  26.058  27.387  1.00  0.00    -0.206 F 
ATOM     45  C   UNL A   1      49.064  26.467  24.133  1.00  0.00     0.022 A 
BRANCH  42  46
ATOM     46  S   UNL A   1      48.294  27.720  21.763  1.00  0.00     0.124 S 
ATOM     47  O   UNL A   1      46.983  28.301  21.478  1.00  0.00    -0.237 OA
ATOM     48  O   UNL A   1      49.420  28.645  21.744  1.00  0.00    -0.237 OA
ATOM     49  O   UNL A   1      48.541  26.421  21.139  1.00  0.00    -0.744 OA
ENDBRANCH  42  46
ENDBRANCH  25  39
BRANCH  26  50
ATOM     50  C   UNL A   1      38.704  30.092  30.837  1.00  0.00     0.023 A 
ATOM     51  C   UNL A   1      37.650  30.838  30.290  1.00  0.00     0.031 A 
ATOM     52  C   UNL A   1      38.629  29.745  32.198  1.00  0.00     0.131 A 
ATOM     53  C   UNL A   1      36.586  31.248  31.108  1.00  0.00     0.055 A 
ATOM     54  C   UNL A   1      37.542  30.104  32.994  1.00  0.00     0.041 A 
ATOM     55  F   UNL A   1      39.610  29.028  32.771  1.00  0.00    -0.206 F 
ATOM     56  C   UNL A   1      36.519  30.874  32.453  1.00  0.00     0.022 A 
BRANCH  53  57
ATOM     57  S   UNL A   1      35.334  32.361  30.414  1.00  0.00     0.124 S 
ATOM     58  O   UNL A   1      34.869  31.604  29.258  1.00  0.00    -0.237 OA
ATOM     59  O   UNL A   1      34.392  32.483  31.522  1.00  0.00    -0.237 OA
ATOM     60  O   UNL A   1      36.091  33.572  30.105  1.00  0.00    -0.744 OA
ENDBRANCH  53  57
ENDBRANCH  26  50
BRANCH  38  61
ATOM     61  C   UNL A   1      44.686  33.277  29.258  1.00  0.00     0.023 A 
ATOM     62  C   UNL A   1      44.542  34.357  28.368  1.00  0.00     0.031 A 
ATOM     63  C   UNL A   1      45.384  33.494  30.458  1.00  0.00     0.131 A 
ATOM     64  C   UNL A   1      45.154  35.585  28.657  1.00  0.00     0.055 A 
ATOM     65  C   UNL A   1      45.937  34.738  30.767  1.00  0.00     0.041 A 
ATOM     66  F   UNL A   1      45.552  32.498  31.341  1.00  0.00    -0.206 F 
ATOM     67  C   UNL A   1      45.840  35.786  29.857  1.00  0.00     0.022 A 
BRANCH  64  68
ATOM     68  S   UNL A   1      45.143  36.879  27.385  1.00  0.00     0.124 S 
ATOM     69  O   UNL A   1      43.716  37.021  27.109  1.00  0.00    -0.237 OA
ATOM     70  O   UNL A   1      45.773  37.999  28.076  1.00  0.00    -0.237 OA
ATOM     71  O   UNL A   1      45.930  36.299  26.299  1.00  0.00    -0.744 OA
ENDBRANCH  64  68
ENDBRANCH  38  61
ENDBRANCH  12  13
ENDBRANCH   5   7
ENDBRANCH   2   3
ENDBRANCH   1   2
BRANCH   1  72
ATOM     72  C   UNL A   1      35.664  23.690  23.871  1.00  0.00     0.023 C 
BRANCH  72  73
ATOM     73  C   UNL A   1      34.526  24.664  24.169  1.00  0.00     0.116 C 
BRANCH  73  74
ATOM     74  N   UNL A   1      33.753  24.986  22.978  1.00  0.00    -0.352 N 
ATOM     75  C   UNL A   1      32.547  25.633  22.894  1.00  0.00     0.253 C 
ATOM     76  H   UNL A   1      34.148  24.703  22.121  1.00  0.00     0.163 HD
ATOM     77  O   UNL A   1      31.886  25.618  21.863  1.00  0.00    -0.269 OA
BRANCH  75  78
ATOM     78  C   UNL A   1      32.013  26.306  24.087  1.00  0.00     0.067 A 
ATOM     79  C   UNL A   1      32.460  27.612  24.359  1.00  0.00     0.058 A 
ATOM     80  C   UNL A   1      31.139  25.632  24.961  1.00  0.00     0.065 A 
ATOM     81  C   UNL A   1      32.103  28.218  25.552  1.00  0.00     0.159 A 
ATOM     82  C   UNL A   1      30.831  26.263  26.169  1.00  0.00     0.070 A 
ATOM     83  F   UNL A   1      32.582  29.432  25.850  1.00  0.00    -0.204 F 
ATOM     84  C   UNL A   1      31.303  27.542  26.457  1.00  0.00     0.160 A 
ATOM     85  F   UNL A   1      31.008  28.092  27.643  1.00  0.00    -0.204 F 
BRANCH  80  86
ATOM     86  N   UNL A   1      30.730  24.262  24.725  1.00  0.00    -0.279 N 
ATOM     87  H   UNL A   1      30.138  24.049  23.967  1.00  0.00     0.180 HD
BRANCH  86  88
ATOM     88  S   UNL A   1      31.276  23.015  25.761  1.00  0.00     0.261 S 
ATOM     89  O   UNL A   1      32.389  23.531  26.524  1.00  0.00    -0.201 OA
ATOM     90  O   UNL A   1      30.102  22.470  26.413  1.00  0.00    -0.201 OA
BRANCH  88  91
ATOM     91  C   UNL A   1      31.890  21.749  24.677  1.00  0.00     0.088 A 
ATOM     92  C   UNL A   1      31.843  21.977  23.288  1.00  0.00     0.022 A 
ATOM     93  C   UNL A   1      32.251  20.503  25.207  1.00  0.00     0.026 A 
ATOM     94  C   UNL A   1      32.070  20.927  22.401  1.00  0.00     0.005 A 
ATOM     95  C   UNL A   1      32.454  19.467  24.309  1.00  0.00    -0.043 A 
ATOM     96  C   UNL A   1      32.347  19.676  22.926  1.00  0.00    -0.045 A 
ATOM     97  C   UNL A   1      32.645  18.014  24.611  1.00  0.00     0.036 C 
ATOM     98  C   UNL A   1      32.444  18.382  22.181  1.00  0.00     0.036 C 
ATOM     99  C   UNL A   1      33.071  17.468  23.240  1.00  0.00     0.010 C 
ENDBRANCH  88  91
ENDBRANCH  86  88
ENDBRANCH  80  86
ENDBRANCH  75  78
ENDBRANCH  73  74
ENDBRANCH  72  73
ENDBRANCH   1  72
TORSDOF 17
ENDMDL
MODEL 2
REMARK VINA RESULT:     -13.0      5.103     10.183
REMARK SMILES O=C(NCCCCNC(=O)c1cc(F)c(F)cc1NS(=O)(=O)c1ccc2c(c1)CCC2)c1ccc(-c2c3nc(c(-c4cc(S(=O)(=O)[O-])ccc4F)c4ccc([nH]4)c(-c4cc(S(=O)(=O)[O-])ccc4F)c4nc(c(-c5cc(S(=O)(=O)[O-])ccc5F)c5ccc2[nH]5)C=C4)C=C3)cc1
REMARK SMILES IDX 5 1 4 2 3 3 1 4 2 5 32 7 33 8 94 9 34 10 93 11 35 12 36 13
REMARK SMILES IDX 37 14 87 15 38 16 92 17 86 18 88 19 39 20 91 21 85 22 84 23
REMARK SMILES IDX 40 25 72 26 52 27 71 28 53 29 56 30 70 31 89 32 54 33 55 34
REMARK SMILES IDX 69 36 90 37 57 38 41 39 42 40 50 41 43 42 49 43 51 44 48 45
REMARK SMILES IDX 44 46 45 47 46 48 47 49 73 50 74 51 82 52 75 53 81 54 83 55
REMARK SMILES IDX 80 56 76 57 77 58 78 59 79 60 58 61 59 62 67 63 60 64 66 65
REMARK SMILES IDX 68 66 65 67 61 68 62 69 63 70 64 71 6 72 7 73 8 74 9 75
REMARK SMILES IDX 10 77 11 78 12 79 18 80 13 81 17 82 14 83 15 84 16 85 19 86
REMARK SMILES IDX 20 88 21 89 22 90 23 91 24 92 28 93 25 94 27 95 26 96 29 97
REMARK SMILES IDX 31 98 30 99
REMARK H PARENT 3 6 88 24 56 35 8 76 19 87
REMARK Flexibility Score: inf
ROOT
ATOM      1  C   UNL A   1      31.825  28.606  25.937  1.00  0.00     0.023 C 
ENDROOT
BRANCH   1   2
ATOM      2  C   UNL A   1      33.048  29.490  26.140  1.00  0.00     0.116 C 
BRANCH   2   3
ATOM      3  N   UNL A   1      32.711  30.861  26.500  1.00  0.00    -0.352 N 
ATOM      4  O   UNL A   1      32.906  32.812  27.621  1.00  0.00    -0.269 OA
ATOM      5  C   UNL A   1      33.397  31.726  27.323  1.00  0.00     0.251 C 
ATOM      6  H   UNL A   1      31.884  31.216  26.101  1.00  0.00     0.163 HD
BRANCH   5   7
ATOM      7  C   UNL A   1      34.715  31.324  27.864  1.00  0.00     0.039 A 
ATOM      8  C   UNL A   1      34.909  30.031  28.347  1.00  0.00     0.014 A 
ATOM      9  C   UNL A   1      35.753  32.260  27.923  1.00  0.00     0.014 A 
ATOM     10  C   UNL A   1      36.072  29.725  29.040  1.00  0.00     0.010 A 
ATOM     11  C   UNL A   1      36.965  31.915  28.534  1.00  0.00     0.010 A 
ATOM     12  C   UNL A   1      37.121  30.655  29.130  1.00  0.00    -0.014 A 
BRANCH  12  13
ATOM     13  C   UNL A   1      38.381  30.241  29.806  1.00  0.00     0.031 A 
ATOM     14  C   UNL A   1      38.713  30.698  31.200  1.00  0.00     0.074 A 
ATOM     15  C   UNL A   1      39.189  29.373  29.163  1.00  0.00     0.049 A 
ATOM     16  N   UNL A   1      39.732  30.363  31.952  1.00  0.00    -0.248 NA
ATOM     17  C   UNL A   1      37.796  31.658  31.829  1.00  0.00     0.031 C 
ATOM     18  C   UNL A   1      38.970  28.879  27.799  1.00  0.00     0.029 A 
ATOM     19  N   UNL A   1      40.324  28.724  29.570  1.00  0.00    -0.354 N 
ATOM     20  C   UNL A   1      39.585  31.075  33.139  1.00  0.00     0.074 A 
ATOM     21  C   UNL A   1      38.395  31.887  32.990  1.00  0.00     0.031 C 
ATOM     22  C   UNL A   1      39.898  27.956  27.511  1.00  0.00     0.029 A 
ATOM     23  C   UNL A   1      40.819  27.844  28.635  1.00  0.00     0.049 A 
ATOM     24  H   UNL A   1      40.745  28.872  30.448  1.00  0.00     0.167 HD
ATOM     25  C   UNL A   1      40.366  31.043  34.249  1.00  0.00     0.034 A 
ATOM     26  C   UNL A   1      41.901  27.044  28.668  1.00  0.00     0.034 A 
ATOM     27  C   UNL A   1      41.550  30.225  34.380  1.00  0.00     0.049 A 
ATOM     28  C   UNL A   1      42.748  27.035  29.910  1.00  0.00     0.074 A 
ATOM     29  C   UNL A   1      42.411  30.117  35.458  1.00  0.00     0.029 A 
ATOM     30  N   UNL A   1      42.043  29.372  33.398  1.00  0.00    -0.354 N 
ATOM     31  N   UNL A   1      42.590  27.716  31.021  1.00  0.00    -0.248 NA
ATOM     32  C   UNL A   1      43.915  26.145  29.905  1.00  0.00     0.031 C 
ATOM     33  C   UNL A   1      43.450  29.245  35.111  1.00  0.00     0.029 A 
ATOM     34  C   UNL A   1      43.204  28.754  33.839  1.00  0.00     0.049 A 
ATOM     35  H   UNL A   1      41.627  29.228  32.518  1.00  0.00     0.167 HD
ATOM     36  C   UNL A   1      43.640  27.335  31.849  1.00  0.00     0.074 A 
ATOM     37  C   UNL A   1      44.395  26.332  31.124  1.00  0.00     0.031 C 
ATOM     38  C   UNL A   1      43.962  27.781  33.090  1.00  0.00     0.034 A 
BRANCH  25  39
ATOM     39  C   UNL A   1      39.985  31.948  35.398  1.00  0.00     0.023 A 
ATOM     40  C   UNL A   1      39.094  31.533  36.403  1.00  0.00     0.031 A 
ATOM     41  C   UNL A   1      40.523  33.245  35.490  1.00  0.00     0.131 A 
ATOM     42  C   UNL A   1      38.729  32.422  37.427  1.00  0.00     0.055 A 
ATOM     43  C   UNL A   1      40.210  34.101  36.547  1.00  0.00     0.041 A 
ATOM     44  F   UNL A   1      41.363  33.703  34.549  1.00  0.00    -0.206 F 
ATOM     45  C   UNL A   1      39.299  33.695  37.519  1.00  0.00     0.022 A 
BRANCH  42  46
ATOM     46  S   UNL A   1      37.416  31.931  38.579  1.00  0.00     0.124 S 
ATOM     47  O   UNL A   1      38.085  32.085  39.869  1.00  0.00    -0.237 OA
ATOM     48  O   UNL A   1      36.363  32.896  38.287  1.00  0.00    -0.237 OA
ATOM     49  O   UNL A   1      37.124  30.551  38.197  1.00  0.00    -0.744 OA
ENDBRANCH  42  46
ENDBRANCH  25  39
BRANCH  26  50
ATOM     50  C   UNL A   1      42.265  26.223  27.479  1.00  0.00     0.023 A 
ATOM     51  C   UNL A   1      41.905  24.871  27.387  1.00  0.00     0.031 A 
ATOM     52  C   UNL A   1      43.012  26.780  26.424  1.00  0.00     0.131 A 
ATOM     53  C   UNL A   1      42.328  24.109  26.286  1.00  0.00     0.055 A 
ATOM     54  C   UNL A   1      43.380  26.035  25.305  1.00  0.00     0.041 A 
ATOM     55  F   UNL A   1      43.379  28.072  26.461  1.00  0.00    -0.206 F 
ATOM     56  C   UNL A   1      43.050  24.686  25.239  1.00  0.00     0.022 A 
BRANCH  53  57
ATOM     57  S   UNL A   1      42.002  22.326  26.287  1.00  0.00     0.124 S 
ATOM     58  O   UNL A   1      42.401  21.949  27.638  1.00  0.00    -0.237 OA
ATOM     59  O   UNL A   1      40.570  22.281  26.006  1.00  0.00    -0.237 OA
ATOM     60  O   UNL A   1      42.862  21.822  25.218  1.00  0.00    -0.744 OA
ENDBRANCH  53  57
ENDBRANCH  26  50
BRANCH  38  61
ATOM     61  C   UNL A   1      45.184  27.165  33.725  1.00  0.00     0.023 A 
ATOM     62  C   UNL A   1      45.100  25.965  34.454  1.00  0.00     0.031 A 
ATOM     63  C   UNL A   1      46.428  27.811  33.650  1.00  0.00     0.131 A 
ATOM     64  C   UNL A   1      46.224  25.488  35.143  1.00  0.00     0.055 A 
ATOM     65  C   UNL A   1      47.559  27.298  34.288  1.00  0.00     0.041 A 
ATOM     66  F   UNL A   1      46.562  28.960  32.969  1.00  0.00    -0.206 F 
ATOM     67  C   UNL A   1      47.456  26.140  35.055  1.00  0.00     0.022 A 
BRANCH  64  68
ATOM     68  S   UNL A   1      46.022  24.069  36.256  1.00  0.00     0.124 S 
ATOM     69  O   UNL A   1      46.811  23.041  35.584  1.00  0.00    -0.237 OA
ATOM     70  O   UNL A   1      46.571  24.576  37.509  1.00  0.00    -0.237 OA
ATOM     71  O   UNL A   1      44.578  23.840  36.260  1.00  0.00    -0.744 OA
ENDBRANCH  64  68
ENDBRANCH  38  61
ENDBRANCH  12  13
ENDBRANCH   5   7
ENDBRANCH   2   3
ENDBRANCH   1   2
BRANCH   1  72
ATOM     72  C   UNL A   1      31.703  27.434  26.909  1.00  0.00     0.023 C 
BRANCH  72  73
ATOM     73  C   UNL A   1      32.310  26.122  26.416  1.00  0.00     0.116 C 
BRANCH  73  74
ATOM     74  N   UNL A   1      31.393  25.002  26.570  1.00  0.00    -0.352 N 
ATOM     75  C   UNL A   1      31.466  23.757  26.001  1.00  0.00     0.253 C 
ATOM     76  H   UNL A   1      30.620  25.159  27.161  1.00  0.00     0.163 HD
ATOM     77  O   UNL A   1      30.507  22.996  26.008  1.00  0.00    -0.269 OA
BRANCH  75  78
ATOM     78  C   UNL A   1      32.704  23.356  25.315  1.00  0.00     0.067 A 
ATOM     79  C   UNL A   1      33.727  22.780  26.092  1.00  0.00     0.058 A 
ATOM     80  C   UNL A   1      32.878  23.609  23.942  1.00  0.00     0.065 A 
ATOM     81  C   UNL A   1      34.961  22.536  25.514  1.00  0.00     0.159 A 
ATOM     82  C   UNL A   1      34.148  23.381  23.406  1.00  0.00     0.070 A 
ATOM     83  F   UNL A   1      35.961  22.055  26.263  1.00  0.00    -0.204 F 
ATOM     84  C   UNL A   1      35.174  22.845  24.182  1.00  0.00     0.160 A 
ATOM     85  F   UNL A   1      36.385  22.676  23.633  1.00  0.00    -0.204 F 
BRANCH  80  86
ATOM     86  N   UNL A   1      31.856  24.266  23.151  1.00  0.00    -0.279 N 
ATOM     87  H   UNL A   1      30.999  23.812  22.981  1.00  0.00     0.180 HD
BRANCH  86  88
ATOM     88  S   UNL A   1      32.140  25.828  22.513  1.00  0.00     0.261 S 
ATOM     89  O   UNL A   1      33.292  26.379  23.190  1.00  0.00    -0.201 OA
ATOM     90  O   UNL A   1      32.101  25.703  21.070  1.00  0.00    -0.201 OA
BRANCH  88  91
ATOM     91  C   UNL A   1      30.717  26.782  22.981  1.00  0.00     0.088 A 
ATOM     92  C   UNL A   1      29.679  26.137  23.682  1.00  0.00     0.022 A 
ATOM     93  C   UNL A   1      30.582  28.095  22.508  1.00  0.00     0.026 A 
ATOM     94  C   UNL A   1      28.448  26.770  23.842  1.00  0.00     0.005 A 
ATOM     95  C   UNL A   1      29.344  28.699  22.661  1.00  0.00    -0.043 A 
ATOM     96  C   UNL A   1      28.288  28.035  23.303  1.00  0.00    -0.045 A 
ATOM     97  C   UNL A   1      28.876  29.995  22.076  1.00  0.00     0.036 C 
ATOM     98  C   UNL A   1      27.019  28.820  23.196  1.00  0.00     0.036 C 
ATOM     99  C   UNL A   1      27.551  30.209  22.823  1.00  0.00     0.010 C 
ENDBRANCH  88  91
ENDBRANCH  86  88
ENDBRANCH  80  86
ENDBRANCH  75  78
ENDBRANCH  73  74
ENDBRANCH  72  73
ENDBRANCH   1  72
TORSDOF 17
ENDMDL
MODEL 3
REMARK VINA RESULT:     -12.6      2.012      3.996
REMARK SMILES O=C(NCCCCNC(=O)c1cc(F)c(F)cc1NS(=O)(=O)c1ccc2c(c1)CCC2)c1ccc(-c2c3nc(c(-c4cc(S(=O)(=O)[O-])ccc4F)c4ccc([nH]4)c(-c4cc(S(=O)(=O)[O-])ccc4F)c4nc(c(-c5cc(S(=O)(=O)[O-])ccc5F)c5ccc2[nH]5)C=C4)C=C3)cc1
REMARK SMILES IDX 5 1 4 2 3 3 1 4 2 5 32 7 33 8 94 9 34 10 93 11 35 12 36 13
REMARK SMILES IDX 37 14 87 15 38 16 92 17 86 18 88 19 39 20 91 21 85 22 84 23
REMARK SMILES IDX 40 25 72 26 52 27 71 28 53 29 56 30 70 31 89 32 54 33 55 34
REMARK SMILES IDX 69 36 90 37 57 38 41 39 42 40 50 41 43 42 49 43 51 44 48 45
REMARK SMILES IDX 44 46 45 47 46 48 47 49 73 50 74 51 82 52 75 53 81 54 83 55
REMARK SMILES IDX 80 56 76 57 77 58 78 59 79 60 58 61 59 62 67 63 60 64 66 65
REMARK SMILES IDX 68 66 65 67 61 68 62 69 63 70 64 71 6 72 7 73 8 74 9 75
REMARK SMILES IDX 10 77 11 78 12 79 18 80 13 81 17 82 14 83 15 84 16 85 19 86
REMARK SMILES IDX 20 88 21 89 22 90 23 91 24 92 28 93 25 94 27 95 26 96 29 97
REMARK SMILES IDX 31 98 30 99
REMARK H PARENT 3 6 88 24 56 35 8 76 19 87
REMARK Flexibility Score: inf
ROOT
ATOM      1  C   UNL A   1      35.702  21.631  25.284  1.00  0.00     0.023 C 
ENDROOT
BRANCH   1   2
ATOM      2  C   UNL A   1      37.171  22.030  25.270  1.00  0.00     0.116 C 
BRANCH   2   3
ATOM      3  N   UNL A   1      38.070  20.921  25.560  1.00  0.00    -0.352 N 
ATOM      4  O   UNL A   1      40.001  19.936  26.193  1.00  0.00    -0.269 OA
ATOM      5  C   UNL A   1      39.321  20.957  26.134  1.00  0.00     0.251 C 
ATOM      6  H   UNL A   1      37.739  20.028  25.313  1.00  0.00     0.163 HD
BRANCH   5   7
ATOM      7  C   UNL A   1      39.847  22.240  26.653  1.00  0.00     0.039 A 
ATOM      8  C   UNL A   1      39.378  23.449  26.139  1.00  0.00     0.014 A 
ATOM      9  C   UNL A   1      40.844  22.233  27.634  1.00  0.00     0.014 A 
ATOM     10  C   UNL A   1      40.020  24.632  26.477  1.00  0.00     0.010 A 
ATOM     11  C   UNL A   1      41.420  23.440  28.048  1.00  0.00     0.010 A 
ATOM     12  C   UNL A   1      41.038  24.647  27.446  1.00  0.00    -0.014 A 
BRANCH  12  13
ATOM     13  C   UNL A   1      41.627  25.957  27.835  1.00  0.00     0.031 A 
ATOM     14  C   UNL A   1      43.002  26.367  27.384  1.00  0.00     0.074 A 
ATOM     15  C   UNL A   1      40.860  26.812  28.542  1.00  0.00     0.049 A 
ATOM     16  N   UNL A   1      43.624  27.504  27.575  1.00  0.00    -0.248 NA
ATOM     17  C   UNL A   1      43.786  25.376  26.633  1.00  0.00     0.031 C 
ATOM     18  C   UNL A   1      39.516  26.509  29.046  1.00  0.00     0.029 A 
ATOM     19  N   UNL A   1      41.072  28.110  28.928  1.00  0.00    -0.354 N 
ATOM     20  C   UNL A   1      44.873  27.365  26.977  1.00  0.00     0.074 A 
ATOM     21  C   UNL A   1      44.932  26.019  26.448  1.00  0.00     0.031 C 
ATOM     22  C   UNL A   1      39.000  27.609  29.612  1.00  0.00     0.029 A 
ATOM     23  C   UNL A   1      39.997  28.671  29.578  1.00  0.00     0.049 A 
ATOM     24  H   UNL A   1      41.912  28.593  28.756  1.00  0.00     0.167 HD
ATOM     25  C   UNL A   1      45.870  28.281  26.874  1.00  0.00     0.034 A 
ATOM     26  C   UNL A   1      39.832  29.900  30.102  1.00  0.00     0.034 A 
ATOM     27  C   UNL A   1      45.793  29.621  27.408  1.00  0.00     0.049 A 
ATOM     28  C   UNL A   1      40.956  30.891  29.974  1.00  0.00     0.074 A 
ATOM     29  C   UNL A   1      46.743  30.627  27.359  1.00  0.00     0.029 A 
ATOM     30  N   UNL A   1      44.703  30.146  28.093  1.00  0.00    -0.354 N 
ATOM     31  N   UNL A   1      42.129  30.738  29.404  1.00  0.00    -0.248 NA
ATOM     32  C   UNL A   1      40.733  32.219  30.556  1.00  0.00     0.031 C 
ATOM     33  C   UNL A   1      46.251  31.736  28.058  1.00  0.00     0.029 A 
ATOM     34  C   UNL A   1      44.966  31.450  28.487  1.00  0.00     0.049 A 
ATOM     35  H   UNL A   1      43.864  29.661  28.271  1.00  0.00     0.167 HD
ATOM     36  C   UNL A   1      42.784  31.955  29.558  1.00  0.00     0.074 A 
ATOM     37  C   UNL A   1      41.856  32.840  30.234  1.00  0.00     0.031 C 
ATOM     38  C   UNL A   1      44.041  32.307  29.189  1.00  0.00     0.034 A 
BRANCH  25  39
ATOM     39  C   UNL A   1      47.146  27.850  26.187  1.00  0.00     0.023 A 
ATOM     40  C   UNL A   1      47.330  28.008  24.803  1.00  0.00     0.031 A 
ATOM     41  C   UNL A   1      48.194  27.277  26.930  1.00  0.00     0.131 A 
ATOM     42  C   UNL A   1      48.512  27.551  24.197  1.00  0.00     0.055 A 
ATOM     43  C   UNL A   1      49.394  26.887  26.333  1.00  0.00     0.041 A 
ATOM     44  F   UNL A   1      48.067  27.084  28.252  1.00  0.00    -0.206 F 
ATOM     45  C   UNL A   1      49.555  27.014  24.956  1.00  0.00     0.022 A 
BRANCH  42  46
ATOM     46  S   UNL A   1      48.626  27.571  22.386  1.00  0.00     0.124 S 
ATOM     47  O   UNL A   1      48.634  26.143  22.077  1.00  0.00    -0.237 OA
ATOM     48  O   UNL A   1      47.424  28.301  22.002  1.00  0.00    -0.237 OA
ATOM     49  O   UNL A   1      49.887  28.265  22.129  1.00  0.00    -0.744 OA
ENDBRANCH  42  46
ENDBRANCH  25  39
BRANCH  26  50
ATOM     50  C   UNL A   1      38.577  30.246  30.827  1.00  0.00     0.023 A 
ATOM     51  C   UNL A   1      37.560  30.992  30.212  1.00  0.00     0.031 A 
ATOM     52  C   UNL A   1      38.392  29.857  32.166  1.00  0.00     0.131 A 
ATOM     53  C   UNL A   1      36.424  31.362  30.948  1.00  0.00     0.055 A 
ATOM     54  C   UNL A   1      37.235  30.177  32.876  1.00  0.00     0.041 A 
ATOM     55  F   UNL A   1      39.333  29.137  32.800  1.00  0.00    -0.206 F 
ATOM     56  C   UNL A   1      36.249  30.947  32.271  1.00  0.00     0.022 A 
BRANCH  53  57
ATOM     57  S   UNL A   1      35.217  32.477  30.181  1.00  0.00     0.124 S 
ATOM     58  O   UNL A   1      34.725  31.668  29.072  1.00  0.00    -0.237 OA
ATOM     59  O   UNL A   1      34.278  32.702  31.276  1.00  0.00    -0.237 OA
ATOM     60  O   UNL A   1      36.020  33.636  29.801  1.00  0.00    -0.744 OA
ENDBRANCH  53  57
ENDBRANCH  26  50
BRANCH  38  61
ATOM     61  C   UNL A   1      44.461  33.720  29.512  1.00  0.00     0.023 A 
ATOM     62  C   UNL A   1      44.186  34.782  28.631  1.00  0.00     0.031 A 
ATOM     63  C   UNL A   1      45.191  33.997  30.679  1.00  0.00     0.131 A 
ATOM     64  C   UNL A   1      44.704  36.058  28.894  1.00  0.00     0.055 A 
ATOM     65  C   UNL A   1      45.652  35.284  30.965  1.00  0.00     0.041 A 
ATOM     66  F   UNL A   1      45.483  33.020  31.552  1.00  0.00    -0.206 F 
ATOM     67  C   UNL A   1      45.424  36.318  30.062  1.00  0.00     0.022 A 
BRANCH  64  68
ATOM     68  S   UNL A   1      44.526  37.344  27.627  1.00  0.00     0.124 S 
ATOM     69  O   UNL A   1      45.792  37.239  26.907  1.00  0.00    -0.237 OA
ATOM     70  O   UNL A   1      43.341  36.901  26.899  1.00  0.00    -0.237 OA
ATOM     71  O   UNL A   1      44.353  38.569  28.405  1.00  0.00    -0.744 OA
ENDBRANCH  64  68
ENDBRANCH  38  61
ENDBRANCH  12  13
ENDBRANCH   5   7
ENDBRANCH   2   3
ENDBRANCH   1   2
BRANCH   1  72
ATOM     72  C   UNL A   1      34.979  21.861  26.609  1.00  0.00     0.023 C 
BRANCH  72  73
ATOM     73  C   UNL A   1      34.231  23.189  26.714  1.00  0.00     0.116 C 
BRANCH  73  74
ATOM     74  N   UNL A   1      32.930  23.037  27.349  1.00  0.00    -0.352 N 
ATOM     75  C   UNL A   1      31.722  22.764  26.762  1.00  0.00     0.253 C 
ATOM     76  H   UNL A   1      32.917  23.143  28.329  1.00  0.00     0.163 HD
ATOM     77  O   UNL A   1      30.670  22.912  27.371  1.00  0.00    -0.269 OA
BRANCH  75  78
ATOM     78  C   UNL A   1      31.691  22.345  25.353  1.00  0.00     0.067 A 
ATOM     79  C   UNL A   1      32.171  21.060  25.040  1.00  0.00     0.058 A 
ATOM     80  C   UNL A   1      31.259  23.232  24.350  1.00  0.00     0.065 A 
ATOM     81  C   UNL A   1      32.304  20.690  23.712  1.00  0.00     0.159 A 
ATOM     82  C   UNL A   1      31.443  22.835  23.022  1.00  0.00     0.070 A 
ATOM     83  F   UNL A   1      32.827  19.496  23.405  1.00  0.00    -0.204 F 
ATOM     84  C   UNL A   1      31.953  21.577  22.709  1.00  0.00     0.160 A 
ATOM     85  F   UNL A   1      32.142  21.253  21.423  1.00  0.00    -0.204 F 
BRANCH  80  86
ATOM     86  N   UNL A   1      30.830  24.582  24.657  1.00  0.00    -0.279 N 
ATOM     87  H   UNL A   1      29.870  24.788  24.732  1.00  0.00     0.180 HD
BRANCH  86  88
ATOM     88  S   UNL A   1      31.991  25.818  24.889  1.00  0.00     0.261 S 
ATOM     89  O   UNL A   1      32.169  25.994  26.312  1.00  0.00    -0.201 OA
ATOM     90  O   UNL A   1      33.108  25.509  24.020  1.00  0.00    -0.201 OA
BRANCH  88  91
ATOM     91  C   UNL A   1      31.234  27.288  24.242  1.00  0.00     0.088 A 
ATOM     92  C   UNL A   1      31.812  28.534  24.558  1.00  0.00     0.022 A 
ATOM     93  C   UNL A   1      30.004  27.196  23.577  1.00  0.00     0.026 A 
ATOM     94  C   UNL A   1      31.118  29.712  24.292  1.00  0.00     0.005 A 
ATOM     95  C   UNL A   1      29.321  28.378  23.340  1.00  0.00    -0.043 A 
ATOM     96  C   UNL A   1      29.866  29.616  23.710  1.00  0.00    -0.045 A 
ATOM     97  C   UNL A   1      27.920  28.545  22.840  1.00  0.00     0.036 C 
ATOM     98  C   UNL A   1      28.876  30.720  23.502  1.00  0.00     0.036 C 
ATOM     99  C   UNL A   1      27.873  30.054  22.553  1.00  0.00     0.010 C 
ENDBRANCH  88  91
ENDBRANCH  86  88
ENDBRANCH  80  86
ENDBRANCH  75  78
ENDBRANCH  73  74
ENDBRANCH  72  73
ENDBRANCH   1  72
TORSDOF 17
ENDMDL
