MODEL 1
REMARK VINA RESULT:     -11.7      0.000      0.000
REMARK SMILES CC(=O)O[C@@H](C)c1nc2ccc(C(=O)NCCCCNC(=O)c3ccc(-c4c5nc(c(-c6cc(S(=O)(=O)[O-])ccc6F)c6ccc([nH]6)c(-c6cc(S(=O)(=O)[O-])ccc6F)c6nc(c(-c7cc(S(=O)(=O)[O-])ccc7F)c7ccc4[nH]7)C=C6)C=C5)cc3)cc2[nH]1
REMARK SMILES IDX 17 1 16 2 15 3 13 4 14 5 12 7 7 8 8 9 88 10 9 11 87 12 10 14
REMARK SMILES IDX 86 15 11 16 5 17 6 18 4 19 2 20 1 21 3 22 18 23 19 24 20 25
REMARK SMILES IDX 21 26 22 28 23 29 24 30 85 31 25 32 84 33 26 34 27 35 28 36
REMARK SMILES IDX 78 37 29 38 83 39 77 40 79 41 30 42 82 43 76 44 75 45 31 47
REMARK SMILES IDX 63 48 43 49 62 50 44 51 47 52 61 53 80 54 45 55 46 56 60 58
REMARK SMILES IDX 81 59 48 60 32 61 33 62 41 63 34 64 40 65 42 66 39 67 35 68
REMARK SMILES IDX 36 69 37 70 38 71 64 72 65 73 73 74 66 75 72 76 74 77 71 78
REMARK SMILES IDX 67 79 68 80 69 81 70 82 49 83 50 84 58 85 51 86 57 87 59 88
REMARK SMILES IDX 56 89 52 90 53 91 54 92 55 93
REMARK H PARENT 15 6 88 13 20 27 79 46 47 57
REMARK Flexibility Score: inf
ROOT
ATOM      1  C   UNL A   1      35.356  22.885  23.719  1.00  0.00     0.023 C 
ENDROOT
BRANCH   1   2
ATOM      2  C   UNL A   1      34.003  22.203  23.935  1.00  0.00     0.116 C 
BRANCH   2   3
ATOM      3  N   UNL A   1      33.601  22.280  25.325  1.00  0.00    -0.352 N 
ATOM      4  C   UNL A   1      33.115  23.306  26.094  1.00  0.00     0.251 C 
ATOM      5  O   UNL A   1      32.821  23.039  27.261  1.00  0.00    -0.269 OA
ATOM      6  H   UNL A   1      33.695  21.430  25.812  1.00  0.00     0.163 HD
BRANCH   4   7
ATOM      7  C   UNL A   1      32.893  24.703  25.604  1.00  0.00     0.042 A 
ATOM      8  C   UNL A   1      30.639  28.071  23.502  1.00  0.00     0.148 A 
ATOM      9  N   UNL A   1      31.770  28.423  24.089  1.00  0.00    -0.229 NA
ATOM     10  N   UNL A   1      30.389  26.733  23.707  1.00  0.00    -0.339 N 
ATOM     11  C   UNL A   1      32.277  27.279  24.643  1.00  0.00     0.089 A 
ATOM     12  C   UNL A   1      31.432  26.203  24.418  1.00  0.00     0.066 A 
ATOM     13  H   UNL A   1      29.595  26.242  23.395  1.00  0.00     0.168 HD
ATOM     14  C   UNL A   1      33.454  27.079  25.370  1.00  0.00     0.031 A 
ATOM     15  C   UNL A   1      31.702  24.911  24.875  1.00  0.00     0.042 A 
ATOM     16  C   UNL A   1      33.736  25.791  25.861  1.00  0.00     0.016 A 
BRANCH   8  17
ATOM     17  C   UNL A   1      29.716  28.977  22.739  1.00  0.00     0.239 C 
ATOM     18  C   UNL A   1      30.357  29.762  21.600  1.00  0.00     0.062 C 
BRANCH  17  19
ATOM     19  O   UNL A   1      29.016  29.824  23.677  1.00  0.00    -0.455 OA
BRANCH  19  20
ATOM     20  C   UNL A   1      27.719  30.138  23.418  1.00  0.00     0.303 C 
ATOM     21  C   UNL A   1      27.503  31.605  23.633  1.00  0.00     0.139 C 
ATOM     22  O   UNL A   1      26.839  29.357  23.085  1.00  0.00    -0.253 OA
ENDBRANCH  19  20
ENDBRANCH  17  19
ENDBRANCH   8  17
ENDBRANCH   4   7
ENDBRANCH   2   3
ENDBRANCH   1   2
BRANCH   1  23
ATOM     23  C   UNL A   1      36.570  21.989  23.979  1.00  0.00     0.023 C 
BRANCH  23  24
ATOM     24  C   UNL A   1      36.957  21.831  25.447  1.00  0.00     0.116 C 
BRANCH  24  25
ATOM     25  N   UNL A   1      37.978  20.820  25.669  1.00  0.00    -0.352 N 
ATOM     26  C   UNL A   1      39.250  20.985  26.168  1.00  0.00     0.251 C 
ATOM     27  H   UNL A   1      37.727  19.898  25.431  1.00  0.00     0.163 HD
ATOM     28  O   UNL A   1      40.024  20.038  26.199  1.00  0.00    -0.269 OA
BRANCH  26  29
ATOM     29  C   UNL A   1      39.679  22.327  26.614  1.00  0.00     0.039 A 
ATOM     30  C   UNL A   1      40.728  22.425  27.532  1.00  0.00     0.014 A 
ATOM     31  C   UNL A   1      39.080  23.479  26.097  1.00  0.00     0.014 A 
ATOM     32  C   UNL A   1      41.226  23.683  27.877  1.00  0.00     0.010 A 
ATOM     33  C   UNL A   1      39.618  24.728  26.395  1.00  0.00     0.010 A 
ATOM     34  C   UNL A   1      40.701  24.842  27.280  1.00  0.00    -0.014 A 
BRANCH  34  35
ATOM     35  C   UNL A   1      41.274  26.182  27.565  1.00  0.00     0.031 A 
ATOM     36  C   UNL A   1      42.658  26.523  27.089  1.00  0.00     0.074 A 
ATOM     37  C   UNL A   1      40.576  27.057  28.316  1.00  0.00     0.049 A 
ATOM     38  N   UNL A   1      43.369  27.597  27.314  1.00  0.00    -0.248 NA
ATOM     39  C   UNL A   1      43.344  25.506  26.277  1.00  0.00     0.031 C 
ATOM     40  C   UNL A   1      39.241  26.819  28.872  1.00  0.00     0.029 A 
ATOM     41  N   UNL A   1      40.895  28.318  28.753  1.00  0.00    -0.354 N 
ATOM     42  C   UNL A   1      44.592  27.380  26.687  1.00  0.00     0.074 A 
ATOM     43  C   UNL A   1      44.542  26.050  26.119  1.00  0.00     0.031 C 
ATOM     44  C   UNL A   1      38.851  27.903  29.561  1.00  0.00     0.029 A 
ATOM     45  C   UNL A   1      39.918  28.897  29.532  1.00  0.00     0.049 A 
ATOM     46  H   UNL A   1      41.742  28.767  28.531  1.00  0.00     0.167 HD
ATOM     47  C   UNL A   1      45.651  28.222  26.581  1.00  0.00     0.034 A 
ATOM     48  C   UNL A   1      39.894  30.089  30.160  1.00  0.00     0.034 A 
ATOM     49  C   UNL A   1      45.675  29.554  27.136  1.00  0.00     0.049 A 
ATOM     50  C   UNL A   1      41.083  31.006  30.025  1.00  0.00     0.074 A 
ATOM     51  C   UNL A   1      46.670  30.511  27.035  1.00  0.00     0.029 A 
ATOM     52  N   UNL A   1      44.659  30.115  27.898  1.00  0.00    -0.354 N 
ATOM     53  N   UNL A   1      42.212  30.806  29.385  1.00  0.00    -0.248 NA
ATOM     54  C   UNL A   1      40.989  32.314  30.687  1.00  0.00     0.031 C 
ATOM     55  C   UNL A   1      46.281  31.629  27.782  1.00  0.00     0.029 A 
ATOM     56  C   UNL A   1      45.014  31.396  28.293  1.00  0.00     0.049 A 
ATOM     57  H   UNL A   1      43.811  29.670  28.124  1.00  0.00     0.167 HD
ATOM     58  C   UNL A   1      42.947  31.977  29.541  1.00  0.00     0.074 A 
ATOM     59  C   UNL A   1      42.130  32.882  30.323  1.00  0.00     0.031 C 
ATOM     60  C   UNL A   1      44.186  32.282  29.076  1.00  0.00     0.034 A 
BRANCH  47  61
ATOM     61  C   UNL A   1      46.872  27.712  25.856  1.00  0.00     0.023 A 
ATOM     62  C   UNL A   1      47.107  28.017  24.504  1.00  0.00     0.031 A 
ATOM     63  C   UNL A   1      47.802  26.894  26.518  1.00  0.00     0.131 A 
ATOM     64  C   UNL A   1      48.204  27.448  23.838  1.00  0.00     0.055 A 
ATOM     65  C   UNL A   1      48.935  26.394  25.872  1.00  0.00     0.041 A 
ATOM     66  F   UNL A   1      47.620  26.553  27.805  1.00  0.00    -0.206 F 
ATOM     67  C   UNL A   1      49.134  26.659  24.520  1.00  0.00     0.022 A 
BRANCH  64  68
ATOM     68  S   UNL A   1      48.327  27.651  22.041  1.00  0.00     0.124 S 
ATOM     69  O   UNL A   1      47.026  28.234  21.722  1.00  0.00    -0.237 OA
ATOM     70  O   UNL A   1      49.476  28.538  21.901  1.00  0.00    -0.237 OA
ATOM     71  O   UNL A   1      48.527  26.288  21.555  1.00  0.00    -0.744 OA
ENDBRANCH  64  68
ENDBRANCH  47  61
BRANCH  48  72
ATOM     72  C   UNL A   1      38.716  30.490  30.982  1.00  0.00     0.023 A 
ATOM     73  C   UNL A   1      37.624  31.153  30.399  1.00  0.00     0.031 A 
ATOM     74  C   UNL A   1      38.687  30.264  32.368  1.00  0.00     0.131 A 
ATOM     75  C   UNL A   1      36.573  31.614  31.208  1.00  0.00     0.055 A 
ATOM     76  C   UNL A   1      37.616  30.679  33.161  1.00  0.00     0.041 A 
ATOM     77  F   UNL A   1      39.703  29.627  32.974  1.00  0.00    -0.206 F 
ATOM     78  C   UNL A   1      36.557  31.372  32.583  1.00  0.00     0.022 A 
BRANCH  75  79
ATOM     79  S   UNL A   1      35.270  32.621  30.446  1.00  0.00     0.124 S 
ATOM     80  O   UNL A   1      34.906  31.810  29.289  1.00  0.00    -0.237 OA
ATOM     81  O   UNL A   1      34.281  32.692  31.516  1.00  0.00    -0.237 OA
ATOM     82  O   UNL A   1      35.947  33.879  30.141  1.00  0.00    -0.744 OA
ENDBRANCH  75  79
ENDBRANCH  48  72
BRANCH  60  83
ATOM     83  C   UNL A   1      44.700  33.670  29.363  1.00  0.00     0.023 A 
ATOM     84  C   UNL A   1      44.462  34.743  28.486  1.00  0.00     0.031 A 
ATOM     85  C   UNL A   1      45.449  33.917  30.526  1.00  0.00     0.131 A 
ATOM     86  C   UNL A   1      45.015  36.003  28.760  1.00  0.00     0.055 A 
ATOM     87  C   UNL A   1      45.950  35.185  30.821  1.00  0.00     0.041 A 
ATOM     88  F   UNL A   1      45.706  32.927  31.396  1.00  0.00    -0.206 F 
ATOM     89  C   UNL A   1      45.745  36.234  29.930  1.00  0.00     0.022 A 
BRANCH  86  90
ATOM     90  S   UNL A   1      44.837  37.320  27.525  1.00  0.00     0.124 S 
ATOM     91  O   UNL A   1      45.987  37.082  26.660  1.00  0.00    -0.237 OA
ATOM     92  O   UNL A   1      43.531  37.027  26.943  1.00  0.00    -0.237 OA
ATOM     93  O   UNL A   1      44.900  38.545  28.319  1.00  0.00    -0.744 OA
ENDBRANCH  86  90
ENDBRANCH  60  83
ENDBRANCH  34  35
ENDBRANCH  26  29
ENDBRANCH  24  25
ENDBRANCH  23  24
ENDBRANCH   1  23
TORSDOF 17
ENDMDL
MODEL 2
REMARK VINA RESULT:     -11.6      4.856      9.681
REMARK SMILES CC(=O)O[C@@H](C)c1nc2ccc(C(=O)NCCCCNC(=O)c3ccc(-c4c5nc(c(-c6cc(S(=O)(=O)[O-])ccc6F)c6ccc([nH]6)c(-c6cc(S(=O)(=O)[O-])ccc6F)c6nc(c(-c7cc(S(=O)(=O)[O-])ccc7F)c7ccc4[nH]7)C=C6)C=C5)cc3)cc2[nH]1
REMARK SMILES IDX 17 1 16 2 15 3 13 4 14 5 12 7 7 8 8 9 88 10 9 11 87 12 10 14
REMARK SMILES IDX 86 15 11 16 5 17 6 18 4 19 2 20 1 21 3 22 18 23 19 24 20 25
REMARK SMILES IDX 21 26 22 28 23 29 24 30 85 31 25 32 84 33 26 34 27 35 28 36
REMARK SMILES IDX 78 37 29 38 83 39 77 40 79 41 30 42 82 43 76 44 75 45 31 47
REMARK SMILES IDX 63 48 43 49 62 50 44 51 47 52 61 53 80 54 45 55 46 56 60 58
REMARK SMILES IDX 81 59 48 60 32 61 33 62 41 63 34 64 40 65 42 66 39 67 35 68
REMARK SMILES IDX 36 69 37 70 38 71 64 72 65 73 73 74 66 75 72 76 74 77 71 78
REMARK SMILES IDX 67 79 68 80 69 81 70 82 49 83 50 84 58 85 51 86 57 87 59 88
REMARK SMILES IDX 56 89 52 90 53 91 54 92 55 93
REMARK H PARENT 15 6 88 13 20 27 79 46 47 57
REMARK Flexibility Score: inf
ROOT
ATOM      1  C   UNL A   1      32.725  27.018  26.124  1.00  0.00     0.023 C 
ENDROOT
BRANCH   1   2
ATOM      2  C   UNL A   1      33.756  26.943  24.995  1.00  0.00     0.116 C 
BRANCH   2   3
ATOM      3  N   UNL A   1      33.466  25.839  24.103  1.00  0.00    -0.352 N 
ATOM      4  C   UNL A   1      32.353  25.501  23.377  1.00  0.00     0.251 C 
ATOM      5  O   UNL A   1      32.434  24.499  22.664  1.00  0.00    -0.269 OA
ATOM      6  H   UNL A   1      34.214  25.208  23.997  1.00  0.00     0.163 HD
BRANCH   4   7
ATOM      7  C   UNL A   1      31.075  26.280  23.372  1.00  0.00     0.042 A 
ATOM      8  C   UNL A   1      28.323  29.765  22.312  1.00  0.00     0.148 A 
ATOM      9  N   UNL A   1      27.761  28.785  22.998  1.00  0.00    -0.229 NA
ATOM     10  N   UNL A   1      29.640  29.468  22.042  1.00  0.00    -0.339 N 
ATOM     11  C   UNL A   1      28.748  27.862  23.211  1.00  0.00     0.089 A 
ATOM     12  C   UNL A   1      29.938  28.264  22.624  1.00  0.00     0.066 A 
ATOM     13  H   UNL A   1      30.260  30.025  21.520  1.00  0.00     0.168 HD
ATOM     14  C   UNL A   1      28.704  26.640  23.889  1.00  0.00     0.031 A 
ATOM     15  C   UNL A   1      31.113  27.510  22.682  1.00  0.00     0.042 A 
ATOM     16  C   UNL A   1      29.868  25.853  23.942  1.00  0.00     0.016 A 
BRANCH   8  17
ATOM     17  C   UNL A   1      27.648  31.023  21.847  1.00  0.00     0.239 C 
ATOM     18  C   UNL A   1      28.211  31.642  20.572  1.00  0.00     0.062 C 
BRANCH  17  19
ATOM     19  O   UNL A   1      27.598  31.958  22.947  1.00  0.00    -0.455 OA
BRANCH  19  20
ATOM     20  C   UNL A   1      28.763  32.287  23.567  1.00  0.00     0.303 C 
ATOM     21  C   UNL A   1      29.133  33.698  23.227  1.00  0.00     0.139 C 
ATOM     22  O   UNL A   1      29.436  31.553  24.276  1.00  0.00    -0.253 OA
ENDBRANCH  19  20
ENDBRANCH  17  19
ENDBRANCH   8  17
ENDBRANCH   4   7
ENDBRANCH   2   3
ENDBRANCH   1   2
BRANCH   1  23
ATOM     23  C   UNL A   1      32.240  28.433  26.451  1.00  0.00     0.023 C 
BRANCH  23  24
ATOM     24  C   UNL A   1      33.063  29.560  25.833  1.00  0.00     0.116 C 
BRANCH  24  25
ATOM     25  N   UNL A   1      32.737  30.873  26.368  1.00  0.00    -0.352 N 
ATOM     26  C   UNL A   1      33.432  31.612  27.297  1.00  0.00     0.251 C 
ATOM     27  H   UNL A   1      31.915  31.285  26.019  1.00  0.00     0.163 HD
ATOM     28  O   UNL A   1      32.966  32.664  27.716  1.00  0.00    -0.269 OA
BRANCH  26  29
ATOM     29  C   UNL A   1      34.714  31.093  27.817  1.00  0.00     0.039 A 
ATOM     30  C   UNL A   1      35.807  31.961  27.893  1.00  0.00     0.014 A 
ATOM     31  C   UNL A   1      34.824  29.775  28.265  1.00  0.00     0.014 A 
ATOM     32  C   UNL A   1      36.992  31.525  28.489  1.00  0.00     0.010 A 
ATOM     33  C   UNL A   1      35.985  29.362  28.914  1.00  0.00     0.010 A 
ATOM     34  C   UNL A   1      37.077  30.235  29.039  1.00  0.00    -0.014 A 
BRANCH  34  35
ATOM     35  C   UNL A   1      38.296  29.782  29.755  1.00  0.00     0.031 A 
ATOM     36  C   UNL A   1      38.617  30.333  31.116  1.00  0.00     0.074 A 
ATOM     37  C   UNL A   1      39.148  28.934  29.144  1.00  0.00     0.049 A 
ATOM     38  N   UNL A   1      39.674  30.137  31.860  1.00  0.00    -0.248 NA
ATOM     39  C   UNL A   1      37.629  31.252  31.702  1.00  0.00     0.031 C 
ATOM     40  C   UNL A   1      38.965  28.369  27.805  1.00  0.00     0.029 A 
ATOM     41  N   UNL A   1      40.345  28.410  29.562  1.00  0.00    -0.354 N 
ATOM     42  C   UNL A   1      39.489  30.919  32.995  1.00  0.00     0.074 A 
ATOM     43  C   UNL A   1      38.243  31.633  32.813  1.00  0.00     0.031 C 
ATOM     44  C   UNL A   1      40.002  27.564  27.520  1.00  0.00     0.029 A 
ATOM     45  C   UNL A   1      40.944  27.587  28.634  1.00  0.00     0.049 A 
ATOM     46  H   UNL A   1      40.740  28.603  30.443  1.00  0.00     0.167 HD
ATOM     47  C   UNL A   1      40.278  31.019  34.094  1.00  0.00     0.034 A 
ATOM     48  C   UNL A   1      42.124  26.936  28.674  1.00  0.00     0.034 A 
ATOM     49  C   UNL A   1      41.507  30.283  34.267  1.00  0.00     0.049 A 
ATOM     50  C   UNL A   1      42.981  27.062  29.908  1.00  0.00     0.074 A 
ATOM     51  C   UNL A   1      42.351  30.262  35.364  1.00  0.00     0.029 A 
ATOM     52  N   UNL A   1      42.070  29.442  33.317  1.00  0.00    -0.354 N 
ATOM     53  N   UNL A   1      42.766  27.767  30.995  1.00  0.00    -0.248 NA
ATOM     54  C   UNL A   1      44.234  26.295  29.925  1.00  0.00     0.031 C 
ATOM     55  C   UNL A   1      43.451  29.453  35.056  1.00  0.00     0.029 A 
ATOM     56  C   UNL A   1      43.261  28.915  33.793  1.00  0.00     0.049 A 
ATOM     57  H   UNL A   1      41.680  29.246  32.434  1.00  0.00     0.167 HD
ATOM     58  C   UNL A   1      43.841  27.500  31.837  1.00  0.00     0.074 A 
ATOM     59  C   UNL A   1      44.696  26.562  31.138  1.00  0.00     0.031 C 
ATOM     60  C   UNL A   1      44.100  27.983  33.079  1.00  0.00     0.034 A 
BRANCH  47  61
ATOM     61  C   UNL A   1      39.841  31.972  35.178  1.00  0.00     0.023 A 
ATOM     62  C   UNL A   1      39.094  31.536  36.287  1.00  0.00     0.031 A 
ATOM     63  C   UNL A   1      40.155  33.339  35.093  1.00  0.00     0.131 A 
ATOM     64  C   UNL A   1      38.626  32.467  37.227  1.00  0.00     0.055 A 
ATOM     65  C   UNL A   1      39.752  34.250  36.072  1.00  0.00     0.041 A 
ATOM     66  F   UNL A   1      40.848  33.817  34.047  1.00  0.00    -0.206 F 
ATOM     67  C   UNL A   1      38.971  33.818  37.140  1.00  0.00     0.022 A 
BRANCH  64  68
ATOM     68  S   UNL A   1      37.454  31.907  38.491  1.00  0.00     0.124 S 
ATOM     69  O   UNL A   1      36.347  32.842  38.299  1.00  0.00    -0.237 OA
ATOM     70  O   UNL A   1      37.199  30.526  38.097  1.00  0.00    -0.237 OA
ATOM     71  O   UNL A   1      38.191  32.074  39.741  1.00  0.00    -0.744 OA
ENDBRANCH  64  68
ENDBRANCH  47  61
BRANCH  48  72
ATOM     72  C   UNL A   1      42.576  26.114  27.516  1.00  0.00     0.023 A 
ATOM     73  C   UNL A   1      42.316  24.735  27.466  1.00  0.00     0.031 A 
ATOM     74  C   UNL A   1      43.321  26.683  26.469  1.00  0.00     0.131 A 
ATOM     75  C   UNL A   1      42.841  23.962  26.419  1.00  0.00     0.055 A 
ATOM     76  C   UNL A   1      43.798  25.918  25.403  1.00  0.00     0.041 A 
ATOM     77  F   UNL A   1      43.591  27.999  26.465  1.00  0.00    -0.206 F 
ATOM     78  C   UNL A   1      43.571  24.546  25.382  1.00  0.00     0.022 A 
BRANCH  75  79
ATOM     79  S   UNL A   1      42.635  22.161  26.483  1.00  0.00     0.124 S 
ATOM     80  O   UNL A   1      41.314  21.991  25.888  1.00  0.00    -0.237 OA
ATOM     81  O   UNL A   1      43.763  21.699  25.682  1.00  0.00    -0.237 OA
ATOM     82  O   UNL A   1      42.721  21.860  27.911  1.00  0.00    -0.744 OA
ENDBRANCH  75  79
ENDBRANCH  48  72
BRANCH  60  83
ATOM     83  C   UNL A   1      45.332  27.458  33.773  1.00  0.00     0.023 A 
ATOM     84  C   UNL A   1      46.581  28.089  33.643  1.00  0.00     0.031 A 
ATOM     85  C   UNL A   1      45.253  26.299  34.565  1.00  0.00     0.131 A 
ATOM     86  C   UNL A   1      47.713  27.528  34.253  1.00  0.00     0.055 A 
ATOM     87  C   UNL A   1      46.371  25.777  35.215  1.00  0.00     0.041 A 
ATOM     88  F   UNL A   1      44.084  25.657  34.722  1.00  0.00    -0.206 F 
ATOM     89  C   UNL A   1      47.613  26.385  35.051  1.00  0.00     0.022 A 
BRANCH  86  90
ATOM     90  S   UNL A   1      49.336  28.267  33.924  1.00  0.00     0.124 S 
ATOM     91  O   UNL A   1      50.240  27.304  34.544  1.00  0.00    -0.237 OA
ATOM     92  O   UNL A   1      49.365  28.320  32.466  1.00  0.00    -0.237 OA
ATOM     93  O   UNL A   1      49.262  29.566  34.589  1.00  0.00    -0.744 OA
ENDBRANCH  86  90
ENDBRANCH  60  83
ENDBRANCH  34  35
ENDBRANCH  26  29
ENDBRANCH  24  25
ENDBRANCH  23  24
ENDBRANCH   1  23
TORSDOF 17
ENDMDL
MODEL 3
REMARK VINA RESULT:     -11.3      2.563      8.199
REMARK SMILES CC(=O)O[C@@H](C)c1nc2ccc(C(=O)NCCCCNC(=O)c3ccc(-c4c5nc(c(-c6cc(S(=O)(=O)[O-])ccc6F)c6ccc([nH]6)c(-c6cc(S(=O)(=O)[O-])ccc6F)c6nc(c(-c7cc(S(=O)(=O)[O-])ccc7F)c7ccc4[nH]7)C=C6)C=C5)cc3)cc2[nH]1
REMARK SMILES IDX 17 1 16 2 15 3 13 4 14 5 12 7 7 8 8 9 88 10 9 11 87 12 10 14
REMARK SMILES IDX 86 15 11 16 5 17 6 18 4 19 2 20 1 21 3 22 18 23 19 24 20 25
REMARK SMILES IDX 21 26 22 28 23 29 24 30 85 31 25 32 84 33 26 34 27 35 28 36
REMARK SMILES IDX 78 37 29 38 83 39 77 40 79 41 30 42 82 43 76 44 75 45 31 47
REMARK SMILES IDX 63 48 43 49 62 50 44 51 47 52 61 53 80 54 45 55 46 56 60 58
REMARK SMILES IDX 81 59 48 60 32 61 33 62 41 63 34 64 40 65 42 66 39 67 35 68
REMARK SMILES IDX 36 69 37 70 38 71 64 72 65 73 73 74 66 75 72 76 74 77 71 78
REMARK SMILES IDX 67 79 68 80 69 81 70 82 49 83 50 84 58 85 51 86 57 87 59 88
REMARK SMILES IDX 56 89 52 90 53 91 54 92 55 93
REMARK H PARENT 15 6 88 13 20 27 79 46 47 57
REMARK Flexibility Score: inf
ROOT
ATOM      1  C   UNL A   1      36.830  21.844  24.981  1.00  0.00     0.023 C 
ENDROOT
BRANCH   1   2
ATOM      2  C   UNL A   1      35.780  21.810  26.094  1.00  0.00     0.116 C 
BRANCH   2   3
ATOM      3  N   UNL A   1      34.772  20.805  25.821  1.00  0.00    -0.352 N 
ATOM      4  C   UNL A   1      33.626  20.821  25.068  1.00  0.00     0.251 C 
ATOM      5  O   UNL A   1      32.987  19.769  25.000  1.00  0.00    -0.269 OA
ATOM      6  H   UNL A   1      34.944  19.942  26.262  1.00  0.00     0.163 HD
BRANCH   4   7
ATOM      7  C   UNL A   1      33.126  22.011  24.310  1.00  0.00     0.042 A 
ATOM      8  C   UNL A   1      30.697  25.821  23.667  1.00  0.00     0.148 A 
ATOM      9  N   UNL A   1      31.490  25.478  22.667  1.00  0.00    -0.229 NA
ATOM     10  N   UNL A   1      30.828  24.934  24.711  1.00  0.00    -0.339 N 
ATOM     11  C   UNL A   1      32.110  24.323  23.060  1.00  0.00     0.089 A 
ATOM     12  C   UNL A   1      31.714  23.958  24.338  1.00  0.00     0.066 A 
ATOM     13  H   UNL A   1      30.365  24.992  25.577  1.00  0.00     0.168 HD
ATOM     14  C   UNL A   1      33.042  23.529  22.386  1.00  0.00     0.031 A 
ATOM     15  C   UNL A   1      32.192  22.819  24.991  1.00  0.00     0.042 A 
ATOM     16  C   UNL A   1      33.555  22.390  23.031  1.00  0.00     0.016 A 
BRANCH   8  17
ATOM     17  C   UNL A   1      29.789  27.018  23.708  1.00  0.00     0.239 C 
ATOM     18  C   UNL A   1      28.300  26.712  23.813  1.00  0.00     0.062 C 
BRANCH  17  19
ATOM     19  O   UNL A   1      30.105  27.879  22.593  1.00  0.00    -0.455 OA
BRANCH  19  20
ATOM     20  C   UNL A   1      29.465  29.075  22.500  1.00  0.00     0.303 C 
ATOM     21  C   UNL A   1      29.843  29.940  23.663  1.00  0.00     0.139 C 
ATOM     22  O   UNL A   1      28.677  29.407  21.626  1.00  0.00    -0.253 OA
ENDBRANCH  19  20
ENDBRANCH  17  19
ENDBRANCH   8  17
ENDBRANCH   4   7
ENDBRANCH   2   3
ENDBRANCH   1   2
BRANCH   1  23
ATOM     23  C   UNL A   1      37.829  20.684  25.012  1.00  0.00     0.023 C 
BRANCH  23  24
ATOM     24  C   UNL A   1      39.077  20.924  25.857  1.00  0.00     0.116 C 
BRANCH  24  25
ATOM     25  N   UNL A   1      39.964  19.773  25.918  1.00  0.00    -0.352 N 
ATOM     26  C   UNL A   1      41.321  19.751  26.139  1.00  0.00     0.251 C 
ATOM     27  H   UNL A   1      39.537  18.896  25.783  1.00  0.00     0.163 HD
ATOM     28  O   UNL A   1      41.939  18.697  26.061  1.00  0.00    -0.269 OA
BRANCH  26  29
ATOM     29  C   UNL A   1      42.025  21.021  26.420  1.00  0.00     0.039 A 
ATOM     30  C   UNL A   1      42.281  21.894  25.360  1.00  0.00     0.014 A 
ATOM     31  C   UNL A   1      42.391  21.364  27.724  1.00  0.00     0.014 A 
ATOM     32  C   UNL A   1      42.839  23.147  25.619  1.00  0.00     0.010 A 
ATOM     33  C   UNL A   1      42.889  22.636  27.987  1.00  0.00     0.010 A 
ATOM     34  C   UNL A   1      43.111  23.543  26.939  1.00  0.00    -0.014 A 
BRANCH  34  35
ATOM     35  C   UNL A   1      43.621  24.903  27.245  1.00  0.00     0.031 A 
ATOM     36  C   UNL A   1      42.700  25.937  27.830  1.00  0.00     0.074 A 
ATOM     37  C   UNL A   1      44.891  25.224  26.926  1.00  0.00     0.049 A 
ATOM     38  N   UNL A   1      42.926  27.200  28.080  1.00  0.00    -0.248 NA
ATOM     39  C   UNL A   1      41.333  25.496  28.146  1.00  0.00     0.031 C 
ATOM     40  C   UNL A   1      45.864  24.317  26.311  1.00  0.00     0.029 A 
ATOM     41  N   UNL A   1      45.579  26.403  27.058  1.00  0.00    -0.354 N 
ATOM     42  C   UNL A   1      41.728  27.712  28.566  1.00  0.00     0.074 A 
ATOM     43  C   UNL A   1      40.765  26.632  28.524  1.00  0.00     0.031 C 
ATOM     44  C   UNL A   1      47.026  24.967  26.138  1.00  0.00     0.029 A 
ATOM     45  C   UNL A   1      46.871  26.347  26.587  1.00  0.00     0.049 A 
ATOM     46  H   UNL A   1      45.186  27.215  27.453  1.00  0.00     0.167 HD
ATOM     47  C   UNL A   1      41.462  28.961  29.021  1.00  0.00     0.034 A 
ATOM     48  C   UNL A   1      47.819  27.303  26.515  1.00  0.00     0.034 A 
ATOM     49  C   UNL A   1      42.441  30.020  29.076  1.00  0.00     0.049 A 
ATOM     50  C   UNL A   1      47.498  28.684  27.030  1.00  0.00     0.074 A 
ATOM     51  C   UNL A   1      42.296  31.303  29.574  1.00  0.00     0.029 A 
ATOM     52  N   UNL A   1      43.746  29.919  28.612  1.00  0.00    -0.354 N 
ATOM     53  N   UNL A   1      46.374  29.136  27.535  1.00  0.00    -0.248 NA
ATOM     54  C   UNL A   1      48.578  29.678  26.976  1.00  0.00     0.031 C 
ATOM     55  C   UNL A   1      43.494  31.995  29.362  1.00  0.00     0.029 A 
ATOM     56  C   UNL A   1      44.409  31.124  28.792  1.00  0.00     0.049 A 
ATOM     57  H   UNL A   1      44.143  29.111  28.215  1.00  0.00     0.167 HD
ATOM     58  C   UNL A   1      46.624  30.459  27.889  1.00  0.00     0.074 A 
ATOM     59  C   UNL A   1      48.007  30.726  27.552  1.00  0.00     0.031 C 
ATOM     60  C   UNL A   1      45.788  31.371  28.446  1.00  0.00     0.034 A 
BRANCH  47  61
ATOM     61  C   UNL A   1      40.052  29.249  29.475  1.00  0.00     0.023 A 
ATOM     62  C   UNL A   1      39.725  29.371  30.837  1.00  0.00     0.031 A 
ATOM     63  C   UNL A   1      39.016  29.383  28.535  1.00  0.00     0.131 A 
ATOM     64  C   UNL A   1      38.388  29.545  31.224  1.00  0.00     0.055 A 
ATOM     65  C   UNL A   1      37.698  29.634  28.922  1.00  0.00     0.041 A 
ATOM     66  F   UNL A   1      39.264  29.257  27.221  1.00  0.00    -0.206 F 
ATOM     67  C   UNL A   1      37.375  29.704  30.275  1.00  0.00     0.022 A 
BRANCH  64  68
ATOM     68  S   UNL A   1      37.974  29.435  32.985  1.00  0.00     0.124 S 
ATOM     69  O   UNL A   1      37.103  30.595  33.155  1.00  0.00    -0.237 OA
ATOM     70  O   UNL A   1      37.326  28.131  33.077  1.00  0.00    -0.237 OA
ATOM     71  O   UNL A   1      39.271  29.536  33.650  1.00  0.00    -0.744 OA
ENDBRANCH  64  68
ENDBRANCH  47  61
BRANCH  48  72
ATOM     72  C   UNL A   1      49.157  27.003  25.930  1.00  0.00     0.023 A 
ATOM     73  C   UNL A   1      49.483  27.417  24.628  1.00  0.00     0.031 A 
ATOM     74  C   UNL A   1      50.109  26.254  26.642  1.00  0.00     0.131 A 
ATOM     75  C   UNL A   1      50.708  27.034  24.059  1.00  0.00     0.055 A 
ATOM     76  C   UNL A   1      51.347  25.920  26.090  1.00  0.00     0.041 A 
ATOM     77  F   UNL A   1      49.851  25.841  27.893  1.00  0.00    -0.206 F 
ATOM     78  C   UNL A   1      51.646  26.298  24.785  1.00  0.00     0.022 A 
BRANCH  75  79
ATOM     79  S   UNL A   1      51.016  27.436  22.317  1.00  0.00     0.124 S 
ATOM     80  O   UNL A   1      50.004  26.631  21.642  1.00  0.00    -0.237 OA
ATOM     81  O   UNL A   1      50.806  28.879  22.299  1.00  0.00    -0.237 OA
ATOM     82  O   UNL A   1      52.397  27.006  22.109  1.00  0.00    -0.744 OA
ENDBRANCH  75  79
ENDBRANCH  48  72
BRANCH  60  83
ATOM     83  C   UNL A   1      46.372  32.723  28.771  1.00  0.00     0.023 A 
ATOM     84  C   UNL A   1      46.964  32.994  30.016  1.00  0.00     0.031 A 
ATOM     85  C   UNL A   1      46.322  33.758  27.821  1.00  0.00     0.131 A 
ATOM     86  C   UNL A   1      47.436  34.284  30.298  1.00  0.00     0.055 A 
ATOM     87  C   UNL A   1      46.843  35.024  28.086  1.00  0.00     0.041 A 
ATOM     88  F   UNL A   1      45.766  33.552  26.616  1.00  0.00    -0.206 F 
ATOM     89  C   UNL A   1      47.393  35.297  29.336  1.00  0.00     0.022 A 
BRANCH  86  90
ATOM     90  S   UNL A   1      48.036  34.647  31.972  1.00  0.00     0.124 S 
ATOM     91  O   UNL A   1      49.182  35.508  31.704  1.00  0.00    -0.237 OA
ATOM     92  O   UNL A   1      46.880  35.297  32.583  1.00  0.00    -0.237 OA
ATOM     93  O   UNL A   1      48.362  33.329  32.512  1.00  0.00    -0.744 OA
ENDBRANCH  86  90
ENDBRANCH  60  83
ENDBRANCH  34  35
ENDBRANCH  26  29
ENDBRANCH  24  25
ENDBRANCH  23  24
ENDBRANCH   1  23
TORSDOF 17
ENDMDL
