MODEL 1
REMARK VINA RESULT:     -12.1      0.000      0.000
REMARK SMILES CO[C@@H]1C[C@@H](C(=O)NCCCCNC(=O)c2ccc(-c3c4nc(c(-c5cc(S(=O)(=O)[O-])ccc5F)c5ccc([nH]5)c(-c5cc(S(=O)(=O)[O-])ccc5F)c5nc(c(-c6cc(S(=O)(=O)[O-])ccc6F)c6ccc3[nH]6)C=C5)C=C4)cc2)N(C(=O)c2nc(C(C)C)n[nH]2)C1
REMARK SMILES IDX 10 1 9 2 8 3 6 4 7 5 5 7 3 8 4 9 90 10 79 11 2 12 1 13 80 14
REMARK SMILES IDX 81 15 82 16 83 17 89 18 84 19 88 20 85 22 86 23 87 24 11 25
REMARK SMILES IDX 12 26 13 27 14 28 15 30 16 31 17 32 78 33 18 34 77 35 19 36
REMARK SMILES IDX 20 37 21 38 71 39 22 40 76 41 70 42 72 43 23 44 75 45 69 46
REMARK SMILES IDX 68 47 24 49 56 50 36 51 55 52 37 53 40 54 54 55 73 56 38 57
REMARK SMILES IDX 39 58 53 60 74 61 41 62 25 63 26 64 34 65 27 66 33 67 35 68
REMARK SMILES IDX 32 69 28 70 29 71 30 72 31 73 57 74 58 75 66 76 59 77 65 78
REMARK SMILES IDX 67 79 64 80 60 81 61 82 62 83 63 84 42 85 43 86 51 87 44 88
REMARK SMILES IDX 50 89 52 90 49 91 45 92 46 93 47 94 48 95
REMARK H PARENT 8 6 89 21 13 29 72 48 40 59
REMARK Flexibility Score: inf
ROOT
ATOM      1  C   UNL A   1      31.851  29.859  26.875  1.00  0.00     0.023 C 
ENDROOT
BRANCH   1   2
ATOM      2  C   UNL A   1      33.136  29.146  26.461  1.00  0.00     0.116 C 
BRANCH   2   3
ATOM      3  N   UNL A   1      33.404  29.298  25.040  1.00  0.00    -0.354 N 
ATOM      4  C   UNL A   1      33.286  28.372  24.042  1.00  0.00     0.242 C 
ATOM      5  O   UNL A   1      33.528  28.710  22.880  1.00  0.00    -0.273 OA
ATOM      6  H   UNL A   1      33.711  30.189  24.759  1.00  0.00     0.163 HD
BRANCH   4   7
ATOM      7  C   UNL A   1      32.864  26.935  24.397  1.00  0.00     0.177 C 
ATOM      8  C   UNL A   1      33.326  24.751  23.418  1.00  0.00     0.139 C 
ATOM      9  C   UNL A   1      34.007  25.989  23.994  1.00  0.00     0.069 C 
ATOM     10  C   UNL A   1      31.987  25.259  22.886  1.00  0.00     0.153 C 
ATOM     11  N   UNL A   1      31.688  26.456  23.657  1.00  0.00    -0.321 N 
BRANCH   8  12
ATOM     12  O   UNL A   1      33.242  23.664  24.342  1.00  0.00    -0.380 OA
ATOM     13  C   UNL A   1      31.957  23.118  24.600  1.00  0.00     0.195 C 
ENDBRANCH   8  12
BRANCH  11  14
ATOM     14  C   UNL A   1      30.372  26.888  23.796  1.00  0.00     0.291 C 
ATOM     15  O   UNL A   1      29.572  26.235  24.468  1.00  0.00    -0.265 OA
BRANCH  14  16
ATOM     16  C   UNL A   1      29.978  28.089  23.097  1.00  0.00     0.214 A 
ATOM     17  N   UNL A   1      28.919  28.834  23.355  1.00  0.00    -0.207 NA
ATOM     18  N   UNL A   1      30.601  28.580  21.985  1.00  0.00    -0.255 N 
ATOM     19  C   UNL A   1      28.946  29.781  22.357  1.00  0.00     0.153 A 
ATOM     20  N   UNL A   1      29.984  29.677  21.519  1.00  0.00    -0.158 NA
ATOM     21  H   UNL A   1      31.401  28.179  21.576  1.00  0.00     0.192 HD
BRANCH  19  22
ATOM     22  C   UNL A   1      27.891  30.825  22.183  1.00  0.00     0.053 C 
ATOM     23  C   UNL A   1      27.639  31.573  23.494  1.00  0.00     0.016 C 
ATOM     24  C   UNL A   1      28.234  31.806  21.063  1.00  0.00     0.016 C 
ENDBRANCH  19  22
ENDBRANCH  14  16
ENDBRANCH  11  14
ENDBRANCH   4   7
ENDBRANCH   2   3
ENDBRANCH   1   2
BRANCH   1  25
ATOM     25  C   UNL A   1      31.843  31.375  26.632  1.00  0.00     0.023 C 
BRANCH  25  26
ATOM     26  C   UNL A   1      33.012  32.149  27.247  1.00  0.00     0.116 C 
BRANCH  26  27
ATOM     27  N   UNL A   1      32.664  33.517  27.592  1.00  0.00    -0.352 N 
ATOM     28  C   UNL A   1      33.242  34.343  28.526  1.00  0.00     0.251 C 
ATOM     29  H   UNL A   1      31.912  33.906  27.089  1.00  0.00     0.163 HD
ATOM     30  O   UNL A   1      32.733  35.436  28.765  1.00  0.00    -0.269 OA
BRANCH  28  31
ATOM     31  C   UNL A   1      34.444  33.903  29.266  1.00  0.00     0.039 A 
ATOM     32  C   UNL A   1      34.283  33.022  30.341  1.00  0.00     0.014 A 
ATOM     33  C   UNL A   1      35.717  34.368  28.923  1.00  0.00     0.014 A 
ATOM     34  C   UNL A   1      35.404  32.553  31.032  1.00  0.00     0.010 A 
ATOM     35  C   UNL A   1      36.837  33.885  29.598  1.00  0.00     0.010 A 
ATOM     36  C   UNL A   1      36.688  32.965  30.648  1.00  0.00    -0.014 A 
BRANCH  36  37
ATOM     37  C   UNL A   1      37.897  32.430  31.317  1.00  0.00     0.031 A 
ATOM     38  C   UNL A   1      38.694  31.332  30.676  1.00  0.00     0.074 A 
ATOM     39  C   UNL A   1      38.217  32.870  32.549  1.00  0.00     0.049 A 
ATOM     40  N   UNL A   1      39.684  30.635  31.170  1.00  0.00    -0.248 NA
ATOM     41  C   UNL A   1      38.308  30.959  29.309  1.00  0.00     0.031 C 
ATOM     42  C   UNL A   1      37.497  33.908  33.291  1.00  0.00     0.029 A 
ATOM     43  N   UNL A   1      39.211  32.474  33.406  1.00  0.00    -0.354 N 
ATOM     44  C   UNL A   1      40.023  29.714  30.186  1.00  0.00     0.074 A 
ATOM     45  C   UNL A   1      39.128  29.945  29.070  1.00  0.00     0.031 C 
ATOM     46  C   UNL A   1      38.058  34.046  34.503  1.00  0.00     0.029 A 
ATOM     47  C   UNL A   1      39.158  33.096  34.628  1.00  0.00     0.049 A 
ATOM     48  H   UNL A   1      39.895  31.807  33.167  1.00  0.00     0.167 HD
ATOM     49  C   UNL A   1      40.986  28.760  30.214  1.00  0.00     0.034 A 
ATOM     50  C   UNL A   1      39.894  32.901  35.738  1.00  0.00     0.034 A 
ATOM     51  C   UNL A   1      41.887  28.546  31.318  1.00  0.00     0.049 A 
ATOM     52  C   UNL A   1      40.978  31.864  35.735  1.00  0.00     0.074 A 
ATOM     53  C   UNL A   1      42.940  27.651  31.416  1.00  0.00     0.029 A 
ATOM     54  N   UNL A   1      41.838  29.234  32.521  1.00  0.00    -0.354 N 
ATOM     55  N   UNL A   1      41.299  31.012  34.790  1.00  0.00    -0.248 NA
ATOM     56  C   UNL A   1      41.800  31.764  36.948  1.00  0.00     0.031 C 
ATOM     57  C   UNL A   1      43.508  27.779  32.692  1.00  0.00     0.029 A 
ATOM     58  C   UNL A   1      42.828  28.773  33.375  1.00  0.00     0.049 A 
ATOM     59  H   UNL A   1      41.193  29.946  32.739  1.00  0.00     0.167 HD
ATOM     60  C   UNL A   1      42.363  30.275  35.294  1.00  0.00     0.074 A 
ATOM     61  C   UNL A   1      42.630  30.782  36.627  1.00  0.00     0.031 C 
ATOM     62  C   UNL A   1      43.064  29.276  34.705  1.00  0.00     0.034 A 
BRANCH  49  63
ATOM     63  C   UNL A   1      41.066  27.847  29.023  1.00  0.00     0.023 A 
ATOM     64  C   UNL A   1      42.054  28.009  28.038  1.00  0.00     0.031 A 
ATOM     65  C   UNL A   1      40.106  26.837  28.847  1.00  0.00     0.131 A 
ATOM     66  C   UNL A   1      42.026  27.208  26.887  1.00  0.00     0.055 A 
ATOM     67  C   UNL A   1      40.114  26.008  27.724  1.00  0.00     0.041 A 
ATOM     68  F   UNL A   1      39.128  26.660  29.750  1.00  0.00    -0.206 F 
ATOM     69  C   UNL A   1      41.070  26.199  26.731  1.00  0.00     0.022 A 
BRANCH  66  70
ATOM     70  S   UNL A   1      43.187  27.575  25.543  1.00  0.00     0.124 S 
ATOM     71  O   UNL A   1      42.294  28.094  24.511  1.00  0.00    -0.237 OA
ATOM     72  O   UNL A   1      44.085  28.545  26.160  1.00  0.00    -0.237 OA
ATOM     73  O   UNL A   1      43.786  26.275  25.243  1.00  0.00    -0.744 OA
ENDBRANCH  66  70
ENDBRANCH  49  63
BRANCH  50  74
ATOM     74  C   UNL A   1      39.589  33.668  36.968  1.00  0.00     0.023 A 
ATOM     75  C   UNL A   1      38.854  33.095  38.015  1.00  0.00     0.031 A 
ATOM     76  C   UNL A   1      40.043  34.990  37.106  1.00  0.00     0.131 A 
ATOM     77  C   UNL A   1      38.578  33.855  39.162  1.00  0.00     0.055 A 
ATOM     78  C   UNL A   1      39.775  35.738  38.252  1.00  0.00     0.041 A 
ATOM     79  F   UNL A   1      40.765  35.563  36.130  1.00  0.00    -0.206 F 
ATOM     80  C   UNL A   1      39.034  35.171  39.287  1.00  0.00     0.022 A 
BRANCH  77  81
ATOM     81  S   UNL A   1      37.605  33.095  40.494  1.00  0.00     0.124 S 
ATOM     82  O   UNL A   1      37.530  34.177  41.470  1.00  0.00    -0.237 OA
ATOM     83  O   UNL A   1      36.360  32.764  39.807  1.00  0.00    -0.237 OA
ATOM     84  O   UNL A   1      38.415  31.947  40.895  1.00  0.00    -0.744 OA
ENDBRANCH  77  81
ENDBRANCH  50  74
BRANCH  62  85
ATOM     85  C   UNL A   1      44.196  28.695  35.500  1.00  0.00     0.023 A 
ATOM     86  C   UNL A   1      43.984  27.642  36.403  1.00  0.00     0.031 A 
ATOM     87  C   UNL A   1      45.490  29.225  35.371  1.00  0.00     0.131 A 
ATOM     88  C   UNL A   1      45.056  27.164  37.172  1.00  0.00     0.055 A 
ATOM     89  C   UNL A   1      46.557  28.731  36.121  1.00  0.00     0.041 A 
ATOM     90  F   UNL A   1      45.730  30.238  34.523  1.00  0.00    -0.206 F 
ATOM     91  C   UNL A   1      46.341  27.699  37.032  1.00  0.00     0.022 A 
BRANCH  88  92
ATOM     92  S   UNL A   1      44.746  25.851  38.385  1.00  0.00     0.124 S 
ATOM     93  O   UNL A   1      43.935  24.912  37.617  1.00  0.00    -0.237 OA
ATOM     94  O   UNL A   1      46.095  25.405  38.720  1.00  0.00    -0.237 OA
ATOM     95  O   UNL A   1      44.040  26.541  39.464  1.00  0.00    -0.744 OA
ENDBRANCH  88  92
ENDBRANCH  62  85
ENDBRANCH  36  37
ENDBRANCH  28  31
ENDBRANCH  26  27
ENDBRANCH  25  26
ENDBRANCH   1  25
TORSDOF 18
ENDMDL
MODEL 2
REMARK VINA RESULT:     -11.8      2.819      4.893
REMARK SMILES CO[C@@H]1C[C@@H](C(=O)NCCCCNC(=O)c2ccc(-c3c4nc(c(-c5cc(S(=O)(=O)[O-])ccc5F)c5ccc([nH]5)c(-c5cc(S(=O)(=O)[O-])ccc5F)c5nc(c(-c6cc(S(=O)(=O)[O-])ccc6F)c6ccc3[nH]6)C=C5)C=C4)cc2)N(C(=O)c2nc(C(C)C)n[nH]2)C1
REMARK SMILES IDX 10 1 9 2 8 3 6 4 7 5 5 7 3 8 4 9 90 10 79 11 2 12 1 13 80 14
REMARK SMILES IDX 81 15 82 16 83 17 89 18 84 19 88 20 85 22 86 23 87 24 11 25
REMARK SMILES IDX 12 26 13 27 14 28 15 30 16 31 17 32 78 33 18 34 77 35 19 36
REMARK SMILES IDX 20 37 21 38 71 39 22 40 76 41 70 42 72 43 23 44 75 45 69 46
REMARK SMILES IDX 68 47 24 49 56 50 36 51 55 52 37 53 40 54 54 55 73 56 38 57
REMARK SMILES IDX 39 58 53 60 74 61 41 62 25 63 26 64 34 65 27 66 33 67 35 68
REMARK SMILES IDX 32 69 28 70 29 71 30 72 31 73 57 74 58 75 66 76 59 77 65 78
REMARK SMILES IDX 67 79 64 80 60 81 61 82 62 83 63 84 42 85 43 86 51 87 44 88
REMARK SMILES IDX 50 89 52 90 49 91 45 92 46 93 47 94 48 95
REMARK H PARENT 8 6 89 21 13 29 72 48 40 59
REMARK Flexibility Score: inf
ROOT
ATOM      1  C   UNL A   1      31.354  27.510  26.571  1.00  0.00     0.023 C 
ENDROOT
BRANCH   1   2
ATOM      2  C   UNL A   1      32.180  26.280  26.940  1.00  0.00     0.116 C 
BRANCH   2   3
ATOM      3  N   UNL A   1      31.416  25.052  26.790  1.00  0.00    -0.354 N 
ATOM      4  C   UNL A   1      31.546  24.072  25.847  1.00  0.00     0.242 C 
ATOM      5  O   UNL A   1      30.818  23.077  25.913  1.00  0.00    -0.273 OA
ATOM      6  H   UNL A   1      30.711  24.906  27.461  1.00  0.00     0.163 HD
BRANCH   4   7
ATOM      7  C   UNL A   1      32.587  24.241  24.726  1.00  0.00     0.177 C 
ATOM      8  C   UNL A   1      32.474  24.159  22.293  1.00  0.00     0.139 C 
ATOM      9  C   UNL A   1      31.881  24.863  23.510  1.00  0.00     0.069 C 
ATOM     10  C   UNL A   1      32.918  22.794  22.815  1.00  0.00     0.153 C 
ATOM     11  N   UNL A   1      33.154  22.976  24.239  1.00  0.00    -0.321 N 
BRANCH   8  12
ATOM     12  O   UNL A   1      33.489  24.918  21.631  1.00  0.00    -0.380 OA
ATOM     13  C   UNL A   1      33.532  26.315  21.879  1.00  0.00     0.195 C 
ENDBRANCH   8  12
BRANCH  11  14
ATOM     14  C   UNL A   1      34.012  22.119  24.921  1.00  0.00     0.291 C 
ATOM     15  O   UNL A   1      35.072  22.542  25.387  1.00  0.00    -0.265 OA
BRANCH  14  16
ATOM     16  C   UNL A   1      33.637  20.727  25.022  1.00  0.00     0.214 A 
ATOM     17  N   UNL A   1      34.375  19.690  24.670  1.00  0.00    -0.207 NA
ATOM     18  N   UNL A   1      32.407  20.282  25.410  1.00  0.00    -0.255 N 
ATOM     19  C   UNL A   1      33.532  18.621  24.870  1.00  0.00     0.153 A 
ATOM     20  N   UNL A   1      32.328  18.943  25.357  1.00  0.00    -0.158 NA
ATOM     21  H   UNL A   1      31.669  20.869  25.692  1.00  0.00     0.192 HD
BRANCH  19  22
ATOM     22  C   UNL A   1      33.900  17.210  24.540  1.00  0.00     0.053 C 
ATOM     23  C   UNL A   1      32.959  16.222  25.232  1.00  0.00     0.016 C 
ATOM     24  C   UNL A   1      33.926  16.961  23.033  1.00  0.00     0.016 C 
ENDBRANCH  19  22
ENDBRANCH  14  16
ENDBRANCH  11  14
ENDBRANCH   4   7
ENDBRANCH   2   3
ENDBRANCH   1   2
BRANCH   1  25
ATOM     25  C   UNL A   1      31.809  28.238  25.298  1.00  0.00     0.023 C 
BRANCH  25  26
ATOM     26  C   UNL A   1      32.889  29.304  25.497  1.00  0.00     0.116 C 
BRANCH  26  27
ATOM     27  N   UNL A   1      32.354  30.570  25.966  1.00  0.00    -0.352 N 
ATOM     28  C   UNL A   1      32.850  31.408  26.937  1.00  0.00     0.251 C 
ATOM     29  H   UNL A   1      31.523  30.870  25.532  1.00  0.00     0.163 HD
ATOM     30  O   UNL A   1      32.192  32.385  27.287  1.00  0.00    -0.269 OA
BRANCH  28  31
ATOM     31  C   UNL A   1      34.146  31.113  27.583  1.00  0.00     0.039 A 
ATOM     32  C   UNL A   1      35.067  32.154  27.745  1.00  0.00     0.014 A 
ATOM     33  C   UNL A   1      34.465  29.820  28.008  1.00  0.00     0.014 A 
ATOM     34  C   UNL A   1      36.282  31.915  28.393  1.00  0.00     0.010 A 
ATOM     35  C   UNL A   1      35.669  29.586  28.673  1.00  0.00     0.010 A 
ATOM     36  C   UNL A   1      36.578  30.634  28.881  1.00  0.00    -0.014 A 
BRANCH  36  37
ATOM     37  C   UNL A   1      37.827  30.369  29.632  1.00  0.00     0.031 A 
ATOM     38  C   UNL A   1      38.856  29.425  29.082  1.00  0.00     0.074 A 
ATOM     39  C   UNL A   1      37.987  30.908  30.856  1.00  0.00     0.049 A 
ATOM     40  N   UNL A   1      39.932  28.952  29.655  1.00  0.00    -0.248 NA
ATOM     41  C   UNL A   1      38.626  28.935  27.717  1.00  0.00     0.031 C 
ATOM     42  C   UNL A   1      37.040  31.812  31.513  1.00  0.00     0.029 A 
ATOM     43  N   UNL A   1      38.988  30.743  31.778  1.00  0.00    -0.354 N 
ATOM     44  C   UNL A   1      40.496  28.079  28.733  1.00  0.00     0.074 A 
ATOM     45  C   UNL A   1      39.639  28.092  27.565  1.00  0.00     0.031 C 
ATOM     46  C   UNL A   1      37.494  32.100  32.744  1.00  0.00     0.029 A 
ATOM     47  C   UNL A   1      38.747  31.387  32.966  1.00  0.00     0.049 A 
ATOM     48  H   UNL A   1      39.799  30.214  31.604  1.00  0.00     0.167 HD
ATOM     49  C   UNL A   1      41.622  27.333  28.852  1.00  0.00     0.034 A 
ATOM     50  C   UNL A   1      39.443  31.379  34.118  1.00  0.00     0.034 A 
ATOM     51  C   UNL A   1      42.483  27.338  30.007  1.00  0.00     0.049 A 
ATOM     52  C   UNL A   1      40.705  30.573  34.216  1.00  0.00     0.074 A 
ATOM     53  C   UNL A   1      43.681  26.670  30.197  1.00  0.00     0.029 A 
ATOM     54  N   UNL A   1      42.234  28.047  31.173  1.00  0.00    -0.354 N 
ATOM     55  N   UNL A   1      41.236  29.767  33.328  1.00  0.00    -0.248 NA
ATOM     56  C   UNL A   1      41.461  30.679  35.470  1.00  0.00     0.031 C 
ATOM     57  C   UNL A   1      44.141  26.951  31.492  1.00  0.00     0.029 A 
ATOM     58  C   UNL A   1      43.245  27.819  32.094  1.00  0.00     0.049 A 
ATOM     59  H   UNL A   1      41.453  28.627  31.326  1.00  0.00     0.167 HD
ATOM     60  C   UNL A   1      42.392  29.270  33.917  1.00  0.00     0.074 A 
ATOM     61  C   UNL A   1      42.481  29.866  35.236  1.00  0.00     0.031 C 
ATOM     62  C   UNL A   1      43.304  28.405  33.409  1.00  0.00     0.034 A 
BRANCH  49  63
ATOM     63  C   UNL A   1      41.944  26.411  27.710  1.00  0.00     0.023 A 
ATOM     64  C   UNL A   1      41.515  25.074  27.701  1.00  0.00     0.031 A 
ATOM     65  C   UNL A   1      42.739  26.865  26.644  1.00  0.00     0.131 A 
ATOM     66  C   UNL A   1      41.932  24.217  26.672  1.00  0.00     0.055 A 
ATOM     67  C   UNL A   1      43.108  26.021  25.595  1.00  0.00     0.041 A 
ATOM     68  F   UNL A   1      43.192  28.129  26.621  1.00  0.00    -0.206 F 
ATOM     69  C   UNL A   1      42.714  24.686  25.611  1.00  0.00     0.022 A 
BRANCH  66  70
ATOM     70  S   UNL A   1      41.532  22.452  26.794  1.00  0.00     0.124 S 
ATOM     71  O   UNL A   1      40.086  22.488  26.992  1.00  0.00    -0.237 OA
ATOM     72  O   UNL A   1      41.990  21.935  25.510  1.00  0.00    -0.237 OA
ATOM     73  O   UNL A   1      42.301  22.006  27.955  1.00  0.00    -0.744 OA
ENDBRANCH  66  70
ENDBRANCH  49  63
BRANCH  50  74
ATOM     74  C   UNL A   1      38.927  32.116  35.295  1.00  0.00     0.023 A 
ATOM     75  C   UNL A   1      38.306  31.443  36.356  1.00  0.00     0.031 A 
ATOM     76  C   UNL A   1      39.061  33.513  35.367  1.00  0.00     0.131 A 
ATOM     77  C   UNL A   1      37.824  32.175  37.451  1.00  0.00     0.055 A 
ATOM     78  C   UNL A   1      38.588  34.235  36.462  1.00  0.00     0.041 A 
ATOM     79  F   UNL A   1      39.666  34.187  34.377  1.00  0.00    -0.206 F 
ATOM     80  C   UNL A   1      37.961  33.565  37.511  1.00  0.00     0.022 A 
BRANCH  77  81
ATOM     81  S   UNL A   1      37.004  31.280  38.801  1.00  0.00     0.124 S 
ATOM     82  O   UNL A   1      35.736  31.993  38.913  1.00  0.00    -0.237 OA
ATOM     83  O   UNL A   1      36.930  29.925  38.265  1.00  0.00    -0.237 OA
ATOM     84  O   UNL A   1      37.918  31.451  39.927  1.00  0.00    -0.744 OA
ENDBRANCH  77  81
ENDBRANCH  50  74
BRANCH  62  85
ATOM     85  C   UNL A   1      44.480  28.085  34.285  1.00  0.00     0.023 A 
ATOM     86  C   UNL A   1      44.495  26.935  35.089  1.00  0.00     0.031 A 
ATOM     87  C   UNL A   1      45.579  28.958  34.333  1.00  0.00     0.131 A 
ATOM     88  C   UNL A   1      45.587  26.699  35.938  1.00  0.00     0.055 A 
ATOM     89  C   UNL A   1      46.672  28.707  35.162  1.00  0.00     0.041 A 
ATOM     90  F   UNL A   1      45.598  30.072  33.584  1.00  0.00    -0.206 F 
ATOM     91  C   UNL A   1      46.677  27.575  35.975  1.00  0.00     0.022 A 
BRANCH  88  92
ATOM     92  S   UNL A   1      45.554  25.245  37.023  1.00  0.00     0.124 S 
ATOM     93  O   UNL A   1      45.814  24.158  36.084  1.00  0.00    -0.237 OA
ATOM     94  O   UNL A   1      46.621  25.536  37.975  1.00  0.00    -0.237 OA
ATOM     95  O   UNL A   1      44.204  25.267  37.585  1.00  0.00    -0.744 OA
ENDBRANCH  88  92
ENDBRANCH  62  85
ENDBRANCH  36  37
ENDBRANCH  28  31
ENDBRANCH  26  27
ENDBRANCH  25  26
ENDBRANCH   1  25
TORSDOF 18
ENDMDL
MODEL 3
REMARK VINA RESULT:     -11.7      3.736      9.234
REMARK SMILES CO[C@@H]1C[C@@H](C(=O)NCCCCNC(=O)c2ccc(-c3c4nc(c(-c5cc(S(=O)(=O)[O-])ccc5F)c5ccc([nH]5)c(-c5cc(S(=O)(=O)[O-])ccc5F)c5nc(c(-c6cc(S(=O)(=O)[O-])ccc6F)c6ccc3[nH]6)C=C5)C=C4)cc2)N(C(=O)c2nc(C(C)C)n[nH]2)C1
REMARK SMILES IDX 10 1 9 2 8 3 6 4 7 5 5 7 3 8 4 9 90 10 79 11 2 12 1 13 80 14
REMARK SMILES IDX 81 15 82 16 83 17 89 18 84 19 88 20 85 22 86 23 87 24 11 25
REMARK SMILES IDX 12 26 13 27 14 28 15 30 16 31 17 32 78 33 18 34 77 35 19 36
REMARK SMILES IDX 20 37 21 38 71 39 22 40 76 41 70 42 72 43 23 44 75 45 69 46
REMARK SMILES IDX 68 47 24 49 56 50 36 51 55 52 37 53 40 54 54 55 73 56 38 57
REMARK SMILES IDX 39 58 53 60 74 61 41 62 25 63 26 64 34 65 27 66 33 67 35 68
REMARK SMILES IDX 32 69 28 70 29 71 30 72 31 73 57 74 58 75 66 76 59 77 65 78
REMARK SMILES IDX 67 79 64 80 60 81 61 82 62 83 63 84 42 85 43 86 51 87 44 88
REMARK SMILES IDX 50 89 52 90 49 91 45 92 46 93 47 94 48 95
REMARK H PARENT 8 6 89 21 13 29 72 48 40 59
REMARK Flexibility Score: inf
ROOT
ATOM      1  C   UNL A   1      31.758  27.714  26.363  1.00  0.00     0.023 C 
ENDROOT
BRANCH   1   2
ATOM      2  C   UNL A   1      31.161  26.321  26.179  1.00  0.00     0.116 C 
BRANCH   2   3
ATOM      3  N   UNL A   1      31.304  25.848  24.811  1.00  0.00    -0.354 N 
ATOM      4  C   UNL A   1      32.167  24.913  24.313  1.00  0.00     0.242 C 
ATOM      5  O   UNL A   1      32.107  24.620  23.116  1.00  0.00    -0.273 OA
ATOM      6  H   UNL A   1      30.694  26.255  24.156  1.00  0.00     0.163 HD
BRANCH   4   7
ATOM      7  C   UNL A   1      33.195  24.262  25.256  1.00  0.00     0.177 C 
ATOM      8  C   UNL A   1      35.521  23.581  25.003  1.00  0.00     0.139 C 
ATOM      9  C   UNL A   1      34.590  24.782  24.873  1.00  0.00     0.069 C 
ATOM     10  C   UNL A   1      34.622  22.368  24.771  1.00  0.00     0.153 C 
ATOM     11  N   UNL A   1      33.280  22.800  25.132  1.00  0.00    -0.321 N 
BRANCH   8  12
ATOM     12  O   UNL A   1      36.265  23.563  26.224  1.00  0.00    -0.380 OA
ATOM     13  C   UNL A   1      37.653  23.851  26.154  1.00  0.00     0.195 C 
ENDBRANCH   8  12
BRANCH  11  14
ATOM     14  C   UNL A   1      32.323  21.865  25.512  1.00  0.00     0.291 C 
ATOM     15  O   UNL A   1      31.305  22.224  26.107  1.00  0.00    -0.265 OA
BRANCH  14  16
ATOM     16  C   UNL A   1      32.585  20.474  25.224  1.00  0.00     0.214 A 
ATOM     17  N   UNL A   1      32.554  19.901  24.034  1.00  0.00    -0.207 NA
ATOM     18  N   UNL A   1      32.809  19.514  26.168  1.00  0.00    -0.255 N 
ATOM     19  C   UNL A   1      32.771  18.572  24.317  1.00  0.00     0.153 A 
ATOM     20  N   UNL A   1      32.967  18.303  25.613  1.00  0.00    -0.158 NA
ATOM     21  H   UNL A   1      32.849  19.689  27.136  1.00  0.00     0.192 HD
BRANCH  19  22
ATOM     22  C   UNL A   1      32.755  17.496  23.279  1.00  0.00     0.053 C 
ATOM     23  C   UNL A   1      32.338  18.054  21.917  1.00  0.00     0.016 C 
ATOM     24  C   UNL A   1      34.099  16.778  23.177  1.00  0.00     0.016 C 
ENDBRANCH  19  22
ENDBRANCH  14  16
ENDBRANCH  11  14
ENDBRANCH   4   7
ENDBRANCH   2   3
ENDBRANCH   1   2
BRANCH   1  25
ATOM     25  C   UNL A   1      33.232  27.736  26.794  1.00  0.00     0.023 C 
BRANCH  25  26
ATOM     26  C   UNL A   1      34.106  28.788  26.107  1.00  0.00     0.116 C 
BRANCH  26  27
ATOM     27  N   UNL A   1      33.808  30.141  26.543  1.00  0.00    -0.352 N 
ATOM     28  C   UNL A   1      34.476  30.916  27.461  1.00  0.00     0.251 C 
ATOM     29  H   UNL A   1      33.022  30.561  26.125  1.00  0.00     0.163 HD
ATOM     30  O   UNL A   1      34.005  32.001  27.794  1.00  0.00    -0.269 OA
BRANCH  28  31
ATOM     31  C   UNL A   1      35.729  30.429  28.076  1.00  0.00     0.039 A 
ATOM     32  C   UNL A   1      35.674  29.871  29.358  1.00  0.00     0.014 A 
ATOM     33  C   UNL A   1      36.953  30.538  27.408  1.00  0.00     0.014 A 
ATOM     34  C   UNL A   1      36.835  29.360  29.946  1.00  0.00     0.010 A 
ATOM     35  C   UNL A   1      38.107  30.010  27.986  1.00  0.00     0.010 A 
ATOM     36  C   UNL A   1      38.053  29.407  29.252  1.00  0.00    -0.014 A 
BRANCH  36  37
ATOM     37  C   UNL A   1      39.284  28.812  29.822  1.00  0.00     0.031 A 
ATOM     38  C   UNL A   1      39.982  29.474  30.974  1.00  0.00     0.074 A 
ATOM     39  C   UNL A   1      39.823  27.726  29.236  1.00  0.00     0.049 A 
ATOM     40  N   UNL A   1      41.142  29.193  31.508  1.00  0.00    -0.248 NA
ATOM     41  C   UNL A   1      39.289  30.615  31.586  1.00  0.00     0.031 C 
ATOM     42  C   UNL A   1      39.257  27.015  28.088  1.00  0.00     0.029 A 
ATOM     43  N   UNL A   1      40.987  27.054  29.506  1.00  0.00    -0.354 N 
ATOM     44  C   UNL A   1      41.339  30.143  32.502  1.00  0.00     0.074 A 
ATOM     45  C   UNL A   1      40.175  31.007  32.492  1.00  0.00     0.031 C 
ATOM     46  C   UNL A   1      40.090  26.022  27.735  1.00  0.00     0.029 A 
ATOM     47  C   UNL A   1      41.252  26.042  28.618  1.00  0.00     0.049 A 
ATOM     48  H   UNL A   1      41.575  27.277  30.264  1.00  0.00     0.167 HD
ATOM     49  C   UNL A   1      42.394  30.285  33.341  1.00  0.00     0.034 A 
ATOM     50  C   UNL A   1      42.327  25.239  28.506  1.00  0.00     0.034 A 
ATOM     51  C   UNL A   1      43.540  29.413  33.362  1.00  0.00     0.049 A 
ATOM     52  C   UNL A   1      43.468  25.391  29.468  1.00  0.00     0.074 A 
ATOM     53  C   UNL A   1      44.629  29.432  34.218  1.00  0.00     0.029 A 
ATOM     54  N   UNL A   1      43.748  28.363  32.479  1.00  0.00    -0.354 N 
ATOM     55  N   UNL A   1      43.632  26.284  30.415  1.00  0.00    -0.248 NA
ATOM     56  C   UNL A   1      44.568  24.426  29.344  1.00  0.00     0.031 C 
ATOM     57  C   UNL A   1      45.510  28.411  33.832  1.00  0.00     0.029 A 
ATOM     58  C   UNL A   1      44.954  27.738  32.757  1.00  0.00     0.049 A 
ATOM     59  H   UNL A   1      43.130  28.099  31.760  1.00  0.00     0.167 HD
ATOM     60  C   UNL A   1      44.854  25.986  31.004  1.00  0.00     0.074 A 
ATOM     61  C   UNL A   1      45.387  24.832  30.304  1.00  0.00     0.031 C 
ATOM     62  C   UNL A   1      45.476  26.605  32.037  1.00  0.00     0.034 A 
BRANCH  49  63
ATOM     63  C   UNL A   1      42.365  31.468  34.268  1.00  0.00     0.023 A 
ATOM     64  C   UNL A   1      41.536  31.494  35.401  1.00  0.00     0.031 A 
ATOM     65  C   UNL A   1      43.138  32.606  33.978  1.00  0.00     0.131 A 
ATOM     66  C   UNL A   1      41.455  32.661  36.176  1.00  0.00     0.055 A 
ATOM     67  C   UNL A   1      43.092  33.745  34.782  1.00  0.00     0.041 A 
ATOM     68  F   UNL A   1      43.927  32.636  32.892  1.00  0.00    -0.206 F 
ATOM     69  C   UNL A   1      42.239  33.781  35.881  1.00  0.00     0.022 A 
BRANCH  66  70
ATOM     70  S   UNL A   1      40.229  32.735  37.510  1.00  0.00     0.124 S 
ATOM     71  O   UNL A   1      39.320  31.654  37.138  1.00  0.00    -0.237 OA
ATOM     72  O   UNL A   1      41.042  32.507  38.699  1.00  0.00    -0.237 OA
ATOM     73  O   UNL A   1      39.669  34.080  37.386  1.00  0.00    -0.744 OA
ENDBRANCH  66  70
ENDBRANCH  49  63
BRANCH  50  74
ATOM     74  C   UNL A   1      42.398  24.255  27.400  1.00  0.00     0.023 A 
ATOM     75  C   UNL A   1      41.667  23.060  27.447  1.00  0.00     0.031 A 
ATOM     76  C   UNL A   1      43.202  24.513  26.277  1.00  0.00     0.131 A 
ATOM     77  C   UNL A   1      41.764  22.149  26.384  1.00  0.00     0.055 A 
ATOM     78  C   UNL A   1      43.288  23.608  25.220  1.00  0.00     0.041 A 
ATOM     79  F   UNL A   1      43.901  25.655  26.193  1.00  0.00    -0.206 F 
ATOM     80  C   UNL A   1      42.569  22.415  25.272  1.00  0.00     0.022 A 
BRANCH  77  81
ATOM     81  S   UNL A   1      40.823  20.599  26.480  1.00  0.00     0.124 S 
ATOM     82  O   UNL A   1      41.606  19.715  25.624  1.00  0.00    -0.237 OA
ATOM     83  O   UNL A   1      40.864  20.309  27.910  1.00  0.00    -0.237 OA
ATOM     84  O   UNL A   1      39.508  20.967  25.960  1.00  0.00    -0.744 OA
ENDBRANCH  77  81
ENDBRANCH  50  74
BRANCH  62  85
ATOM     85  C   UNL A   1      46.786  26.018  32.475  1.00  0.00     0.023 A 
ATOM     86  C   UNL A   1      46.848  25.060  33.498  1.00  0.00     0.031 A 
ATOM     87  C   UNL A   1      47.983  26.449  31.879  1.00  0.00     0.131 A 
ATOM     88  C   UNL A   1      48.095  24.578  33.920  1.00  0.00     0.055 A 
ATOM     89  C   UNL A   1      49.219  25.949  32.288  1.00  0.00     0.041 A 
ATOM     90  F   UNL A   1      47.966  27.370  30.903  1.00  0.00    -0.206 F 
ATOM     91  C   UNL A   1      49.280  25.013  33.317  1.00  0.00     0.022 A 
BRANCH  88  92
ATOM     92  S   UNL A   1      48.157  23.393  35.294  1.00  0.00     0.124 S 
ATOM     93  O   UNL A   1      47.828  22.137  34.627  1.00  0.00    -0.237 OA
ATOM     94  O   UNL A   1      49.533  23.525  35.763  1.00  0.00    -0.237 OA
ATOM     95  O   UNL A   1      47.140  23.888  36.219  1.00  0.00    -0.744 OA
ENDBRANCH  88  92
ENDBRANCH  62  85
ENDBRANCH  36  37
ENDBRANCH  28  31
ENDBRANCH  26  27
ENDBRANCH  25  26
ENDBRANCH   1  25
TORSDOF 18
ENDMDL
