MODEL 1
REMARK VINA RESULT:     -11.7      0.000      0.000
REMARK SMILES CCOc1ccc(N2C[C@H](C(=O)NCCCCNC(=O)c3ccc(-c4c5nc(c(-c6cc(S(=O)(=O)[O-])ccc6F)c6ccc([nH]6)c(-c6cc(S(=O)(=O)[O-])ccc6F)c6nc(c(-c7cc(S(=O)(=O)[O-])ccc7F)c7ccc4[nH]7)C=C6)C=C5)cc3)CC2=O)cc1C(F)(F)F
REMARK SMILES IDX 15 1 14 2 13 3 11 4 12 5 10 7 8 8 9 9 85 10 84 11 86 12 7 13
REMARK SMILES IDX 4 14 5 15 88 16 6 17 87 18 3 19 2 20 1 21 89 22 90 23 91 24
REMARK SMILES IDX 92 25 16 26 17 27 18 28 19 29 20 31 21 32 22 33 83 34 23 35
REMARK SMILES IDX 82 36 24 37 25 38 26 39 76 40 27 41 81 42 75 43 77 44 28 45
REMARK SMILES IDX 80 46 74 47 73 48 29 50 61 51 41 52 60 53 42 54 45 55 59 56
REMARK SMILES IDX 78 57 43 58 44 59 58 61 79 62 46 63 30 64 31 65 39 66 32 67
REMARK SMILES IDX 38 68 40 69 37 70 33 71 34 72 35 73 36 74 62 75 63 76 71 77
REMARK SMILES IDX 64 78 70 79 72 80 69 81 65 82 66 83 67 84 68 85 47 86 48 87
REMARK SMILES IDX 56 88 49 89 55 90 57 91 54 92 50 93 51 94 52 95 53 96
REMARK H PARENT 13 6 18 30 77 49 45 60
REMARK Flexibility Score: inf
ROOT
ATOM      1  C   UNL A   1      31.811  30.260  26.301  1.00  0.00     0.023 C 
ENDROOT
BRANCH   1   2
ATOM      2  C   UNL A   1      31.287  29.858  24.918  1.00  0.00     0.116 C 
BRANCH   2   3
ATOM      3  N   UNL A   1      32.309  29.156  24.173  1.00  0.00    -0.356 N 
ATOM      4  C   UNL A   1      32.433  27.859  23.799  1.00  0.00     0.225 C 
ATOM      5  O   UNL A   1      33.501  27.558  23.255  1.00  0.00    -0.275 OA
ATOM      6  H   UNL A   1      33.055  29.728  23.881  1.00  0.00     0.163 HD
BRANCH   4   7
ATOM      7  C   UNL A   1      31.291  26.845  23.863  1.00  0.00     0.107 C 
ATOM      8  N   UNL A   1      32.050  24.737  24.600  1.00  0.00    -0.312 N 
ATOM      9  C   UNL A   1      31.788  25.472  23.383  1.00  0.00     0.139 C 
ATOM     10  C   UNL A   1      31.463  25.358  25.701  1.00  0.00     0.227 C 
ATOM     11  C   UNL A   1      30.643  26.500  25.192  1.00  0.00     0.116 C 
ATOM     12  O   UNL A   1      31.522  25.057  26.884  1.00  0.00    -0.274 OA
BRANCH   8  13
ATOM     13  C   UNL A   1      32.693  23.481  24.651  1.00  0.00     0.044 A 
ATOM     14  C   UNL A   1      34.091  21.040  24.705  1.00  0.00     0.131 A 
ATOM     15  C   UNL A   1      32.691  21.057  24.636  1.00  0.00     0.049 A 
ATOM     16  C   UNL A   1      34.811  22.231  24.728  1.00  0.00     0.100 A 
ATOM     17  C   UNL A   1      31.994  22.274  24.631  1.00  0.00     0.030 A 
ATOM     18  C   UNL A   1      34.092  23.436  24.718  1.00  0.00     0.043 A 
BRANCH  14  19
ATOM     19  O   UNL A   1      34.749  19.847  24.622  1.00  0.00    -0.493 OA
BRANCH  19  20
ATOM     20  C   UNL A   1      33.880  18.714  24.734  1.00  0.00     0.226 C 
ATOM     21  C   UNL A   1      34.504  17.522  24.028  1.00  0.00     0.049 C 
ENDBRANCH  19  20
ENDBRANCH  14  19
BRANCH  16  22
ATOM     22  C   UNL A   1      36.308  22.304  24.820  1.00  0.00     0.420 C 
ATOM     23  F   UNL A   1      36.938  21.723  23.758  1.00  0.00    -0.166 F 
ATOM     24  F   UNL A   1      36.748  23.598  24.822  1.00  0.00    -0.166 F 
ATOM     25  F   UNL A   1      36.854  21.723  25.922  1.00  0.00    -0.166 F 
ENDBRANCH  16  22
ENDBRANCH   8  13
ENDBRANCH   4   7
ENDBRANCH   2   3
ENDBRANCH   1   2
BRANCH   1  26
ATOM     26  C   UNL A   1      31.614  31.740  26.643  1.00  0.00     0.023 C 
BRANCH  26  27
ATOM     27  C   UNL A   1      32.862  32.448  27.152  1.00  0.00     0.116 C 
BRANCH  27  28
ATOM     28  N   UNL A   1      32.607  33.811  27.591  1.00  0.00    -0.352 N 
ATOM     29  C   UNL A   1      33.236  34.508  28.595  1.00  0.00     0.251 C 
ATOM     30  H   UNL A   1      31.895  34.293  27.112  1.00  0.00     0.163 HD
ATOM     31  O   UNL A   1      32.825  35.613  28.930  1.00  0.00    -0.269 OA
BRANCH  29  32
ATOM     32  C   UNL A   1      34.382  33.883  29.287  1.00  0.00     0.039 A 
ATOM     33  C   UNL A   1      34.135  32.927  30.273  1.00  0.00     0.014 A 
ATOM     34  C   UNL A   1      35.691  34.201  28.919  1.00  0.00     0.014 A 
ATOM     35  C   UNL A   1      35.206  32.240  30.847  1.00  0.00     0.010 A 
ATOM     36  C   UNL A   1      36.751  33.464  29.437  1.00  0.00     0.010 A 
ATOM     37  C   UNL A   1      36.520  32.477  30.407  1.00  0.00    -0.014 A 
BRANCH  37  38
ATOM     38  C   UNL A   1      37.670  31.717  30.961  1.00  0.00     0.031 A 
ATOM     39  C   UNL A   1      38.160  32.019  32.351  1.00  0.00     0.074 A 
ATOM     40  C   UNL A   1      38.303  30.804  30.199  1.00  0.00     0.049 A 
ATOM     41  N   UNL A   1      39.202  31.544  32.984  1.00  0.00    -0.248 NA
ATOM     42  C   UNL A   1      37.390  33.009  33.119  1.00  0.00     0.031 C 
ATOM     43  C   UNL A   1      37.934  30.443  28.828  1.00  0.00     0.029 A 
ATOM     44  N   UNL A   1      39.395  30.016  30.465  1.00  0.00    -0.354 N 
ATOM     45  C   UNL A   1      39.215  32.179  34.222  1.00  0.00     0.074 A 
ATOM     46  C   UNL A   1      38.120  33.127  34.217  1.00  0.00     0.031 C 
ATOM     47  C   UNL A   1      38.766  29.485  28.386  1.00  0.00     0.029 A 
ATOM     48  C   UNL A   1      39.759  29.200  29.418  1.00  0.00     0.049 A 
ATOM     49  H   UNL A   1      39.874  30.032  31.325  1.00  0.00     0.167 HD
ATOM     50  C   UNL A   1      40.042  31.969  35.274  1.00  0.00     0.034 A 
ATOM     51  C   UNL A   1      40.783  28.332  29.299  1.00  0.00     0.034 A 
ATOM     52  C   UNL A   1      41.124  31.017  35.265  1.00  0.00     0.049 A 
ATOM     53  C   UNL A   1      41.727  28.160  30.466  1.00  0.00     0.074 A 
ATOM     54  C   UNL A   1      42.012  30.709  36.280  1.00  0.00     0.029 A 
ATOM     55  N   UNL A   1      41.469  30.216  34.182  1.00  0.00    -0.354 N 
ATOM     56  N   UNL A   1      41.708  28.749  31.640  1.00  0.00    -0.248 NA
ATOM     57  C   UNL A   1      42.824  27.198  30.294  1.00  0.00     0.031 C 
ATOM     58  C   UNL A   1      42.929  29.772  35.794  1.00  0.00     0.029 A 
ATOM     59  C   UNL A   1      42.567  29.433  34.500  1.00  0.00     0.049 A 
ATOM     60  H   UNL A   1      41.000  30.207  33.317  1.00  0.00     0.167 HD
ATOM     61  C   UNL A   1      42.763  28.193  32.359  1.00  0.00     0.074 A 
ATOM     62  C   UNL A   1      43.389  27.217  31.492  1.00  0.00     0.031 C 
ATOM     63  C   UNL A   1      43.175  28.459  33.625  1.00  0.00     0.034 A 
BRANCH  50  64
ATOM     64  C   UNL A   1      39.809  32.800  36.514  1.00  0.00     0.023 A 
ATOM     65  C   UNL A   1      38.989  32.342  37.561  1.00  0.00     0.031 A 
ATOM     66  C   UNL A   1      40.390  34.073  36.644  1.00  0.00     0.131 A 
ATOM     67  C   UNL A   1      38.712  33.177  38.652  1.00  0.00     0.055 A 
ATOM     68  C   UNL A   1      40.179  34.866  37.775  1.00  0.00     0.041 A 
ATOM     69  F   UNL A   1      41.164  34.575  35.669  1.00  0.00    -0.206 F 
ATOM     70  C   UNL A   1      39.323  34.425  38.780  1.00  0.00     0.022 A 
BRANCH  67  71
ATOM     71  S   UNL A   1      37.428  32.667  39.827  1.00  0.00     0.124 S 
ATOM     72  O   UNL A   1      38.079  31.548  40.505  1.00  0.00    -0.237 OA
ATOM     73  O   UNL A   1      37.233  33.871  40.625  1.00  0.00    -0.237 OA
ATOM     74  O   UNL A   1      36.305  32.298  38.968  1.00  0.00    -0.744 OA
ENDBRANCH  67  71
ENDBRANCH  50  64
BRANCH  51  75
ATOM     75  C   UNL A   1      40.991  27.558  28.040  1.00  0.00     0.023 A 
ATOM     76  C   UNL A   1      40.680  26.190  27.978  1.00  0.00     0.031 A 
ATOM     77  C   UNL A   1      41.573  28.152  26.905  1.00  0.00     0.131 A 
ATOM     78  C   UNL A   1      41.012  25.446  26.835  1.00  0.00     0.055 A 
ATOM     79  C   UNL A   1      41.841  27.420  25.746  1.00  0.00     0.041 A 
ATOM     80  F   UNL A   1      41.891  29.455  26.907  1.00  0.00    -0.206 F 
ATOM     81  C   UNL A   1      41.579  26.054  25.714  1.00  0.00     0.022 A 
BRANCH  78  82
ATOM     82  S   UNL A   1      40.806  23.645  26.887  1.00  0.00     0.124 S 
ATOM     83  O   UNL A   1      39.359  23.509  26.779  1.00  0.00    -0.237 OA
ATOM     84  O   UNL A   1      41.580  23.219  25.726  1.00  0.00    -0.237 OA
ATOM     85  O   UNL A   1      41.373  23.275  28.182  1.00  0.00    -0.744 OA
ENDBRANCH  78  82
ENDBRANCH  51  75
BRANCH  63  86
ATOM     86  C   UNL A   1      44.315  27.632  34.166  1.00  0.00     0.023 A 
ATOM     87  C   UNL A   1      44.099  26.427  34.858  1.00  0.00     0.031 A 
ATOM     88  C   UNL A   1      45.641  28.063  33.987  1.00  0.00     0.131 A 
ATOM     89  C   UNL A   1      45.188  25.725  35.394  1.00  0.00     0.055 A 
ATOM     90  C   UNL A   1      46.726  27.328  34.468  1.00  0.00     0.041 A 
ATOM     91  F   UNL A   1      45.907  29.206  33.334  1.00  0.00    -0.206 F 
ATOM     92  C   UNL A   1      46.502  26.158  35.188  1.00  0.00     0.022 A 
BRANCH  89  93
ATOM     93  S   UNL A   1      44.864  24.280  36.442  1.00  0.00     0.124 S 
ATOM     94  O   UNL A   1      44.109  24.867  37.544  1.00  0.00    -0.237 OA
ATOM     95  O   UNL A   1      44.110  23.408  35.547  1.00  0.00    -0.237 OA
ATOM     96  O   UNL A   1      46.201  23.802  36.791  1.00  0.00    -0.744 OA
ENDBRANCH  89  93
ENDBRANCH  63  86
ENDBRANCH  37  38
ENDBRANCH  29  32
ENDBRANCH  27  28
ENDBRANCH  26  27
ENDBRANCH   1  26
TORSDOF 18
ENDMDL
MODEL 2
REMARK VINA RESULT:     -11.4      4.801      9.814
REMARK SMILES CCOc1ccc(N2C[C@H](C(=O)NCCCCNC(=O)c3ccc(-c4c5nc(c(-c6cc(S(=O)(=O)[O-])ccc6F)c6ccc([nH]6)c(-c6cc(S(=O)(=O)[O-])ccc6F)c6nc(c(-c7cc(S(=O)(=O)[O-])ccc7F)c7ccc4[nH]7)C=C6)C=C5)cc3)CC2=O)cc1C(F)(F)F
REMARK SMILES IDX 15 1 14 2 13 3 11 4 12 5 10 7 8 8 9 9 85 10 84 11 86 12 7 13
REMARK SMILES IDX 4 14 5 15 88 16 6 17 87 18 3 19 2 20 1 21 89 22 90 23 91 24
REMARK SMILES IDX 92 25 16 26 17 27 18 28 19 29 20 31 21 32 22 33 83 34 23 35
REMARK SMILES IDX 82 36 24 37 25 38 26 39 76 40 27 41 81 42 75 43 77 44 28 45
REMARK SMILES IDX 80 46 74 47 73 48 29 50 61 51 41 52 60 53 42 54 45 55 59 56
REMARK SMILES IDX 78 57 43 58 44 59 58 61 79 62 46 63 30 64 31 65 39 66 32 67
REMARK SMILES IDX 38 68 40 69 37 70 33 71 34 72 35 73 36 74 62 75 63 76 71 77
REMARK SMILES IDX 64 78 70 79 72 80 69 81 65 82 66 83 67 84 68 85 47 86 48 87
REMARK SMILES IDX 56 88 49 89 55 90 57 91 54 92 50 93 51 94 52 95 53 96
REMARK H PARENT 13 6 18 30 77 49 45 60
REMARK Flexibility Score: inf
ROOT
ATOM      1  C   UNL A   1      36.075  22.164  23.874  1.00  0.00     0.023 C 
ENDROOT
BRANCH   1   2
ATOM      2  C   UNL A   1      35.551  21.016  24.743  1.00  0.00     0.116 C 
BRANCH   2   3
ATOM      3  N   UNL A   1      34.114  20.901  24.618  1.00  0.00    -0.356 N 
ATOM      4  C   UNL A   1      33.095  21.370  25.377  1.00  0.00     0.225 C 
ATOM      5  O   UNL A   1      31.964  20.994  25.049  1.00  0.00    -0.275 OA
ATOM      6  H   UNL A   1      33.822  20.385  23.832  1.00  0.00     0.163 HD
BRANCH   4   7
ATOM      7  C   UNL A   1      33.265  22.433  26.462  1.00  0.00     0.107 C 
ATOM      8  N   UNL A   1      32.029  24.380  25.963  1.00  0.00    -0.312 N 
ATOM      9  C   UNL A   1      33.356  23.825  25.815  1.00  0.00     0.139 C 
ATOM     10  C   UNL A   1      31.280  23.657  26.890  1.00  0.00     0.227 C 
ATOM     11  C   UNL A   1      32.185  22.642  27.509  1.00  0.00     0.116 C 
ATOM     12  O   UNL A   1      30.112  23.799  27.223  1.00  0.00    -0.274 OA
BRANCH   8  13
ATOM     13  C   UNL A   1      31.593  25.578  25.356  1.00  0.00     0.044 A 
ATOM     14  C   UNL A   1      30.766  28.033  24.258  1.00  0.00     0.131 A 
ATOM     15  C   UNL A   1      30.214  26.828  23.803  1.00  0.00     0.049 A 
ATOM     16  C   UNL A   1      31.717  28.033  25.275  1.00  0.00     0.100 A 
ATOM     17  C   UNL A   1      30.642  25.603  24.335  1.00  0.00     0.030 A 
ATOM     18  C   UNL A   1      32.127  26.796  25.794  1.00  0.00     0.043 A 
BRANCH  14  19
ATOM     19  O   UNL A   1      30.271  29.214  23.787  1.00  0.00    -0.493 OA
BRANCH  19  20
ATOM     20  C   UNL A   1      30.456  29.381  22.377  1.00  0.00     0.226 C 
ATOM     21  C   UNL A   1      29.303  30.187  21.805  1.00  0.00     0.049 C 
ENDBRANCH  19  20
ENDBRANCH  14  19
BRANCH  16  22
ATOM     22  C   UNL A   1      32.373  29.274  25.809  1.00  0.00     0.420 C 
ATOM     23  F   UNL A   1      33.398  29.008  26.670  1.00  0.00    -0.166 F 
ATOM     24  F   UNL A   1      32.941  30.013  24.809  1.00  0.00    -0.166 F 
ATOM     25  F   UNL A   1      31.553  30.125  26.482  1.00  0.00    -0.166 F 
ENDBRANCH  16  22
ENDBRANCH   8  13
ENDBRANCH   4   7
ENDBRANCH   2   3
ENDBRANCH   1   2
BRANCH   1  26
ATOM     26  C   UNL A   1      36.763  23.284  24.660  1.00  0.00     0.023 C 
BRANCH  26  27
ATOM     27  C   UNL A   1      37.157  22.915  26.084  1.00  0.00     0.116 C 
BRANCH  27  28
ATOM     28  N   UNL A   1      38.369  22.112  26.151  1.00  0.00    -0.352 N 
ATOM     29  C   UNL A   1      39.639  22.523  26.479  1.00  0.00     0.251 C 
ATOM     30  H   UNL A   1      38.266  21.158  25.935  1.00  0.00     0.163 HD
ATOM     31  O   UNL A   1      40.584  21.750  26.373  1.00  0.00    -0.269 OA
BRANCH  29  32
ATOM     32  C   UNL A   1      39.847  23.920  26.913  1.00  0.00     0.039 A 
ATOM     33  C   UNL A   1      39.883  24.204  28.279  1.00  0.00     0.014 A 
ATOM     34  C   UNL A   1      40.063  24.930  25.972  1.00  0.00     0.014 A 
ATOM     35  C   UNL A   1      40.201  25.494  28.704  1.00  0.00     0.010 A 
ATOM     36  C   UNL A   1      40.453  26.195  26.398  1.00  0.00     0.010 A 
ATOM     37  C   UNL A   1      40.525  26.491  27.768  1.00  0.00    -0.014 A 
BRANCH  37  38
ATOM     38  C   UNL A   1      40.924  27.857  28.198  1.00  0.00     0.031 A 
ATOM     39  C   UNL A   1      42.381  28.231  28.228  1.00  0.00     0.074 A 
ATOM     40  C   UNL A   1      39.986  28.732  28.611  1.00  0.00     0.049 A 
ATOM     41  N   UNL A   1      42.944  29.329  28.660  1.00  0.00    -0.248 NA
ATOM     42  C   UNL A   1      43.329  27.223  27.732  1.00  0.00     0.031 C 
ATOM     43  C   UNL A   1      38.544  28.474  28.649  1.00  0.00     0.029 A 
ATOM     44  N   UNL A   1      40.104  30.015  29.085  1.00  0.00    -0.354 N 
ATOM     45  C   UNL A   1      44.313  29.143  28.491  1.00  0.00     0.074 A 
ATOM     46  C   UNL A   1      44.494  27.797  27.989  1.00  0.00     0.031 C 
ATOM     47  C   UNL A   1      37.912  29.573  29.092  1.00  0.00     0.029 A 
ATOM     48  C   UNL A   1      38.902  30.595  29.419  1.00  0.00     0.049 A 
ATOM     49  H   UNL A   1      40.968  30.477  29.176  1.00  0.00     0.167 HD
ATOM     50  C   UNL A   1      45.321  30.022  28.706  1.00  0.00     0.034 A 
ATOM     51  C   UNL A   1      38.630  31.807  29.943  1.00  0.00     0.034 A 
ATOM     52  C   UNL A   1      45.125  31.361  29.202  1.00  0.00     0.049 A 
ATOM     53  C   UNL A   1      39.778  32.748  30.228  1.00  0.00     0.074 A 
ATOM     54  C   UNL A   1      46.071  32.342  29.439  1.00  0.00     0.029 A 
ATOM     55  N   UNL A   1      43.893  31.911  29.540  1.00  0.00    -0.354 N 
ATOM     56  N   UNL A   1      41.065  32.565  30.037  1.00  0.00    -0.248 NA
ATOM     57  C   UNL A   1      39.435  34.060  30.791  1.00  0.00     0.031 C 
ATOM     58  C   UNL A   1      45.423  33.459  29.977  1.00  0.00     0.029 A 
ATOM     59  C   UNL A   1      44.060  33.207  30.002  1.00  0.00     0.049 A 
ATOM     60  H   UNL A   1      43.028  31.447  29.461  1.00  0.00     0.167 HD
ATOM     61  C   UNL A   1      41.676  33.758  30.414  1.00  0.00     0.074 A 
ATOM     62  C   UNL A   1      40.618  34.653  30.833  1.00  0.00     0.031 C 
ATOM     63  C   UNL A   1      42.993  34.088  30.409  1.00  0.00     0.034 A 
BRANCH  50  64
ATOM     64  C   UNL A   1      46.726  29.549  28.416  1.00  0.00     0.023 A 
ATOM     65  C   UNL A   1      47.503  28.911  29.400  1.00  0.00     0.031 A 
ATOM     66  C   UNL A   1      47.308  29.759  27.154  1.00  0.00     0.131 A 
ATOM     67  C   UNL A   1      48.837  28.574  29.131  1.00  0.00     0.055 A 
ATOM     68  C   UNL A   1      48.610  29.342  26.866  1.00  0.00     0.041 A 
ATOM     69  F   UNL A   1      46.625  30.383  26.182  1.00  0.00    -0.206 F 
ATOM     70  C   UNL A   1      49.388  28.760  27.862  1.00  0.00     0.022 A 
BRANCH  67  71
ATOM     71  S   UNL A   1      49.884  28.025  30.506  1.00  0.00     0.124 S 
ATOM     72  O   UNL A   1      51.039  27.480  29.796  1.00  0.00    -0.237 OA
ATOM     73  O   UNL A   1      50.112  29.261  31.244  1.00  0.00    -0.237 OA
ATOM     74  O   UNL A   1      49.058  27.032  31.189  1.00  0.00    -0.744 OA
ENDBRANCH  67  71
ENDBRANCH  50  64
BRANCH  51  75
ATOM     75  C   UNL A   1      37.227  32.217  30.242  1.00  0.00     0.023 A 
ATOM     76  C   UNL A   1      36.425  32.810  29.255  1.00  0.00     0.031 A 
ATOM     77  C   UNL A   1      36.691  32.093  31.537  1.00  0.00     0.131 A 
ATOM     78  C   UNL A   1      35.160  33.318  29.589  1.00  0.00     0.055 A 
ATOM     79  C   UNL A   1      35.406  32.541  31.849  1.00  0.00     0.041 A 
ATOM     80  F   UNL A   1      37.412  31.534  32.521  1.00  0.00    -0.206 F 
ATOM     81  C   UNL A   1      34.639  33.175  30.876  1.00  0.00     0.022 A 
BRANCH  78  82
ATOM     82  S   UNL A   1      34.258  34.279  28.344  1.00  0.00     0.124 S 
ATOM     83  O   UNL A   1      33.995  35.521  29.061  1.00  0.00    -0.237 OA
ATOM     84  O   UNL A   1      35.230  34.357  27.259  1.00  0.00    -0.237 OA
ATOM     85  O   UNL A   1      33.081  33.457  28.068  1.00  0.00    -0.744 OA
ENDBRANCH  78  82
ENDBRANCH  51  75
BRANCH  63  86
ATOM     86  C   UNL A   1      43.350  35.500  30.806  1.00  0.00     0.023 A 
ATOM     87  C   UNL A   1      43.543  35.871  32.149  1.00  0.00     0.031 A 
ATOM     88  C   UNL A   1      43.496  36.491  29.819  1.00  0.00     0.131 A 
ATOM     89  C   UNL A   1      43.815  37.208  32.472  1.00  0.00     0.055 A 
ATOM     90  C   UNL A   1      43.828  37.808  30.141  1.00  0.00     0.041 A 
ATOM     91  F   UNL A   1      43.322  36.194  28.521  1.00  0.00    -0.206 F 
ATOM     92  C   UNL A   1      43.976  38.176  31.475  1.00  0.00     0.022 A 
BRANCH  89  93
ATOM     93  S   UNL A   1      43.869  37.689  34.219  1.00  0.00     0.124 S 
ATOM     94  O   UNL A   1      44.733  38.864  34.185  1.00  0.00    -0.237 OA
ATOM     95  O   UNL A   1      42.463  37.940  34.518  1.00  0.00    -0.237 OA
ATOM     96  O   UNL A   1      44.442  36.517  34.880  1.00  0.00    -0.744 OA
ENDBRANCH  89  93
ENDBRANCH  63  86
ENDBRANCH  37  38
ENDBRANCH  29  32
ENDBRANCH  27  28
ENDBRANCH  26  27
ENDBRANCH   1  26
TORSDOF 18
ENDMDL
MODEL 3
REMARK VINA RESULT:     -11.4      5.896      9.902
REMARK SMILES CCOc1ccc(N2C[C@H](C(=O)NCCCCNC(=O)c3ccc(-c4c5nc(c(-c6cc(S(=O)(=O)[O-])ccc6F)c6ccc([nH]6)c(-c6cc(S(=O)(=O)[O-])ccc6F)c6nc(c(-c7cc(S(=O)(=O)[O-])ccc7F)c7ccc4[nH]7)C=C6)C=C5)cc3)CC2=O)cc1C(F)(F)F
REMARK SMILES IDX 15 1 14 2 13 3 11 4 12 5 10 7 8 8 9 9 85 10 84 11 86 12 7 13
REMARK SMILES IDX 4 14 5 15 88 16 6 17 87 18 3 19 2 20 1 21 89 22 90 23 91 24
REMARK SMILES IDX 92 25 16 26 17 27 18 28 19 29 20 31 21 32 22 33 83 34 23 35
REMARK SMILES IDX 82 36 24 37 25 38 26 39 76 40 27 41 81 42 75 43 77 44 28 45
REMARK SMILES IDX 80 46 74 47 73 48 29 50 61 51 41 52 60 53 42 54 45 55 59 56
REMARK SMILES IDX 78 57 43 58 44 59 58 61 79 62 46 63 30 64 31 65 39 66 32 67
REMARK SMILES IDX 38 68 40 69 37 70 33 71 34 72 35 73 36 74 62 75 63 76 71 77
REMARK SMILES IDX 64 78 70 79 72 80 69 81 65 82 66 83 67 84 68 85 47 86 48 87
REMARK SMILES IDX 56 88 49 89 55 90 57 91 54 92 50 93 51 94 52 95 53 96
REMARK H PARENT 13 6 18 30 77 49 45 60
REMARK Flexibility Score: inf
ROOT
ATOM      1  C   UNL A   1      37.189  21.362  24.538  1.00  0.00     0.023 C 
ENDROOT
BRANCH   1   2
ATOM      2  C   UNL A   1      36.164  21.876  25.555  1.00  0.00     0.116 C 
BRANCH   2   3
ATOM      3  N   UNL A   1      34.818  21.621  25.091  1.00  0.00    -0.356 N 
ATOM      4  C   UNL A   1      33.604  21.959  25.590  1.00  0.00     0.225 C 
ATOM      5  O   UNL A   1      32.630  21.483  24.999  1.00  0.00    -0.275 OA
ATOM      6  H   UNL A   1      34.775  21.106  24.252  1.00  0.00     0.163 HD
BRANCH   4   7
ATOM      7  C   UNL A   1      33.401  22.996  26.695  1.00  0.00     0.107 C 
ATOM      8  N   UNL A   1      31.970  24.736  25.993  1.00  0.00    -0.312 N 
ATOM      9  C   UNL A   1      33.376  24.407  26.085  1.00  0.00     0.139 C 
ATOM     10  C   UNL A   1      31.197  23.869  26.764  1.00  0.00     0.227 C 
ATOM     11  C   UNL A   1      32.133  22.990  27.530  1.00  0.00     0.116 C 
ATOM     12  O   UNL A   1      29.982  23.809  26.880  1.00  0.00    -0.274 OA
BRANCH   8  13
ATOM     13  C   UNL A   1      31.458  25.869  25.325  1.00  0.00     0.044 A 
ATOM     14  C   UNL A   1      30.470  28.203  24.104  1.00  0.00     0.131 A 
ATOM     15  C   UNL A   1      30.034  26.941  23.681  1.00  0.00     0.049 A 
ATOM     16  C   UNL A   1      31.384  28.322  25.148  1.00  0.00     0.100 A 
ATOM     17  C   UNL A   1      30.544  25.776  24.275  1.00  0.00     0.030 A 
ATOM     18  C   UNL A   1      31.876  27.143  25.729  1.00  0.00     0.043 A 
BRANCH  14  19
ATOM     19  O   UNL A   1      29.896  29.321  23.570  1.00  0.00    -0.493 OA
BRANCH  19  20
ATOM     20  C   UNL A   1      30.257  29.542  22.203  1.00  0.00     0.226 C 
ATOM     21  C   UNL A   1      29.171  30.352  21.514  1.00  0.00     0.049 C 
ENDBRANCH  19  20
ENDBRANCH  14  19
BRANCH  16  22
ATOM     22  C   UNL A   1      31.917  29.632  25.651  1.00  0.00     0.420 C 
ATOM     23  F   UNL A   1      33.034  30.046  24.983  1.00  0.00    -0.166 F 
ATOM     24  F   UNL A   1      31.014  30.642  25.479  1.00  0.00    -0.166 F 
ATOM     25  F   UNL A   1      32.259  29.658  26.967  1.00  0.00    -0.166 F 
ENDBRANCH  16  22
ENDBRANCH   8  13
ENDBRANCH   4   7
ENDBRANCH   2   3
ENDBRANCH   1   2
BRANCH   1  26
ATOM     26  C   UNL A   1      37.972  20.130  25.001  1.00  0.00     0.023 C 
BRANCH  26  27
ATOM     27  C   UNL A   1      39.172  20.433  25.887  1.00  0.00     0.116 C 
BRANCH  27  28
ATOM     28  N   UNL A   1      40.132  19.341  25.942  1.00  0.00    -0.352 N 
ATOM     29  C   UNL A   1      41.489  19.418  26.145  1.00  0.00     0.251 C 
ATOM     30  H   UNL A   1      39.765  18.437  25.816  1.00  0.00     0.163 HD
ATOM     31  O   UNL A   1      42.186  18.415  26.043  1.00  0.00    -0.269 OA
BRANCH  29  32
ATOM     32  C   UNL A   1      42.093  20.733  26.443  1.00  0.00     0.039 A 
ATOM     33  C   UNL A   1      42.416  21.583  25.384  1.00  0.00     0.014 A 
ATOM     34  C   UNL A   1      42.280  21.143  27.765  1.00  0.00     0.014 A 
ATOM     35  C   UNL A   1      42.871  22.874  25.654  1.00  0.00     0.010 A 
ATOM     36  C   UNL A   1      42.662  22.454  28.032  1.00  0.00     0.010 A 
ATOM     37  C   UNL A   1      42.962  23.333  26.979  1.00  0.00    -0.014 A 
BRANCH  37  38
ATOM     38  C   UNL A   1      43.387  24.722  27.290  1.00  0.00     0.031 A 
ATOM     39  C   UNL A   1      42.407  25.679  27.912  1.00  0.00     0.074 A 
ATOM     40  C   UNL A   1      44.627  25.135  26.962  1.00  0.00     0.049 A 
ATOM     41  N   UNL A   1      42.545  26.953  28.172  1.00  0.00    -0.248 NA
ATOM     42  C   UNL A   1      41.087  25.132  28.262  1.00  0.00     0.031 C 
ATOM     43  C   UNL A   1      45.657  24.305  26.332  1.00  0.00     0.029 A 
ATOM     44  N   UNL A   1      45.233  26.359  27.106  1.00  0.00    -0.354 N 
ATOM     45  C   UNL A   1      41.329  27.362  28.713  1.00  0.00     0.074 A 
ATOM     46  C   UNL A   1      40.445  26.216  28.671  1.00  0.00     0.031 C 
ATOM     47  C   UNL A   1      46.774  25.035  26.173  1.00  0.00     0.029 A 
ATOM     48  C   UNL A   1      46.527  26.396  26.638  1.00  0.00     0.049 A 
ATOM     49  H   UNL A   1      44.784  27.137  27.508  1.00  0.00     0.167 HD
ATOM     50  C   UNL A   1      40.992  28.571  29.224  1.00  0.00     0.034 A 
ATOM     51  C   UNL A   1      47.407  27.415  26.578  1.00  0.00     0.034 A 
ATOM     52  C   UNL A   1      41.885  29.701  29.263  1.00  0.00     0.049 A 
ATOM     53  C   UNL A   1      46.986  28.769  27.100  1.00  0.00     0.074 A 
ATOM     54  C   UNL A   1      41.656  30.966  29.775  1.00  0.00     0.029 A 
ATOM     55  N   UNL A   1      43.185  29.705  28.770  1.00  0.00    -0.354 N 
ATOM     56  N   UNL A   1      45.841  29.131  27.633  1.00  0.00    -0.248 NA
ATOM     57  C   UNL A   1      47.980  29.848  27.023  1.00  0.00     0.031 C 
ATOM     58  C   UNL A   1      42.788  31.751  29.535  1.00  0.00     0.029 A 
ATOM     59  C   UNL A   1      43.758  30.954  28.946  1.00  0.00     0.049 A 
ATOM     60  H   UNL A   1      43.633  28.932  28.356  1.00  0.00     0.167 HD
ATOM     61  C   UNL A   1      45.997  30.467  27.994  1.00  0.00     0.074 A 
ATOM     62  C   UNL A   1      47.347  30.841  27.628  1.00  0.00     0.031 C 
ATOM     63  C   UNL A   1      45.109  31.309  28.581  1.00  0.00     0.034 A 
BRANCH  50  64
ATOM     64  C   UNL A   1      39.591  28.727  29.766  1.00  0.00     0.023 A 
ATOM     65  C   UNL A   1      38.549  29.236  28.971  1.00  0.00     0.031 A 
ATOM     66  C   UNL A   1      39.295  28.388  31.098  1.00  0.00     0.131 A 
ATOM     67  C   UNL A   1      37.285  29.464  29.533  1.00  0.00     0.055 A 
ATOM     68  C   UNL A   1      38.011  28.536  31.626  1.00  0.00     0.041 A 
ATOM     69  F   UNL A   1      40.253  27.919  31.913  1.00  0.00    -0.206 F 
ATOM     70  C   UNL A   1      37.000  29.091  30.847  1.00  0.00     0.022 A 
BRANCH  67  71
ATOM     71  S   UNL A   1      36.061  30.387  28.563  1.00  0.00     0.124 S 
ATOM     72  O   UNL A   1      36.907  31.025  27.556  1.00  0.00    -0.237 OA
ATOM     73  O   UNL A   1      35.179  29.332  28.079  1.00  0.00    -0.237 OA
ATOM     74  O   UNL A   1      35.469  31.299  29.537  1.00  0.00    -0.744 OA
ENDBRANCH  67  71
ENDBRANCH  50  64
BRANCH  51  75
ATOM     75  C   UNL A   1      48.769  27.219  26.002  1.00  0.00     0.023 A 
ATOM     76  C   UNL A   1      49.031  27.523  24.657  1.00  0.00     0.031 A 
ATOM     77  C   UNL A   1      49.810  26.656  26.764  1.00  0.00     0.131 A 
ATOM     78  C   UNL A   1      50.277  27.201  24.095  1.00  0.00     0.055 A 
ATOM     79  C   UNL A   1      51.068  26.398  26.216  1.00  0.00     0.041 A 
ATOM     80  F   UNL A   1      49.617  26.346  28.055  1.00  0.00    -0.206 F 
ATOM     81  C   UNL A   1      51.301  26.654  24.868  1.00  0.00     0.022 A 
BRANCH  78  82
ATOM     82  S   UNL A   1      50.493  27.396  22.305  1.00  0.00     0.124 S 
ATOM     83  O   UNL A   1      51.785  26.754  22.091  1.00  0.00    -0.237 OA
ATOM     84  O   UNL A   1      49.330  26.689  21.781  1.00  0.00    -0.237 OA
ATOM     85  O   UNL A   1      50.478  28.845  22.116  1.00  0.00    -0.744 OA
ENDBRANCH  78  82
ENDBRANCH  51  75
BRANCH  63  86
ATOM     86  C   UNL A   1      45.596  32.695  28.923  1.00  0.00     0.023 A 
ATOM     87  C   UNL A   1      45.470  33.772  28.029  1.00  0.00     0.031 A 
ATOM     88  C   UNL A   1      46.202  32.938  30.169  1.00  0.00     0.131 A 
ATOM     89  C   UNL A   1      45.992  35.028  28.370  1.00  0.00     0.055 A 
ATOM     90  C   UNL A   1      46.665  34.205  30.528  1.00  0.00     0.041 A 
ATOM     91  F   UNL A   1      46.350  31.946  31.062  1.00  0.00    -0.206 F 
ATOM     92  C   UNL A   1      46.573  35.256  29.621  1.00  0.00     0.022 A 
BRANCH  89  93
ATOM     93  S   UNL A   1      45.983  36.344  27.122  1.00  0.00     0.124 S 
ATOM     94  O   UNL A   1      46.638  37.439  27.829  1.00  0.00    -0.237 OA
ATOM     95  O   UNL A   1      46.745  35.745  26.031  1.00  0.00    -0.237 OA
ATOM     96  O   UNL A   1      44.562  36.546  26.846  1.00  0.00    -0.744 OA
ENDBRANCH  89  93
ENDBRANCH  63  86
ENDBRANCH  37  38
ENDBRANCH  29  32
ENDBRANCH  27  28
ENDBRANCH  26  27
ENDBRANCH   1  26
TORSDOF 18
ENDMDL
