MODEL 1
REMARK VINA RESULT:     -12.5      0.000      0.000
REMARK SMILES CC(C)=CCc1cccc2c(C(=O)NCCCCNC(=O)c3ccc(-c4c5nc(c(-c6cc(S(=O)(=O)[O-])ccc6F)c6ccc([nH]6)c(-c6cc(S(=O)(=O)[O-])ccc6F)c6nc(c(-c7cc(S(=O)(=O)[O-])ccc7F)c7ccc4[nH]7)C=C6)C=C5)cc3)c[nH]c12
REMARK SMILES IDX 17 1 16 2 15 3 14 4 12 5 13 6 11 8 6 9 7 10 87 11 8 12 10 13
REMARK SMILES IDX 86 14 9 15 85 16 5 18 4 19 1 20 2 21 3 22 18 23 19 24 20 25
REMARK SMILES IDX 21 27 22 28 23 29 84 30 24 31 83 32 25 33 26 34 27 35 77 36
REMARK SMILES IDX 28 37 82 38 76 39 78 40 29 41 81 42 75 43 74 44 30 46 62 47
REMARK SMILES IDX 42 48 61 49 43 50 46 51 60 52 79 53 44 54 45 55 59 57 80 58
REMARK SMILES IDX 47 59 31 60 32 61 40 62 33 63 39 64 41 65 38 66 34 67 35 68
REMARK SMILES IDX 36 69 37 70 63 71 64 72 72 73 65 74 71 75 73 76 70 77 66 78
REMARK SMILES IDX 67 79 68 80 69 81 48 82 49 83 57 84 50 85 56 86 58 87 55 88
REMARK SMILES IDX 51 89 52 90 53 91 54 92
REMARK H PARENT 14 7 86 17 19 26 78 45 46 56
REMARK Flexibility Score: inf
ROOT
ATOM      1  C   UNL A   1      36.018  21.163  25.342  1.00  0.00     0.023 C 
ENDROOT
BRANCH   1   2
ATOM      2  C   UNL A   1      35.385  22.079  26.385  1.00  0.00     0.023 C 
BRANCH   2   3
ATOM      3  C   UNL A   1      34.170  21.529  27.120  1.00  0.00     0.116 C 
BRANCH   3   4
ATOM      4  N   UNL A   1      33.508  20.417  26.473  1.00  0.00    -0.352 N 
ATOM      5  C   UNL A   1      32.500  20.429  25.537  1.00  0.00     0.253 C 
ATOM      6  O   UNL A   1      32.079  19.342  25.142  1.00  0.00    -0.269 OA
ATOM      7  H   UNL A   1      33.824  19.525  26.741  1.00  0.00     0.163 HD
BRANCH   5   8
ATOM      8  C   UNL A   1      31.882  21.685  25.107  1.00  0.00     0.065 A 
ATOM      9  C   UNL A   1      31.380  24.858  23.361  1.00  0.00    -0.020 A 
ATOM     10  C   UNL A   1      32.355  24.846  22.346  1.00  0.00     0.006 A 
ATOM     11  C   UNL A   1      31.323  23.710  24.184  1.00  0.00     0.050 A 
ATOM     12  C   UNL A   1      33.131  23.722  22.099  1.00  0.00     0.001 A 
ATOM     13  C   UNL A   1      32.140  22.587  24.013  1.00  0.00     0.012 A 
ATOM     14  N   UNL A   1      30.486  23.427  25.239  1.00  0.00    -0.360 N 
ATOM     15  C   UNL A   1      32.994  22.579  22.889  1.00  0.00     0.011 A 
ATOM     16  C   UNL A   1      30.800  22.221  25.790  1.00  0.00     0.097 A 
ATOM     17  H   UNL A   1      29.761  24.014  25.553  1.00  0.00     0.166 HD
BRANCH   9  18
ATOM     18  C   UNL A   1      30.479  26.064  23.526  1.00  0.00     0.065 C 
BRANCH  18  19
ATOM     19  C   UNL A   1      31.127  27.125  24.376  1.00  0.00    -0.024 C 
ATOM     20  C   UNL A   1      29.901  29.085  23.405  1.00  0.00     0.039 C 
ATOM     21  C   UNL A   1      30.920  28.456  24.311  1.00  0.00    -0.080 C 
ATOM     22  C   UNL A   1      31.760  29.377  25.152  1.00  0.00     0.039 C 
ENDBRANCH  18  19
ENDBRANCH   9  18
ENDBRANCH   5   8
ENDBRANCH   3   4
ENDBRANCH   2   3
ENDBRANCH   1   2
BRANCH   1  23
ATOM     23  C   UNL A   1      37.465  21.460  24.958  1.00  0.00     0.116 C 
BRANCH  23  24
ATOM     24  N   UNL A   1      38.415  20.439  25.379  1.00  0.00    -0.352 N 
ATOM     25  C   UNL A   1      39.553  20.549  26.147  1.00  0.00     0.251 C 
ATOM     26  H   UNL A   1      38.212  19.528  25.066  1.00  0.00     0.163 HD
ATOM     27  O   UNL A   1      40.259  19.560  26.331  1.00  0.00    -0.269 OA
BRANCH  25  28
ATOM     28  C   UNL A   1      39.951  21.863  26.699  1.00  0.00     0.039 A 
ATOM     29  C   UNL A   1      40.937  21.908  27.689  1.00  0.00     0.014 A 
ATOM     30  C   UNL A   1      39.397  23.047  26.210  1.00  0.00     0.014 A 
ATOM     31  C   UNL A   1      41.447  23.141  28.102  1.00  0.00     0.010 A 
ATOM     32  C   UNL A   1      39.969  24.268  26.557  1.00  0.00     0.010 A 
ATOM     33  C   UNL A   1      41.013  24.330  27.493  1.00  0.00    -0.014 A 
BRANCH  33  34
ATOM     34  C   UNL A   1      41.647  25.641  27.802  1.00  0.00     0.031 A 
ATOM     35  C   UNL A   1      40.869  26.701  28.534  1.00  0.00     0.074 A 
ATOM     36  C   UNL A   1      42.889  25.909  27.347  1.00  0.00     0.049 A 
ATOM     37  N   UNL A   1      41.196  27.942  28.790  1.00  0.00    -0.248 NA
ATOM     38  C   UNL A   1      39.529  26.323  29.011  1.00  0.00     0.031 C 
ATOM     39  C   UNL A   1      43.731  24.983  26.584  1.00  0.00     0.029 A 
ATOM     40  N   UNL A   1      43.658  27.042  27.448  1.00  0.00    -0.354 N 
ATOM     41  C   UNL A   1      40.099  28.498  29.440  1.00  0.00     0.074 A 
ATOM     42  C   UNL A   1      39.075  27.474  29.481  1.00  0.00     0.031 C 
ATOM     43  C   UNL A   1      44.903  25.576  26.310  1.00  0.00     0.029 A 
ATOM     44  C   UNL A   1      44.884  26.939  26.828  1.00  0.00     0.049 A 
ATOM     45  H   UNL A   1      43.360  27.855  27.919  1.00  0.00     0.167 HD
ATOM     46  C   UNL A   1      39.965  29.736  29.975  1.00  0.00     0.034 A 
ATOM     47  C   UNL A   1      45.873  27.845  26.681  1.00  0.00     0.034 A 
ATOM     48  C   UNL A   1      41.001  30.740  29.946  1.00  0.00     0.049 A 
ATOM     49  C   UNL A   1      45.695  29.221  27.271  1.00  0.00     0.074 A 
ATOM     50  C   UNL A   1      40.991  32.007  30.504  1.00  0.00     0.029 A 
ATOM     51  N   UNL A   1      42.234  30.593  29.323  1.00  0.00    -0.354 N 
ATOM     52  N   UNL A   1      44.666  29.715  27.922  1.00  0.00    -0.248 NA
ATOM     53  C   UNL A   1      46.814  30.159  27.115  1.00  0.00     0.031 C 
ATOM     54  C   UNL A   1      42.189  32.645  30.168  1.00  0.00     0.029 A 
ATOM     55  C   UNL A   1      42.980  31.753  29.462  1.00  0.00     0.049 A 
ATOM     56  H   UNL A   1      42.534  29.782  28.851  1.00  0.00     0.167 HD
ATOM     57  C   UNL A   1      45.031  31.010  28.281  1.00  0.00     0.074 A 
ATOM     58  C   UNL A   1      46.376  31.214  27.788  1.00  0.00     0.031 C 
ATOM     59  C   UNL A   1      44.320  31.944  28.960  1.00  0.00     0.034 A 
BRANCH  46  60
ATOM     60  C   UNL A   1      38.643  30.074  30.620  1.00  0.00     0.023 A 
ATOM     61  C   UNL A   1      37.625  30.735  29.911  1.00  0.00     0.031 A 
ATOM     62  C   UNL A   1      38.402  29.751  31.967  1.00  0.00     0.131 A 
ATOM     63  C   UNL A   1      36.448  31.121  30.569  1.00  0.00     0.055 A 
ATOM     64  C   UNL A   1      37.195  30.064  32.595  1.00  0.00     0.041 A 
ATOM     65  F   UNL A   1      39.343  29.136  32.702  1.00  0.00    -0.206 F 
ATOM     66  C   UNL A   1      36.215  30.767  31.900  1.00  0.00     0.022 A 
BRANCH  63  67
ATOM     67  S   UNL A   1      35.287  32.210  29.700  1.00  0.00     0.124 S 
ATOM     68  O   UNL A   1      34.707  31.296  28.719  1.00  0.00    -0.237 OA
ATOM     69  O   UNL A   1      34.399  32.645  30.771  1.00  0.00    -0.237 OA
ATOM     70  O   UNL A   1      36.148  33.250  29.140  1.00  0.00    -0.744 OA
ENDBRANCH  63  67
ENDBRANCH  46  60
BRANCH  47  71
ATOM     71  C   UNL A   1      47.119  27.496  25.937  1.00  0.00     0.023 A 
ATOM     72  C   UNL A   1      47.252  27.801  24.573  1.00  0.00     0.031 A 
ATOM     73  C   UNL A   1      48.169  26.802  26.562  1.00  0.00     0.131 A 
ATOM     74  C   UNL A   1      48.384  27.365  23.865  1.00  0.00     0.055 A 
ATOM     75  C   UNL A   1      49.318  26.420  25.867  1.00  0.00     0.041 A 
ATOM     76  F   UNL A   1      48.096  26.490  27.866  1.00  0.00    -0.206 F 
ATOM     77  C   UNL A   1      49.423  26.687  24.505  1.00  0.00     0.022 A 
BRANCH  74  78
ATOM     78  S   UNL A   1      48.432  27.612  22.068  1.00  0.00     0.124 S 
ATOM     79  O   UNL A   1      49.557  28.529  21.924  1.00  0.00    -0.237 OA
ATOM     80  O   UNL A   1      48.643  26.253  21.582  1.00  0.00    -0.237 OA
ATOM     81  O   UNL A   1      47.119  28.182  21.769  1.00  0.00    -0.744 OA
ENDBRANCH  74  78
ENDBRANCH  47  71
BRANCH  59  82
ATOM     82  C   UNL A   1      45.011  33.253  29.253  1.00  0.00     0.023 A 
ATOM     83  C   UNL A   1      45.023  34.308  28.323  1.00  0.00     0.031 A 
ATOM     84  C   UNL A   1      45.675  33.441  30.478  1.00  0.00     0.131 A 
ATOM     85  C   UNL A   1      45.730  35.484  28.613  1.00  0.00     0.055 A 
ATOM     86  C   UNL A   1      46.328  34.635  30.784  1.00  0.00     0.041 A 
ATOM     87  F   UNL A   1      45.696  32.466  31.401  1.00  0.00    -0.206 F 
ATOM     88  C   UNL A   1      46.369  35.661  29.843  1.00  0.00     0.022 A 
BRANCH  85  89
ATOM     89  S   UNL A   1      45.877  36.753  27.324  1.00  0.00     0.124 S 
ATOM     90  O   UNL A   1      46.095  35.947  26.128  1.00  0.00    -0.237 OA
ATOM     91  O   UNL A   1      44.588  37.434  27.408  1.00  0.00    -0.237 OA
ATOM     92  O   UNL A   1      47.025  37.548  27.754  1.00  0.00    -0.744 OA
ENDBRANCH  85  89
ENDBRANCH  59  82
ENDBRANCH  33  34
ENDBRANCH  25  28
ENDBRANCH  23  24
ENDBRANCH   1  23
TORSDOF 16
ENDMDL
MODEL 2
REMARK VINA RESULT:     -12.5      5.172     10.384
REMARK SMILES CC(C)=CCc1cccc2c(C(=O)NCCCCNC(=O)c3ccc(-c4c5nc(c(-c6cc(S(=O)(=O)[O-])ccc6F)c6ccc([nH]6)c(-c6cc(S(=O)(=O)[O-])ccc6F)c6nc(c(-c7cc(S(=O)(=O)[O-])ccc7F)c7ccc4[nH]7)C=C6)C=C5)cc3)c[nH]c12
REMARK SMILES IDX 17 1 16 2 15 3 14 4 12 5 13 6 11 8 6 9 7 10 87 11 8 12 10 13
REMARK SMILES IDX 86 14 9 15 85 16 5 18 4 19 1 20 2 21 3 22 18 23 19 24 20 25
REMARK SMILES IDX 21 27 22 28 23 29 84 30 24 31 83 32 25 33 26 34 27 35 77 36
REMARK SMILES IDX 28 37 82 38 76 39 78 40 29 41 81 42 75 43 74 44 30 46 62 47
REMARK SMILES IDX 42 48 61 49 43 50 46 51 60 52 79 53 44 54 45 55 59 57 80 58
REMARK SMILES IDX 47 59 31 60 32 61 40 62 33 63 39 64 41 65 38 66 34 67 35 68
REMARK SMILES IDX 36 69 37 70 63 71 64 72 72 73 65 74 71 75 73 76 70 77 66 78
REMARK SMILES IDX 67 79 68 80 69 81 48 82 49 83 57 84 50 85 56 86 58 87 55 88
REMARK SMILES IDX 51 89 52 90 53 91 54 92
REMARK H PARENT 14 7 86 17 19 26 78 45 46 56
REMARK Flexibility Score: inf
ROOT
ATOM      1  C   UNL A   1      31.800  28.611  25.016  1.00  0.00     0.023 C 
ENDROOT
BRANCH   1   2
ATOM      2  C   UNL A   1      32.218  27.172  24.725  1.00  0.00     0.023 C 
BRANCH   2   3
ATOM      3  C   UNL A   1      33.566  26.985  24.042  1.00  0.00     0.116 C 
BRANCH   3   4
ATOM      4  N   UNL A   1      33.505  26.664  22.633  1.00  0.00    -0.352 N 
ATOM      5  C   UNL A   1      33.272  25.452  22.026  1.00  0.00     0.253 C 
ATOM      6  O   UNL A   1      33.288  25.420  20.795  1.00  0.00    -0.269 OA
ATOM      7  H   UNL A   1      33.652  27.421  22.021  1.00  0.00     0.163 HD
BRANCH   5   8
ATOM      8  C   UNL A   1      33.117  24.228  22.814  1.00  0.00     0.065 A 
ATOM      9  C   UNL A   1      33.951  21.129  24.566  1.00  0.00    -0.020 A 
ATOM     10  C   UNL A   1      35.356  21.151  24.647  1.00  0.00     0.006 A 
ATOM     11  C   UNL A   1      33.344  22.249  23.954  1.00  0.00     0.050 A 
ATOM     12  C   UNL A   1      36.088  22.263  24.253  1.00  0.00     0.001 A 
ATOM     13  C   UNL A   1      34.055  23.356  23.478  1.00  0.00     0.012 A 
ATOM     14  N   UNL A   1      32.012  22.518  23.738  1.00  0.00    -0.360 N 
ATOM     15  C   UNL A   1      35.445  23.382  23.720  1.00  0.00     0.011 A 
ATOM     16  C   UNL A   1      31.862  23.696  23.072  1.00  0.00     0.097 A 
ATOM     17  H   UNL A   1      31.269  21.938  24.026  1.00  0.00     0.166 HD
BRANCH   9  18
ATOM     18  C   UNL A   1      33.184  19.941  25.108  1.00  0.00     0.065 C 
BRANCH  18  19
ATOM     19  C   UNL A   1      33.789  18.638  24.653  1.00  0.00    -0.024 C 
ATOM     20  C   UNL A   1      32.341  18.319  22.631  1.00  0.00     0.039 C 
ATOM     21  C   UNL A   1      33.409  17.891  23.598  1.00  0.00    -0.080 C 
ATOM     22  C   UNL A   1      34.044  16.547  23.375  1.00  0.00     0.039 C 
ENDBRANCH  18  19
ENDBRANCH   9  18
ENDBRANCH   5   8
ENDBRANCH   3   4
ENDBRANCH   2   3
ENDBRANCH   1   2
BRANCH   1  23
ATOM     23  C   UNL A   1      32.914  29.585  25.389  1.00  0.00     0.116 C 
BRANCH  23  24
ATOM     24  N   UNL A   1      32.451  30.788  26.068  1.00  0.00    -0.352 N 
ATOM     25  C   UNL A   1      33.055  31.540  27.051  1.00  0.00     0.251 C 
ATOM     26  H   UNL A   1      31.569  31.115  25.778  1.00  0.00     0.163 HD
ATOM     27  O   UNL A   1      32.455  32.494  27.541  1.00  0.00    -0.269 OA
BRANCH  25  28
ATOM     28  C   UNL A   1      34.396  31.165  27.553  1.00  0.00     0.039 A 
ATOM     29  C   UNL A   1      35.347  32.171  27.752  1.00  0.00     0.014 A 
ATOM     30  C   UNL A   1      34.700  29.843  27.875  1.00  0.00     0.014 A 
ATOM     31  C   UNL A   1      36.556  31.865  28.382  1.00  0.00     0.010 A 
ATOM     32  C   UNL A   1      35.865  29.557  28.582  1.00  0.00     0.010 A 
ATOM     33  C   UNL A   1      36.799  30.568  28.860  1.00  0.00    -0.014 A 
BRANCH  33  34
ATOM     34  C   UNL A   1      38.008  30.248  29.669  1.00  0.00     0.031 A 
ATOM     35  C   UNL A   1      39.055  29.313  29.125  1.00  0.00     0.074 A 
ATOM     36  C   UNL A   1      38.121  30.729  30.925  1.00  0.00     0.049 A 
ATOM     37  N   UNL A   1      40.112  28.817  29.716  1.00  0.00    -0.248 NA
ATOM     38  C   UNL A   1      38.866  28.848  27.742  1.00  0.00     0.031 C 
ATOM     39  C   UNL A   1      37.152  31.608  31.586  1.00  0.00     0.029 A 
ATOM     40  N   UNL A   1      39.093  30.539  31.876  1.00  0.00    -0.354 N 
ATOM     41  C   UNL A   1      40.703  27.968  28.786  1.00  0.00     0.074 A 
ATOM     42  C   UNL A   1      39.850  27.971  27.615  1.00  0.00     0.031 C 
ATOM     43  C   UNL A   1      37.591  31.898  32.821  1.00  0.00     0.029 A 
ATOM     44  C   UNL A   1      38.842  31.189  33.064  1.00  0.00     0.049 A 
ATOM     45  H   UNL A   1      39.894  29.987  31.724  1.00  0.00     0.167 HD
ATOM     46  C   UNL A   1      41.861  27.271  28.887  1.00  0.00     0.034 A 
ATOM     47  C   UNL A   1      39.534  31.202  34.222  1.00  0.00     0.034 A 
ATOM     48  C   UNL A   1      42.713  27.294  30.051  1.00  0.00     0.049 A 
ATOM     49  C   UNL A   1      40.812  30.406  34.316  1.00  0.00     0.074 A 
ATOM     50  C   UNL A   1      43.934  26.669  30.239  1.00  0.00     0.029 A 
ATOM     51  N   UNL A   1      42.434  27.977  31.228  1.00  0.00    -0.354 N 
ATOM     52  N   UNL A   1      41.379  29.643  33.410  1.00  0.00    -0.248 NA
ATOM     53  C   UNL A   1      41.547  30.479  35.586  1.00  0.00     0.031 C 
ATOM     54  C   UNL A   1      44.363  26.924  31.546  1.00  0.00     0.029 A 
ATOM     55  C   UNL A   1      43.446  27.768  32.152  1.00  0.00     0.049 A 
ATOM     56  H   UNL A   1      41.634  28.529  31.383  1.00  0.00     0.167 HD
ATOM     57  C   UNL A   1      42.555  29.174  33.991  1.00  0.00     0.074 A 
ATOM     58  C   UNL A   1      42.621  29.751  35.317  1.00  0.00     0.031 C 
ATOM     59  C   UNL A   1      43.497  28.346  33.474  1.00  0.00     0.034 A 
BRANCH  46  60
ATOM     60  C   UNL A   1      42.260  26.413  27.710  1.00  0.00     0.023 A 
ATOM     61  C   UNL A   1      41.828  25.081  27.591  1.00  0.00     0.031 A 
ATOM     62  C   UNL A   1      43.100  26.925  26.705  1.00  0.00     0.131 A 
ATOM     63  C   UNL A   1      42.297  24.283  26.536  1.00  0.00     0.055 A 
ATOM     64  C   UNL A   1      43.497  26.151  25.614  1.00  0.00     0.041 A 
ATOM     65  F   UNL A   1      43.560  28.184  26.774  1.00  0.00    -0.206 F 
ATOM     66  C   UNL A   1      43.107  24.816  25.532  1.00  0.00     0.022 A 
BRANCH  63  67
ATOM     67  S   UNL A   1      41.942  22.505  26.573  1.00  0.00     0.124 S 
ATOM     68  O   UNL A   1      42.408  22.086  25.253  1.00  0.00    -0.237 OA
ATOM     69  O   UNL A   1      42.737  22.048  27.706  1.00  0.00    -0.237 OA
ATOM     70  O   UNL A   1      40.494  22.449  26.762  1.00  0.00    -0.744 OA
ENDBRANCH  63  67
ENDBRANCH  46  60
BRANCH  47  71
ATOM     71  C   UNL A   1      39.039  31.979  35.396  1.00  0.00     0.023 A 
ATOM     72  C   UNL A   1      38.434  31.332  36.486  1.00  0.00     0.031 A 
ATOM     73  C   UNL A   1      39.110  33.382  35.421  1.00  0.00     0.131 A 
ATOM     74  C   UNL A   1      37.875  32.089  37.528  1.00  0.00     0.055 A 
ATOM     75  C   UNL A   1      38.602  34.129  36.486  1.00  0.00     0.041 A 
ATOM     76  F   UNL A   1      39.683  34.052  34.407  1.00  0.00    -0.206 F 
ATOM     77  C   UNL A   1      37.965  33.482  37.541  1.00  0.00     0.022 A 
BRANCH  74  78
ATOM     78  S   UNL A   1      36.938  31.227  38.820  1.00  0.00     0.124 S 
ATOM     79  O   UNL A   1      37.841  31.329  39.961  1.00  0.00    -0.237 OA
ATOM     80  O   UNL A   1      35.719  32.025  38.893  1.00  0.00    -0.237 OA
ATOM     81  O   UNL A   1      36.768  29.881  38.276  1.00  0.00    -0.744 OA
ENDBRANCH  74  78
ENDBRANCH  47  71
BRANCH  59  82
ATOM     82  C   UNL A   1      44.704  28.060  34.331  1.00  0.00     0.023 A 
ATOM     83  C   UNL A   1      44.747  26.961  35.207  1.00  0.00     0.031 A 
ATOM     84  C   UNL A   1      45.824  28.909  34.277  1.00  0.00     0.131 A 
ATOM     85  C   UNL A   1      45.867  26.770  36.031  1.00  0.00     0.055 A 
ATOM     86  C   UNL A   1      46.958  28.680  35.057  1.00  0.00     0.041 A 
ATOM     87  F   UNL A   1      45.835  29.974  33.459  1.00  0.00    -0.206 F 
ATOM     88  C   UNL A   1      46.978  27.612  35.950  1.00  0.00     0.022 A 
BRANCH  85  89
ATOM     89  S   UNL A   1      45.818  25.450  37.275  1.00  0.00     0.124 S 
ATOM     90  O   UNL A   1      45.821  26.208  38.521  1.00  0.00    -0.237 OA
ATOM     91  O   UNL A   1      44.572  24.761  36.951  1.00  0.00    -0.237 OA
ATOM     92  O   UNL A   1      47.034  24.684  37.011  1.00  0.00    -0.744 OA
ENDBRANCH  85  89
ENDBRANCH  59  82
ENDBRANCH  33  34
ENDBRANCH  25  28
ENDBRANCH  23  24
ENDBRANCH   1  23
TORSDOF 16
ENDMDL
MODEL 3
REMARK VINA RESULT:     -12.4      5.076      7.969
REMARK SMILES CC(C)=CCc1cccc2c(C(=O)NCCCCNC(=O)c3ccc(-c4c5nc(c(-c6cc(S(=O)(=O)[O-])ccc6F)c6ccc([nH]6)c(-c6cc(S(=O)(=O)[O-])ccc6F)c6nc(c(-c7cc(S(=O)(=O)[O-])ccc7F)c7ccc4[nH]7)C=C6)C=C5)cc3)c[nH]c12
REMARK SMILES IDX 17 1 16 2 15 3 14 4 12 5 13 6 11 8 6 9 7 10 87 11 8 12 10 13
REMARK SMILES IDX 86 14 9 15 85 16 5 18 4 19 1 20 2 21 3 22 18 23 19 24 20 25
REMARK SMILES IDX 21 27 22 28 23 29 84 30 24 31 83 32 25 33 26 34 27 35 77 36
REMARK SMILES IDX 28 37 82 38 76 39 78 40 29 41 81 42 75 43 74 44 30 46 62 47
REMARK SMILES IDX 42 48 61 49 43 50 46 51 60 52 79 53 44 54 45 55 59 57 80 58
REMARK SMILES IDX 47 59 31 60 32 61 40 62 33 63 39 64 41 65 38 66 34 67 35 68
REMARK SMILES IDX 36 69 37 70 63 71 64 72 72 73 65 74 71 75 73 76 70 77 66 78
REMARK SMILES IDX 67 79 68 80 69 81 48 82 49 83 57 84 50 85 56 86 58 87 55 88
REMARK SMILES IDX 51 89 52 90 53 91 54 92
REMARK H PARENT 14 7 86 17 19 26 78 45 46 56
REMARK Flexibility Score: inf
ROOT
ATOM      1  C   UNL A   1      32.385  29.405  25.120  1.00  0.00     0.023 C 
ENDROOT
BRANCH   1   2
ATOM      2  C   UNL A   1      33.518  28.546  24.566  1.00  0.00     0.023 C 
BRANCH   2   3
ATOM      3  C   UNL A   1      33.154  27.124  24.163  1.00  0.00     0.116 C 
BRANCH   3   4
ATOM      4  N   UNL A   1      33.277  26.831  22.752  1.00  0.00    -0.352 N 
ATOM      5  C   UNL A   1      33.192  25.620  22.104  1.00  0.00     0.253 C 
ATOM      6  O   UNL A   1      33.352  25.616  20.883  1.00  0.00    -0.269 OA
ATOM      7  H   UNL A   1      33.445  27.608  22.173  1.00  0.00     0.163 HD
BRANCH   5   8
ATOM      8  C   UNL A   1      33.025  24.372  22.851  1.00  0.00     0.065 A 
ATOM      9  C   UNL A   1      33.827  21.208  24.498  1.00  0.00    -0.020 A 
ATOM     10  C   UNL A   1      35.232  21.213  24.580  1.00  0.00     0.006 A 
ATOM     11  C   UNL A   1      33.231  22.354  23.925  1.00  0.00     0.050 A 
ATOM     12  C   UNL A   1      35.975  22.331  24.224  1.00  0.00     0.001 A 
ATOM     13  C   UNL A   1      33.953  23.470  23.485  1.00  0.00     0.012 A 
ATOM     14  N   UNL A   1      31.902  22.643  23.717  1.00  0.00    -0.360 N 
ATOM     15  C   UNL A   1      35.343  23.473  23.729  1.00  0.00     0.011 A 
ATOM     16  C   UNL A   1      31.764  23.844  23.090  1.00  0.00     0.097 A 
ATOM     17  H   UNL A   1      31.154  22.062  23.985  1.00  0.00     0.166 HD
BRANCH   9  18
ATOM     18  C   UNL A   1      33.048  20.010  25.000  1.00  0.00     0.065 C 
BRANCH  18  19
ATOM     19  C   UNL A   1      33.717  18.716  24.618  1.00  0.00    -0.024 C 
ATOM     20  C   UNL A   1      32.374  18.278  22.547  1.00  0.00     0.039 C 
ATOM     21  C   UNL A   1      33.411  17.921  23.573  1.00  0.00    -0.080 C 
ATOM     22  C   UNL A   1      34.102  16.594  23.426  1.00  0.00     0.039 C 
ENDBRANCH  18  19
ENDBRANCH   9  18
ENDBRANCH   5   8
ENDBRANCH   3   4
ENDBRANCH   2   3
ENDBRANCH   1   2
BRANCH   1  23
ATOM     23  C   UNL A   1      32.455  29.758  26.602  1.00  0.00     0.116 C 
BRANCH  23  24
ATOM     24  N   UNL A   1      32.450  31.189  26.875  1.00  0.00    -0.352 N 
ATOM     25  C   UNL A   1      33.425  31.990  27.429  1.00  0.00     0.251 C 
ATOM     26  H   UNL A   1      31.622  31.657  26.623  1.00  0.00     0.163 HD
ATOM     27  O   UNL A   1      33.189  33.178  27.636  1.00  0.00    -0.269 OA
BRANCH  25  28
ATOM     28  C   UNL A   1      34.727  31.407  27.825  1.00  0.00     0.039 A 
ATOM     29  C   UNL A   1      35.825  32.257  27.983  1.00  0.00     0.014 A 
ATOM     30  C   UNL A   1      34.854  30.043  28.091  1.00  0.00     0.014 A 
ATOM     31  C   UNL A   1      37.015  31.757  28.518  1.00  0.00     0.010 A 
ATOM     32  C   UNL A   1      36.008  29.567  28.707  1.00  0.00     0.010 A 
ATOM     33  C   UNL A   1      37.097  30.422  28.944  1.00  0.00    -0.014 A 
BRANCH  33  34
ATOM     34  C   UNL A   1      38.296  29.902  29.658  1.00  0.00     0.031 A 
ATOM     35  C   UNL A   1      38.640  30.417  31.030  1.00  0.00     0.074 A 
ATOM     36  C   UNL A   1      39.122  29.033  29.037  1.00  0.00     0.049 A 
ATOM     37  N   UNL A   1      39.699  30.184  31.762  1.00  0.00    -0.248 NA
ATOM     38  C   UNL A   1      37.679  31.348  31.643  1.00  0.00     0.031 C 
ATOM     39  C   UNL A   1      38.925  28.493  27.689  1.00  0.00     0.029 A 
ATOM     40  N   UNL A   1      40.299  28.460  29.451  1.00  0.00    -0.354 N 
ATOM     41  C   UNL A   1      39.542  30.950  32.912  1.00  0.00     0.074 A 
ATOM     42  C   UNL A   1      38.315  31.703  32.748  1.00  0.00     0.031 C 
ATOM     43  C   UNL A   1      39.931  27.652  27.400  1.00  0.00     0.029 A 
ATOM     44  C   UNL A   1      40.871  27.628  28.514  1.00  0.00     0.049 A 
ATOM     45  H   UNL A   1      40.698  28.629  30.335  1.00  0.00     0.167 HD
ATOM     46  C   UNL A   1      40.332  31.004  34.012  1.00  0.00     0.034 A 
ATOM     47  C   UNL A   1      42.029  26.937  28.544  1.00  0.00     0.034 A 
ATOM     48  C   UNL A   1      41.541  30.233  34.172  1.00  0.00     0.049 A 
ATOM     49  C   UNL A   1      42.899  27.024  29.773  1.00  0.00     0.074 A 
ATOM     50  C   UNL A   1      42.386  30.171  35.266  1.00  0.00     0.029 A 
ATOM     51  N   UNL A   1      42.079  29.390  33.208  1.00  0.00    -0.354 N 
ATOM     52  N   UNL A   1      42.712  27.721  30.870  1.00  0.00    -0.248 NA
ATOM     53  C   UNL A   1      44.132  26.226  29.770  1.00  0.00     0.031 C 
ATOM     54  C   UNL A   1      43.464  29.339  34.943  1.00  0.00     0.029 A 
ATOM     55  C   UNL A   1      43.256  28.824  33.673  1.00  0.00     0.049 A 
ATOM     56  H   UNL A   1      41.682  29.219  32.324  1.00  0.00     0.167 HD
ATOM     57  C   UNL A   1      43.787  27.417  31.701  1.00  0.00     0.074 A 
ATOM     58  C   UNL A   1      44.609  26.464  30.984  1.00  0.00     0.031 C 
ATOM     59  C   UNL A   1      44.068  27.878  32.945  1.00  0.00     0.034 A 
BRANCH  46  60
ATOM     60  C   UNL A   1      39.916  31.943  35.120  1.00  0.00     0.023 A 
ATOM     61  C   UNL A   1      39.142  31.502  36.206  1.00  0.00     0.031 A 
ATOM     62  C   UNL A   1      40.280  33.300  35.080  1.00  0.00     0.131 A 
ATOM     63  C   UNL A   1      38.691  32.421  37.166  1.00  0.00     0.055 A 
ATOM     64  C   UNL A   1      39.898  34.195  36.081  1.00  0.00     0.041 A 
ATOM     65  F   UNL A   1      41.005  33.784  34.058  1.00  0.00    -0.206 F 
ATOM     66  C   UNL A   1      39.085  33.760  37.125  1.00  0.00     0.022 A 
BRANCH  63  67
ATOM     67  S   UNL A   1      37.470  31.868  38.388  1.00  0.00     0.124 S 
ATOM     68  O   UNL A   1      38.231  31.974  39.630  1.00  0.00    -0.237 OA
ATOM     69  O   UNL A   1      36.391  32.833  38.216  1.00  0.00    -0.237 OA
ATOM     70  O   UNL A   1      37.160  30.503  37.969  1.00  0.00    -0.744 OA
ENDBRANCH  63  67
ENDBRANCH  46  60
BRANCH  47  71
ATOM     71  C   UNL A   1      42.451  26.108  27.377  1.00  0.00     0.023 A 
ATOM     72  C   UNL A   1      42.068  24.760  27.275  1.00  0.00     0.031 A 
ATOM     73  C   UNL A   1      43.289  26.631  26.378  1.00  0.00     0.131 A 
ATOM     74  C   UNL A   1      42.568  23.968  26.228  1.00  0.00     0.055 A 
ATOM     75  C   UNL A   1      43.738  25.854  25.308  1.00  0.00     0.041 A 
ATOM     76  F   UNL A   1      43.681  27.915  26.423  1.00  0.00    -0.206 F 
ATOM     77  C   UNL A   1      43.390  24.509  25.238  1.00  0.00     0.022 A 
BRANCH  74  78
ATOM     78  S   UNL A   1      42.204  22.190  26.237  1.00  0.00     0.124 S 
ATOM     79  O   UNL A   1      42.722  21.787  27.539  1.00  0.00    -0.237 OA
ATOM     80  O   UNL A   1      40.752  22.179  26.091  1.00  0.00    -0.237 OA
ATOM     81  O   UNL A   1      42.947  21.686  25.084  1.00  0.00    -0.744 OA
ENDBRANCH  74  78
ENDBRANCH  47  71
BRANCH  59  82
ATOM     82  C   UNL A   1      45.291  27.315  33.626  1.00  0.00     0.023 A 
ATOM     83  C   UNL A   1      45.228  26.158  34.422  1.00  0.00     0.031 A 
ATOM     84  C   UNL A   1      46.534  27.955  33.484  1.00  0.00     0.131 A 
ATOM     85  C   UNL A   1      46.378  25.706  35.087  1.00  0.00     0.055 A 
ATOM     86  C   UNL A   1      47.687  27.468  34.101  1.00  0.00     0.041 A 
ATOM     87  F   UNL A   1      46.650  29.065  32.736  1.00  0.00    -0.206 F 
ATOM     88  C   UNL A   1      47.610  26.343  34.919  1.00  0.00     0.022 A 
BRANCH  85  89
ATOM     89  S   UNL A   1      46.226  24.318  36.246  1.00  0.00     0.124 S 
ATOM     90  O   UNL A   1      45.044  24.693  37.015  1.00  0.00    -0.237 OA
ATOM     91  O   UNL A   1      46.067  23.177  35.348  1.00  0.00    -0.237 OA
ATOM     92  O   UNL A   1      47.485  24.350  36.987  1.00  0.00    -0.744 OA
ENDBRANCH  85  89
ENDBRANCH  59  82
ENDBRANCH  33  34
ENDBRANCH  25  28
ENDBRANCH  23  24
ENDBRANCH   1  23
TORSDOF 16
ENDMDL
