MODEL 1
REMARK VINA RESULT:     -11.9      0.000      0.000
REMARK SMILES Cc1nc(C)c(C(=O)N[C@@H](Cc2ccccc2)C(=O)NCCCCNC(=O)c2ccc(-c3c4nc(c(-c5cc(S(=O)(=O)[O-])ccc5F)c5ccc([nH]5)c(-c5cc(S(=O)(=O)[O-])ccc5F)c5nc(c(-c6cc(S(=O)(=O)[O-])ccc6F)c6ccc3[nH]6)C=C5)C=C4)cc2)s1
REMARK SMILES IDX 23 1 22 2 21 3 20 4 18 5 19 6 10 8 9 9 7 10 8 11 6 13 1 14
REMARK SMILES IDX 2 15 3 16 91 17 4 18 5 19 11 20 12 21 13 22 17 23 14 24
REMARK SMILES IDX 16 25 15 26 24 27 25 28 26 29 27 31 28 32 29 33 90 34 30 35
REMARK SMILES IDX 89 36 31 37 32 38 33 39 83 40 34 41 88 42 82 43 84 44 35 45
REMARK SMILES IDX 87 46 81 47 80 48 36 50 68 51 48 52 67 53 49 54 52 55 66 56
REMARK SMILES IDX 85 57 50 58 51 59 65 61 86 62 53 63 37 64 38 65 46 66 39 67
REMARK SMILES IDX 45 68 47 69 44 70 40 71 41 72 42 73 43 74 69 75 70 76 78 77
REMARK SMILES IDX 71 78 77 79 79 80 76 81 72 82 73 83 74 84 75 85 54 86 55 87
REMARK SMILES IDX 63 88 56 89 62 90 64 91 61 92 57 93 58 94 59 95 60 96
REMARK H PARENT 20 7 9 12 25 30 84 49 52 60
REMARK Flexibility Score: inf
ROOT
ATOM      1  C   UNL A   1      31.758  29.011  26.421  1.00  0.00     0.023 C 
ENDROOT
BRANCH   1   2
ATOM      2  C   UNL A   1      32.313  27.820  27.201  1.00  0.00     0.023 C 
BRANCH   2   3
ATOM      3  C   UNL A   1      32.256  26.484  26.476  1.00  0.00     0.116 C 
BRANCH   3   4
ATOM      4  N   UNL A   1      31.121  25.660  26.832  1.00  0.00    -0.354 N 
ATOM      5  C   UNL A   1      30.707  24.468  26.316  1.00  0.00     0.242 C 
ATOM      6  O   UNL A   1      30.021  23.754  27.058  1.00  0.00    -0.273 OA
ATOM      7  H   UNL A   1      30.560  26.014  27.560  1.00  0.00     0.163 HD
BRANCH   5   8
ATOM      8  C   UNL A   1      31.128  23.928  24.927  1.00  0.00     0.176 C 
BRANCH   8   9
ATOM      9  N   UNL A   1      31.279  22.472  24.840  1.00  0.00    -0.339 N 
ATOM     10  C   UNL A   1      32.271  21.562  25.108  1.00  0.00     0.263 C 
ATOM     11  O   UNL A   1      31.873  20.396  25.001  1.00  0.00    -0.268 OA
ATOM     12  H   UNL A   1      30.463  22.036  24.504  1.00  0.00     0.164 HD
BRANCH  10  13
ATOM     13  C   UNL A   1      33.658  21.864  25.450  1.00  0.00     0.115 A 
ATOM     14  C   UNL A   1      37.530  22.358  25.325  1.00  0.00     0.079 C 
ATOM     15  C   UNL A   1      36.075  22.222  25.602  1.00  0.00     0.091 A 
ATOM     16  N   UNL A   1      35.525  22.459  26.767  1.00  0.00    -0.246 NA
ATOM     17  S   UNL A   1      34.997  21.700  24.393  1.00  0.00    -0.113 S 
ATOM     18  C   UNL A   1      34.150  22.253  26.701  1.00  0.00     0.061 A 
ATOM     19  C   UNL A   1      33.412  22.457  27.981  1.00  0.00     0.068 C 
ENDBRANCH  10  13
ENDBRANCH   8   9
BRANCH   8  20
ATOM     20  C   UNL A   1      30.336  24.520  23.741  1.00  0.00     0.070 C 
BRANCH  20  21
ATOM     21  C   UNL A   1      30.513  25.991  23.442  1.00  0.00    -0.045 A 
ATOM     22  C   UNL A   1      31.709  26.488  22.905  1.00  0.00     0.004 A 
ATOM     23  C   UNL A   1      29.461  26.886  23.695  1.00  0.00     0.004 A 
ATOM     24  C   UNL A   1      31.827  27.841  22.575  1.00  0.00     0.000 A 
ATOM     25  C   UNL A   1      29.587  28.239  23.377  1.00  0.00     0.000 A 
ATOM     26  C   UNL A   1      30.765  28.714  22.804  1.00  0.00     0.000 A 
ENDBRANCH  20  21
ENDBRANCH   8  20
ENDBRANCH   5   8
ENDBRANCH   3   4
ENDBRANCH   2   3
ENDBRANCH   1   2
BRANCH   1  27
ATOM     27  C   UNL A   1      32.764  30.096  26.042  1.00  0.00     0.116 C 
BRANCH  27  28
ATOM     28  N   UNL A   1      32.478  31.399  26.629  1.00  0.00    -0.352 N 
ATOM     29  C   UNL A   1      33.270  32.178  27.445  1.00  0.00     0.251 C 
ATOM     30  H   UNL A   1      31.596  31.777  26.411  1.00  0.00     0.163 HD
ATOM     31  O   UNL A   1      32.842  33.234  27.900  1.00  0.00    -0.269 OA
BRANCH  29  32
ATOM     32  C   UNL A   1      34.621  31.699  27.797  1.00  0.00     0.039 A 
ATOM     33  C   UNL A   1      35.674  32.614  27.850  1.00  0.00     0.014 A 
ATOM     34  C   UNL A   1      34.815  30.369  28.176  1.00  0.00     0.014 A 
ATOM     35  C   UNL A   1      36.895  32.223  28.405  1.00  0.00     0.010 A 
ATOM     36  C   UNL A   1      36.008  30.002  28.791  1.00  0.00     0.010 A 
ATOM     37  C   UNL A   1      37.047  30.935  28.942  1.00  0.00    -0.014 A 
BRANCH  37  38
ATOM     38  C   UNL A   1      38.254  30.551  29.721  1.00  0.00     0.031 A 
ATOM     39  C   UNL A   1      39.232  29.561  29.157  1.00  0.00     0.074 A 
ATOM     40  C   UNL A   1      38.408  31.011  30.979  1.00  0.00     0.049 A 
ATOM     41  N   UNL A   1      40.255  28.986  29.733  1.00  0.00    -0.248 NA
ATOM     42  C   UNL A   1      39.004  29.140  27.767  1.00  0.00     0.031 C 
ATOM     43  C   UNL A   1      37.508  31.950  31.653  1.00  0.00     0.029 A 
ATOM     44  N   UNL A   1      39.365  30.738  31.924  1.00  0.00    -0.354 N 
ATOM     45  C   UNL A   1      40.790  28.124  28.782  1.00  0.00     0.074 A 
ATOM     46  C   UNL A   1      39.936  28.211  27.615  1.00  0.00     0.031 C 
ATOM     47  C   UNL A   1      37.966  32.187  32.894  1.00  0.00     0.029 A 
ATOM     48  C   UNL A   1      39.159  31.379  33.123  1.00  0.00     0.049 A 
ATOM     49  H   UNL A   1      40.129  30.138  31.758  1.00  0.00     0.167 HD
ATOM     50  C   UNL A   1      41.901  27.350  28.866  1.00  0.00     0.034 A 
ATOM     51  C   UNL A   1      39.839  31.307  34.284  1.00  0.00     0.034 A 
ATOM     52  C   UNL A   1      42.742  27.278  30.036  1.00  0.00     0.049 A 
ATOM     53  C   UNL A   1      41.033  30.395  34.378  1.00  0.00     0.074 A 
ATOM     54  C   UNL A   1      43.921  26.572  30.210  1.00  0.00     0.029 A 
ATOM     55  N   UNL A   1      42.489  27.926  31.239  1.00  0.00    -0.354 N 
ATOM     56  N   UNL A   1      41.547  29.612  33.457  1.00  0.00    -0.248 NA
ATOM     57  C   UNL A   1      41.735  30.352  35.666  1.00  0.00     0.031 C 
ATOM     58  C   UNL A   1      44.347  26.745  31.533  1.00  0.00     0.029 A 
ATOM     59  C   UNL A   1      43.469  27.609  32.168  1.00  0.00     0.049 A 
ATOM     60  H   UNL A   1      41.725  28.523  31.406  1.00  0.00     0.167 HD
ATOM     61  C   UNL A   1      42.649  29.004  34.050  1.00  0.00     0.074 A 
ATOM     62  C   UNL A   1      42.728  29.514  35.404  1.00  0.00     0.031 C 
ATOM     63  C   UNL A   1      43.522  28.111  33.521  1.00  0.00     0.034 A 
BRANCH  50  64
ATOM     64  C   UNL A   1      42.240  26.505  27.663  1.00  0.00     0.023 A 
ATOM     65  C   UNL A   1      42.000  25.120  27.649  1.00  0.00     0.031 A 
ATOM     66  C   UNL A   1      42.856  27.077  26.537  1.00  0.00     0.131 A 
ATOM     67  C   UNL A   1      42.457  24.340  26.577  1.00  0.00     0.055 A 
ATOM     68  C   UNL A   1      43.232  26.307  25.433  1.00  0.00     0.041 A 
ATOM     69  F   UNL A   1      43.127  28.391  26.498  1.00  0.00    -0.206 F 
ATOM     70  C   UNL A   1      43.050  24.927  25.458  1.00  0.00     0.022 A 
BRANCH  67  71
ATOM     71  S   UNL A   1      42.414  22.535  26.744  1.00  0.00     0.124 S 
ATOM     72  O   UNL A   1      43.837  22.203  26.734  1.00  0.00    -0.237 OA
ATOM     73  O   UNL A   1      41.724  22.353  28.016  1.00  0.00    -0.237 OA
ATOM     74  O   UNL A   1      41.672  22.099  25.563  1.00  0.00    -0.744 OA
ENDBRANCH  67  71
ENDBRANCH  50  64
BRANCH  51  75
ATOM     75  C   UNL A   1      39.400  32.103  35.466  1.00  0.00     0.023 A 
ATOM     76  C   UNL A   1      38.633  31.512  36.483  1.00  0.00     0.031 A 
ATOM     77  C   UNL A   1      39.713  33.468  35.580  1.00  0.00     0.131 A 
ATOM     78  C   UNL A   1      38.174  32.295  37.554  1.00  0.00     0.055 A 
ATOM     79  C   UNL A   1      39.290  34.232  36.668  1.00  0.00     0.041 A 
ATOM     80  F   UNL A   1      40.449  34.077  34.635  1.00  0.00    -0.206 F 
ATOM     81  C   UNL A   1      38.507  33.648  37.660  1.00  0.00     0.022 A 
BRANCH  78  82
ATOM     82  S   UNL A   1      37.081  31.529  38.781  1.00  0.00     0.124 S 
ATOM     83  O   UNL A   1      36.931  30.181  38.245  1.00  0.00    -0.237 OA
ATOM     84  O   UNL A   1      37.868  31.649  40.005  1.00  0.00    -0.237 OA
ATOM     85  O   UNL A   1      35.879  32.359  38.733  1.00  0.00    -0.744 OA
ENDBRANCH  78  82
ENDBRANCH  51  75
BRANCH  63  86
ATOM     86  C   UNL A   1      44.656  27.661  34.405  1.00  0.00     0.023 A 
ATOM     87  C   UNL A   1      44.551  26.518  35.216  1.00  0.00     0.031 A 
ATOM     88  C   UNL A   1      45.856  28.392  34.439  1.00  0.00     0.131 A 
ATOM     89  C   UNL A   1      45.615  26.162  36.060  1.00  0.00     0.055 A 
ATOM     90  C   UNL A   1      46.929  28.006  35.243  1.00  0.00     0.041 A 
ATOM     91  F   UNL A   1      46.006  29.493  33.685  1.00  0.00    -0.206 F 
ATOM     92  C   UNL A   1      46.807  26.890  36.066  1.00  0.00     0.022 A 
BRANCH  89  93
ATOM     93  S   UNL A   1      45.398  24.764  37.195  1.00  0.00     0.124 S 
ATOM     94  O   UNL A   1      44.362  25.262  38.094  1.00  0.00    -0.237 OA
ATOM     95  O   UNL A   1      44.998  23.688  36.296  1.00  0.00    -0.237 OA
ATOM     96  O   UNL A   1      46.720  24.605  37.800  1.00  0.00    -0.744 OA
ENDBRANCH  89  93
ENDBRANCH  63  86
ENDBRANCH  37  38
ENDBRANCH  29  32
ENDBRANCH  27  28
ENDBRANCH   1  27
TORSDOF 18
ENDMDL
MODEL 2
REMARK VINA RESULT:     -11.9      4.823     10.008
REMARK SMILES Cc1nc(C)c(C(=O)N[C@@H](Cc2ccccc2)C(=O)NCCCCNC(=O)c2ccc(-c3c4nc(c(-c5cc(S(=O)(=O)[O-])ccc5F)c5ccc([nH]5)c(-c5cc(S(=O)(=O)[O-])ccc5F)c5nc(c(-c6cc(S(=O)(=O)[O-])ccc6F)c6ccc3[nH]6)C=C5)C=C4)cc2)s1
REMARK SMILES IDX 23 1 22 2 21 3 20 4 18 5 19 6 10 8 9 9 7 10 8 11 6 13 1 14
REMARK SMILES IDX 2 15 3 16 91 17 4 18 5 19 11 20 12 21 13 22 17 23 14 24
REMARK SMILES IDX 16 25 15 26 24 27 25 28 26 29 27 31 28 32 29 33 90 34 30 35
REMARK SMILES IDX 89 36 31 37 32 38 33 39 83 40 34 41 88 42 82 43 84 44 35 45
REMARK SMILES IDX 87 46 81 47 80 48 36 50 68 51 48 52 67 53 49 54 52 55 66 56
REMARK SMILES IDX 85 57 50 58 51 59 65 61 86 62 53 63 37 64 38 65 46 66 39 67
REMARK SMILES IDX 45 68 47 69 44 70 40 71 41 72 42 73 43 74 69 75 70 76 78 77
REMARK SMILES IDX 71 78 77 79 79 80 76 81 72 82 73 83 74 84 75 85 54 86 55 87
REMARK SMILES IDX 63 88 56 89 62 90 64 91 61 92 57 93 58 94 59 95 60 96
REMARK H PARENT 20 7 9 12 25 30 84 49 52 60
REMARK Flexibility Score: inf
ROOT
ATOM      1  C   UNL A   1      35.850  21.684  25.221  1.00  0.00     0.023 C 
ENDROOT
BRANCH   1   2
ATOM      2  C   UNL A   1      35.431  22.762  26.218  1.00  0.00     0.023 C 
BRANCH   2   3
ATOM      3  C   UNL A   1      34.309  23.678  25.752  1.00  0.00     0.116 C 
BRANCH   3   4
ATOM      4  N   UNL A   1      33.199  23.778  26.674  1.00  0.00    -0.354 N 
ATOM      5  C   UNL A   1      31.914  23.336  26.549  1.00  0.00     0.242 C 
ATOM      6  O   UNL A   1      31.300  23.122  27.603  1.00  0.00    -0.273 OA
ATOM      7  H   UNL A   1      33.401  24.234  27.523  1.00  0.00     0.163 HD
BRANCH   5   8
ATOM      8  C   UNL A   1      31.238  22.997  25.198  1.00  0.00     0.176 C 
BRANCH   8   9
ATOM      9  N   UNL A   1      30.388  24.055  24.640  1.00  0.00    -0.339 N 
ATOM     10  C   UNL A   1      30.544  25.379  24.312  1.00  0.00     0.263 C 
ATOM     11  O   UNL A   1      29.550  25.832  23.731  1.00  0.00    -0.268 OA
ATOM     12  H   UNL A   1      29.476  23.736  24.454  1.00  0.00     0.164 HD
BRANCH  10  13
ATOM     13  C   UNL A   1      31.698  26.219  24.613  1.00  0.00     0.115 A 
ATOM     14  C   UNL A   1      34.157  28.763  26.268  1.00  0.00     0.079 C 
ATOM     15  C   UNL A   1      33.380  27.782  25.464  1.00  0.00     0.091 A 
ATOM     16  N   UNL A   1      33.803  27.255  24.342  1.00  0.00    -0.246 NA
ATOM     17  S   UNL A   1      31.825  27.287  25.948  1.00  0.00    -0.113 S 
ATOM     18  C   UNL A   1      32.855  26.369  23.839  1.00  0.00     0.061 A 
ATOM     19  C   UNL A   1      33.206  25.728  22.539  1.00  0.00     0.068 C 
ENDBRANCH  10  13
ENDBRANCH   8   9
BRANCH   8  20
ATOM     20  C   UNL A   1      32.180  22.370  24.149  1.00  0.00     0.070 C 
BRANCH  20  21
ATOM     21  C   UNL A   1      32.360  20.870  24.174  1.00  0.00    -0.045 A 
ATOM     22  C   UNL A   1      32.632  20.187  25.369  1.00  0.00     0.004 A 
ATOM     23  C   UNL A   1      32.244  20.133  22.984  1.00  0.00     0.004 A 
ATOM     24  C   UNL A   1      32.728  18.792  25.379  1.00  0.00     0.000 A 
ATOM     25  C   UNL A   1      32.355  18.741  22.997  1.00  0.00     0.000 A 
ATOM     26  C   UNL A   1      32.583  18.070  24.195  1.00  0.00     0.000 A 
ENDBRANCH  20  21
ENDBRANCH   8  20
ENDBRANCH   5   8
ENDBRANCH   3   4
ENDBRANCH   2   3
ENDBRANCH   1   2
BRANCH   1  27
ATOM     27  C   UNL A   1      37.266  21.798  24.659  1.00  0.00     0.116 C 
BRANCH  27  28
ATOM     28  N   UNL A   1      38.128  20.671  24.992  1.00  0.00    -0.352 N 
ATOM     29  C   UNL A   1      39.222  20.631  25.828  1.00  0.00     0.251 C 
ATOM     30  H   UNL A   1      37.895  19.819  24.558  1.00  0.00     0.163 HD
ATOM     31  O   UNL A   1      39.874  19.598  25.947  1.00  0.00    -0.269 OA
BRANCH  29  32
ATOM     32  C   UNL A   1      39.621  21.860  26.541  1.00  0.00     0.039 A 
ATOM     33  C   UNL A   1      40.613  21.786  27.521  1.00  0.00     0.014 A 
ATOM     34  C   UNL A   1      39.089  23.094  26.161  1.00  0.00     0.014 A 
ATOM     35  C   UNL A   1      41.163  22.964  28.032  1.00  0.00     0.010 A 
ATOM     36  C   UNL A   1      39.685  24.265  26.619  1.00  0.00     0.010 A 
ATOM     37  C   UNL A   1      40.750  24.210  27.533  1.00  0.00    -0.014 A 
BRANCH  37  38
ATOM     38  C   UNL A   1      41.452  25.469  27.899  1.00  0.00     0.031 A 
ATOM     39  C   UNL A   1      40.714  26.561  28.619  1.00  0.00     0.074 A 
ATOM     40  C   UNL A   1      42.719  25.669  27.485  1.00  0.00     0.049 A 
ATOM     41  N   UNL A   1      41.098  27.781  28.891  1.00  0.00    -0.248 NA
ATOM     42  C   UNL A   1      39.349  26.243  29.063  1.00  0.00     0.031 C 
ATOM     43  C   UNL A   1      43.532  24.699  26.746  1.00  0.00     0.029 A 
ATOM     44  N   UNL A   1      43.542  26.761  27.607  1.00  0.00    -0.354 N 
ATOM     45  C   UNL A   1      40.019  28.385  29.528  1.00  0.00     0.074 A 
ATOM     46  C   UNL A   1      38.947  27.410  29.543  1.00  0.00     0.031 C 
ATOM     47  C   UNL A   1      44.739  25.233  26.499  1.00  0.00     0.029 A 
ATOM     48  C   UNL A   1      44.771  26.598  27.011  1.00  0.00     0.049 A 
ATOM     49  H   UNL A   1      43.276  27.585  28.078  1.00  0.00     0.167 HD
ATOM     50  C   UNL A   1      39.937  29.626  30.068  1.00  0.00     0.034 A 
ATOM     51  C   UNL A   1      45.798  27.459  26.871  1.00  0.00     0.034 A 
ATOM     52  C   UNL A   1      41.016  30.584  30.047  1.00  0.00     0.049 A 
ATOM     53  C   UNL A   1      45.665  28.853  27.424  1.00  0.00     0.074 A 
ATOM     54  C   UNL A   1      41.062  31.846  30.613  1.00  0.00     0.029 A 
ATOM     55  N   UNL A   1      42.239  30.389  29.415  1.00  0.00    -0.354 N 
ATOM     56  N   UNL A   1      44.650  29.397  28.054  1.00  0.00    -0.248 NA
ATOM     57  C   UNL A   1      46.813  29.751  27.241  1.00  0.00     0.031 C 
ATOM     58  C   UNL A   1      42.286  32.437  30.273  1.00  0.00     0.029 A 
ATOM     59  C   UNL A   1      43.031  31.521  29.548  1.00  0.00     0.049 A 
ATOM     60  H   UNL A   1      42.504  29.569  28.942  1.00  0.00     0.167 HD
ATOM     61  C   UNL A   1      45.049  30.693  28.366  1.00  0.00     0.074 A 
ATOM     62  C   UNL A   1      46.398  30.847  27.859  1.00  0.00     0.031 C 
ATOM     63  C   UNL A   1      44.366  31.666  29.020  1.00  0.00     0.034 A 
BRANCH  50  64
ATOM     64  C   UNL A   1      38.622  30.013  30.699  1.00  0.00     0.023 A 
ATOM     65  C   UNL A   1      37.620  30.666  29.960  1.00  0.00     0.031 A 
ATOM     66  C   UNL A   1      38.385  29.777  32.063  1.00  0.00     0.131 A 
ATOM     67  C   UNL A   1      36.470  31.142  30.607  1.00  0.00     0.055 A 
ATOM     68  C   UNL A   1      37.199  30.176  32.684  1.00  0.00     0.041 A 
ATOM     69  F   UNL A   1      39.311  29.174  32.825  1.00  0.00    -0.206 F 
ATOM     70  C   UNL A   1      36.242  30.881  31.959  1.00  0.00     0.022 A 
BRANCH  67  71
ATOM     71  S   UNL A   1      35.361  32.247  29.692  1.00  0.00     0.124 S 
ATOM     72  O   UNL A   1      36.282  33.296  29.258  1.00  0.00    -0.237 OA
ATOM     73  O   UNL A   1      34.844  31.377  28.642  1.00  0.00    -0.237 OA
ATOM     74  O   UNL A   1      34.386  32.663  30.697  1.00  0.00    -0.744 OA
ENDBRANCH  67  71
ENDBRANCH  50  64
BRANCH  51  75
ATOM     75  C   UNL A   1      47.040  27.042  26.159  1.00  0.00     0.023 A 
ATOM     76  C   UNL A   1      48.078  26.396  26.847  1.00  0.00     0.031 A 
ATOM     77  C   UNL A   1      47.218  27.310  24.791  1.00  0.00     0.131 A 
ATOM     78  C   UNL A   1      49.266  26.071  26.174  1.00  0.00     0.055 A 
ATOM     79  C   UNL A   1      48.383  26.947  24.115  1.00  0.00     0.041 A 
ATOM     80  F   UNL A   1      46.250  27.921  24.087  1.00  0.00    -0.206 F 
ATOM     81  C   UNL A   1      49.421  26.332  24.810  1.00  0.00     0.022 A 
BRANCH  78  82
ATOM     82  S   UNL A   1      50.633  25.354  27.123  1.00  0.00     0.124 S 
ATOM     83  O   UNL A   1      49.973  24.247  27.806  1.00  0.00    -0.237 OA
ATOM     84  O   UNL A   1      51.575  24.988  26.070  1.00  0.00    -0.237 OA
ATOM     85  O   UNL A   1      51.063  26.453  27.985  1.00  0.00    -0.744 OA
ENDBRANCH  78  82
ENDBRANCH  51  75
BRANCH  63  86
ATOM     86  C   UNL A   1      45.088  32.968  29.250  1.00  0.00     0.023 A 
ATOM     87  C   UNL A   1      44.875  34.086  28.426  1.00  0.00     0.031 A 
ATOM     88  C   UNL A   1      46.006  33.087  30.307  1.00  0.00     0.131 A 
ATOM     89  C   UNL A   1      45.603  35.265  28.648  1.00  0.00     0.055 A 
ATOM     90  C   UNL A   1      46.692  34.277  30.554  1.00  0.00     0.041 A 
ATOM     91  F   UNL A   1      46.248  32.047  31.122  1.00  0.00    -0.206 F 
ATOM     92  C   UNL A   1      46.499  35.371  29.715  1.00  0.00     0.022 A 
BRANCH  89  93
ATOM     93  S   UNL A   1      45.409  36.644  27.485  1.00  0.00     0.124 S 
ATOM     94  O   UNL A   1      45.137  37.762  28.383  1.00  0.00    -0.237 OA
ATOM     95  O   UNL A   1      46.700  36.668  26.809  1.00  0.00    -0.237 OA
ATOM     96  O   UNL A   1      44.282  36.231  26.650  1.00  0.00    -0.744 OA
ENDBRANCH  89  93
ENDBRANCH  63  86
ENDBRANCH  37  38
ENDBRANCH  29  32
ENDBRANCH  27  28
ENDBRANCH   1  27
TORSDOF 18
ENDMDL
MODEL 3
REMARK VINA RESULT:     -11.9      4.786      9.977
REMARK SMILES Cc1nc(C)c(C(=O)N[C@@H](Cc2ccccc2)C(=O)NCCCCNC(=O)c2ccc(-c3c4nc(c(-c5cc(S(=O)(=O)[O-])ccc5F)c5ccc([nH]5)c(-c5cc(S(=O)(=O)[O-])ccc5F)c5nc(c(-c6cc(S(=O)(=O)[O-])ccc6F)c6ccc3[nH]6)C=C5)C=C4)cc2)s1
REMARK SMILES IDX 23 1 22 2 21 3 20 4 18 5 19 6 10 8 9 9 7 10 8 11 6 13 1 14
REMARK SMILES IDX 2 15 3 16 91 17 4 18 5 19 11 20 12 21 13 22 17 23 14 24
REMARK SMILES IDX 16 25 15 26 24 27 25 28 26 29 27 31 28 32 29 33 90 34 30 35
REMARK SMILES IDX 89 36 31 37 32 38 33 39 83 40 34 41 88 42 82 43 84 44 35 45
REMARK SMILES IDX 87 46 81 47 80 48 36 50 68 51 48 52 67 53 49 54 52 55 66 56
REMARK SMILES IDX 85 57 50 58 51 59 65 61 86 62 53 63 37 64 38 65 46 66 39 67
REMARK SMILES IDX 45 68 47 69 44 70 40 71 41 72 42 73 43 74 69 75 70 76 78 77
REMARK SMILES IDX 71 78 77 79 79 80 76 81 72 82 73 83 74 84 75 85 54 86 55 87
REMARK SMILES IDX 63 88 56 89 62 90 64 91 61 92 57 93 58 94 59 95 60 96
REMARK H PARENT 20 7 9 12 25 30 84 49 52 60
REMARK Flexibility Score: inf
ROOT
ATOM      1  C   UNL A   1      35.912  21.378  25.463  1.00  0.00     0.023 C 
ENDROOT
BRANCH   1   2
ATOM      2  C   UNL A   1      35.326  22.288  26.542  1.00  0.00     0.023 C 
BRANCH   2   3
ATOM      3  C   UNL A   1      34.372  23.361  26.040  1.00  0.00     0.116 C 
BRANCH   3   4
ATOM      4  N   UNL A   1      33.192  23.541  26.858  1.00  0.00    -0.354 N 
ATOM      5  C   UNL A   1      31.902  23.160  26.632  1.00  0.00     0.242 C 
ATOM      6  O   UNL A   1      31.190  23.005  27.633  1.00  0.00    -0.273 OA
ATOM      7  H   UNL A   1      33.344  24.010  27.711  1.00  0.00     0.163 HD
BRANCH   5   8
ATOM      8  C   UNL A   1      31.328  22.817  25.236  1.00  0.00     0.176 C 
BRANCH   8   9
ATOM      9  N   UNL A   1      30.516  23.870  24.617  1.00  0.00    -0.339 N 
ATOM     10  C   UNL A   1      30.665  25.209  24.355  1.00  0.00     0.263 C 
ATOM     11  O   UNL A   1      29.733  25.655  23.675  1.00  0.00    -0.268 OA
ATOM     12  H   UNL A   1      29.643  23.531  24.312  1.00  0.00     0.164 HD
BRANCH  10  13
ATOM     13  C   UNL A   1      31.747  26.071  24.820  1.00  0.00     0.115 A 
ATOM     14  C   UNL A   1      33.920  28.592  26.864  1.00  0.00     0.079 C 
ATOM     15  C   UNL A   1      33.268  27.637  25.929  1.00  0.00     0.091 A 
ATOM     16  N   UNL A   1      33.821  27.199  24.825  1.00  0.00    -0.246 NA
ATOM     17  S   UNL A   1      31.696  27.054  26.223  1.00  0.00    -0.113 S 
ATOM     18  C   UNL A   1      32.966  26.313  24.177  1.00  0.00     0.061 A 
ATOM     19  C   UNL A   1      33.470  25.771  22.882  1.00  0.00     0.068 C 
ENDBRANCH  10  13
ENDBRANCH   8   9
BRANCH   8  20
ATOM     20  C   UNL A   1      32.348  22.194  24.258  1.00  0.00     0.070 C 
BRANCH  20  21
ATOM     21  C   UNL A   1      32.405  20.687  24.168  1.00  0.00    -0.045 A 
ATOM     22  C   UNL A   1      32.214  20.020  22.950  1.00  0.00     0.004 A 
ATOM     23  C   UNL A   1      32.662  19.929  25.322  1.00  0.00     0.004 A 
ATOM     24  C   UNL A   1      32.337  18.630  22.878  1.00  0.00     0.000 A 
ATOM     25  C   UNL A   1      32.770  18.539  25.249  1.00  0.00     0.000 A 
ATOM     26  C   UNL A   1      32.621  17.890  24.026  1.00  0.00     0.000 A 
ENDBRANCH  20  21
ENDBRANCH   8  20
ENDBRANCH   5   8
ENDBRANCH   3   4
ENDBRANCH   2   3
ENDBRANCH   1   2
BRANCH   1  27
ATOM     27  C   UNL A   1      37.327  21.712  24.995  1.00  0.00     0.116 C 
BRANCH  27  28
ATOM     28  N   UNL A   1      38.303  20.665  25.267  1.00  0.00    -0.352 N 
ATOM     29  C   UNL A   1      39.459  20.726  26.014  1.00  0.00     0.251 C 
ATOM     30  H   UNL A   1      38.109  19.790  24.861  1.00  0.00     0.163 HD
ATOM     31  O   UNL A   1      40.203  19.753  26.089  1.00  0.00    -0.269 OA
BRANCH  29  32
ATOM     32  C   UNL A   1      39.810  21.995  26.683  1.00  0.00     0.039 A 
ATOM     33  C   UNL A   1      40.748  21.980  27.718  1.00  0.00     0.014 A 
ATOM     34  C   UNL A   1      39.290  23.202  26.211  1.00  0.00     0.014 A 
ATOM     35  C   UNL A   1      41.260  23.189  28.196  1.00  0.00     0.010 A 
ATOM     36  C   UNL A   1      39.852  24.401  26.640  1.00  0.00     0.010 A 
ATOM     37  C   UNL A   1      40.865  24.404  27.612  1.00  0.00    -0.014 A 
BRANCH  37  38
ATOM     38  C   UNL A   1      41.537  25.686  27.951  1.00  0.00     0.031 A 
ATOM     39  C   UNL A   1      40.782  26.764  28.674  1.00  0.00     0.074 A 
ATOM     40  C   UNL A   1      42.790  25.919  27.508  1.00  0.00     0.049 A 
ATOM     41  N   UNL A   1      41.136  27.998  28.924  1.00  0.00    -0.248 NA
ATOM     42  C   UNL A   1      39.437  26.411  29.149  1.00  0.00     0.031 C 
ATOM     43  C   UNL A   1      43.615  24.965  26.763  1.00  0.00     0.029 A 
ATOM     44  N   UNL A   1      43.582  27.036  27.602  1.00  0.00    -0.354 N 
ATOM     45  C   UNL A   1      40.052  28.577  29.577  1.00  0.00     0.074 A 
ATOM     46  C   UNL A   1      39.010  27.571  29.624  1.00  0.00     0.031 C 
ATOM     47  C   UNL A   1      44.801  25.531  26.485  1.00  0.00     0.029 A 
ATOM     48  C   UNL A   1      44.803  26.903  26.982  1.00  0.00     0.049 A 
ATOM     49  H   UNL A   1      43.302  27.857  28.069  1.00  0.00     0.167 HD
ATOM     50  C   UNL A   1      39.945  29.821  30.105  1.00  0.00     0.034 A 
ATOM     51  C   UNL A   1      45.801  27.791  26.812  1.00  0.00     0.034 A 
ATOM     52  C   UNL A   1      40.994  30.810  30.052  1.00  0.00     0.049 A 
ATOM     53  C   UNL A   1      45.638  29.187  27.352  1.00  0.00     0.074 A 
ATOM     54  C   UNL A   1      41.014  32.080  30.604  1.00  0.00     0.029 A 
ATOM     55  N   UNL A   1      42.209  30.644  29.397  1.00  0.00    -0.354 N 
ATOM     56  N   UNL A   1      44.621  29.708  27.998  1.00  0.00    -0.248 NA
ATOM     57  C   UNL A   1      46.755  30.116  27.136  1.00  0.00     0.031 C 
ATOM     58  C   UNL A   1      42.213  32.703  30.232  1.00  0.00     0.029 A 
ATOM     59  C   UNL A   1      42.970  31.800  29.502  1.00  0.00     0.049 A 
ATOM     60  H   UNL A   1      42.489  29.827  28.928  1.00  0.00     0.167 HD
ATOM     61  C   UNL A   1      44.987  31.019  28.287  1.00  0.00     0.074 A 
ATOM     62  C   UNL A   1      46.321  31.207  27.751  1.00  0.00     0.031 C 
ATOM     63  C   UNL A   1      44.289  31.979  28.945  1.00  0.00     0.034 A 
BRANCH  50  64
ATOM     64  C   UNL A   1      38.632  30.177  30.759  1.00  0.00     0.023 A 
ATOM     65  C   UNL A   1      37.611  30.828  30.045  1.00  0.00     0.031 A 
ATOM     66  C   UNL A   1      38.414  29.912  32.122  1.00  0.00     0.131 A 
ATOM     67  C   UNL A   1      36.462  31.274  30.714  1.00  0.00     0.055 A 
ATOM     68  C   UNL A   1      37.230  30.281  32.764  1.00  0.00     0.041 A 
ATOM     69  F   UNL A   1      39.359  29.308  32.860  1.00  0.00    -0.206 F 
ATOM     70  C   UNL A   1      36.254  30.985  32.064  1.00  0.00     0.022 A 
BRANCH  67  71
ATOM     71  S   UNL A   1      35.326  32.380  29.833  1.00  0.00     0.124 S 
ATOM     72  O   UNL A   1      34.358  32.702  30.879  1.00  0.00    -0.237 OA
ATOM     73  O   UNL A   1      36.204  33.468  29.417  1.00  0.00    -0.237 OA
ATOM     74  O   UNL A   1      34.807  31.546  28.751  1.00  0.00    -0.744 OA
ENDBRANCH  67  71
ENDBRANCH  50  64
BRANCH  51  75
ATOM     75  C   UNL A   1      47.040  27.403  26.079  1.00  0.00     0.023 A 
ATOM     76  C   UNL A   1      47.206  27.735  24.726  1.00  0.00     0.031 A 
ATOM     77  C   UNL A   1      48.058  26.669  26.711  1.00  0.00     0.131 A 
ATOM     78  C   UNL A   1      48.349  27.303  24.036  1.00  0.00     0.055 A 
ATOM     79  C   UNL A   1      49.213  26.278  26.033  1.00  0.00     0.041 A 
ATOM     80  F   UNL A   1      47.948  26.332  28.007  1.00  0.00    -0.206 F 
ATOM     81  C   UNL A   1      49.360  26.586  24.683  1.00  0.00     0.022 A 
BRANCH  78  82
ATOM     82  S   UNL A   1      48.470  27.641  22.259  1.00  0.00     0.124 S 
ATOM     83  O   UNL A   1      48.535  26.293  21.704  1.00  0.00    -0.237 OA
ATOM     84  O   UNL A   1      47.238  28.381  22.006  1.00  0.00    -0.237 OA
ATOM     85  O   UNL A   1      49.699  28.424  22.144  1.00  0.00    -0.744 OA
ENDBRANCH  78  82
ENDBRANCH  51  75
BRANCH  63  86
ATOM     86  C   UNL A   1      44.977  33.303  29.146  1.00  0.00     0.023 A 
ATOM     87  C   UNL A   1      45.787  33.552  30.267  1.00  0.00     0.031 A 
ATOM     88  C   UNL A   1      44.813  34.333  28.203  1.00  0.00     0.131 A 
ATOM     89  C   UNL A   1      46.371  34.816  30.439  1.00  0.00     0.055 A 
ATOM     90  C   UNL A   1      45.436  35.572  28.354  1.00  0.00     0.041 A 
ATOM     91  F   UNL A   1      44.048  34.147  27.116  1.00  0.00    -0.206 F 
ATOM     92  C   UNL A   1      46.213  35.822  29.482  1.00  0.00     0.022 A 
BRANCH  89  93
ATOM     93  S   UNL A   1      47.296  35.151  31.963  1.00  0.00     0.124 S 
ATOM     94  O   UNL A   1      47.736  36.526  31.755  1.00  0.00    -0.237 OA
ATOM     95  O   UNL A   1      46.284  34.954  32.994  1.00  0.00    -0.237 OA
ATOM     96  O   UNL A   1      48.361  34.149  31.945  1.00  0.00    -0.744 OA
ENDBRANCH  89  93
ENDBRANCH  63  86
ENDBRANCH  37  38
ENDBRANCH  29  32
ENDBRANCH  27  28
ENDBRANCH   1  27
TORSDOF 18
ENDMDL
