MODEL 1
REMARK VINA RESULT:     -12.0      0.000      0.000
REMARK SMILES C[C@H](C(=O)NCCCCNC(=O)c1ccc(-c2c3nc(c(-c4cc(S(=O)(=O)[O-])ccc4F)c4ccc([nH]4)c(-c4cc(S(=O)(=O)[O-])ccc4F)c4nc(c(-c5cc(S(=O)(=O)[O-])ccc5F)c5ccc2[nH]5)C=C4)C=C3)cc1)[C@H](C)[NH+]1CCN(c2ccccc2Cl)CC1
REMARK SMILES IDX 7 1 6 2 5 3 3 4 4 5 2 7 1 8 76 9 77 10 78 11 79 12 90 13
REMARK SMILES IDX 80 15 89 16 81 17 82 18 83 19 87 20 84 21 86 22 88 23 85 24
REMARK SMILES IDX 8 25 9 26 10 27 11 28 12 30 13 31 14 32 75 33 15 34 74 35
REMARK SMILES IDX 16 36 17 37 18 38 68 39 19 40 73 41 67 42 69 43 20 44 72 45
REMARK SMILES IDX 66 46 65 47 21 49 53 50 33 51 52 52 34 53 37 54 51 55 70 56
REMARK SMILES IDX 35 57 36 58 50 60 71 61 38 62 22 63 23 64 31 65 24 66 30 67
REMARK SMILES IDX 32 68 29 69 25 70 26 71 27 72 28 73 54 74 55 75 63 76 56 77
REMARK SMILES IDX 62 78 64 79 61 80 57 81 58 82 59 83 60 84 39 85 40 86 48 87
REMARK SMILES IDX 41 88 47 89 49 90 46 91 42 92 43 93 44 94 45 95
REMARK H PARENT 5 6 78 14 10 29 69 48 37 59
REMARK Flexibility Score: inf
ROOT
ATOM      1  C   UNL A   1      31.383  30.978  25.714  1.00  0.00     0.023 C 
ENDROOT
BRANCH   1   2
ATOM      2  C   UNL A   1      32.498  29.948  25.879  1.00  0.00     0.116 C 
BRANCH   2   3
ATOM      3  N   UNL A   1      33.170  29.655  24.631  1.00  0.00    -0.356 N 
ATOM      4  C   UNL A   1      32.810  28.833  23.603  1.00  0.00     0.228 C 
ATOM      5  O   UNL A   1      33.478  28.893  22.567  1.00  0.00    -0.275 OA
ATOM      6  H   UNL A   1      34.025  30.125  24.502  1.00  0.00     0.163 HD
BRANCH   4   7
ATOM      7  C   UNL A   1      31.598  27.903  23.735  1.00  0.00     0.133 C 
ATOM      8  C   UNL A   1      30.931  27.772  22.356  1.00  0.00     0.024 C 
BRANCH   7   9
ATOM      9  C   UNL A   1      31.935  26.495  24.342  1.00  0.00     0.193 C 
ATOM     10  C   UNL A   1      31.277  26.349  25.724  1.00  0.00     0.076 C 
BRANCH   9  11
ATOM     11  N   UNL A   1      33.375  26.211  24.276  1.00  0.00    -0.329 N 
ATOM     12  C   UNL A   1      34.118  25.819  25.486  1.00  0.00     0.284 C 
ATOM     13  C   UNL A   1      33.768  25.343  23.144  1.00  0.00     0.284 C 
ATOM     14  H   UNL A   1      33.680  27.174  24.129  1.00  0.00     0.348 HD
ATOM     15  C   UNL A   1      34.130  24.310  25.838  1.00  0.00     0.178 C 
ATOM     16  C   UNL A   1      33.659  23.832  23.454  1.00  0.00     0.178 C 
ATOM     17  N   UNL A   1      34.448  23.515  24.648  1.00  0.00    -0.359 N 
BRANCH  17  18
ATOM     18  C   UNL A   1      35.249  22.389  24.715  1.00  0.00     0.056 A 
ATOM     19  C   UNL A   1      36.638  22.510  24.521  1.00  0.00     0.027 A 
ATOM     20  C   UNL A   1      34.754  21.085  24.945  1.00  0.00     0.064 A 
ATOM     21  C   UNL A   1      37.494  21.403  24.572  1.00  0.00     0.002 A 
ATOM     22  C   UNL A   1      35.612  19.976  24.999  1.00  0.00     0.023 A 
ATOM     23  Cl  UNL A   1      33.059  20.737  25.069  1.00  0.00    -0.082 Cl
ATOM     24  C   UNL A   1      36.981  20.136  24.816  1.00  0.00     0.002 A 
ENDBRANCH  17  18
ENDBRANCH   9  11
ENDBRANCH   7   9
ENDBRANCH   4   7
ENDBRANCH   2   3
ENDBRANCH   1   2
BRANCH   1  25
ATOM     25  C   UNL A   1      31.302  32.039  26.811  1.00  0.00     0.023 C 
BRANCH  25  26
ATOM     26  C   UNL A   1      32.623  32.706  27.170  1.00  0.00     0.116 C 
BRANCH  26  27
ATOM     27  N   UNL A   1      32.455  34.021  27.773  1.00  0.00    -0.352 N 
ATOM     28  C   UNL A   1      33.225  34.618  28.745  1.00  0.00     0.251 C 
ATOM     29  H   UNL A   1      31.694  34.550  27.444  1.00  0.00     0.163 HD
ATOM     30  O   UNL A   1      32.883  35.692  29.231  1.00  0.00    -0.269 OA
BRANCH  28  31
ATOM     31  C   UNL A   1      34.441  33.926  29.219  1.00  0.00     0.039 A 
ATOM     32  C   UNL A   1      35.689  34.338  28.745  1.00  0.00     0.014 A 
ATOM     33  C   UNL A   1      34.344  32.925  30.189  1.00  0.00     0.014 A 
ATOM     34  C   UNL A   1      36.850  33.804  29.309  1.00  0.00     0.010 A 
ATOM     35  C   UNL A   1      35.499  32.446  30.793  1.00  0.00     0.010 A 
ATOM     36  C   UNL A   1      36.763  32.890  30.369  1.00  0.00    -0.014 A 
BRANCH  36  37
ATOM     37  C   UNL A   1      37.968  32.373  31.068  1.00  0.00     0.031 A 
ATOM     38  C   UNL A   1      38.729  31.222  30.475  1.00  0.00     0.074 A 
ATOM     39  C   UNL A   1      38.288  32.843  32.288  1.00  0.00     0.049 A 
ATOM     40  N   UNL A   1      39.666  30.482  31.008  1.00  0.00    -0.248 NA
ATOM     41  C   UNL A   1      38.344  30.827  29.113  1.00  0.00     0.031 C 
ATOM     42  C   UNL A   1      37.593  33.924  32.989  1.00  0.00     0.029 A 
ATOM     43  N   UNL A   1      39.257  32.441  33.174  1.00  0.00    -0.354 N 
ATOM     44  C   UNL A   1      39.957  29.506  30.061  1.00  0.00     0.074 A 
ATOM     45  C   UNL A   1      39.058  29.725  28.946  1.00  0.00     0.031 C 
ATOM     46  C   UNL A   1      38.150  34.093  34.199  1.00  0.00     0.029 A 
ATOM     47  C   UNL A   1      39.208  33.103  34.379  1.00  0.00     0.049 A 
ATOM     48  H   UNL A   1      39.924  31.747  32.967  1.00  0.00     0.167 HD
ATOM     49  C   UNL A   1      40.895  28.526  30.115  1.00  0.00     0.034 A 
ATOM     50  C   UNL A   1      39.910  32.912  35.513  1.00  0.00     0.034 A 
ATOM     51  C   UNL A   1      41.792  28.340  31.229  1.00  0.00     0.049 A 
ATOM     52  C   UNL A   1      40.956  31.831  35.553  1.00  0.00     0.074 A 
ATOM     53  C   UNL A   1      42.831  27.434  31.361  1.00  0.00     0.029 A 
ATOM     54  N   UNL A   1      41.750  29.069  32.412  1.00  0.00    -0.354 N 
ATOM     55  N   UNL A   1      41.259  30.943  34.634  1.00  0.00    -0.248 NA
ATOM     56  C   UNL A   1      41.760  31.730  36.778  1.00  0.00     0.031 C 
ATOM     57  C   UNL A   1      43.379  27.577  32.642  1.00  0.00     0.029 A 
ATOM     58  C   UNL A   1      42.727  28.617  33.286  1.00  0.00     0.049 A 
ATOM     59  H   UNL A   1      41.120  29.800  32.601  1.00  0.00     0.167 HD
ATOM     60  C   UNL A   1      42.306  30.194  35.161  1.00  0.00     0.074 A 
ATOM     61  C   UNL A   1      42.583  30.735  36.476  1.00  0.00     0.031 C 
ATOM     62  C   UNL A   1      42.985  29.160  34.601  1.00  0.00     0.034 A 
BRANCH  49  63
ATOM     63  C   UNL A   1      40.956  27.570  28.946  1.00  0.00     0.023 A 
ATOM     64  C   UNL A   1      41.941  27.685  27.949  1.00  0.00     0.031 A 
ATOM     65  C   UNL A   1      39.972  26.578  28.785  1.00  0.00     0.131 A 
ATOM     66  C   UNL A   1      41.857  26.903  26.787  1.00  0.00     0.055 A 
ATOM     67  C   UNL A   1      39.951  25.737  27.671  1.00  0.00     0.041 A 
ATOM     68  F   UNL A   1      38.996  26.428  29.693  1.00  0.00    -0.206 F 
ATOM     69  C   UNL A   1      40.883  25.912  26.651  1.00  0.00     0.022 A 
BRANCH  66  70
ATOM     70  S   UNL A   1      42.918  27.336  25.380  1.00  0.00     0.124 S 
ATOM     71  O   UNL A   1      42.126  28.371  24.720  1.00  0.00    -0.237 OA
ATOM     72  O   UNL A   1      44.140  27.788  26.035  1.00  0.00    -0.237 OA
ATOM     73  O   UNL A   1      43.031  26.082  24.638  1.00  0.00    -0.744 OA
ENDBRANCH  66  70
ENDBRANCH  49  63
BRANCH  50  74
ATOM     74  C   UNL A   1      39.622  33.747  36.711  1.00  0.00     0.023 A 
ATOM     75  C   UNL A   1      38.981  33.205  37.835  1.00  0.00     0.031 A 
ATOM     76  C   UNL A   1      39.999  35.101  36.749  1.00  0.00     0.131 A 
ATOM     77  C   UNL A   1      38.712  34.022  38.944  1.00  0.00     0.055 A 
ATOM     78  C   UNL A   1      39.761  35.899  37.869  1.00  0.00     0.041 A 
ATOM     79  F   UNL A   1      40.628  35.659  35.703  1.00  0.00    -0.206 F 
ATOM     80  C   UNL A   1      39.109  35.361  38.974  1.00  0.00     0.022 A 
BRANCH  77  81
ATOM     81  S   UNL A   1      37.810  33.312  40.350  1.00  0.00     0.124 S 
ATOM     82  O   UNL A   1      36.520  33.000  39.747  1.00  0.00    -0.237 OA
ATOM     83  O   UNL A   1      38.647  32.170  40.702  1.00  0.00    -0.237 OA
ATOM     84  O   UNL A   1      37.799  34.396  41.329  1.00  0.00    -0.744 OA
ENDBRANCH  77  81
ENDBRANCH  50  74
BRANCH  62  85
ATOM     85  C   UNL A   1      44.129  28.582  35.392  1.00  0.00     0.023 A 
ATOM     86  C   UNL A   1      43.933  27.582  36.359  1.00  0.00     0.031 A 
ATOM     87  C   UNL A   1      45.439  29.037  35.160  1.00  0.00     0.131 A 
ATOM     88  C   UNL A   1      45.030  27.092  37.086  1.00  0.00     0.055 A 
ATOM     89  C   UNL A   1      46.531  28.514  35.854  1.00  0.00     0.041 A 
ATOM     90  F   UNL A   1      45.679  29.993  34.248  1.00  0.00    -0.206 F 
ATOM     91  C   UNL A   1      46.329  27.541  36.828  1.00  0.00     0.022 A 
BRANCH  88  92
ATOM     92  S   UNL A   1      44.735  25.895  38.416  1.00  0.00     0.124 S 
ATOM     93  O   UNL A   1      44.267  24.728  37.675  1.00  0.00    -0.237 OA
ATOM     94  O   UNL A   1      46.054  25.774  39.029  1.00  0.00    -0.237 OA
ATOM     95  O   UNL A   1      43.724  26.547  39.248  1.00  0.00    -0.744 OA
ENDBRANCH  88  92
ENDBRANCH  62  85
ENDBRANCH  36  37
ENDBRANCH  28  31
ENDBRANCH  26  27
ENDBRANCH  25  26
ENDBRANCH   1  25
TORSDOF 17
ENDMDL
MODEL 2
REMARK VINA RESULT:     -11.9      1.224      1.518
REMARK SMILES C[C@H](C(=O)NCCCCNC(=O)c1ccc(-c2c3nc(c(-c4cc(S(=O)(=O)[O-])ccc4F)c4ccc([nH]4)c(-c4cc(S(=O)(=O)[O-])ccc4F)c4nc(c(-c5cc(S(=O)(=O)[O-])ccc5F)c5ccc2[nH]5)C=C4)C=C3)cc1)[C@H](C)[NH+]1CCN(c2ccccc2Cl)CC1
REMARK SMILES IDX 7 1 6 2 5 3 3 4 4 5 2 7 1 8 76 9 77 10 78 11 79 12 90 13
REMARK SMILES IDX 80 15 89 16 81 17 82 18 83 19 87 20 84 21 86 22 88 23 85 24
REMARK SMILES IDX 8 25 9 26 10 27 11 28 12 30 13 31 14 32 75 33 15 34 74 35
REMARK SMILES IDX 16 36 17 37 18 38 68 39 19 40 73 41 67 42 69 43 20 44 72 45
REMARK SMILES IDX 66 46 65 47 21 49 53 50 33 51 52 52 34 53 37 54 51 55 70 56
REMARK SMILES IDX 35 57 36 58 50 60 71 61 38 62 22 63 23 64 31 65 24 66 30 67
REMARK SMILES IDX 32 68 29 69 25 70 26 71 27 72 28 73 54 74 55 75 63 76 56 77
REMARK SMILES IDX 62 78 64 79 61 80 57 81 58 82 59 83 60 84 39 85 40 86 48 87
REMARK SMILES IDX 41 88 47 89 49 90 46 91 42 92 43 93 44 94 45 95
REMARK H PARENT 5 6 78 14 10 29 69 48 37 59
REMARK Flexibility Score: inf
ROOT
ATOM      1  C   UNL A   1      31.446  30.784  25.786  1.00  0.00     0.023 C 
ENDROOT
BRANCH   1   2
ATOM      2  C   UNL A   1      32.691  29.902  25.841  1.00  0.00     0.116 C 
BRANCH   2   3
ATOM      3  N   UNL A   1      33.224  29.614  24.527  1.00  0.00    -0.356 N 
ATOM      4  C   UNL A   1      32.733  28.826  23.526  1.00  0.00     0.228 C 
ATOM      5  O   UNL A   1      33.296  28.886  22.429  1.00  0.00    -0.275 OA
ATOM      6  H   UNL A   1      34.077  30.058  24.320  1.00  0.00     0.163 HD
BRANCH   4   7
ATOM      7  C   UNL A   1      31.509  27.935  23.762  1.00  0.00     0.133 C 
ATOM      8  C   UNL A   1      30.739  27.802  22.438  1.00  0.00     0.024 C 
BRANCH   7   9
ATOM      9  C   UNL A   1      31.849  26.527  24.370  1.00  0.00     0.193 C 
ATOM     10  C   UNL A   1      31.209  26.387  25.760  1.00  0.00     0.076 C 
BRANCH   9  11
ATOM     11  N   UNL A   1      33.287  26.239  24.285  1.00  0.00    -0.329 N 
ATOM     12  C   UNL A   1      34.046  25.853  25.486  1.00  0.00     0.284 C 
ATOM     13  C   UNL A   1      33.661  25.361  23.153  1.00  0.00     0.284 C 
ATOM     14  H   UNL A   1      33.593  27.199  24.126  1.00  0.00     0.348 HD
ATOM     15  C   UNL A   1      34.059  24.347  25.849  1.00  0.00     0.178 C 
ATOM     16  C   UNL A   1      33.553  23.853  23.476  1.00  0.00     0.178 C 
ATOM     17  N   UNL A   1      34.358  23.542  24.661  1.00  0.00    -0.359 N 
BRANCH  17  18
ATOM     18  C   UNL A   1      35.157  22.414  24.725  1.00  0.00     0.056 A 
ATOM     19  C   UNL A   1      36.546  22.532  24.526  1.00  0.00     0.027 A 
ATOM     20  C   UNL A   1      34.659  21.111  24.955  1.00  0.00     0.064 A 
ATOM     21  C   UNL A   1      37.399  21.424  24.574  1.00  0.00     0.002 A 
ATOM     22  C   UNL A   1      35.515  20.001  25.006  1.00  0.00     0.023 A 
ATOM     23  Cl  UNL A   1      32.964  20.767  25.084  1.00  0.00    -0.082 Cl
ATOM     24  C   UNL A   1      36.883  20.157  24.818  1.00  0.00     0.002 A 
ENDBRANCH  17  18
ENDBRANCH   9  11
ENDBRANCH   7   9
ENDBRANCH   4   7
ENDBRANCH   2   3
ENDBRANCH   1   2
BRANCH   1  25
ATOM     25  C   UNL A   1      31.365  31.873  26.856  1.00  0.00     0.023 C 
BRANCH  25  26
ATOM     26  C   UNL A   1      32.684  32.554  27.193  1.00  0.00     0.116 C 
BRANCH  26  27
ATOM     27  N   UNL A   1      32.511  33.870  27.793  1.00  0.00    -0.352 N 
ATOM     28  C   UNL A   1      33.274  34.469  28.769  1.00  0.00     0.251 C 
ATOM     29  H   UNL A   1      31.752  34.399  27.457  1.00  0.00     0.163 HD
ATOM     30  O   UNL A   1      32.928  35.543  29.252  1.00  0.00    -0.269 OA
BRANCH  28  31
ATOM     31  C   UNL A   1      34.486  33.778  29.254  1.00  0.00     0.039 A 
ATOM     32  C   UNL A   1      35.737  34.190  28.788  1.00  0.00     0.014 A 
ATOM     33  C   UNL A   1      34.382  32.778  30.224  1.00  0.00     0.014 A 
ATOM     34  C   UNL A   1      36.895  33.656  29.362  1.00  0.00     0.010 A 
ATOM     35  C   UNL A   1      35.533  32.299  30.837  1.00  0.00     0.010 A 
ATOM     36  C   UNL A   1      36.800  32.743  30.422  1.00  0.00    -0.014 A 
BRANCH  36  37
ATOM     37  C   UNL A   1      37.999  32.227  31.131  1.00  0.00     0.031 A 
ATOM     38  C   UNL A   1      38.811  31.128  30.506  1.00  0.00     0.074 A 
ATOM     39  C   UNL A   1      38.272  32.647  32.381  1.00  0.00     0.049 A 
ATOM     40  N   UNL A   1      39.753  30.389  31.031  1.00  0.00    -0.248 NA
ATOM     41  C   UNL A   1      38.475  30.788  29.117  1.00  0.00     0.031 C 
ATOM     42  C   UNL A   1      37.526  33.673  33.111  1.00  0.00     0.029 A 
ATOM     43  N   UNL A   1      39.227  32.231  33.274  1.00  0.00    -0.354 N 
ATOM     44  C   UNL A   1      40.099  29.468  30.048  1.00  0.00     0.074 A 
ATOM     45  C   UNL A   1      39.226  29.715  28.919  1.00  0.00     0.031 C 
ATOM     46  C   UNL A   1      38.044  33.799  34.344  1.00  0.00     0.029 A 
ATOM     47  C   UNL A   1      39.125  32.832  34.507  1.00  0.00     0.049 A 
ATOM     48  H   UNL A   1      39.919  31.566  33.054  1.00  0.00     0.167 HD
ATOM     49  C   UNL A   1      41.063  28.514  30.083  1.00  0.00     0.034 A 
ATOM     50  C   UNL A   1      39.801  32.607  35.650  1.00  0.00     0.034 A 
ATOM     51  C   UNL A   1      41.934  28.300  31.213  1.00  0.00     0.049 A 
ATOM     52  C   UNL A   1      40.877  31.554  35.670  1.00  0.00     0.074 A 
ATOM     53  C   UNL A   1      42.996  27.418  31.332  1.00  0.00     0.029 A 
ATOM     54  N   UNL A   1      41.838  28.970  32.427  1.00  0.00    -0.354 N 
ATOM     55  N   UNL A   1      41.231  30.721  34.719  1.00  0.00    -0.248 NA
ATOM     56  C   UNL A   1      41.649  31.418  36.912  1.00  0.00     0.031 C 
ATOM     57  C   UNL A   1      43.503  27.515  32.633  1.00  0.00     0.029 A 
ATOM     58  C   UNL A   1      42.803  28.504  33.307  1.00  0.00     0.049 A 
ATOM     59  H   UNL A   1      41.182  29.673  32.632  1.00  0.00     0.167 HD
ATOM     60  C   UNL A   1      42.285  29.977  35.240  1.00  0.00     0.074 A 
ATOM     61  C   UNL A   1      42.509  30.462  36.588  1.00  0.00     0.031 C 
ATOM     62  C   UNL A   1      43.008  28.990  34.652  1.00  0.00     0.034 A 
BRANCH  49  63
ATOM     63  C   UNL A   1      41.185  27.618  28.872  1.00  0.00     0.023 A 
ATOM     64  C   UNL A   1      42.224  27.774  27.938  1.00  0.00     0.031 A 
ATOM     65  C   UNL A   1      40.207  26.642  28.607  1.00  0.00     0.131 A 
ATOM     66  C   UNL A   1      42.201  27.053  26.736  1.00  0.00     0.055 A 
ATOM     67  C   UNL A   1      40.243  25.858  27.452  1.00  0.00     0.041 A 
ATOM     68  F   UNL A   1      39.181  26.455  29.451  1.00  0.00    -0.206 F 
ATOM     69  C   UNL A   1      41.232  26.077  26.495  1.00  0.00     0.022 A 
BRANCH  66  70
ATOM     70  S   UNL A   1      43.341  27.547  25.413  1.00  0.00     0.124 S 
ATOM     71  O   UNL A   1      44.010  26.283  25.111  1.00  0.00    -0.237 OA
ATOM     72  O   UNL A   1      42.435  28.051  24.389  1.00  0.00    -0.237 OA
ATOM     73  O   UNL A   1      44.189  28.553  26.050  1.00  0.00    -0.744 OA
ENDBRANCH  66  70
ENDBRANCH  49  63
BRANCH  50  74
ATOM     74  C   UNL A   1      39.455  33.374  36.877  1.00  0.00     0.023 A 
ATOM     75  C   UNL A   1      40.108  34.576  37.189  1.00  0.00     0.031 A 
ATOM     76  C   UNL A   1      38.451  32.919  37.750  1.00  0.00     0.131 A 
ATOM     77  C   UNL A   1      39.767  35.270  38.361  1.00  0.00     0.055 A 
ATOM     78  C   UNL A   1      38.091  33.631  38.894  1.00  0.00     0.041 A 
ATOM     79  F   UNL A   1      37.788  31.782  37.484  1.00  0.00    -0.206 F 
ATOM     80  C   UNL A   1      38.755  34.812  39.208  1.00  0.00     0.022 A 
BRANCH  77  81
ATOM     81  S   UNL A   1      40.686  36.778  38.778  1.00  0.00     0.124 S 
ATOM     82  O   UNL A   1      39.615  37.762  38.872  1.00  0.00    -0.237 OA
ATOM     83  O   UNL A   1      41.327  36.405  40.035  1.00  0.00    -0.237 OA
ATOM     84  O   UNL A   1      41.595  36.946  37.647  1.00  0.00    -0.744 OA
ENDBRANCH  77  81
ENDBRANCH  50  74
BRANCH  62  85
ATOM     85  C   UNL A   1      44.146  28.407  35.449  1.00  0.00     0.023 A 
ATOM     86  C   UNL A   1      43.949  27.378  36.384  1.00  0.00     0.031 A 
ATOM     87  C   UNL A   1      45.454  28.887  35.253  1.00  0.00     0.131 A 
ATOM     88  C   UNL A   1      45.039  26.885  37.117  1.00  0.00     0.055 A 
ATOM     89  C   UNL A   1      46.541  28.361  35.952  1.00  0.00     0.041 A 
ATOM     90  F   UNL A   1      45.696  29.870  34.371  1.00  0.00    -0.206 F 
ATOM     91  C   UNL A   1      46.336  27.359  36.896  1.00  0.00     0.022 A 
BRANCH  88  92
ATOM     92  S   UNL A   1      44.739  25.647  38.409  1.00  0.00     0.124 S 
ATOM     93  O   UNL A   1      46.087  25.155  38.677  1.00  0.00    -0.237 OA
ATOM     94  O   UNL A   1      44.127  26.442  39.470  1.00  0.00    -0.237 OA
ATOM     95  O   UNL A   1      43.845  24.687  37.764  1.00  0.00    -0.744 OA
ENDBRANCH  88  92
ENDBRANCH  62  85
ENDBRANCH  36  37
ENDBRANCH  28  31
ENDBRANCH  26  27
ENDBRANCH  25  26
ENDBRANCH   1  25
TORSDOF 17
ENDMDL
MODEL 3
REMARK VINA RESULT:     -11.7      2.127      2.780
REMARK SMILES C[C@H](C(=O)NCCCCNC(=O)c1ccc(-c2c3nc(c(-c4cc(S(=O)(=O)[O-])ccc4F)c4ccc([nH]4)c(-c4cc(S(=O)(=O)[O-])ccc4F)c4nc(c(-c5cc(S(=O)(=O)[O-])ccc5F)c5ccc2[nH]5)C=C4)C=C3)cc1)[C@H](C)[NH+]1CCN(c2ccccc2Cl)CC1
REMARK SMILES IDX 7 1 6 2 5 3 3 4 4 5 2 7 1 8 76 9 77 10 78 11 79 12 90 13
REMARK SMILES IDX 80 15 89 16 81 17 82 18 83 19 87 20 84 21 86 22 88 23 85 24
REMARK SMILES IDX 8 25 9 26 10 27 11 28 12 30 13 31 14 32 75 33 15 34 74 35
REMARK SMILES IDX 16 36 17 37 18 38 68 39 19 40 73 41 67 42 69 43 20 44 72 45
REMARK SMILES IDX 66 46 65 47 21 49 53 50 33 51 52 52 34 53 37 54 51 55 70 56
REMARK SMILES IDX 35 57 36 58 50 60 71 61 38 62 22 63 23 64 31 65 24 66 30 67
REMARK SMILES IDX 32 68 29 69 25 70 26 71 27 72 28 73 54 74 55 75 63 76 56 77
REMARK SMILES IDX 62 78 64 79 61 80 57 81 58 82 59 83 60 84 39 85 40 86 48 87
REMARK SMILES IDX 41 88 47 89 49 90 46 91 42 92 43 93 44 94 45 95
REMARK H PARENT 5 6 78 14 10 29 69 48 37 59
REMARK Flexibility Score: inf
ROOT
ATOM      1  C   UNL A   1      31.100  29.736  24.490  1.00  0.00     0.023 C 
ENDROOT
BRANCH   1   2
ATOM      2  C   UNL A   1      31.181  28.993  23.159  1.00  0.00     0.116 C 
BRANCH   2   3
ATOM      3  N   UNL A   1      30.243  27.894  23.080  1.00  0.00    -0.356 N 
ATOM      4  C   UNL A   1      30.088  26.804  23.886  1.00  0.00     0.228 C 
ATOM      5  O   UNL A   1      29.093  26.097  23.700  1.00  0.00    -0.275 OA
ATOM      6  H   UNL A   1      29.616  27.939  22.323  1.00  0.00     0.163 HD
BRANCH   4   7
ATOM      7  C   UNL A   1      31.099  26.504  24.999  1.00  0.00     0.133 C 
ATOM      8  C   UNL A   1      30.329  26.052  26.250  1.00  0.00     0.024 C 
BRANCH   7   9
ATOM      9  C   UNL A   1      32.201  25.459  24.598  1.00  0.00     0.193 C 
ATOM     10  C   UNL A   1      33.384  26.176  23.928  1.00  0.00     0.076 C 
BRANCH   9  11
ATOM     11  N   UNL A   1      31.625  24.328  23.858  1.00  0.00    -0.329 N 
ATOM     12  C   UNL A   1      32.342  23.736  22.716  1.00  0.00     0.284 C 
ATOM     13  C   UNL A   1      31.087  23.253  24.722  1.00  0.00     0.284 C 
ATOM     14  H   UNL A   1      30.875  24.850  23.404  1.00  0.00     0.348 HD
ATOM     15  C   UNL A   1      33.374  22.626  23.039  1.00  0.00     0.178 C 
ATOM     16  C   UNL A   1      32.146  22.212  25.150  1.00  0.00     0.178 C 
ATOM     17  N   UNL A   1      32.792  21.646  23.961  1.00  0.00    -0.359 N 
BRANCH  17  18
ATOM     18  C   UNL A   1      33.050  20.292  23.846  1.00  0.00     0.056 A 
ATOM     19  C   UNL A   1      32.197  19.483  23.071  1.00  0.00     0.027 A 
ATOM     20  C   UNL A   1      34.124  19.639  24.493  1.00  0.00     0.064 A 
ATOM     21  C   UNL A   1      32.409  18.108  22.925  1.00  0.00     0.002 A 
ATOM     22  C   UNL A   1      34.338  18.261  24.345  1.00  0.00     0.023 A 
ATOM     23  Cl  UNL A   1      35.188  20.456  25.593  1.00  0.00    -0.082 Cl
ATOM     24  C   UNL A   1      33.483  17.497  23.560  1.00  0.00     0.002 A 
ENDBRANCH  17  18
ENDBRANCH   9  11
ENDBRANCH   7   9
ENDBRANCH   4   7
ENDBRANCH   2   3
ENDBRANCH   1   2
BRANCH   1  25
ATOM     25  C   UNL A   1      32.417  29.854  25.257  1.00  0.00     0.023 C 
BRANCH  25  26
ATOM     26  C   UNL A   1      32.287  30.273  26.715  1.00  0.00     0.116 C 
BRANCH  26  27
ATOM     27  N   UNL A   1      32.071  31.704  26.882  1.00  0.00    -0.352 N 
ATOM     28  C   UNL A   1      32.907  32.631  27.462  1.00  0.00     0.251 C 
ATOM     29  H   UNL A   1      31.219  32.053  26.535  1.00  0.00     0.163 HD
ATOM     30  O   UNL A   1      32.529  33.786  27.628  1.00  0.00    -0.269 OA
BRANCH  28  31
ATOM     31  C   UNL A   1      34.244  32.200  27.918  1.00  0.00     0.039 A 
ATOM     32  C   UNL A   1      35.275  33.141  27.991  1.00  0.00     0.014 A 
ATOM     33  C   UNL A   1      34.450  30.886  28.343  1.00  0.00     0.014 A 
ATOM     34  C   UNL A   1      36.493  32.783  28.575  1.00  0.00     0.010 A 
ATOM     35  C   UNL A   1      35.638  30.553  28.983  1.00  0.00     0.010 A 
ATOM     36  C   UNL A   1      36.665  31.501  29.117  1.00  0.00    -0.014 A 
BRANCH  36  37
ATOM     37  C   UNL A   1      37.903  31.108  29.838  1.00  0.00     0.031 A 
ATOM     38  C   UNL A   1      38.829  30.099  29.220  1.00  0.00     0.074 A 
ATOM     39  C   UNL A   1      38.118  31.548  31.093  1.00  0.00     0.049 A 
ATOM     40  N   UNL A   1      39.837  29.459  29.754  1.00  0.00    -0.248 NA
ATOM     41  C   UNL A   1      38.546  29.732  27.826  1.00  0.00     0.031 C 
ATOM     42  C   UNL A   1      37.263  32.491  31.817  1.00  0.00     0.029 A 
ATOM     43  N   UNL A   1      39.101  31.228  31.996  1.00  0.00    -0.354 N 
ATOM     44  C   UNL A   1      40.286  28.581  28.772  1.00  0.00     0.074 A 
ATOM     45  C   UNL A   1      39.404  28.742  27.634  1.00  0.00     0.031 C 
ATOM     46  C   UNL A   1      37.752  32.664  33.056  1.00  0.00     0.029 A 
ATOM     47  C   UNL A   1      38.924  31.811  33.229  1.00  0.00     0.049 A 
ATOM     48  H   UNL A   1      39.859  30.638  31.782  1.00  0.00     0.167 HD
ATOM     49  C   UNL A   1      41.341  27.730  28.816  1.00  0.00     0.034 A 
ATOM     50  C   UNL A   1      39.607  31.651  34.379  1.00  0.00     0.034 A 
ATOM     51  C   UNL A   1      42.217  27.601  29.955  1.00  0.00     0.049 A 
ATOM     52  C   UNL A   1      40.784  30.714  34.409  1.00  0.00     0.074 A 
ATOM     53  C   UNL A   1      43.361  26.832  30.084  1.00  0.00     0.029 A 
ATOM     54  N   UNL A   1      42.040  28.254  31.170  1.00  0.00    -0.354 N 
ATOM     55  N   UNL A   1      41.231  29.925  33.460  1.00  0.00    -0.248 NA
ATOM     56  C   UNL A   1      41.552  30.652  35.659  1.00  0.00     0.031 C 
ATOM     57  C   UNL A   1      43.842  26.975  31.391  1.00  0.00     0.029 A 
ATOM     58  C   UNL A   1      43.037  27.885  32.059  1.00  0.00     0.049 A 
ATOM     59  H   UNL A   1      41.313  28.886  31.369  1.00  0.00     0.167 HD
ATOM     60  C   UNL A   1      42.350  29.290  33.991  1.00  0.00     0.074 A 
ATOM     61  C   UNL A   1      42.509  29.790  35.342  1.00  0.00     0.031 C 
ATOM     62  C   UNL A   1      43.177  28.385  33.409  1.00  0.00     0.034 A 
BRANCH  49  63
ATOM     63  C   UNL A   1      41.567  26.855  27.604  1.00  0.00     0.023 A 
ATOM     64  C   UNL A   1      41.135  25.518  27.567  1.00  0.00     0.031 A 
ATOM     65  C   UNL A   1      42.291  27.341  26.501  1.00  0.00     0.131 A 
ATOM     66  C   UNL A   1      41.524  24.684  26.509  1.00  0.00     0.055 A 
ATOM     67  C   UNL A   1      42.593  26.531  25.403  1.00  0.00     0.041 A 
ATOM     68  F   UNL A   1      42.746  28.604  26.482  1.00  0.00    -0.206 F 
ATOM     69  C   UNL A   1      42.230  25.187  25.413  1.00  0.00     0.022 A 
BRANCH  66  70
ATOM     70  S   UNL A   1      41.263  22.897  26.680  1.00  0.00     0.124 S 
ATOM     71  O   UNL A   1      41.736  22.658  28.042  1.00  0.00    -0.237 OA
ATOM     72  O   UNL A   1      39.826  22.768  26.472  1.00  0.00    -0.237 OA
ATOM     73  O   UNL A   1      42.102  22.325  25.629  1.00  0.00    -0.744 OA
ENDBRANCH  66  70
ENDBRANCH  49  63
BRANCH  50  74
ATOM     74  C   UNL A   1      39.171  32.375  35.605  1.00  0.00     0.023 A 
ATOM     75  C   UNL A   1      38.442  31.724  36.611  1.00  0.00     0.031 A 
ATOM     76  C   UNL A   1      39.492  33.732  35.789  1.00  0.00     0.131 A 
ATOM     77  C   UNL A   1      38.035  32.438  37.749  1.00  0.00     0.055 A 
ATOM     78  C   UNL A   1      39.116  34.427  36.939  1.00  0.00     0.041 A 
ATOM     79  F   UNL A   1      40.202  34.392  34.860  1.00  0.00    -0.206 F 
ATOM     80  C   UNL A   1      38.378  33.781  37.925  1.00  0.00     0.022 A 
BRANCH  77  81
ATOM     81  S   UNL A   1      37.025  31.589  38.994  1.00  0.00     0.124 S 
ATOM     82  O   UNL A   1      35.802  32.383  38.976  1.00  0.00    -0.237 OA
ATOM     83  O   UNL A   1      36.925  30.243  38.438  1.00  0.00    -0.237 OA
ATOM     84  O   UNL A   1      37.824  31.697  40.212  1.00  0.00    -0.744 OA
ENDBRANCH  77  81
ENDBRANCH  50  74
BRANCH  62  85
ATOM     85  C   UNL A   1      44.360  27.918  34.216  1.00  0.00     0.023 A 
ATOM     86  C   UNL A   1      44.306  26.762  35.013  1.00  0.00     0.031 A 
ATOM     87  C   UNL A   1      45.566  28.641  34.172  1.00  0.00     0.131 A 
ATOM     88  C   UNL A   1      45.429  26.382  35.765  1.00  0.00     0.055 A 
ATOM     89  C   UNL A   1      46.693  28.232  34.886  1.00  0.00     0.041 A 
ATOM     90  F   UNL A   1      45.668  29.753  33.427  1.00  0.00    -0.206 F 
ATOM     91  C   UNL A   1      46.626  27.101  35.694  1.00  0.00     0.022 A 
BRANCH  88  92
ATOM     92  S   UNL A   1      45.293  24.961  36.885  1.00  0.00     0.124 S 
ATOM     93  O   UNL A   1      46.347  25.240  37.856  1.00  0.00    -0.237 OA
ATOM     94  O   UNL A   1      43.925  25.078  37.377  1.00  0.00    -0.237 OA
ATOM     95  O   UNL A   1      45.541  23.813  36.014  1.00  0.00    -0.744 OA
ENDBRANCH  88  92
ENDBRANCH  62  85
ENDBRANCH  36  37
ENDBRANCH  28  31
ENDBRANCH  26  27
ENDBRANCH  25  26
ENDBRANCH   1  25
TORSDOF 17
ENDMDL
