MODEL 1
REMARK VINA RESULT:     -11.2      0.000      0.000
REMARK SMILES C[C@H](CC(=O)NCCCCNC(=O)c1ccc(-c2c3nc(c(-c4cc(S(=O)(=O)[O-])ccc4F)c4ccc([nH]4)c(-c4cc(S(=O)(=O)[O-])ccc4F)c4nc(c(-c5cc(S(=O)(=O)[O-])ccc5F)c5ccc2[nH]5)C=C4)C=C3)cc1)NC(=O)Cc1cn2ccsc2n1
REMARK SMILES IDX 8 1 7 2 6 3 4 4 5 5 3 7 2 8 1 9 77 10 78 11 79 13 80 14
REMARK SMILES IDX 81 15 82 16 88 17 83 18 87 19 84 20 86 21 85 22 9 23 10 24
REMARK SMILES IDX 11 25 12 26 13 28 14 29 15 30 76 31 16 32 75 33 17 34 18 35
REMARK SMILES IDX 19 36 69 37 20 38 74 39 68 40 70 41 21 42 73 43 67 44 66 45
REMARK SMILES IDX 22 47 54 48 34 49 53 50 35 51 38 52 52 53 71 54 36 55 37 56
REMARK SMILES IDX 51 58 72 59 39 60 23 61 24 62 32 63 25 64 31 65 33 66 30 67
REMARK SMILES IDX 26 68 27 69 28 70 29 71 55 72 56 73 64 74 57 75 63 76 65 77
REMARK SMILES IDX 62 78 58 79 59 80 60 81 61 82 40 83 41 84 49 85 42 86 48 87
REMARK SMILES IDX 50 88 47 89 43 90 44 91 45 92 46 93
REMARK H PARENT 6 6 77 12 11 27 70 46 38 57
REMARK Flexibility Score: inf
ROOT
ATOM      1  C   UNL A   1      37.314  20.351  25.169  1.00  0.00     0.023 C 
ENDROOT
BRANCH   1   2
ATOM      2  C   UNL A   1      37.786  21.861  24.972  1.00  0.00     0.116 C 
BRANCH   2   3
ATOM      3  N   UNL A   1      37.073  22.442  23.835  1.00  0.00    -0.356 N 
ATOM      4  C   UNL A   1      35.986  23.306  23.866  1.00  0.00     0.222 C 
ATOM      5  O   UNL A   1      35.492  23.773  22.841  1.00  0.00    -0.275 OA
ATOM      6  H   UNL A   1      37.402  22.191  22.942  1.00  0.00     0.163 HD
BRANCH   4   7
ATOM      7  C   UNL A   1      35.393  23.657  25.213  1.00  0.00     0.124 C 
BRANCH   7   8
ATOM      8  C   UNL A   1      33.874  23.375  25.300  1.00  0.00     0.088 C 
ATOM      9  C   UNL A   1      33.171  24.596  25.777  1.00  0.00     0.031 C 
BRANCH   8  10
ATOM     10  N   UNL A   1      33.219  22.972  24.106  1.00  0.00    -0.353 N 
ATOM     11  C   UNL A   1      32.547  21.796  23.767  1.00  0.00     0.226 C 
ATOM     12  H   UNL A   1      33.244  23.644  23.387  1.00  0.00     0.163 HD
ATOM     13  O   UNL A   1      32.232  21.389  22.648  1.00  0.00    -0.275 OA
BRANCH  11  14
ATOM     14  C   UNL A   1      32.115  20.997  24.920  1.00  0.00     0.157 C 
BRANCH  14  15
ATOM     15  C   UNL A   1      32.720  19.660  24.937  1.00  0.00     0.070 A 
ATOM     16  C   UNL A   1      33.996  19.348  24.581  1.00  0.00     0.118 A 
ATOM     17  N   UNL A   1      32.072  18.522  25.297  1.00  0.00    -0.223 NA
ATOM     18  N   UNL A   1      34.118  18.025  24.784  1.00  0.00    -0.297 N 
ATOM     19  C   UNL A   1      32.933  17.588  25.208  1.00  0.00     0.193 A 
ATOM     20  C   UNL A   1      35.118  17.141  24.650  1.00  0.00     0.104 A 
ATOM     21  S   UNL A   1      32.895  15.947  25.514  1.00  0.00    -0.105 S 
ATOM     22  C   UNL A   1      34.733  15.878  24.989  1.00  0.00     0.087 A 
ENDBRANCH  14  15
ENDBRANCH  11  14
ENDBRANCH   8  10
ENDBRANCH   7   8
ENDBRANCH   4   7
ENDBRANCH   2   3
ENDBRANCH   1   2
BRANCH   1  23
ATOM     23  C   UNL A   1      38.449  19.447  24.998  1.00  0.00     0.023 C 
BRANCH  23  24
ATOM     24  C   UNL A   1      39.497  19.913  25.942  1.00  0.00     0.116 C 
BRANCH  24  25
ATOM     25  N   UNL A   1      40.562  18.945  26.144  1.00  0.00    -0.352 N 
ATOM     26  C   UNL A   1      41.896  19.273  26.347  1.00  0.00     0.251 C 
ATOM     27  H   UNL A   1      40.320  17.991  26.137  1.00  0.00     0.163 HD
ATOM     28  O   UNL A   1      42.766  18.418  26.490  1.00  0.00    -0.269 OA
BRANCH  26  29
ATOM     29  C   UNL A   1      42.270  20.714  26.465  1.00  0.00     0.039 A 
ATOM     30  C   UNL A   1      42.563  21.515  25.371  1.00  0.00     0.014 A 
ATOM     31  C   UNL A   1      42.481  21.243  27.734  1.00  0.00     0.014 A 
ATOM     32  C   UNL A   1      43.210  22.738  25.582  1.00  0.00     0.010 A 
ATOM     33  C   UNL A   1      42.941  22.529  27.930  1.00  0.00     0.010 A 
ATOM     34  C   UNL A   1      43.286  23.312  26.846  1.00  0.00    -0.014 A 
BRANCH  34  35
ATOM     35  C   UNL A   1      43.747  24.704  27.020  1.00  0.00     0.031 A 
ATOM     36  C   UNL A   1      42.776  25.713  27.506  1.00  0.00     0.074 A 
ATOM     37  C   UNL A   1      45.027  25.065  26.773  1.00  0.00     0.049 A 
ATOM     38  N   UNL A   1      43.024  26.957  27.789  1.00  0.00    -0.248 NA
ATOM     39  C   UNL A   1      41.377  25.308  27.723  1.00  0.00     0.031 C 
ATOM     40  C   UNL A   1      46.054  24.148  26.284  1.00  0.00     0.029 A 
ATOM     41  N   UNL A   1      45.691  26.266  26.897  1.00  0.00    -0.354 N 
ATOM     42  C   UNL A   1      41.829  27.477  28.240  1.00  0.00     0.074 A 
ATOM     43  C   UNL A   1      40.831  26.432  28.163  1.00  0.00     0.031 C 
ATOM     44  C   UNL A   1      47.214  24.804  26.162  1.00  0.00     0.029 A 
ATOM     45  C   UNL A   1      47.021  26.199  26.543  1.00  0.00     0.049 A 
ATOM     46  H   UNL A   1      45.257  27.094  27.208  1.00  0.00     0.167 HD
ATOM     47  C   UNL A   1      41.624  28.731  28.687  1.00  0.00     0.034 A 
ATOM     48  C   UNL A   1      48.003  27.121  26.521  1.00  0.00     0.034 A 
ATOM     49  C   UNL A   1      42.612  29.753  28.707  1.00  0.00     0.049 A 
ATOM     50  C   UNL A   1      47.715  28.528  26.924  1.00  0.00     0.074 A 
ATOM     51  C   UNL A   1      42.422  31.046  29.150  1.00  0.00     0.029 A 
ATOM     52  N   UNL A   1      43.924  29.634  28.292  1.00  0.00    -0.354 N 
ATOM     53  N   UNL A   1      46.576  28.978  27.371  1.00  0.00    -0.248 NA
ATOM     54  C   UNL A   1      48.779  29.542  26.837  1.00  0.00     0.031 C 
ATOM     55  C   UNL A   1      43.598  31.730  28.981  1.00  0.00     0.029 A 
ATOM     56  C   UNL A   1      44.533  30.860  28.458  1.00  0.00     0.049 A 
ATOM     57  H   UNL A   1      44.348  28.819  27.940  1.00  0.00     0.167 HD
ATOM     58  C   UNL A   1      46.788  30.313  27.645  1.00  0.00     0.074 A 
ATOM     59  C   UNL A   1      48.165  30.620  27.310  1.00  0.00     0.031 C 
ATOM     60  C   UNL A   1      45.881  31.186  28.132  1.00  0.00     0.034 A 
BRANCH  47  61
ATOM     61  C   UNL A   1      40.262  29.092  29.168  1.00  0.00     0.023 A 
ATOM     62  C   UNL A   1      39.948  29.149  30.532  1.00  0.00     0.031 A 
ATOM     63  C   UNL A   1      39.259  29.373  28.238  1.00  0.00     0.131 A 
ATOM     64  C   UNL A   1      38.606  29.248  30.926  1.00  0.00     0.055 A 
ATOM     65  C   UNL A   1      37.958  29.615  28.643  1.00  0.00     0.041 A 
ATOM     66  F   UNL A   1      39.546  29.473  26.930  1.00  0.00    -0.206 F 
ATOM     67  C   UNL A   1      37.634  29.585  29.991  1.00  0.00     0.022 A 
BRANCH  64  68
ATOM     68  S   UNL A   1      38.068  28.797  32.635  1.00  0.00     0.124 S 
ATOM     69  O   UNL A   1      38.158  27.338  32.625  1.00  0.00    -0.237 OA
ATOM     70  O   UNL A   1      39.060  29.477  33.458  1.00  0.00    -0.237 OA
ATOM     71  O   UNL A   1      36.703  29.315  32.748  1.00  0.00    -0.744 OA
ENDBRANCH  64  68
ENDBRANCH  47  61
BRANCH  48  72
ATOM     72  C   UNL A   1      49.363  26.760  26.076  1.00  0.00     0.023 A 
ATOM     73  C   UNL A   1      50.391  26.471  26.986  1.00  0.00     0.031 A 
ATOM     74  C   UNL A   1      49.662  26.797  24.717  1.00  0.00     0.131 A 
ATOM     75  C   UNL A   1      51.719  26.402  26.532  1.00  0.00     0.055 A 
ATOM     76  C   UNL A   1      50.950  26.581  24.263  1.00  0.00     0.041 A 
ATOM     77  F   UNL A   1      48.682  26.959  23.815  1.00  0.00    -0.206 F 
ATOM     78  C   UNL A   1      51.977  26.347  25.168  1.00  0.00     0.022 A 
BRANCH  75  79
ATOM     79  S   UNL A   1      53.155  26.517  27.696  1.00  0.00     0.124 S 
ATOM     80  O   UNL A   1      52.539  26.236  28.987  1.00  0.00    -0.237 OA
ATOM     81  O   UNL A   1      54.038  25.476  27.183  1.00  0.00    -0.237 OA
ATOM     82  O   UNL A   1      53.653  27.884  27.538  1.00  0.00    -0.744 OA
ENDBRANCH  75  79
ENDBRANCH  48  72
BRANCH  60  83
ATOM     83  C   UNL A   1      46.332  32.580  28.406  1.00  0.00     0.023 A 
ATOM     84  C   UNL A   1      46.326  33.575  27.420  1.00  0.00     0.031 A 
ATOM     85  C   UNL A   1      46.859  32.886  29.662  1.00  0.00     0.131 A 
ATOM     86  C   UNL A   1      47.084  34.737  27.617  1.00  0.00     0.055 A 
ATOM     87  C   UNL A   1      47.469  34.103  29.901  1.00  0.00     0.041 A 
ATOM     88  F   UNL A   1      46.745  32.027  30.687  1.00  0.00    -0.206 F 
ATOM     89  C   UNL A   1      47.562  35.043  28.885  1.00  0.00     0.022 A 
BRANCH  86  90
ATOM     90  S   UNL A   1      47.596  35.808  26.199  1.00  0.00     0.124 S 
ATOM     91  O   UNL A   1      48.820  36.435  26.689  1.00  0.00    -0.237 OA
ATOM     92  O   UNL A   1      47.782  34.829  25.135  1.00  0.00    -0.237 OA
ATOM     93  O   UNL A   1      46.475  36.730  26.004  1.00  0.00    -0.744 OA
ENDBRANCH  86  90
ENDBRANCH  60  83
ENDBRANCH  34  35
ENDBRANCH  26  29
ENDBRANCH  24  25
ENDBRANCH  23  24
ENDBRANCH   1  23
TORSDOF 18
ENDMDL
MODEL 2
REMARK VINA RESULT:     -11.1      6.439      9.885
REMARK SMILES C[C@H](CC(=O)NCCCCNC(=O)c1ccc(-c2c3nc(c(-c4cc(S(=O)(=O)[O-])ccc4F)c4ccc([nH]4)c(-c4cc(S(=O)(=O)[O-])ccc4F)c4nc(c(-c5cc(S(=O)(=O)[O-])ccc5F)c5ccc2[nH]5)C=C4)C=C3)cc1)NC(=O)Cc1cn2ccsc2n1
REMARK SMILES IDX 8 1 7 2 6 3 4 4 5 5 3 7 2 8 1 9 77 10 78 11 79 13 80 14
REMARK SMILES IDX 81 15 82 16 88 17 83 18 87 19 84 20 86 21 85 22 9 23 10 24
REMARK SMILES IDX 11 25 12 26 13 28 14 29 15 30 76 31 16 32 75 33 17 34 18 35
REMARK SMILES IDX 19 36 69 37 20 38 74 39 68 40 70 41 21 42 73 43 67 44 66 45
REMARK SMILES IDX 22 47 54 48 34 49 53 50 35 51 38 52 52 53 71 54 36 55 37 56
REMARK SMILES IDX 51 58 72 59 39 60 23 61 24 62 32 63 25 64 31 65 33 66 30 67
REMARK SMILES IDX 26 68 27 69 28 70 29 71 55 72 56 73 64 74 57 75 63 76 65 77
REMARK SMILES IDX 62 78 58 79 59 80 60 81 61 82 40 83 41 84 49 85 42 86 48 87
REMARK SMILES IDX 50 88 47 89 43 90 44 91 45 92 46 93
REMARK H PARENT 6 6 77 12 11 27 70 46 38 57
REMARK Flexibility Score: inf
ROOT
ATOM      1  C   UNL A   1      32.136  30.127  27.124  1.00  0.00     0.023 C 
ENDROOT
BRANCH   1   2
ATOM      2  C   UNL A   1      33.661  30.022  26.672  1.00  0.00     0.116 C 
BRANCH   2   3
ATOM      3  N   UNL A   1      33.946  28.648  26.263  1.00  0.00    -0.356 N 
ATOM      4  C   UNL A   1      33.701  28.062  25.027  1.00  0.00     0.222 C 
ATOM      5  O   UNL A   1      34.026  26.902  24.776  1.00  0.00    -0.275 OA
ATOM      6  H   UNL A   1      34.360  28.069  26.942  1.00  0.00     0.163 HD
BRANCH   4   7
ATOM      7  C   UNL A   1      32.992  28.887  23.976  1.00  0.00     0.124 C 
BRANCH   7   8
ATOM      8  C   UNL A   1      32.010  28.058  23.114  1.00  0.00     0.088 C 
ATOM      9  C   UNL A   1      30.943  28.949  22.585  1.00  0.00     0.031 C 
BRANCH   8  10
ATOM     10  N   UNL A   1      32.550  27.367  21.997  1.00  0.00    -0.353 N 
ATOM     11  C   UNL A   1      32.573  26.011  21.666  1.00  0.00     0.226 C 
ATOM     12  H   UNL A   1      32.988  27.951  21.336  1.00  0.00     0.163 HD
ATOM     13  O   UNL A   1      33.277  25.437  20.833  1.00  0.00    -0.275 OA
BRANCH  11  14
ATOM     14  C   UNL A   1      31.572  25.203  22.372  1.00  0.00     0.157 C 
BRANCH  14  15
ATOM     15  C   UNL A   1      32.171  24.297  23.357  1.00  0.00     0.070 A 
ATOM     16  C   UNL A   1      31.845  24.209  24.676  1.00  0.00     0.118 A 
ATOM     17  N   UNL A   1      33.171  23.416  23.092  1.00  0.00    -0.223 NA
ATOM     18  N   UNL A   1      32.619  23.233  25.179  1.00  0.00    -0.297 N 
ATOM     19  C   UNL A   1      33.393  22.801  24.184  1.00  0.00     0.193 A 
ATOM     20  C   UNL A   1      32.749  22.663  26.387  1.00  0.00     0.104 A 
ATOM     21  S   UNL A   1      34.434  21.573  24.629  1.00  0.00    -0.105 S 
ATOM     22  C   UNL A   1      33.700  21.687  26.392  1.00  0.00     0.087 A 
ENDBRANCH  14  15
ENDBRANCH  11  14
ENDBRANCH   8  10
ENDBRANCH   7   8
ENDBRANCH   4   7
ENDBRANCH   2   3
ENDBRANCH   1   2
BRANCH   1  23
ATOM     23  C   UNL A   1      31.604  31.445  26.785  1.00  0.00     0.023 C 
BRANCH  23  24
ATOM     24  C   UNL A   1      32.740  32.395  26.906  1.00  0.00     0.116 C 
BRANCH  24  25
ATOM     25  N   UNL A   1      32.339  33.718  27.355  1.00  0.00    -0.352 N 
ATOM     26  C   UNL A   1      32.954  34.421  28.382  1.00  0.00     0.251 C 
ATOM     27  H   UNL A   1      31.578  34.144  26.899  1.00  0.00     0.163 HD
ATOM     28  O   UNL A   1      32.565  35.527  28.743  1.00  0.00    -0.269 OA
BRANCH  26  29
ATOM     29  C   UNL A   1      34.174  33.838  29.018  1.00  0.00     0.039 A 
ATOM     30  C   UNL A   1      35.460  34.274  28.737  1.00  0.00     0.014 A 
ATOM     31  C   UNL A   1      34.030  32.709  29.817  1.00  0.00     0.014 A 
ATOM     32  C   UNL A   1      36.544  33.475  29.118  1.00  0.00     0.010 A 
ATOM     33  C   UNL A   1      35.112  32.037  30.348  1.00  0.00     0.010 A 
ATOM     34  C   UNL A   1      36.396  32.434  30.028  1.00  0.00    -0.014 A 
BRANCH  34  35
ATOM     35  C   UNL A   1      37.575  31.760  30.607  1.00  0.00     0.031 A 
ATOM     36  C   UNL A   1      37.985  32.119  31.986  1.00  0.00     0.074 A 
ATOM     37  C   UNL A   1      38.261  30.816  29.925  1.00  0.00     0.049 A 
ATOM     38  N   UNL A   1      38.942  31.576  32.678  1.00  0.00    -0.248 NA
ATOM     39  C   UNL A   1      37.252  33.184  32.692  1.00  0.00     0.031 C 
ATOM     40  C   UNL A   1      37.941  30.400  28.561  1.00  0.00     0.029 A 
ATOM     41  N   UNL A   1      39.346  30.035  30.261  1.00  0.00    -0.354 N 
ATOM     42  C   UNL A   1      38.913  32.208  33.904  1.00  0.00     0.074 A 
ATOM     43  C   UNL A   1      37.868  33.209  33.865  1.00  0.00     0.031 C 
ATOM     44  C   UNL A   1      38.790  29.438  28.179  1.00  0.00     0.029 A 
ATOM     45  C   UNL A   1      39.735  29.173  29.258  1.00  0.00     0.049 A 
ATOM     46  H   UNL A   1      39.800  30.087  31.133  1.00  0.00     0.167 HD
ATOM     47  C   UNL A   1      39.704  31.936  34.959  1.00  0.00     0.034 A 
ATOM     48  C   UNL A   1      40.722  28.259  29.178  1.00  0.00     0.034 A 
ATOM     49  C   UNL A   1      40.756  30.978  34.955  1.00  0.00     0.049 A 
ATOM     50  C   UNL A   1      41.647  28.057  30.330  1.00  0.00     0.074 A 
ATOM     51  C   UNL A   1      41.585  30.691  36.019  1.00  0.00     0.029 A 
ATOM     52  N   UNL A   1      41.128  30.174  33.896  1.00  0.00    -0.354 N 
ATOM     53  N   UNL A   1      41.572  28.655  31.486  1.00  0.00    -0.248 NA
ATOM     54  C   UNL A   1      42.760  27.100  30.210  1.00  0.00     0.031 C 
ATOM     55  C   UNL A   1      42.483  29.738  35.613  1.00  0.00     0.029 A 
ATOM     56  C   UNL A   1      42.201  29.410  34.302  1.00  0.00     0.049 A 
ATOM     57  H   UNL A   1      40.703  30.151  33.009  1.00  0.00     0.167 HD
ATOM     58  C   UNL A   1      42.603  28.134  32.240  1.00  0.00     0.074 A 
ATOM     59  C   UNL A   1      43.308  27.170  31.417  1.00  0.00     0.031 C 
ATOM     60  C   UNL A   1      42.912  28.461  33.513  1.00  0.00     0.034 A 
BRANCH  47  61
ATOM     61  C   UNL A   1      39.493  32.707  36.215  1.00  0.00     0.023 A 
ATOM     62  C   UNL A   1      38.798  32.171  37.307  1.00  0.00     0.031 A 
ATOM     63  C   UNL A   1      39.987  34.010  36.310  1.00  0.00     0.131 A 
ATOM     64  C   UNL A   1      38.413  33.014  38.359  1.00  0.00     0.055 A 
ATOM     65  C   UNL A   1      39.726  34.793  37.420  1.00  0.00     0.041 A 
ATOM     66  F   UNL A   1      40.781  34.513  35.351  1.00  0.00    -0.206 F 
ATOM     67  C   UNL A   1      38.964  34.286  38.463  1.00  0.00     0.022 A 
BRANCH  64  68
ATOM     68  S   UNL A   1      37.074  32.534  39.537  1.00  0.00     0.124 S 
ATOM     69  O   UNL A   1      37.403  31.144  39.848  1.00  0.00    -0.237 OA
ATOM     70  O   UNL A   1      37.271  33.480  40.628  1.00  0.00    -0.237 OA
ATOM     71  O   UNL A   1      35.831  32.703  38.782  1.00  0.00    -0.744 OA
ENDBRANCH  64  68
ENDBRANCH  47  61
BRANCH  48  72
ATOM     72  C   UNL A   1      40.915  27.468  27.947  1.00  0.00     0.023 A 
ATOM     73  C   UNL A   1      40.520  26.125  27.856  1.00  0.00     0.031 A 
ATOM     74  C   UNL A   1      41.592  28.041  26.875  1.00  0.00     0.131 A 
ATOM     75  C   UNL A   1      40.966  25.344  26.777  1.00  0.00     0.055 A 
ATOM     76  C   UNL A   1      41.900  27.302  25.747  1.00  0.00     0.041 A 
ATOM     77  F   UNL A   1      41.884  29.350  26.884  1.00  0.00    -0.206 F 
ATOM     78  C   UNL A   1      41.555  25.959  25.679  1.00  0.00     0.022 A 
BRANCH  75  79
ATOM     79  S   UNL A   1      40.913  23.493  26.826  1.00  0.00     0.124 S 
ATOM     80  O   UNL A   1      41.314  23.200  28.196  1.00  0.00    -0.237 OA
ATOM     81  O   UNL A   1      39.515  23.226  26.511  1.00  0.00    -0.237 OA
ATOM     82  O   UNL A   1      41.870  23.067  25.803  1.00  0.00    -0.744 OA
ENDBRANCH  75  79
ENDBRANCH  48  72
BRANCH  60  83
ATOM     83  C   UNL A   1      44.040  27.738  34.164  1.00  0.00     0.023 A 
ATOM     84  C   UNL A   1      43.848  26.567  34.909  1.00  0.00     0.031 A 
ATOM     85  C   UNL A   1      45.322  28.289  34.103  1.00  0.00     0.131 A 
ATOM     86  C   UNL A   1      44.856  26.142  35.785  1.00  0.00     0.055 A 
ATOM     87  C   UNL A   1      46.359  27.766  34.853  1.00  0.00     0.041 A 
ATOM     88  F   UNL A   1      45.595  29.313  33.279  1.00  0.00    -0.206 F 
ATOM     89  C   UNL A   1      46.134  26.674  35.678  1.00  0.00     0.022 A 
BRANCH  86  90
ATOM     90  S   UNL A   1      44.493  24.992  37.188  1.00  0.00     0.124 S 
ATOM     91  O   UNL A   1      43.055  25.153  37.378  1.00  0.00    -0.237 OA
ATOM     92  O   UNL A   1      44.908  23.707  36.636  1.00  0.00    -0.237 OA
ATOM     93  O   UNL A   1      45.314  25.484  38.296  1.00  0.00    -0.744 OA
ENDBRANCH  86  90
ENDBRANCH  60  83
ENDBRANCH  34  35
ENDBRANCH  26  29
ENDBRANCH  24  25
ENDBRANCH  23  24
ENDBRANCH   1  23
TORSDOF 18
ENDMDL
MODEL 3
REMARK VINA RESULT:     -11.0      2.616      7.995
REMARK SMILES C[C@H](CC(=O)NCCCCNC(=O)c1ccc(-c2c3nc(c(-c4cc(S(=O)(=O)[O-])ccc4F)c4ccc([nH]4)c(-c4cc(S(=O)(=O)[O-])ccc4F)c4nc(c(-c5cc(S(=O)(=O)[O-])ccc5F)c5ccc2[nH]5)C=C4)C=C3)cc1)NC(=O)Cc1cn2ccsc2n1
REMARK SMILES IDX 8 1 7 2 6 3 4 4 5 5 3 7 2 8 1 9 77 10 78 11 79 13 80 14
REMARK SMILES IDX 81 15 82 16 88 17 83 18 87 19 84 20 86 21 85 22 9 23 10 24
REMARK SMILES IDX 11 25 12 26 13 28 14 29 15 30 76 31 16 32 75 33 17 34 18 35
REMARK SMILES IDX 19 36 69 37 20 38 74 39 68 40 70 41 21 42 73 43 67 44 66 45
REMARK SMILES IDX 22 47 54 48 34 49 53 50 35 51 38 52 52 53 71 54 36 55 37 56
REMARK SMILES IDX 51 58 72 59 39 60 23 61 24 62 32 63 25 64 31 65 33 66 30 67
REMARK SMILES IDX 26 68 27 69 28 70 29 71 55 72 56 73 64 74 57 75 63 76 65 77
REMARK SMILES IDX 62 78 58 79 59 80 60 81 61 82 40 83 41 84 49 85 42 86 48 87
REMARK SMILES IDX 50 88 47 89 43 90 44 91 45 92 46 93
REMARK H PARENT 6 6 77 12 11 27 70 46 38 57
REMARK Flexibility Score: inf
ROOT
ATOM      1  C   UNL A   1      36.973  20.822  25.327  1.00  0.00     0.023 C 
ENDROOT
BRANCH   1   2
ATOM      2  C   UNL A   1      37.368  22.286  24.835  1.00  0.00     0.116 C 
BRANCH   2   3
ATOM      3  N   UNL A   1      36.599  22.612  23.635  1.00  0.00    -0.356 N 
ATOM      4  C   UNL A   1      35.435  23.364  23.551  1.00  0.00     0.222 C 
ATOM      5  O   UNL A   1      34.894  23.616  22.475  1.00  0.00    -0.275 OA
ATOM      6  H   UNL A   1      36.948  22.257  22.786  1.00  0.00     0.163 HD
BRANCH   4   7
ATOM      7  C   UNL A   1      34.815  23.864  24.837  1.00  0.00     0.124 C 
BRANCH   7   8
ATOM      8  C   UNL A   1      33.275  23.714  24.868  1.00  0.00     0.088 C 
ATOM      9  C   UNL A   1      32.647  25.062  24.869  1.00  0.00     0.031 C 
BRANCH   8  10
ATOM     10  N   UNL A   1      32.672  22.987  23.807  1.00  0.00    -0.353 N 
ATOM     11  C   UNL A   1      32.294  21.648  23.696  1.00  0.00     0.226 C 
ATOM     12  H   UNL A   1      32.487  23.527  23.004  1.00  0.00     0.163 HD
ATOM     13  O   UNL A   1      32.025  21.011  22.677  1.00  0.00    -0.275 OA
BRANCH  11  14
ATOM     14  C   UNL A   1      32.142  20.958  24.982  1.00  0.00     0.157 C 
BRANCH  14  15
ATOM     15  C   UNL A   1      32.730  19.614  24.973  1.00  0.00     0.070 A 
ATOM     16  C   UNL A   1      33.999  19.292  24.602  1.00  0.00     0.118 A 
ATOM     17  N   UNL A   1      32.071  18.478  25.320  1.00  0.00    -0.223 NA
ATOM     18  N   UNL A   1      34.107  17.965  24.782  1.00  0.00    -0.297 N 
ATOM     19  C   UNL A   1      32.919  17.535  25.208  1.00  0.00     0.193 A 
ATOM     20  C   UNL A   1      35.095  17.070  24.627  1.00  0.00     0.104 A 
ATOM     21  S   UNL A   1      32.863  15.890  25.489  1.00  0.00    -0.105 S 
ATOM     22  C   UNL A   1      34.696  15.807  24.949  1.00  0.00     0.087 A 
ENDBRANCH  14  15
ENDBRANCH  11  14
ENDBRANCH   8  10
ENDBRANCH   7   8
ENDBRANCH   4   7
ENDBRANCH   2   3
ENDBRANCH   1   2
BRANCH   1  23
ATOM     23  C   UNL A   1      38.027  19.875  24.972  1.00  0.00     0.023 C 
BRANCH  23  24
ATOM     24  C   UNL A   1      39.201  20.225  25.814  1.00  0.00     0.116 C 
BRANCH  24  25
ATOM     25  N   UNL A   1      40.223  19.192  25.835  1.00  0.00    -0.352 N 
ATOM     26  C   UNL A   1      41.566  19.419  26.102  1.00  0.00     0.251 C 
ATOM     27  H   UNL A   1      39.943  18.267  25.647  1.00  0.00     0.163 HD
ATOM     28  O   UNL A   1      42.399  18.517  26.084  1.00  0.00    -0.269 OA
BRANCH  26  29
ATOM     29  C   UNL A   1      41.997  20.795  26.490  1.00  0.00     0.039 A 
ATOM     30  C   UNL A   1      42.197  21.186  27.806  1.00  0.00     0.014 A 
ATOM     31  C   UNL A   1      42.057  21.775  25.505  1.00  0.00     0.014 A 
ATOM     32  C   UNL A   1      42.279  22.552  28.101  1.00  0.00     0.010 A 
ATOM     33  C   UNL A   1      42.331  23.096  25.792  1.00  0.00     0.010 A 
ATOM     34  C   UNL A   1      42.477  23.502  27.104  1.00  0.00    -0.014 A 
BRANCH  34  35
ATOM     35  C   UNL A   1      42.806  24.900  27.444  1.00  0.00     0.031 A 
ATOM     36  C   UNL A   1      44.166  25.401  27.131  1.00  0.00     0.074 A 
ATOM     37  C   UNL A   1      41.895  25.729  28.003  1.00  0.00     0.049 A 
ATOM     38  N   UNL A   1      44.602  26.615  27.287  1.00  0.00    -0.248 NA
ATOM     39  C   UNL A   1      45.156  24.467  26.566  1.00  0.00     0.031 C 
ATOM     40  C   UNL A   1      40.536  25.328  28.357  1.00  0.00     0.029 A 
ATOM     41  N   UNL A   1      41.952  27.057  28.366  1.00  0.00    -0.354 N 
ATOM     42  C   UNL A   1      45.899  26.603  26.820  1.00  0.00     0.074 A 
ATOM     43  C   UNL A   1      46.210  25.252  26.403  1.00  0.00     0.031 C 
ATOM     44  C   UNL A   1      39.882  26.378  28.869  1.00  0.00     0.029 A 
ATOM     45  C   UNL A   1      40.775  27.531  28.904  1.00  0.00     0.049 A 
ATOM     46  H   UNL A   1      42.756  27.614  28.254  1.00  0.00     0.167 HD
ATOM     47  C   UNL A   1      46.730  27.660  26.748  1.00  0.00     0.034 A 
ATOM     48  C   UNL A   1      40.412  28.741  29.373  1.00  0.00     0.034 A 
ATOM     49  C   UNL A   1      46.415  28.968  27.209  1.00  0.00     0.049 A 
ATOM     50  C   UNL A   1      41.392  29.865  29.375  1.00  0.00     0.074 A 
ATOM     51  C   UNL A   1      47.253  30.063  27.156  1.00  0.00     0.029 A 
ATOM     52  N   UNL A   1      45.226  29.370  27.784  1.00  0.00    -0.354 N 
ATOM     53  N   UNL A   1      42.606  29.823  28.899  1.00  0.00    -0.248 NA
ATOM     54  C   UNL A   1      41.006  31.166  29.946  1.00  0.00     0.031 C 
ATOM     55  C   UNL A   1      46.599  31.126  27.722  1.00  0.00     0.029 A 
ATOM     56  C   UNL A   1      45.342  30.705  28.107  1.00  0.00     0.049 A 
ATOM     57  H   UNL A   1      44.437  28.803  27.938  1.00  0.00     0.167 HD
ATOM     58  C   UNL A   1      43.120  31.089  29.086  1.00  0.00     0.074 A 
ATOM     59  C   UNL A   1      42.097  31.891  29.727  1.00  0.00     0.031 C 
ATOM     60  C   UNL A   1      44.355  31.513  28.741  1.00  0.00     0.034 A 
BRANCH  47  61
ATOM     61  C   UNL A   1      48.088  27.450  26.176  1.00  0.00     0.023 A 
ATOM     62  C   UNL A   1      48.392  27.775  24.847  1.00  0.00     0.031 A 
ATOM     63  C   UNL A   1      49.092  26.903  26.977  1.00  0.00     0.131 A 
ATOM     64  C   UNL A   1      49.600  27.333  24.289  1.00  0.00     0.055 A 
ATOM     65  C   UNL A   1      50.338  26.601  26.454  1.00  0.00     0.041 A 
ATOM     66  F   UNL A   1      48.892  26.711  28.291  1.00  0.00    -0.206 F 
ATOM     67  C   UNL A   1      50.605  26.845  25.115  1.00  0.00     0.022 A 
BRANCH  64  68
ATOM     68  S   UNL A   1      49.840  27.243  22.459  1.00  0.00     0.124 S 
ATOM     69  O   UNL A   1      48.826  26.273  22.050  1.00  0.00    -0.237 OA
ATOM     70  O   UNL A   1      49.588  28.618  22.049  1.00  0.00    -0.237 OA
ATOM     71  O   UNL A   1      51.218  26.783  22.284  1.00  0.00    -0.744 OA
ENDBRANCH  64  68
ENDBRANCH  47  61
BRANCH  48  72
ATOM     72  C   UNL A   1      39.056  28.963  29.911  1.00  0.00     0.023 A 
ATOM     73  C   UNL A   1      38.050  29.588  29.159  1.00  0.00     0.031 A 
ATOM     74  C   UNL A   1      38.791  28.627  31.235  1.00  0.00     0.131 A 
ATOM     75  C   UNL A   1      36.875  30.020  29.797  1.00  0.00     0.055 A 
ATOM     76  C   UNL A   1      37.572  28.924  31.817  1.00  0.00     0.041 A 
ATOM     77  F   UNL A   1      39.689  27.929  31.947  1.00  0.00    -0.206 F 
ATOM     78  C   UNL A   1      36.596  29.589  31.088  1.00  0.00     0.022 A 
BRANCH  75  79
ATOM     79  S   UNL A   1      35.741  31.259  29.017  1.00  0.00     0.124 S 
ATOM     80  O   UNL A   1      35.068  31.843  30.170  1.00  0.00    -0.237 OA
ATOM     81  O   UNL A   1      36.683  32.135  28.331  1.00  0.00    -0.237 OA
ATOM     82  O   UNL A   1      34.876  30.469  28.138  1.00  0.00    -0.744 OA
ENDBRANCH  75  79
ENDBRANCH  48  72
BRANCH  60  83
ATOM     83  C   UNL A   1      44.695  32.943  28.986  1.00  0.00     0.023 A 
ATOM     84  C   UNL A   1      45.244  33.384  30.196  1.00  0.00     0.031 A 
ATOM     85  C   UNL A   1      44.377  33.891  28.011  1.00  0.00     0.131 A 
ATOM     86  C   UNL A   1      45.202  34.750  30.508  1.00  0.00     0.055 A 
ATOM     87  C   UNL A   1      44.489  35.244  28.269  1.00  0.00     0.041 A 
ATOM     88  F   UNL A   1      44.000  33.514  26.779  1.00  0.00    -0.206 F 
ATOM     89  C   UNL A   1      44.927  35.677  29.512  1.00  0.00     0.022 A 
BRANCH  86  90
ATOM     90  S   UNL A   1      45.361  35.348  32.251  1.00  0.00     0.124 S 
ATOM     91  O   UNL A   1      45.706  36.756  32.083  1.00  0.00    -0.237 OA
ATOM     92  O   UNL A   1      44.025  35.094  32.778  1.00  0.00    -0.237 OA
ATOM     93  O   UNL A   1      46.423  34.524  32.833  1.00  0.00    -0.744 OA
ENDBRANCH  86  90
ENDBRANCH  60  83
ENDBRANCH  34  35
ENDBRANCH  26  29
ENDBRANCH  24  25
ENDBRANCH  23  24
ENDBRANCH   1  23
TORSDOF 18
ENDMDL
