MODEL 1
REMARK VINA RESULT:     -12.4      0.000      0.000
REMARK SMILES CCN1C(=O)[C@H](CC(=O)Nc2ccc(C(=O)NCCCCNC(=O)c3ccc(-c4c5nc(c(-c6cc(S(=O)(=O)[O-])ccc6F)c6ccc([nH]6)c(-c6cc(S(=O)(=O)[O-])ccc6F)c6nc(c(-c7cc(S(=O)(=O)[O-])ccc7F)c7ccc4[nH]7)C=C6)C=C5)cc3)cc2)S/C1=[NH+]\c1ccc(Cl)cc1
REMARK SMILES IDX 19 1 18 2 17 3 15 4 16 5 14 7 11 8 12 9 89 10 13 11 88 12
REMARK SMILES IDX 10 13 8 14 9 15 7 17 6 18 3 19 4 20 91 21 5 22 90 23 92 24
REMARK SMILES IDX 2 26 1 27 93 28 94 29 99 30 95 31 98 32 96 33 97 34 20 35
REMARK SMILES IDX 21 36 22 37 23 38 24 40 25 41 26 42 87 43 27 44 86 45 28 46
REMARK SMILES IDX 29 47 30 48 80 49 31 50 85 51 79 52 81 53 32 54 84 55 78 56
REMARK SMILES IDX 77 57 33 59 65 60 45 61 64 62 46 63 49 64 63 65 82 66 47 67
REMARK SMILES IDX 48 68 62 70 83 71 50 72 34 73 35 74 43 75 36 76 42 77 44 78
REMARK SMILES IDX 41 79 37 80 38 81 39 82 40 83 66 84 67 85 75 86 68 87 74 88
REMARK SMILES IDX 76 89 73 90 69 91 70 92 71 93 72 94 51 95 52 96 60 97 53 98
REMARK SMILES IDX 59 99 61 100 58 101 54 102 55 103 56 104 57 105
REMARK H PARENT 17 6 10 16 92 25 22 39 81 58 49 69
REMARK Flexibility Score: inf
ROOT
ATOM      1  C   UNL A   1      31.462  30.947  26.696  1.00  0.00     0.023 C 
ENDROOT
BRANCH   1   2
ATOM      2  C   UNL A   1      31.005  30.626  25.266  1.00  0.00     0.116 C 
BRANCH   2   3
ATOM      3  N   UNL A   1      32.046  29.984  24.462  1.00  0.00    -0.352 N 
ATOM      4  C   UNL A   1      32.228  28.665  24.097  1.00  0.00     0.251 C 
ATOM      5  O   UNL A   1      32.984  28.396  23.166  1.00  0.00    -0.269 OA
ATOM      6  H   UNL A   1      32.736  30.600  24.124  1.00  0.00     0.163 HD
BRANCH   4   7
ATOM      7  C   UNL A   1      31.553  27.546  24.807  1.00  0.00     0.039 A 
ATOM      8  C   UNL A   1      30.283  25.407  26.137  1.00  0.00     0.041 A 
ATOM      9  C   UNL A   1      31.396  26.013  26.711  1.00  0.00     0.027 A 
ATOM     10  C   UNL A   1      29.724  25.991  25.005  1.00  0.00     0.027 A 
ATOM     11  C   UNL A   1      32.042  27.069  26.036  1.00  0.00     0.016 A 
ATOM     12  C   UNL A   1      30.343  27.051  24.346  1.00  0.00     0.016 A 
BRANCH   8  13
ATOM     13  N   UNL A   1      29.665  24.291  26.727  1.00  0.00    -0.326 N 
ATOM     14  C   UNL A   1      30.054  22.967  26.634  1.00  0.00     0.226 C 
ATOM     15  O   UNL A   1      29.240  22.065  26.836  1.00  0.00    -0.275 OA
ATOM     16  H   UNL A   1      28.863  24.473  27.270  1.00  0.00     0.169 HD
BRANCH  14  17
ATOM     17  C   UNL A   1      31.548  22.667  26.526  1.00  0.00     0.128 C 
BRANCH  17  18
ATOM     18  C   UNL A   1      31.986  21.990  25.227  1.00  0.00     0.183 C 
ATOM     19  N   UNL A   1      33.018  23.635  23.834  1.00  0.00    -0.190 N 
ATOM     20  C   UNL A   1      31.853  22.932  24.052  1.00  0.00     0.324 C 
ATOM     21  C   UNL A   1      34.154  23.169  24.447  1.00  0.00     0.319 C 
ATOM     22  O   UNL A   1      30.799  23.117  23.455  1.00  0.00    -0.245 OA
ATOM     23  S   UNL A   1      33.798  21.692  25.310  1.00  0.00    -0.022 SA
ATOM     24  N   UNL A   1      35.281  23.792  24.345  1.00  0.00    -0.235 N 
ATOM     25  H   UNL A   1      35.302  24.682  23.924  1.00  0.00     0.313 HD
BRANCH  19  26
ATOM     26  C   UNL A   1      33.012  24.836  23.017  1.00  0.00     0.243 C 
ATOM     27  C   UNL A   1      33.030  24.602  21.522  1.00  0.00     0.054 C 
ENDBRANCH  19  26
BRANCH  24  28
ATOM     28  C   UNL A   1      36.477  23.234  24.818  1.00  0.00     0.125 A 
ATOM     29  C   UNL A   1      36.866  21.942  24.451  1.00  0.00     0.053 A 
ATOM     30  C   UNL A   1      37.221  23.912  25.791  1.00  0.00     0.053 A 
ATOM     31  C   UNL A   1      37.998  21.351  25.026  1.00  0.00     0.025 A 
ATOM     32  C   UNL A   1      38.354  23.331  26.364  1.00  0.00     0.025 A 
ATOM     33  C   UNL A   1      38.739  22.050  25.979  1.00  0.00     0.041 A 
ATOM     34  Cl  UNL A   1      40.128  21.328  26.691  1.00  0.00    -0.084 Cl
ENDBRANCH  24  28
ENDBRANCH  17  18
ENDBRANCH  14  17
ENDBRANCH   8  13
ENDBRANCH   4   7
ENDBRANCH   2   3
ENDBRANCH   1   2
BRANCH   1  35
ATOM     35  C   UNL A   1      32.904  30.574  27.035  1.00  0.00     0.023 C 
BRANCH  35  36
ATOM     36  C   UNL A   1      33.830  31.771  27.267  1.00  0.00     0.116 C 
BRANCH  36  37
ATOM     37  N   UNL A   1      33.138  33.034  27.522  1.00  0.00    -0.352 N 
ATOM     38  C   UNL A   1      33.381  33.970  28.510  1.00  0.00     0.251 C 
ATOM     39  H   UNL A   1      32.400  33.246  26.906  1.00  0.00     0.163 HD
ATOM     40  O   UNL A   1      32.643  34.945  28.633  1.00  0.00    -0.269 OA
BRANCH  38  41
ATOM     41  C   UNL A   1      34.507  33.761  29.452  1.00  0.00     0.039 A 
ATOM     42  C   UNL A   1      34.312  32.995  30.605  1.00  0.00     0.014 A 
ATOM     43  C   UNL A   1      35.776  34.256  29.152  1.00  0.00     0.014 A 
ATOM     44  C   UNL A   1      35.413  32.620  31.383  1.00  0.00     0.010 A 
ATOM     45  C   UNL A   1      36.879  33.803  29.869  1.00  0.00     0.010 A 
ATOM     46  C   UNL A   1      36.715  32.962  30.983  1.00  0.00    -0.014 A 
BRANCH  46  47
ATOM     47  C   UNL A   1      37.927  32.449  31.683  1.00  0.00     0.031 A 
ATOM     48  C   UNL A   1      38.749  31.352  31.057  1.00  0.00     0.074 A 
ATOM     49  C   UNL A   1      38.226  32.881  32.927  1.00  0.00     0.049 A 
ATOM     50  N   UNL A   1      39.719  30.641  31.572  1.00  0.00    -0.248 NA
ATOM     51  C   UNL A   1      38.392  30.976  29.682  1.00  0.00     0.031 C 
ATOM     52  C   UNL A   1      37.490  33.906  33.670  1.00  0.00     0.029 A 
ATOM     53  N   UNL A   1      39.219  32.498  33.796  1.00  0.00    -0.354 N 
ATOM     54  C   UNL A   1      40.066  29.712  30.596  1.00  0.00     0.074 A 
ATOM     55  C   UNL A   1      39.153  29.910  29.491  1.00  0.00     0.031 C 
ATOM     56  C   UNL A   1      38.073  34.090  34.866  1.00  0.00     0.029 A 
ATOM     57  C   UNL A   1      39.189  33.159  35.004  1.00  0.00     0.049 A 
ATOM     58  H   UNL A   1      39.891  31.812  33.576  1.00  0.00     0.167 HD
ATOM     59  C   UNL A   1      41.070  28.799  30.606  1.00  0.00     0.034 A 
ATOM     60  C   UNL A   1      39.959  33.023  36.102  1.00  0.00     0.034 A 
ATOM     61  C   UNL A   1      41.993  28.634  31.703  1.00  0.00     0.049 A 
ATOM     62  C   UNL A   1      41.061  31.993  36.100  1.00  0.00     0.074 A 
ATOM     63  C   UNL A   1      43.079  27.780  31.797  1.00  0.00     0.029 A 
ATOM     64  N   UNL A   1      41.942  29.342  32.898  1.00  0.00    -0.354 N 
ATOM     65  N   UNL A   1      41.397  31.145  35.156  1.00  0.00    -0.248 NA
ATOM     66  C   UNL A   1      41.892  31.906  37.308  1.00  0.00     0.031 C 
ATOM     67  C   UNL A   1      43.648  27.929  33.067  1.00  0.00     0.029 A 
ATOM     68  C   UNL A   1      42.962  28.927  33.741  1.00  0.00     0.049 A 
ATOM     69  H   UNL A   1      41.279  30.035  33.114  1.00  0.00     0.167 HD
ATOM     70  C   UNL A   1      42.502  30.452  35.644  1.00  0.00     0.074 A 
ATOM     71  C   UNL A   1      42.778  30.984  36.962  1.00  0.00     0.031 C 
ATOM     72  C   UNL A   1      43.227  29.468  35.053  1.00  0.00     0.034 A 
BRANCH  59  73
ATOM     73  C   UNL A   1      41.201  27.903  29.396  1.00  0.00     0.023 A 
ATOM     74  C   UNL A   1      42.192  28.121  28.424  1.00  0.00     0.031 A 
ATOM     75  C   UNL A   1      40.295  26.849  29.183  1.00  0.00     0.131 A 
ATOM     76  C   UNL A   1      42.192  27.370  27.240  1.00  0.00     0.055 A 
ATOM     77  C   UNL A   1      40.360  26.041  28.045  1.00  0.00     0.041 A 
ATOM     78  F   UNL A   1      39.315  26.599  30.066  1.00  0.00    -0.206 F 
ATOM     79  C   UNL A   1      41.300  26.312  27.055  1.00  0.00     0.022 A 
BRANCH  76  80
ATOM     80  S   UNL A   1      43.260  27.912  25.878  1.00  0.00     0.124 S 
ATOM     81  O   UNL A   1      43.658  29.242  26.329  1.00  0.00    -0.237 OA
ATOM     82  O   UNL A   1      44.308  26.897  25.875  1.00  0.00    -0.237 OA
ATOM     83  O   UNL A   1      42.371  27.895  24.718  1.00  0.00    -0.744 OA
ENDBRANCH  76  80
ENDBRANCH  59  73
BRANCH  60  84
ATOM     84  C   UNL A   1      39.726  33.875  37.305  1.00  0.00     0.023 A 
ATOM     85  C   UNL A   1      39.014  33.379  38.408  1.00  0.00     0.031 A 
ATOM     86  C   UNL A   1      40.167  35.209  37.352  1.00  0.00     0.131 A 
ATOM     87  C   UNL A   1      38.722  34.222  39.492  1.00  0.00     0.055 A 
ATOM     88  C   UNL A   1      39.918  36.030  38.454  1.00  0.00     0.041 A 
ATOM     89  F   UNL A   1      40.857  35.734  36.326  1.00  0.00    -0.206 F 
ATOM     90  C   UNL A   1      39.181  35.541  39.528  1.00  0.00     0.022 A 
BRANCH  87  91
ATOM     91  S   UNL A   1      37.658  33.593  40.820  1.00  0.00     0.124 S 
ATOM     92  O   UNL A   1      38.542  32.637  41.479  1.00  0.00    -0.237 OA
ATOM     93  O   UNL A   1      37.356  34.809  41.567  1.00  0.00    -0.237 OA
ATOM     94  O   UNL A   1      36.528  33.007  40.102  1.00  0.00    -0.744 OA
ENDBRANCH  87  91
ENDBRANCH  60  84
BRANCH  72  95
ATOM     95  C   UNL A   1      44.428  28.952  35.804  1.00  0.00     0.023 A 
ATOM     96  C   UNL A   1      44.328  27.905  36.737  1.00  0.00     0.031 A 
ATOM     97  C   UNL A   1      45.696  29.516  35.576  1.00  0.00     0.131 A 
ATOM     98  C   UNL A   1      45.469  27.485  37.440  1.00  0.00     0.055 A 
ATOM     99  C   UNL A   1      46.835  29.059  36.238  1.00  0.00     0.041 A 
ATOM    100  F   UNL A   1      45.847  30.521  34.696  1.00  0.00    -0.206 F 
ATOM    101  C   UNL A   1      46.724  28.044  37.184  1.00  0.00     0.022 A 
BRANCH  98 102
ATOM    102  S   UNL A   1      45.280  26.244  38.748  1.00  0.00     0.124 S 
ATOM    103  O   UNL A   1      46.609  25.639  38.787  1.00  0.00    -0.237 OA
ATOM    104  O   UNL A   1      44.917  27.059  39.903  1.00  0.00    -0.237 OA
ATOM    105  O   UNL A   1      44.218  25.374  38.247  1.00  0.00    -0.744 OA
ENDBRANCH  98 102
ENDBRANCH  72  95
ENDBRANCH  46  47
ENDBRANCH  38  41
ENDBRANCH  36  37
ENDBRANCH  35  36
ENDBRANCH   1  35
TORSDOF 19
ENDMDL
MODEL 2
REMARK VINA RESULT:     -11.4      1.328      7.253
REMARK SMILES CCN1C(=O)[C@H](CC(=O)Nc2ccc(C(=O)NCCCCNC(=O)c3ccc(-c4c5nc(c(-c6cc(S(=O)(=O)[O-])ccc6F)c6ccc([nH]6)c(-c6cc(S(=O)(=O)[O-])ccc6F)c6nc(c(-c7cc(S(=O)(=O)[O-])ccc7F)c7ccc4[nH]7)C=C6)C=C5)cc3)cc2)S/C1=[NH+]\c1ccc(Cl)cc1
REMARK SMILES IDX 19 1 18 2 17 3 15 4 16 5 14 7 11 8 12 9 89 10 13 11 88 12
REMARK SMILES IDX 10 13 8 14 9 15 7 17 6 18 3 19 4 20 91 21 5 22 90 23 92 24
REMARK SMILES IDX 2 26 1 27 93 28 94 29 99 30 95 31 98 32 96 33 97 34 20 35
REMARK SMILES IDX 21 36 22 37 23 38 24 40 25 41 26 42 87 43 27 44 86 45 28 46
REMARK SMILES IDX 29 47 30 48 80 49 31 50 85 51 79 52 81 53 32 54 84 55 78 56
REMARK SMILES IDX 77 57 33 59 65 60 45 61 64 62 46 63 49 64 63 65 82 66 47 67
REMARK SMILES IDX 48 68 62 70 83 71 50 72 34 73 35 74 43 75 36 76 42 77 44 78
REMARK SMILES IDX 41 79 37 80 38 81 39 82 40 83 66 84 67 85 75 86 68 87 74 88
REMARK SMILES IDX 76 89 73 90 69 91 70 92 71 93 72 94 51 95 52 96 60 97 53 98
REMARK SMILES IDX 59 99 61 100 58 101 54 102 55 103 56 104 57 105
REMARK H PARENT 17 6 10 16 92 25 22 39 81 58 49 69
REMARK Flexibility Score: inf
ROOT
ATOM      1  C   UNL A   1      31.972  30.789  26.910  1.00  0.00     0.023 C 
ENDROOT
BRANCH   1   2
ATOM      2  C   UNL A   1      31.308  30.628  25.535  1.00  0.00     0.116 C 
BRANCH   2   3
ATOM      3  N   UNL A   1      32.179  29.987  24.550  1.00  0.00    -0.352 N 
ATOM      4  C   UNL A   1      32.204  28.694  24.064  1.00  0.00     0.251 C 
ATOM      5  O   UNL A   1      32.808  28.454  23.020  1.00  0.00    -0.269 OA
ATOM      6  H   UNL A   1      32.867  30.580  24.168  1.00  0.00     0.163 HD
BRANCH   4   7
ATOM      7  C   UNL A   1      31.540  27.569  24.772  1.00  0.00     0.039 A 
ATOM      8  C   UNL A   1      30.288  25.417  26.098  1.00  0.00     0.041 A 
ATOM      9  C   UNL A   1      31.439  25.983  26.636  1.00  0.00     0.027 A 
ATOM     10  C   UNL A   1      29.689  26.044  25.010  1.00  0.00     0.027 A 
ATOM     11  C   UNL A   1      32.074  27.046  25.962  1.00  0.00     0.016 A 
ATOM     12  C   UNL A   1      30.300  27.111  24.354  1.00  0.00     0.016 A 
BRANCH   8  13
ATOM     13  N   UNL A   1      29.675  24.295  26.684  1.00  0.00    -0.326 N 
ATOM     14  C   UNL A   1      30.066  22.974  26.582  1.00  0.00     0.226 C 
ATOM     15  O   UNL A   1      29.256  22.068  26.782  1.00  0.00    -0.275 OA
ATOM     16  H   UNL A   1      28.874  24.473  27.230  1.00  0.00     0.169 HD
BRANCH  14  17
ATOM     17  C   UNL A   1      31.561  22.677  26.468  1.00  0.00     0.128 C 
BRANCH  17  18
ATOM     18  C   UNL A   1      31.998  22.020  25.159  1.00  0.00     0.183 C 
ATOM     19  N   UNL A   1      33.047  23.682  23.798  1.00  0.00    -0.190 N 
ATOM     20  C   UNL A   1      31.876  22.983  24.000  1.00  0.00     0.324 C 
ATOM     21  C   UNL A   1      34.177  23.196  24.406  1.00  0.00     0.319 C 
ATOM     22  O   UNL A   1      30.825  23.188  23.403  1.00  0.00    -0.245 OA
ATOM     23  S   UNL A   1      33.808  21.707  25.242  1.00  0.00    -0.022 SA
ATOM     24  N   UNL A   1      35.310  23.813  24.319  1.00  0.00    -0.235 N 
ATOM     25  H   UNL A   1      35.339  24.710  23.914  1.00  0.00     0.313 HD
BRANCH  19  26
ATOM     26  C   UNL A   1      33.052  24.897  23.002  1.00  0.00     0.243 C 
ATOM     27  C   UNL A   1      33.075  24.689  21.504  1.00  0.00     0.054 C 
ENDBRANCH  19  26
BRANCH  24  28
ATOM     28  C   UNL A   1      36.500  23.237  24.786  1.00  0.00     0.125 A 
ATOM     29  C   UNL A   1      36.870  21.942  24.413  1.00  0.00     0.053 A 
ATOM     30  C   UNL A   1      37.256  23.902  25.759  1.00  0.00     0.053 A 
ATOM     31  C   UNL A   1      37.997  21.334  24.982  1.00  0.00     0.025 A 
ATOM     32  C   UNL A   1      38.383  23.304  26.326  1.00  0.00     0.025 A 
ATOM     33  C   UNL A   1      38.750  22.020  25.935  1.00  0.00     0.041 A 
ATOM     34  Cl  UNL A   1      40.131  21.277  26.640  1.00  0.00    -0.084 Cl
ENDBRANCH  24  28
ENDBRANCH  17  18
ENDBRANCH  14  17
ENDBRANCH   8  13
ENDBRANCH   4   7
ENDBRANCH   2   3
ENDBRANCH   1   2
BRANCH   1  35
ATOM     35  C   UNL A   1      33.457  30.440  26.978  1.00  0.00     0.023 C 
BRANCH  35  36
ATOM     36  C   UNL A   1      34.356  31.584  27.456  1.00  0.00     0.116 C 
BRANCH  36  37
ATOM     37  N   UNL A   1      33.639  32.799  27.839  1.00  0.00    -0.352 N 
ATOM     38  C   UNL A   1      33.837  33.609  28.942  1.00  0.00     0.251 C 
ATOM     39  H   UNL A   1      32.919  33.079  27.229  1.00  0.00     0.163 HD
ATOM     40  O   UNL A   1      33.082  34.555  29.158  1.00  0.00    -0.269 OA
BRANCH  38  41
ATOM     41  C   UNL A   1      34.934  33.296  29.890  1.00  0.00     0.039 A 
ATOM     42  C   UNL A   1      34.727  32.351  30.900  1.00  0.00     0.014 A 
ATOM     43  C   UNL A   1      36.191  33.878  29.727  1.00  0.00     0.014 A 
ATOM     44  C   UNL A   1      35.814  31.900  31.658  1.00  0.00     0.010 A 
ATOM     45  C   UNL A   1      37.283  33.359  30.414  1.00  0.00     0.010 A 
ATOM     46  C   UNL A   1      37.114  32.348  31.375  1.00  0.00    -0.014 A 
BRANCH  46  47
ATOM     47  C   UNL A   1      38.319  31.776  32.041  1.00  0.00     0.031 A 
ATOM     48  C   UNL A   1      38.665  32.188  33.448  1.00  0.00     0.074 A 
ATOM     49  C   UNL A   1      39.165  30.984  31.350  1.00  0.00     0.049 A 
ATOM     50  N   UNL A   1      39.753  31.960  34.139  1.00  0.00    -0.248 NA
ATOM     51  C   UNL A   1      37.668  33.008  34.150  1.00  0.00     0.031 C 
ATOM     52  C   UNL A   1      38.976  30.542  29.966  1.00  0.00     0.029 A 
ATOM     53  N   UNL A   1      40.366  30.421  31.710  1.00  0.00    -0.354 N 
ATOM     54  C   UNL A   1      39.584  32.636  35.344  1.00  0.00     0.074 A 
ATOM     55  C   UNL A   1      38.321  33.336  35.254  1.00  0.00     0.031 C 
ATOM     56  C   UNL A   1      40.005  29.757  29.607  1.00  0.00     0.029 A 
ATOM     57  C   UNL A   1      40.958  29.681  30.710  1.00  0.00     0.049 A 
ATOM     58  H   UNL A   1      40.767  30.536  32.602  1.00  0.00     0.167 HD
ATOM     59  C   UNL A   1      40.392  32.649  36.434  1.00  0.00     0.034 A 
ATOM     60  C   UNL A   1      42.138  29.030  30.678  1.00  0.00     0.034 A 
ATOM     61  C   UNL A   1      41.634  31.920  36.521  1.00  0.00     0.049 A 
ATOM     62  C   UNL A   1      43.029  29.068  31.895  1.00  0.00     0.074 A 
ATOM     63  C   UNL A   1      42.503  31.819  37.595  1.00  0.00     0.029 A 
ATOM     64  N   UNL A   1      42.186  31.164  35.494  1.00  0.00    -0.354 N 
ATOM     65  N   UNL A   1      42.839  29.685  33.038  1.00  0.00    -0.248 NA
ATOM     66  C   UNL A   1      44.289  28.316  31.820  1.00  0.00     0.031 C 
ATOM     67  C   UNL A   1      43.604  31.051  37.200  1.00  0.00     0.029 A 
ATOM     68  C   UNL A   1      43.391  30.613  35.902  1.00  0.00     0.049 A 
ATOM     69  H   UNL A   1      41.781  31.039  34.607  1.00  0.00     0.167 HD
ATOM     70  C   UNL A   1      43.939  29.363  33.830  1.00  0.00     0.074 A 
ATOM     71  C   UNL A   1      44.783  28.495  33.036  1.00  0.00     0.031 C 
ATOM     72  C   UNL A   1      44.222  29.746  35.100  1.00  0.00     0.034 A 
BRANCH  59  73
ATOM     73  C   UNL A   1      39.954  33.494  37.608  1.00  0.00     0.023 A 
ATOM     74  C   UNL A   1      39.356  32.922  38.743  1.00  0.00     0.031 A 
ATOM     75  C   UNL A   1      40.088  34.894  37.573  1.00  0.00     0.131 A 
ATOM     76  C   UNL A   1      38.822  33.744  39.746  1.00  0.00     0.055 A 
ATOM     77  C   UNL A   1      39.641  35.702  38.621  1.00  0.00     0.041 A 
ATOM     78  F   UNL A   1      40.636  35.503  36.510  1.00  0.00    -0.206 F 
ATOM     79  C   UNL A   1      38.984  35.130  39.707  1.00  0.00     0.022 A 
BRANCH  76  80
ATOM     80  S   UNL A   1      37.763  32.985  41.008  1.00  0.00     0.124 S 
ATOM     81  O   UNL A   1      38.234  31.602  40.991  1.00  0.00    -0.237 OA
ATOM     82  O   UNL A   1      38.089  33.758  42.201  1.00  0.00    -0.237 OA
ATOM     83  O   UNL A   1      36.412  33.182  40.485  1.00  0.00    -0.744 OA
ENDBRANCH  76  80
ENDBRANCH  59  73
BRANCH  60  84
ATOM     84  C   UNL A   1      42.561  28.285  29.456  1.00  0.00     0.023 A 
ATOM     85  C   UNL A   1      42.253  26.924  29.304  1.00  0.00     0.031 A 
ATOM     86  C   UNL A   1      43.318  28.906  28.447  1.00  0.00     0.131 A 
ATOM     87  C   UNL A   1      42.738  26.214  28.194  1.00  0.00     0.055 A 
ATOM     88  C   UNL A   1      43.756  28.208  27.319  1.00  0.00     0.041 A 
ATOM     89  F   UNL A   1      43.638  30.206  28.539  1.00  0.00    -0.206 F 
ATOM     90  C   UNL A   1      43.476  26.850  27.193  1.00  0.00     0.022 A 
BRANCH  87  91
ATOM     91  S   UNL A   1      42.459  24.423  28.119  1.00  0.00     0.124 S 
ATOM     92  O   UNL A   1      43.213  23.957  29.278  1.00  0.00    -0.237 OA
ATOM     93  O   UNL A   1      41.006  24.339  28.221  1.00  0.00    -0.237 OA
ATOM     94  O   UNL A   1      43.013  24.047  26.820  1.00  0.00    -0.744 OA
ENDBRANCH  87  91
ENDBRANCH  60  84
BRANCH  72  95
ATOM     95  C   UNL A   1      45.466  29.173  35.731  1.00  0.00     0.023 A 
ATOM     96  C   UNL A   1      45.444  27.973  36.462  1.00  0.00     0.031 A 
ATOM     97  C   UNL A   1      46.696  29.842  35.592  1.00  0.00     0.131 A 
ATOM     98  C   UNL A   1      46.622  27.501  37.064  1.00  0.00     0.055 A 
ATOM     99  C   UNL A   1      47.873  29.340  36.148  1.00  0.00     0.041 A 
ATOM    100  F   UNL A   1      46.772  30.995  34.906  1.00  0.00    -0.206 F 
ATOM    101  C   UNL A   1      47.839  28.168  36.897  1.00  0.00     0.022 A 
BRANCH  98 102
ATOM    102  S   UNL A   1      46.531  26.036  38.130  1.00  0.00     0.124 S 
ATOM    103  O   UNL A   1      47.554  26.325  39.131  1.00  0.00    -0.237 OA
ATOM    104  O   UNL A   1      45.150  26.078  38.601  1.00  0.00    -0.237 OA
ATOM    105  O   UNL A   1      46.843  24.932  37.225  1.00  0.00    -0.744 OA
ENDBRANCH  98 102
ENDBRANCH  72  95
ENDBRANCH  46  47
ENDBRANCH  38  41
ENDBRANCH  36  37
ENDBRANCH  35  36
ENDBRANCH   1  35
TORSDOF 19
ENDMDL
MODEL 3
REMARK VINA RESULT:     -11.1      1.758      7.557
REMARK SMILES CCN1C(=O)[C@H](CC(=O)Nc2ccc(C(=O)NCCCCNC(=O)c3ccc(-c4c5nc(c(-c6cc(S(=O)(=O)[O-])ccc6F)c6ccc([nH]6)c(-c6cc(S(=O)(=O)[O-])ccc6F)c6nc(c(-c7cc(S(=O)(=O)[O-])ccc7F)c7ccc4[nH]7)C=C6)C=C5)cc3)cc2)S/C1=[NH+]\c1ccc(Cl)cc1
REMARK SMILES IDX 19 1 18 2 17 3 15 4 16 5 14 7 11 8 12 9 89 10 13 11 88 12
REMARK SMILES IDX 10 13 8 14 9 15 7 17 6 18 3 19 4 20 91 21 5 22 90 23 92 24
REMARK SMILES IDX 2 26 1 27 93 28 94 29 99 30 95 31 98 32 96 33 97 34 20 35
REMARK SMILES IDX 21 36 22 37 23 38 24 40 25 41 26 42 87 43 27 44 86 45 28 46
REMARK SMILES IDX 29 47 30 48 80 49 31 50 85 51 79 52 81 53 32 54 84 55 78 56
REMARK SMILES IDX 77 57 33 59 65 60 45 61 64 62 46 63 49 64 63 65 82 66 47 67
REMARK SMILES IDX 48 68 62 70 83 71 50 72 34 73 35 74 43 75 36 76 42 77 44 78
REMARK SMILES IDX 41 79 37 80 38 81 39 82 40 83 66 84 67 85 75 86 68 87 74 88
REMARK SMILES IDX 76 89 73 90 69 91 70 92 71 93 72 94 51 95 52 96 60 97 53 98
REMARK SMILES IDX 59 99 61 100 58 101 54 102 55 103 56 104 57 105
REMARK H PARENT 17 6 10 16 92 25 22 39 81 58 49 69
REMARK Flexibility Score: inf
ROOT
ATOM      1  C   UNL A   1      33.924  31.094  27.182  1.00  0.00     0.023 C 
ENDROOT
BRANCH   1   2
ATOM      2  C   UNL A   1      33.080  29.874  26.785  1.00  0.00     0.116 C 
BRANCH   2   3
ATOM      3  N   UNL A   1      32.816  29.805  25.347  1.00  0.00    -0.352 N 
ATOM      4  C   UNL A   1      31.940  29.021  24.622  1.00  0.00     0.251 C 
ATOM      5  O   UNL A   1      31.655  29.343  23.470  1.00  0.00    -0.269 OA
ATOM      6  H   UNL A   1      33.356  30.424  24.804  1.00  0.00     0.163 HD
BRANCH   4   7
ATOM      7  C   UNL A   1      31.339  27.780  25.179  1.00  0.00     0.039 A 
ATOM      8  C   UNL A   1      30.216  25.412  26.222  1.00  0.00     0.041 A 
ATOM      9  C   UNL A   1      31.020  26.210  27.031  1.00  0.00     0.027 A 
ATOM     10  C   UNL A   1      29.849  25.899  24.972  1.00  0.00     0.027 A 
ATOM     11  C   UNL A   1      31.596  27.383  26.502  1.00  0.00     0.016 A 
ATOM     12  C   UNL A   1      30.395  27.071  24.453  1.00  0.00     0.016 A 
BRANCH   8  13
ATOM     13  N   UNL A   1      29.698  24.187  26.677  1.00  0.00    -0.326 N 
ATOM     14  C   UNL A   1      30.194  22.921  26.430  1.00  0.00     0.226 C 
ATOM     15  O   UNL A   1      29.460  21.936  26.524  1.00  0.00    -0.275 OA
ATOM     16  H   UNL A   1      28.889  24.237  27.237  1.00  0.00     0.169 HD
BRANCH  14  17
ATOM     17  C   UNL A   1      31.707  22.760  26.288  1.00  0.00     0.128 C 
BRANCH  17  18
ATOM     18  C   UNL A   1      32.168  21.945  25.079  1.00  0.00     0.183 C 
ATOM     19  N   UNL A   1      33.474  23.366  23.670  1.00  0.00    -0.190 N 
ATOM     20  C   UNL A   1      32.226  22.803  23.837  1.00  0.00     0.324 C 
ATOM     21  C   UNL A   1      34.503  22.834  24.405  1.00  0.00     0.319 C 
ATOM     22  O   UNL A   1      31.247  23.049  23.142  1.00  0.00    -0.245 OA
ATOM     23  S   UNL A   1      33.925  21.471  25.334  1.00  0.00    -0.022 SA
ATOM     24  N   UNL A   1      35.695  23.330  24.357  1.00  0.00    -0.235 N 
ATOM     25  H   UNL A   1      35.844  24.178  23.879  1.00  0.00     0.313 HD
BRANCH  19  26
ATOM     26  C   UNL A   1      33.659  24.495  22.775  1.00  0.00     0.243 C 
ATOM     27  C   UNL A   1      33.806  25.840  23.452  1.00  0.00     0.054 C 
ENDBRANCH  19  26
BRANCH  24  28
ATOM     28  C   UNL A   1      36.785  22.690  24.965  1.00  0.00     0.125 A 
ATOM     29  C   UNL A   1      37.611  23.372  25.864  1.00  0.00     0.053 A 
ATOM     30  C   UNL A   1      37.148  21.401  24.558  1.00  0.00     0.053 A 
ATOM     31  C   UNL A   1      38.766  22.760  26.370  1.00  0.00     0.025 A 
ATOM     32  C   UNL A   1      38.293  20.784  25.064  1.00  0.00     0.025 A 
ATOM     33  C   UNL A   1      39.100  21.467  25.969  1.00  0.00     0.041 A 
ATOM     34  Cl  UNL A   1      40.518  20.713  26.584  1.00  0.00    -0.084 Cl
ENDBRANCH  24  28
ENDBRANCH  17  18
ENDBRANCH  14  17
ENDBRANCH   8  13
ENDBRANCH   4   7
ENDBRANCH   2   3
ENDBRANCH   1   2
BRANCH   1  35
ATOM     35  C   UNL A   1      33.142  32.335  27.609  1.00  0.00     0.023 C 
BRANCH  35  36
ATOM     36  C   UNL A   1      34.012  33.485  28.124  1.00  0.00     0.116 C 
BRANCH  36  37
ATOM     37  N   UNL A   1      33.297  34.474  28.929  1.00  0.00    -0.352 N 
ATOM     38  C   UNL A   1      33.513  34.839  30.245  1.00  0.00     0.251 C 
ATOM     39  H   UNL A   1      32.564  34.945  28.471  1.00  0.00     0.163 HD
ATOM     40  O   UNL A   1      32.758  35.635  30.798  1.00  0.00    -0.269 OA
BRANCH  38  41
ATOM     41  C   UNL A   1      34.630  34.220  30.999  1.00  0.00     0.039 A 
ATOM     42  C   UNL A   1      34.379  33.133  31.842  1.00  0.00     0.014 A 
ATOM     43  C   UNL A   1      35.938  34.666  30.809  1.00  0.00     0.014 A 
ATOM     44  C   UNL A   1      35.451  32.417  32.388  1.00  0.00     0.010 A 
ATOM     45  C   UNL A   1      37.001  33.897  31.272  1.00  0.00     0.010 A 
ATOM     46  C   UNL A   1      36.773  32.750  32.051  1.00  0.00    -0.014 A 
BRANCH  46  47
ATOM     47  C   UNL A   1      37.938  31.920  32.472  1.00  0.00     0.031 A 
ATOM     48  C   UNL A   1      38.642  32.219  33.770  1.00  0.00     0.074 A 
ATOM     49  C   UNL A   1      38.437  30.979  31.643  1.00  0.00     0.049 A 
ATOM     50  N   UNL A   1      39.773  31.750  34.231  1.00  0.00    -0.248 NA
ATOM     51  C   UNL A   1      38.007  33.220  34.639  1.00  0.00     0.031 C 
ATOM     52  C   UNL A   1      37.881  30.617  30.337  1.00  0.00     0.029 A 
ATOM     53  N   UNL A   1      39.537  30.166  31.766  1.00  0.00    -0.354 N 
ATOM     54  C   UNL A   1      40.001  32.421  35.428  1.00  0.00     0.074 A 
ATOM     55  C   UNL A   1      38.925  33.378  35.580  1.00  0.00     0.031 C 
ATOM     56  C   UNL A   1      38.623  29.637  29.796  1.00  0.00     0.029 A 
ATOM     57  C   UNL A   1      39.742  29.337  30.684  1.00  0.00     0.049 A 
ATOM     58  H   UNL A   1      40.126  30.174  32.555  1.00  0.00     0.167 HD
ATOM     59  C   UNL A   1      40.998  32.239  36.331  1.00  0.00     0.034 A 
ATOM     60  C   UNL A   1      40.724  28.449  30.429  1.00  0.00     0.034 A 
ATOM     61  C   UNL A   1      42.047  31.260  36.182  1.00  0.00     0.049 A 
ATOM     62  C   UNL A   1      41.830  28.270  31.439  1.00  0.00     0.074 A 
ATOM     63  C   UNL A   1      43.073  30.953  37.059  1.00  0.00     0.029 A 
ATOM     64  N   UNL A   1      42.204  30.424  35.083  1.00  0.00    -0.354 N 
ATOM     65  N   UNL A   1      42.013  28.890  32.581  1.00  0.00    -0.248 NA
ATOM     66  C   UNL A   1      42.858  27.269  31.128  1.00  0.00     0.031 C 
ATOM     67  C   UNL A   1      43.881  29.976  36.468  1.00  0.00     0.029 A 
ATOM     68  C   UNL A   1      43.320  29.620  35.251  1.00  0.00     0.049 A 
ATOM     69  H   UNL A   1      41.609  30.407  34.299  1.00  0.00     0.167 HD
ATOM     70  C   UNL A   1      43.156  28.325  33.141  1.00  0.00     0.074 A 
ATOM     71  C   UNL A   1      43.616  27.312  32.214  1.00  0.00     0.031 C 
ATOM     72  C   UNL A   1      43.766  28.612  34.318  1.00  0.00     0.034 A 
BRANCH  59  73
ATOM     73  C   UNL A   1      40.998  33.135  37.549  1.00  0.00     0.023 A 
ATOM     74  C   UNL A   1      40.384  32.742  38.750  1.00  0.00     0.031 A 
ATOM     75  C   UNL A   1      41.574  34.417  37.496  1.00  0.00     0.131 A 
ATOM     76  C   UNL A   1      40.267  33.652  39.810  1.00  0.00     0.055 A 
ATOM     77  C   UNL A   1      41.538  35.285  38.590  1.00  0.00     0.041 A 
ATOM     78  F   UNL A   1      42.161  34.858  36.373  1.00  0.00    -0.206 F 
ATOM     79  C   UNL A   1      40.864  34.913  39.749  1.00  0.00     0.022 A 
BRANCH  76  80
ATOM     80  S   UNL A   1      39.175  33.227  41.194  1.00  0.00     0.124 S 
ATOM     81  O   UNL A   1      39.553  31.839  41.448  1.00  0.00    -0.237 OA
ATOM     82  O   UNL A   1      39.565  34.193  42.214  1.00  0.00    -0.237 OA
ATOM     83  O   UNL A   1      37.834  33.408  40.641  1.00  0.00    -0.744 OA
ENDBRANCH  76  80
ENDBRANCH  59  73
BRANCH  60  84
ATOM     84  C   UNL A   1      40.721  27.655  29.165  1.00  0.00     0.023 A 
ATOM     85  C   UNL A   1      41.618  27.955  28.128  1.00  0.00     0.031 A 
ATOM     86  C   UNL A   1      39.794  26.619  28.956  1.00  0.00     0.131 A 
ATOM     87  C   UNL A   1      41.540  27.261  26.910  1.00  0.00     0.055 A 
ATOM     88  C   UNL A   1      39.753  25.896  27.761  1.00  0.00     0.041 A 
ATOM     89  F   UNL A   1      38.916  26.287  29.916  1.00  0.00    -0.206 F 
ATOM     90  C   UNL A   1      40.622  26.224  26.724  1.00  0.00     0.022 A 
BRANCH  87  91
ATOM     91  S   UNL A   1      42.603  27.790  25.539  1.00  0.00     0.124 S 
ATOM     92  O   UNL A   1      41.930  29.005  25.094  1.00  0.00    -0.237 OA
ATOM     93  O   UNL A   1      43.888  27.974  26.207  1.00  0.00    -0.237 OA
ATOM     94  O   UNL A   1      42.543  26.665  24.609  1.00  0.00    -0.744 OA
ENDBRANCH  87  91
ENDBRANCH  60  84
BRANCH  72  95
ATOM     95  C   UNL A   1      44.961  27.774  34.698  1.00  0.00     0.023 A 
ATOM     96  C   UNL A   1      46.272  28.152  34.362  1.00  0.00     0.031 A 
ATOM     97  C   UNL A   1      44.780  26.577  35.414  1.00  0.00     0.131 A 
ATOM     98  C   UNL A   1      47.349  27.318  34.703  1.00  0.00     0.055 A 
ATOM     99  C   UNL A   1      45.858  25.779  35.798  1.00  0.00     0.041 A 
ATOM    100  F   UNL A   1      43.548  26.168  35.759  1.00  0.00    -0.206 F 
ATOM    101  C   UNL A   1      47.151  26.143  35.434  1.00  0.00     0.022 A 
BRANCH  98 102
ATOM    102  S   UNL A   1      49.010  27.752  34.119  1.00  0.00     0.124 S 
ATOM    103  O   UNL A   1      48.981  27.274  32.739  1.00  0.00    -0.237 OA
ATOM    104  O   UNL A   1      49.033  29.201  34.290  1.00  0.00    -0.237 OA
ATOM    105  O   UNL A   1      49.895  27.009  35.013  1.00  0.00    -0.744 OA
ENDBRANCH  98 102
ENDBRANCH  72  95
ENDBRANCH  46  47
ENDBRANCH  38  41
ENDBRANCH  36  37
ENDBRANCH  35  36
ENDBRANCH   1  35
TORSDOF 19
ENDMDL
