MODEL 1
REMARK VINA RESULT:     -10.6      0.000      0.000
REMARK SMILES CCC[NH2+][C@@H]1COC[C@@H]1C(=O)N[C@@](C)(CC)C(=O)NCCCCNC(=O)c1ccc(-c2c3nc(c(-c4cc(S(=O)(=O)[O-])ccc4F)c4ccc([nH]4)c(-c4cc(S(=O)(=O)[O-])ccc4F)c4nc(c(-c5cc(S(=O)(=O)[O-])ccc5F)c5ccc2[nH]5)C=C4)C=C3)cc1
REMARK SMILES IDX 20 1 19 2 17 3 18 4 13 6 14 7 12 8 10 9 11 10 9 12 5 13 6 14
REMARK SMILES IDX 7 15 8 16 4 17 3 20 2 21 1 22 15 23 16 24 21 25 22 26 23 27
REMARK SMILES IDX 24 28 25 29 26 31 27 32 28 33 89 34 29 35 88 36 30 37 31 38
REMARK SMILES IDX 32 39 82 40 33 41 87 42 81 43 83 44 34 45 86 46 80 47 79 48
REMARK SMILES IDX 35 50 67 51 47 52 66 53 48 54 51 55 65 56 84 57 49 58 50 59
REMARK SMILES IDX 64 61 85 62 52 63 36 64 37 65 45 66 38 67 44 68 46 69 43 70
REMARK SMILES IDX 39 71 40 72 41 73 42 74 68 75 69 76 77 77 70 78 76 79 78 80
REMARK SMILES IDX 75 81 71 82 72 83 73 84 74 85 53 86 54 87 62 88 55 89 61 90
REMARK SMILES IDX 63 91 60 92 56 93 57 94 58 95 59 96
REMARK H PARENT 19 5 12 11 4 18 4 19 24 30 83 49 51 60
REMARK Flexibility Score: inf
ROOT
ATOM      1  C   UNL A   1      34.412  23.630  26.117  1.00  0.00     0.116 C 
ENDROOT
BRANCH   1   2
ATOM      2  N   UNL A   1      33.072  24.141  26.293  1.00  0.00    -0.354 N 
ATOM      3  C   UNL A   1      31.999  24.069  25.470  1.00  0.00     0.245 C 
ATOM      4  O   UNL A   1      30.935  23.764  26.026  1.00  0.00    -0.272 OA
ATOM      5  H   UNL A   1      32.915  24.613  27.143  1.00  0.00     0.163 HD
BRANCH   3   6
ATOM      6  C   UNL A   1      32.044  24.226  23.928  1.00  0.00     0.116 C 
ATOM      7  C   UNL A   1      30.516  24.241  23.585  1.00  0.00     0.045 C 
BRANCH   6   8
ATOM      8  N   UNL A   1      32.548  25.583  23.536  1.00  0.00    -0.341 N 
ATOM      9  C   UNL A   1      32.471  26.872  23.920  1.00  0.00     0.232 C 
ATOM     10  O   UNL A   1      33.434  27.547  23.504  1.00  0.00    -0.274 OA
ATOM     11  H   UNL A   1      33.121  25.506  22.739  1.00  0.00     0.164 HD
BRANCH   9  12
ATOM     12  C   UNL A   1      31.399  27.639  24.705  1.00  0.00     0.164 C 
ATOM     13  C   UNL A   1      31.032  29.065  24.337  1.00  0.00     0.223 C 
ATOM     14  C   UNL A   1      31.758  29.883  25.399  1.00  0.00     0.225 C 
ATOM     15  O   UNL A   1      31.890  29.050  26.560  1.00  0.00    -0.374 OA
ATOM     16  C   UNL A   1      31.504  27.711  26.209  1.00  0.00     0.180 C 
BRANCH  13  17
ATOM     17  N   UNL A   1      31.211  29.402  22.931  1.00  0.00    -0.341 N 
ATOM     18  H   UNL A   1      31.691  30.300  22.873  1.00  0.00     0.346 HD
ATOM     19  H   UNL A   1      31.750  28.647  22.507  1.00  0.00     0.346 HD
BRANCH  17  20
ATOM     20  C   UNL A   1      29.956  29.501  22.190  1.00  0.00     0.260 C 
BRANCH  20  21
ATOM     21  C   UNL A   1      29.185  30.767  22.581  1.00  0.00     0.058 C 
ATOM     22  C   UNL A   1      27.861  30.483  23.276  1.00  0.00     0.010 C 
ENDBRANCH  20  21
ENDBRANCH  17  20
ENDBRANCH  13  17
ENDBRANCH   9  12
ENDBRANCH   6   8
BRANCH   6  23
ATOM     23  C   UNL A   1      32.622  23.130  22.995  1.00  0.00     0.035 C 
ATOM     24  C   UNL A   1      34.073  23.210  22.583  1.00  0.00     0.007 C 
ENDBRANCH   6  23
ENDBRANCH   3   6
ENDBRANCH   1   2
BRANCH   1  25
ATOM     25  C   UNL A   1      34.515  22.123  26.319  1.00  0.00     0.023 C 
BRANCH  25  26
ATOM     26  C   UNL A   1      35.683  21.432  25.606  1.00  0.00     0.023 C 
BRANCH  26  27
ATOM     27  C   UNL A   1      37.031  22.148  25.653  1.00  0.00     0.116 C 
BRANCH  27  28
ATOM     28  N   UNL A   1      38.157  21.251  25.846  1.00  0.00    -0.352 N 
ATOM     29  C   UNL A   1      39.419  21.507  26.325  1.00  0.00     0.251 C 
ATOM     30  H   UNL A   1      37.990  20.314  25.595  1.00  0.00     0.163 HD
ATOM     31  O   UNL A   1      40.244  20.600  26.345  1.00  0.00    -0.269 OA
BRANCH  29  32
ATOM     32  C   UNL A   1      39.799  22.871  26.763  1.00  0.00     0.039 A 
ATOM     33  C   UNL A   1      40.678  22.996  27.844  1.00  0.00     0.014 A 
ATOM     34  C   UNL A   1      39.305  24.015  26.131  1.00  0.00     0.014 A 
ATOM     35  C   UNL A   1      41.117  24.261  28.243  1.00  0.00     0.010 A 
ATOM     36  C   UNL A   1      39.791  25.272  26.491  1.00  0.00     0.010 A 
ATOM     37  C   UNL A   1      40.707  25.407  27.545  1.00  0.00    -0.014 A 
BRANCH  37  38
ATOM     38  C   UNL A   1      41.234  26.750  27.902  1.00  0.00     0.031 A 
ATOM     39  C   UNL A   1      42.661  27.110  27.596  1.00  0.00     0.074 A 
ATOM     40  C   UNL A   1      40.442  27.623  28.555  1.00  0.00     0.049 A 
ATOM     41  N   UNL A   1      43.324  28.198  27.893  1.00  0.00    -0.248 NA
ATOM     42  C   UNL A   1      43.454  26.096  26.885  1.00  0.00     0.031 C 
ATOM     43  C   UNL A   1      39.050  27.377  28.939  1.00  0.00     0.029 A 
ATOM     44  N   UNL A   1      40.694  28.889  29.022  1.00  0.00    -0.354 N 
ATOM     45  C   UNL A   1      44.616  27.997  27.418  1.00  0.00     0.074 A 
ATOM     46  C   UNL A   1      44.653  26.659  26.865  1.00  0.00     0.031 C 
ATOM     47  C   UNL A   1      38.567  28.463  29.565  1.00  0.00     0.029 A 
ATOM     48  C   UNL A   1      39.623  29.465  29.664  1.00  0.00     0.049 A 
ATOM     49  H   UNL A   1      41.561  29.342  28.907  1.00  0.00     0.167 HD
ATOM     50  C   UNL A   1      45.667  28.856  27.426  1.00  0.00     0.034 A 
ATOM     51  C   UNL A   1      39.508  30.661  30.275  1.00  0.00     0.034 A 
ATOM     52  C   UNL A   1      45.611  30.190  27.972  1.00  0.00     0.049 A 
ATOM     53  C   UNL A   1      40.694  31.589  30.292  1.00  0.00     0.074 A 
ATOM     54  C   UNL A   1      46.597  31.162  27.985  1.00  0.00     0.029 A 
ATOM     55  N   UNL A   1      44.509  30.740  28.616  1.00  0.00    -0.354 N 
ATOM     56  N   UNL A   1      41.896  31.403  29.797  1.00  0.00    -0.248 NA
ATOM     57  C   UNL A   1      40.505  32.893  30.940  1.00  0.00     0.031 C 
ATOM     58  C   UNL A   1      46.112  32.274  28.684  1.00  0.00     0.029 A 
ATOM     59  C   UNL A   1      44.800  32.025  29.052  1.00  0.00     0.049 A 
ATOM     60  H   UNL A   1      43.646  30.284  28.744  1.00  0.00     0.167 HD
ATOM     61  C   UNL A   1      42.596  32.578  30.050  1.00  0.00     0.074 A 
ATOM     62  C   UNL A   1      41.678  33.471  30.730  1.00  0.00     0.031 C 
ATOM     63  C   UNL A   1      43.880  32.897  29.741  1.00  0.00     0.034 A 
BRANCH  50  64
ATOM     64  C   UNL A   1      46.970  28.356  26.848  1.00  0.00     0.023 A 
ATOM     65  C   UNL A   1      47.190  28.306  25.459  1.00  0.00     0.031 A 
ATOM     66  C   UNL A   1      47.991  27.883  27.691  1.00  0.00     0.131 A 
ATOM     67  C   UNL A   1      48.360  27.718  24.955  1.00  0.00     0.055 A 
ATOM     68  C   UNL A   1      49.189  27.375  27.184  1.00  0.00     0.041 A 
ATOM     69  F   UNL A   1      47.833  27.887  29.024  1.00  0.00    -0.206 F 
ATOM     70  C   UNL A   1      49.371  27.274  25.808  1.00  0.00     0.022 A 
BRANCH  67  71
ATOM     71  S   UNL A   1      48.468  27.401  23.172  1.00  0.00     0.124 S 
ATOM     72  O   UNL A   1      49.784  27.949  22.855  1.00  0.00    -0.237 OA
ATOM     73  O   UNL A   1      48.344  25.950  23.101  1.00  0.00    -0.237 OA
ATOM     74  O   UNL A   1      47.340  28.151  22.622  1.00  0.00    -0.744 OA
ENDBRANCH  67  71
ENDBRANCH  50  64
BRANCH  51  75
ATOM     75  C   UNL A   1      38.228  31.053  30.930  1.00  0.00     0.023 A 
ATOM     76  C   UNL A   1      37.230  31.731  30.213  1.00  0.00     0.031 A 
ATOM     77  C   UNL A   1      38.000  30.788  32.292  1.00  0.00     0.131 A 
ATOM     78  C   UNL A   1      36.066  32.161  30.871  1.00  0.00     0.055 A 
ATOM     79  C   UNL A   1      36.821  31.176  32.930  1.00  0.00     0.041 A 
ATOM     80  F   UNL A   1      38.921  30.135  33.019  1.00  0.00    -0.206 F 
ATOM     81  C   UNL A   1      35.851  31.879  32.221  1.00  0.00     0.022 A 
BRANCH  78  82
ATOM     82  S   UNL A   1      34.868  33.161  29.948  1.00  0.00     0.124 S 
ATOM     83  O   UNL A   1      34.229  32.157  29.105  1.00  0.00    -0.237 OA
ATOM     84  O   UNL A   1      34.048  33.717  31.019  1.00  0.00    -0.237 OA
ATOM     85  O   UNL A   1      35.706  34.129  29.243  1.00  0.00    -0.744 OA
ENDBRANCH  78  82
ENDBRANCH  51  75
BRANCH  63  86
ATOM     86  C   UNL A   1      44.342  34.286  30.102  1.00  0.00     0.023 A 
ATOM     87  C   UNL A   1      44.126  35.382  29.249  1.00  0.00     0.031 A 
ATOM     88  C   UNL A   1      45.028  34.510  31.309  1.00  0.00     0.131 A 
ATOM     89  C   UNL A   1      44.638  36.644  29.590  1.00  0.00     0.055 A 
ATOM     90  C   UNL A   1      45.487  35.778  31.668  1.00  0.00     0.041 A 
ATOM     91  F   UNL A   1      45.263  33.497  32.159  1.00  0.00    -0.206 F 
ATOM     92  C   UNL A   1      45.304  36.851  30.802  1.00  0.00     0.022 A 
BRANCH  89  93
ATOM     93  S   UNL A   1      44.497  37.996  28.390  1.00  0.00     0.124 S 
ATOM     94  O   UNL A   1      45.551  37.667  27.435  1.00  0.00    -0.237 OA
ATOM     95  O   UNL A   1      43.129  37.843  27.905  1.00  0.00    -0.237 OA
ATOM     96  O   UNL A   1      44.738  39.194  29.191  1.00  0.00    -0.744 OA
ENDBRANCH  89  93
ENDBRANCH  63  86
ENDBRANCH  37  38
ENDBRANCH  29  32
ENDBRANCH  27  28
ENDBRANCH  26  27
ENDBRANCH  25  26
ENDBRANCH   1  25
TORSDOF 20
ENDMDL
MODEL 2
REMARK VINA RESULT:     -10.5      4.695     10.106
REMARK SMILES CCC[NH2+][C@@H]1COC[C@@H]1C(=O)N[C@@](C)(CC)C(=O)NCCCCNC(=O)c1ccc(-c2c3nc(c(-c4cc(S(=O)(=O)[O-])ccc4F)c4ccc([nH]4)c(-c4cc(S(=O)(=O)[O-])ccc4F)c4nc(c(-c5cc(S(=O)(=O)[O-])ccc5F)c5ccc2[nH]5)C=C4)C=C3)cc1
REMARK SMILES IDX 20 1 19 2 17 3 18 4 13 6 14 7 12 8 10 9 11 10 9 12 5 13 6 14
REMARK SMILES IDX 7 15 8 16 4 17 3 20 2 21 1 22 15 23 16 24 21 25 22 26 23 27
REMARK SMILES IDX 24 28 25 29 26 31 27 32 28 33 89 34 29 35 88 36 30 37 31 38
REMARK SMILES IDX 32 39 82 40 33 41 87 42 81 43 83 44 34 45 86 46 80 47 79 48
REMARK SMILES IDX 35 50 67 51 47 52 66 53 48 54 51 55 65 56 84 57 49 58 50 59
REMARK SMILES IDX 64 61 85 62 52 63 36 64 37 65 45 66 38 67 44 68 46 69 43 70
REMARK SMILES IDX 39 71 40 72 41 73 42 74 68 75 69 76 77 77 70 78 76 79 78 80
REMARK SMILES IDX 75 81 71 82 72 83 73 84 74 85 53 86 54 87 62 88 55 89 61 90
REMARK SMILES IDX 63 91 60 92 56 93 57 94 58 95 59 96
REMARK H PARENT 19 5 12 11 4 18 4 19 24 30 83 49 51 60
REMARK Flexibility Score: inf
ROOT
ATOM      1  C   UNL A   1      31.153  28.047  24.224  1.00  0.00     0.116 C 
ENDROOT
BRANCH   1   2
ATOM      2  N   UNL A   1      30.801  27.015  25.172  1.00  0.00    -0.354 N 
ATOM      3  C   UNL A   1      31.562  26.034  25.713  1.00  0.00     0.245 C 
ATOM      4  O   UNL A   1      31.422  25.877  26.933  1.00  0.00    -0.272 OA
ATOM      5  H   UNL A   1      29.864  27.028  25.472  1.00  0.00     0.163 HD
BRANCH   3   6
ATOM      6  C   UNL A   1      32.633  25.211  24.950  1.00  0.00     0.116 C 
ATOM      7  C   UNL A   1      33.728  26.303  24.703  1.00  0.00     0.045 C 
BRANCH   6   8
ATOM      8  N   UNL A   1      33.281  24.200  25.848  1.00  0.00    -0.341 N 
ATOM      9  C   UNL A   1      34.359  23.393  25.899  1.00  0.00     0.232 C 
ATOM     10  O   UNL A   1      34.657  23.076  27.068  1.00  0.00    -0.274 OA
ATOM     11  H   UNL A   1      32.745  24.092  26.668  1.00  0.00     0.164 HD
BRANCH   9  12
ATOM     12  C   UNL A   1      35.215  22.767  24.790  1.00  0.00     0.164 C 
ATOM     13  C   UNL A   1      35.621  21.306  24.848  1.00  0.00     0.223 C 
ATOM     14  C   UNL A   1      37.072  21.379  25.312  1.00  0.00     0.225 C 
ATOM     15  O   UNL A   1      37.592  22.644  24.881  1.00  0.00    -0.374 OA
ATOM     16  C   UNL A   1      36.504  23.444  24.390  1.00  0.00     0.180 C 
BRANCH  13  17
ATOM     17  N   UNL A   1      34.689  20.436  25.554  1.00  0.00    -0.341 N 
ATOM     18  H   UNL A   1      35.197  19.952  26.294  1.00  0.00     0.346 HD
ATOM     19  H   UNL A   1      33.944  21.029  25.921  1.00  0.00     0.346 HD
BRANCH  17  20
ATOM     20  C   UNL A   1      34.058  19.438  24.697  1.00  0.00     0.260 C 
BRANCH  20  21
ATOM     21  C   UNL A   1      32.766  19.982  24.078  1.00  0.00     0.058 C 
ATOM     22  C   UNL A   1      31.991  20.910  25.003  1.00  0.00     0.010 C 
ENDBRANCH  20  21
ENDBRANCH  17  20
ENDBRANCH  13  17
ENDBRANCH   9  12
ENDBRANCH   6   8
BRANCH   6  23
ATOM     23  C   UNL A   1      32.378  24.616  23.541  1.00  0.00     0.035 C 
ATOM     24  C   UNL A   1      33.316  24.976  22.413  1.00  0.00     0.007 C 
ENDBRANCH   6  23
ENDBRANCH   3   6
ENDBRANCH   1   2
BRANCH   1  25
ATOM     25  C   UNL A   1      31.319  29.422  24.862  1.00  0.00     0.023 C 
BRANCH  25  26
ATOM     26  C   UNL A   1      31.777  29.427  26.325  1.00  0.00     0.023 C 
BRANCH  26  27
ATOM     27  C   UNL A   1      33.171  29.984  26.601  1.00  0.00     0.116 C 
BRANCH  27  28
ATOM     28  N   UNL A   1      33.163  31.356  27.078  1.00  0.00    -0.352 N 
ATOM     29  C   UNL A   1      34.075  32.027  27.857  1.00  0.00     0.251 C 
ATOM     30  H   UNL A   1      32.383  31.888  26.801  1.00  0.00     0.163 HD
ATOM     31  O   UNL A   1      33.834  33.180  28.197  1.00  0.00    -0.269 OA
BRANCH  29  32
ATOM     32  C   UNL A   1      35.309  31.353  28.326  1.00  0.00     0.039 A 
ATOM     33  C   UNL A   1      36.519  32.045  28.219  1.00  0.00     0.014 A 
ATOM     34  C   UNL A   1      35.290  30.062  28.860  1.00  0.00     0.014 A 
ATOM     35  C   UNL A   1      37.695  31.475  28.713  1.00  0.00     0.010 A 
ATOM     36  C   UNL A   1      36.452  29.519  29.408  1.00  0.00     0.010 A 
ATOM     37  C   UNL A   1      37.665  30.223  29.347  1.00  0.00    -0.014 A 
BRANCH  37  38
ATOM     38  C   UNL A   1      38.889  29.643  29.957  1.00  0.00     0.031 A 
ATOM     39  C   UNL A   1      39.384  30.143  31.285  1.00  0.00     0.074 A 
ATOM     40  C   UNL A   1      39.589  28.708  29.283  1.00  0.00     0.049 A 
ATOM     41  N   UNL A   1      40.467  29.817  31.943  1.00  0.00    -0.248 NA
ATOM     42  C   UNL A   1      38.563  31.167  31.948  1.00  0.00     0.031 C 
ATOM     43  C   UNL A   1      39.229  28.168  27.970  1.00  0.00     0.029 A 
ATOM     44  N   UNL A   1      40.751  28.053  29.602  1.00  0.00    -0.354 N 
ATOM     45  C   UNL A   1      40.467  30.603  33.090  1.00  0.00     0.074 A 
ATOM     46  C   UNL A   1      39.302  31.461  33.006  1.00  0.00     0.031 C 
ATOM     47  C   UNL A   1      40.141  27.252  27.606  1.00  0.00     0.029 A 
ATOM     48  C   UNL A   1      41.170  27.168  28.636  1.00  0.00     0.049 A 
ATOM     49  H   UNL A   1      41.239  28.202  30.445  1.00  0.00     0.167 HD
ATOM     50  C   UNL A   1      41.344  30.597  34.125  1.00  0.00     0.034 A 
ATOM     51  C   UNL A   1      42.267  26.386  28.581  1.00  0.00     0.034 A 
ATOM     52  C   UNL A   1      42.495  29.728  34.199  1.00  0.00     0.049 A 
ATOM     53  C   UNL A   1      43.240  26.412  29.731  1.00  0.00     0.074 A 
ATOM     54  C   UNL A   1      43.418  29.599  35.222  1.00  0.00     0.029 A 
ATOM     55  N   UNL A   1      42.889  28.845  33.200  1.00  0.00    -0.354 N 
ATOM     56  N   UNL A   1      43.200  27.127  30.831  1.00  0.00    -0.248 NA
ATOM     57  C   UNL A   1      44.400  25.516  29.636  1.00  0.00     0.031 C 
ATOM     58  C   UNL A   1      44.398  28.684  34.821  1.00  0.00     0.029 A 
ATOM     59  C   UNL A   1      44.054  28.190  33.573  1.00  0.00     0.049 A 
ATOM     60  H   UNL A   1      42.410  28.704  32.352  1.00  0.00     0.167 HD
ATOM     61  C   UNL A   1      44.315  26.746  31.572  1.00  0.00     0.074 A 
ATOM     62  C   UNL A   1      45.000  25.729  30.798  1.00  0.00     0.031 C 
ATOM     63  C   UNL A   1      44.732  27.189  32.785  1.00  0.00     0.034 A 
BRANCH  50  64
ATOM     64  C   UNL A   1      41.099  31.582  35.243  1.00  0.00     0.023 A 
ATOM     65  C   UNL A   1      40.017  31.437  36.131  1.00  0.00     0.031 A 
ATOM     66  C   UNL A   1      41.931  32.705  35.401  1.00  0.00     0.131 A 
ATOM     67  C   UNL A   1      39.745  32.438  37.075  1.00  0.00     0.055 A 
ATOM     68  C   UNL A   1      41.703  33.656  36.399  1.00  0.00     0.041 A 
ATOM     69  F   UNL A   1      42.968  32.908  34.574  1.00  0.00    -0.206 F 
ATOM     70  C   UNL A   1      40.595  33.534  37.232  1.00  0.00     0.022 A 
BRANCH  67  71
ATOM     71  S   UNL A   1      38.180  32.362  37.988  1.00  0.00     0.124 S 
ATOM     72  O   UNL A   1      38.647  32.345  39.373  1.00  0.00    -0.237 OA
ATOM     73  O   UNL A   1      37.502  33.579  37.556  1.00  0.00    -0.237 OA
ATOM     74  O   UNL A   1      37.575  31.114  37.527  1.00  0.00    -0.744 OA
ENDBRANCH  67  71
ENDBRANCH  50  64
BRANCH  51  75
ATOM     75  C   UNL A   1      42.514  25.517  27.396  1.00  0.00     0.023 A 
ATOM     76  C   UNL A   1      42.083  24.182  27.379  1.00  0.00     0.031 A 
ATOM     77  C   UNL A   1      43.219  25.999  26.279  1.00  0.00     0.131 A 
ATOM     78  C   UNL A   1      42.397  23.359  26.286  1.00  0.00     0.055 A 
ATOM     79  C   UNL A   1      43.488  25.191  25.174  1.00  0.00     0.041 A 
ATOM     80  F   UNL A   1      43.646  27.271  26.243  1.00  0.00    -0.206 F 
ATOM     81  C   UNL A   1      43.087  23.858  25.179  1.00  0.00     0.022 A 
BRANCH  78  82
ATOM     82  S   UNL A   1      41.951  21.603  26.365  1.00  0.00     0.124 S 
ATOM     83  O   UNL A   1      40.530  21.643  26.041  1.00  0.00    -0.237 OA
ATOM     84  O   UNL A   1      42.826  21.023  25.352  1.00  0.00    -0.237 OA
ATOM     85  O   UNL A   1      42.269  21.236  27.744  1.00  0.00    -0.744 OA
ENDBRANCH  78  82
ENDBRANCH  51  75
BRANCH  63  86
ATOM     86  C   UNL A   1      45.964  26.537  33.361  1.00  0.00     0.023 A 
ATOM     87  C   UNL A   1      45.890  25.348  34.109  1.00  0.00     0.031 A 
ATOM     88  C   UNL A   1      47.226  27.126  33.176  1.00  0.00     0.131 A 
ATOM     89  C   UNL A   1      47.053  24.816  34.689  1.00  0.00     0.055 A 
ATOM     90  C   UNL A   1      48.386  26.562  33.709  1.00  0.00     0.041 A 
ATOM     91  F   UNL A   1      47.353  28.263  32.472  1.00  0.00    -0.206 F 
ATOM     92  C   UNL A   1      48.302  25.407  34.480  1.00  0.00     0.022 A 
BRANCH  89  93
ATOM     93  S   UNL A   1      46.899  23.384  35.792  1.00  0.00     0.124 S 
ATOM     94  O   UNL A   1      45.832  22.620  35.152  1.00  0.00    -0.237 OA
ATOM     95  O   UNL A   1      48.233  22.794  35.727  1.00  0.00    -0.237 OA
ATOM     96  O   UNL A   1      46.549  23.979  37.080  1.00  0.00    -0.744 OA
ENDBRANCH  89  93
ENDBRANCH  63  86
ENDBRANCH  37  38
ENDBRANCH  29  32
ENDBRANCH  27  28
ENDBRANCH  26  27
ENDBRANCH  25  26
ENDBRANCH   1  25
TORSDOF 20
ENDMDL
MODEL 3
REMARK VINA RESULT:     -10.2      5.246      8.674
REMARK SMILES CCC[NH2+][C@@H]1COC[C@@H]1C(=O)N[C@@](C)(CC)C(=O)NCCCCNC(=O)c1ccc(-c2c3nc(c(-c4cc(S(=O)(=O)[O-])ccc4F)c4ccc([nH]4)c(-c4cc(S(=O)(=O)[O-])ccc4F)c4nc(c(-c5cc(S(=O)(=O)[O-])ccc5F)c5ccc2[nH]5)C=C4)C=C3)cc1
REMARK SMILES IDX 20 1 19 2 17 3 18 4 13 6 14 7 12 8 10 9 11 10 9 12 5 13 6 14
REMARK SMILES IDX 7 15 8 16 4 17 3 20 2 21 1 22 15 23 16 24 21 25 22 26 23 27
REMARK SMILES IDX 24 28 25 29 26 31 27 32 28 33 89 34 29 35 88 36 30 37 31 38
REMARK SMILES IDX 32 39 82 40 33 41 87 42 81 43 83 44 34 45 86 46 80 47 79 48
REMARK SMILES IDX 35 50 67 51 47 52 66 53 48 54 51 55 65 56 84 57 49 58 50 59
REMARK SMILES IDX 64 61 85 62 52 63 36 64 37 65 45 66 38 67 44 68 46 69 43 70
REMARK SMILES IDX 39 71 40 72 41 73 42 74 68 75 69 76 77 77 70 78 76 79 78 80
REMARK SMILES IDX 75 81 71 82 72 83 73 84 74 85 53 86 54 87 62 88 55 89 61 90
REMARK SMILES IDX 63 91 60 92 56 93 57 94 58 95 59 96
REMARK H PARENT 19 5 12 11 4 18 4 19 24 30 83 49 51 60
REMARK Flexibility Score: inf
ROOT
ATOM      1  C   UNL A   1      31.778  28.878  27.236  1.00  0.00     0.116 C 
ENDROOT
BRANCH   1   2
ATOM      2  N   UNL A   1      32.874  27.948  27.094  1.00  0.00    -0.354 N 
ATOM      3  C   UNL A   1      33.066  26.960  26.188  1.00  0.00     0.245 C 
ATOM      4  O   UNL A   1      34.206  26.907  25.707  1.00  0.00    -0.272 OA
ATOM      5  H   UNL A   1      33.594  28.049  27.759  1.00  0.00     0.163 HD
BRANCH   3   6
ATOM      6  C   UNL A   1      31.962  26.009  25.657  1.00  0.00     0.116 C 
ATOM      7  C   UNL A   1      32.235  26.066  24.116  1.00  0.00     0.045 C 
BRANCH   6   8
ATOM      8  N   UNL A   1      32.235  24.588  26.052  1.00  0.00    -0.341 N 
ATOM      9  C   UNL A   1      33.167  23.628  25.903  1.00  0.00     0.232 C 
ATOM     10  O   UNL A   1      33.104  22.764  26.801  1.00  0.00    -0.274 OA
ATOM     11  H   UNL A   1      31.488  24.246  26.597  1.00  0.00     0.164 HD
BRANCH   9  12
ATOM     12  C   UNL A   1      34.222  23.392  24.813  1.00  0.00     0.164 C 
ATOM     13  C   UNL A   1      34.506  21.996  24.291  1.00  0.00     0.223 C 
ATOM     14  C   UNL A   1      35.804  21.630  25.000  1.00  0.00     0.225 C 
ATOM     15  O   UNL A   1      36.494  22.856  25.281  1.00  0.00    -0.374 OA
ATOM     16  C   UNL A   1      35.610  23.953  25.003  1.00  0.00     0.180 C 
BRANCH  13  17
ATOM     17  N   UNL A   1      33.377  21.076  24.350  1.00  0.00    -0.341 N 
ATOM     18  H   UNL A   1      32.737  21.397  25.075  1.00  0.00     0.346 HD
ATOM     19  H   UNL A   1      32.944  21.072  23.426  1.00  0.00     0.346 HD
BRANCH  17  20
ATOM     20  C   UNL A   1      33.760  19.699  24.649  1.00  0.00     0.260 C 
BRANCH  20  21
ATOM     21  C   UNL A   1      32.526  18.830  24.913  1.00  0.00     0.058 C 
ATOM     22  C   UNL A   1      32.862  17.398  25.305  1.00  0.00     0.010 C 
ENDBRANCH  20  21
ENDBRANCH  17  20
ENDBRANCH  13  17
ENDBRANCH   9  12
ENDBRANCH   6   8
BRANCH   6  23
ATOM     23  C   UNL A   1      30.451  26.337  25.778  1.00  0.00     0.035 C 
ATOM     24  C   UNL A   1      29.581  26.247  24.546  1.00  0.00     0.007 C 
ENDBRANCH   6  23
ENDBRANCH   3   6
ENDBRANCH   1   2
BRANCH   1  25
ATOM     25  C   UNL A   1      31.671  29.866  26.079  1.00  0.00     0.023 C 
BRANCH  25  26
ATOM     26  C   UNL A   1      31.508  31.339  26.472  1.00  0.00     0.023 C 
BRANCH  26  27
ATOM     27  C   UNL A   1      32.752  32.045  27.003  1.00  0.00     0.116 C 
BRANCH  27  28
ATOM     28  N   UNL A   1      32.522  33.435  27.358  1.00  0.00    -0.352 N 
ATOM     29  C   UNL A   1      33.196  34.245  28.240  1.00  0.00     0.251 C 
ATOM     30  H   UNL A   1      31.768  33.863  26.894  1.00  0.00     0.163 HD
ATOM     31  O   UNL A   1      32.786  35.385  28.434  1.00  0.00    -0.269 OA
BRANCH  29  32
ATOM     32  C   UNL A   1      34.368  33.736  28.990  1.00  0.00     0.039 A 
ATOM     33  C   UNL A   1      34.154  32.754  29.962  1.00  0.00     0.014 A 
ATOM     34  C   UNL A   1      35.661  34.211  28.753  1.00  0.00     0.014 A 
ATOM     35  C   UNL A   1      35.239  32.196  30.642  1.00  0.00     0.010 A 
ATOM     36  C   UNL A   1      36.749  33.611  29.387  1.00  0.00     0.010 A 
ATOM     37  C   UNL A   1      36.550  32.593  30.333  1.00  0.00    -0.014 A 
BRANCH  37  38
ATOM     38  C   UNL A   1      37.719  31.947  30.983  1.00  0.00     0.031 A 
ATOM     39  C   UNL A   1      38.524  30.915  30.244  1.00  0.00     0.074 A 
ATOM     40  C   UNL A   1      38.019  32.248  32.263  1.00  0.00     0.049 A 
ATOM     41  N   UNL A   1      39.528  30.189  30.663  1.00  0.00    -0.248 NA
ATOM     42  C   UNL A   1      38.124  30.645  28.855  1.00  0.00     0.031 C 
ATOM     43  C   UNL A   1      37.291  33.208  33.097  1.00  0.00     0.029 A 
ATOM     44  N   UNL A   1      39.005  31.773  33.090  1.00  0.00    -0.354 N 
ATOM     45  C   UNL A   1      39.875  29.367  29.597  1.00  0.00     0.074 A 
ATOM     46  C   UNL A   1      38.933  29.647  28.532  1.00  0.00     0.031 C 
ATOM     47  C   UNL A   1      37.868  33.263  34.309  1.00  0.00     0.029 A 
ATOM     48  C   UNL A   1      38.977  32.316  34.353  1.00  0.00     0.049 A 
ATOM     49  H   UNL A   1      39.671  31.106  32.805  1.00  0.00     0.167 HD
ATOM     50  C   UNL A   1      40.894  28.475  29.507  1.00  0.00     0.034 A 
ATOM     51  C   UNL A   1      39.751  32.071  35.429  1.00  0.00     0.034 A 
ATOM     52  C   UNL A   1      41.830  28.214  30.573  1.00  0.00     0.049 A 
ATOM     53  C   UNL A   1      40.862  31.061  35.315  1.00  0.00     0.074 A 
ATOM     54  C   UNL A   1      42.930  27.374  30.573  1.00  0.00     0.029 A 
ATOM     55  N   UNL A   1      41.770  28.784  31.841  1.00  0.00    -0.354 N 
ATOM     56  N   UNL A   1      41.206  30.325  34.283  1.00  0.00    -0.248 NA
ATOM     57  C   UNL A   1      41.696  30.856  36.506  1.00  0.00     0.031 C 
ATOM     58  C   UNL A   1      43.499  27.391  31.852  1.00  0.00     0.029 A 
ATOM     59  C   UNL A   1      42.796  28.292  32.635  1.00  0.00     0.049 A 
ATOM     60  H   UNL A   1      41.097  29.440  32.132  1.00  0.00     0.167 HD
ATOM     61  C   UNL A   1      42.315  29.591  34.694  1.00  0.00     0.074 A 
ATOM     62  C   UNL A   1      42.588  29.983  36.063  1.00  0.00     0.031 C 
ATOM     63  C   UNL A   1      43.047  28.681  34.002  1.00  0.00     0.034 A 
BRANCH  50  64
ATOM     64  C   UNL A   1      41.022  27.702  28.216  1.00  0.00     0.023 A 
ATOM     65  C   UNL A   1      40.688  26.338  28.136  1.00  0.00     0.031 A 
ATOM     66  C   UNL A   1      41.523  28.323  27.058  1.00  0.00     0.131 A 
ATOM     67  C   UNL A   1      40.941  25.621  26.956  1.00  0.00     0.055 A 
ATOM     68  C   UNL A   1      41.693  27.623  25.861  1.00  0.00     0.041 A 
ATOM     69  F   UNL A   1      41.876  29.618  27.076  1.00  0.00    -0.206 F 
ATOM     70  C   UNL A   1      41.418  26.260  25.811  1.00  0.00     0.022 A 
BRANCH  67  71
ATOM     71  S   UNL A   1      40.782  23.815  26.992  1.00  0.00     0.124 S 
ATOM     72  O   UNL A   1      41.141  23.515  28.376  1.00  0.00    -0.237 OA
ATOM     73  O   UNL A   1      39.382  23.614  26.637  1.00  0.00    -0.237 OA
ATOM     74  O   UNL A   1      41.750  23.366  25.993  1.00  0.00    -0.744 OA
ENDBRANCH  67  71
ENDBRANCH  50  64
BRANCH  51  75
ATOM     75  C   UNL A   1      39.502  32.784  36.715  1.00  0.00     0.023 A 
ATOM     76  C   UNL A   1      38.577  32.288  37.646  1.00  0.00     0.031 A 
ATOM     77  C   UNL A   1      40.158  33.991  37.012  1.00  0.00     0.131 A 
ATOM     78  C   UNL A   1      38.301  33.017  38.813  1.00  0.00     0.055 A 
ATOM     79  C   UNL A   1      39.914  34.689  38.196  1.00  0.00     0.041 A 
ATOM     80  F   UNL A   1      41.057  34.504  36.157  1.00  0.00    -0.206 F 
ATOM     81  C   UNL A   1      38.970  34.209  39.099  1.00  0.00     0.022 A 
BRANCH  78  82
ATOM     82  S   UNL A   1      36.995  32.419  39.920  1.00  0.00     0.124 S 
ATOM     83  O   UNL A   1      35.850  32.351  39.020  1.00  0.00    -0.237 OA
ATOM     84  O   UNL A   1      37.539  31.142  40.368  1.00  0.00    -0.237 OA
ATOM     85  O   UNL A   1      36.921  33.456  40.948  1.00  0.00    -0.744 OA
ENDBRANCH  78  82
ENDBRANCH  51  75
BRANCH  63  86
ATOM     86  C   UNL A   1      44.239  28.087  34.709  1.00  0.00     0.023 A 
ATOM     87  C   UNL A   1      44.140  26.900  35.457  1.00  0.00     0.031 A 
ATOM     88  C   UNL A   1      45.487  28.731  34.649  1.00  0.00     0.131 A 
ATOM     89  C   UNL A   1      45.257  26.423  36.160  1.00  0.00     0.055 A 
ATOM     90  C   UNL A   1      46.608  28.221  35.306  1.00  0.00     0.041 A 
ATOM     91  F   UNL A   1      45.637  29.868  33.951  1.00  0.00    -0.206 F 
ATOM     92  C   UNL A   1      46.494  27.068  36.076  1.00  0.00     0.022 A 
BRANCH  89  93
ATOM     93  S   UNL A   1      45.052  24.992  37.255  1.00  0.00     0.124 S 
ATOM     94  O   UNL A   1      44.083  25.489  38.227  1.00  0.00    -0.237 OA
ATOM     95  O   UNL A   1      44.566  23.964  36.340  1.00  0.00    -0.237 OA
ATOM     96  O   UNL A   1      46.397  24.765  37.780  1.00  0.00    -0.744 OA
ENDBRANCH  89  93
ENDBRANCH  63  86
ENDBRANCH  37  38
ENDBRANCH  29  32
ENDBRANCH  27  28
ENDBRANCH  26  27
ENDBRANCH  25  26
ENDBRANCH   1  25
TORSDOF 20
ENDMDL
