MODEL 1
REMARK VINA RESULT:     -11.9      0.000      0.000
REMARK SMILES C[NH2+][C@]1(C(=O)NCCCCNC(=O)c2ccc(-c3c4nc(c(-c5cc(S(=O)(=O)[O-])ccc5F)c5ccc([nH]5)c(-c5cc(S(=O)(=O)[O-])ccc5F)c5nc(c(-c6cc(S(=O)(=O)[O-])ccc6F)c6ccc3[nH]6)C=C5)C=C4)cc2)CCC[C@@H]([N@H+]2CC[C@@H](C)C2)C1
REMARK SMILES IDX 9 1 8 2 7 3 6 4 4 5 5 6 3 8 77 9 87 10 78 11 80 12 79 13
REMARK SMILES IDX 2 14 1 15 81 18 82 19 86 20 83 22 84 23 85 24 10 25 11 26
REMARK SMILES IDX 12 27 13 29 14 30 15 31 76 32 16 33 75 34 17 35 18 36 19 37
REMARK SMILES IDX 69 38 20 39 74 40 68 41 70 42 21 43 73 44 67 45 66 46 22 48
REMARK SMILES IDX 54 49 34 50 53 51 35 52 38 53 52 54 71 55 36 56 37 57 51 59
REMARK SMILES IDX 72 60 39 61 23 62 24 63 32 64 25 65 31 66 33 67 30 68 26 69
REMARK SMILES IDX 27 70 28 71 29 72 55 73 56 74 64 75 57 76 63 77 65 78 62 79
REMARK SMILES IDX 58 80 59 81 60 82 61 83 40 84 41 85 49 86 42 87 48 88 50 89
REMARK SMILES IDX 47 90 43 91 44 92 45 93 46 94
REMARK H PARENT 6 7 2 16 2 17 81 21 11 28 70 47 38 58
REMARK Flexibility Score: inf
ROOT
ATOM      1  C   UNL A   1      38.216  20.249  25.151  1.00  0.00     0.023 C 
ENDROOT
BRANCH   1   2
ATOM      2  C   UNL A   1      37.503  21.531  24.726  1.00  0.00     0.023 C 
BRANCH   2   3
ATOM      3  C   UNL A   1      35.984  21.463  24.782  1.00  0.00     0.116 C 
BRANCH   3   4
ATOM      4  N   UNL A   1      35.446  21.796  26.095  1.00  0.00    -0.351 N 
ATOM      5  C   UNL A   1      34.172  21.786  26.604  1.00  0.00     0.281 C 
ATOM      6  O   UNL A   1      34.101  21.954  27.825  1.00  0.00    -0.268 OA
ATOM      7  H   UNL A   1      36.130  22.083  26.743  1.00  0.00     0.163 HD
BRANCH   5   8
ATOM      8  C   UNL A   1      32.917  21.529  25.686  1.00  0.00     0.181 C 
ATOM      9  C   UNL A   1      33.022  22.330  24.370  1.00  0.00     0.079 C 
ATOM     10  C   UNL A   1      32.873  20.001  25.473  1.00  0.00     0.144 C 
ATOM     11  C   UNL A   1      32.121  21.797  23.256  1.00  0.00     0.013 C 
ATOM     12  C   UNL A   1      32.077  19.469  24.280  1.00  0.00     0.190 C 
ATOM     13  C   UNL A   1      32.335  20.304  23.011  1.00  0.00     0.065 C 
BRANCH   8  14
ATOM     14  N   UNL A   1      31.589  21.873  26.297  1.00  0.00    -0.336 N 
ATOM     15  C   UNL A   1      31.262  23.288  26.409  1.00  0.00     0.331 C 
ATOM     16  H   UNL A   1      30.864  21.433  25.729  1.00  0.00     0.346 HD
ATOM     17  H   UNL A   1      31.643  21.536  27.258  1.00  0.00     0.346 HD
ENDBRANCH   8  14
BRANCH  12  18
ATOM     18  N   UNL A   1      32.313  18.023  24.054  1.00  0.00    -0.332 N 
ATOM     19  C   UNL A   1      32.926  17.651  22.773  1.00  0.00     0.262 C 
ATOM     20  C   UNL A   1      33.058  17.345  25.126  1.00  0.00     0.265 C 
ATOM     21  H   UNL A   1      31.348  17.693  24.044  1.00  0.00     0.348 HD
ATOM     22  C   UNL A   1      34.012  16.622  23.068  1.00  0.00     0.070 C 
ATOM     23  C   UNL A   1      34.370  16.828  24.533  1.00  0.00     0.047 C 
ATOM     24  C   UNL A   1      35.572  17.758  24.708  1.00  0.00     0.014 C 
ENDBRANCH  12  18
ENDBRANCH   5   8
ENDBRANCH   3   4
ENDBRANCH   2   3
ENDBRANCH   1   2
BRANCH   1  25
ATOM     25  C   UNL A   1      39.393  20.442  26.104  1.00  0.00     0.116 C 
BRANCH  25  26
ATOM     26  N   UNL A   1      40.347  19.345  26.055  1.00  0.00    -0.352 N 
ATOM     27  C   UNL A   1      41.723  19.377  26.110  1.00  0.00     0.251 C 
ATOM     28  H   UNL A   1      39.950  18.448  25.972  1.00  0.00     0.163 HD
ATOM     29  O   UNL A   1      42.361  18.358  25.892  1.00  0.00    -0.269 OA
BRANCH  27  30
ATOM     30  C   UNL A   1      42.416  20.654  26.395  1.00  0.00     0.039 A 
ATOM     31  C   UNL A   1      42.809  21.463  25.327  1.00  0.00     0.014 A 
ATOM     32  C   UNL A   1      42.656  21.062  27.709  1.00  0.00     0.014 A 
ATOM     33  C   UNL A   1      43.366  22.721  25.580  1.00  0.00     0.010 A 
ATOM     34  C   UNL A   1      43.132  22.347  27.959  1.00  0.00     0.010 A 
ATOM     35  C   UNL A   1      43.488  23.193  26.897  1.00  0.00    -0.014 A 
BRANCH  35  36
ATOM     36  C   UNL A   1      43.981  24.567  27.184  1.00  0.00     0.031 A 
ATOM     37  C   UNL A   1      43.036  25.615  27.709  1.00  0.00     0.074 A 
ATOM     38  C   UNL A   1      45.262  24.889  26.913  1.00  0.00     0.049 A 
ATOM     39  N   UNL A   1      43.254  26.885  27.942  1.00  0.00    -0.248 NA
ATOM     40  C   UNL A   1      41.657  25.183  27.979  1.00  0.00     0.031 C 
ATOM     41  C   UNL A   1      46.267  23.973  26.365  1.00  0.00     0.029 A 
ATOM     42  N   UNL A   1      45.940  26.076  27.050  1.00  0.00    -0.354 N 
ATOM     43  C   UNL A   1      42.038  27.405  28.374  1.00  0.00     0.074 A 
ATOM     44  C   UNL A   1      41.074  26.326  28.305  1.00  0.00     0.031 C 
ATOM     45  C   UNL A   1      47.435  24.622  26.244  1.00  0.00     0.029 A 
ATOM     46  C   UNL A   1      47.256  26.011  26.651  1.00  0.00     0.049 A 
ATOM     47  H   UNL A   1      45.524  26.895  27.401  1.00  0.00     0.167 HD
ATOM     48  C   UNL A   1      41.756  28.658  28.811  1.00  0.00     0.034 A 
ATOM     49  C   UNL A   1      48.208  26.966  26.604  1.00  0.00     0.034 A 
ATOM     50  C   UNL A   1      42.731  29.720  28.882  1.00  0.00     0.049 A 
ATOM     51  C   UNL A   1      47.861  28.363  27.058  1.00  0.00     0.074 A 
ATOM     52  C   UNL A   1      42.564  31.010  29.354  1.00  0.00     0.029 A 
ATOM     53  N   UNL A   1      44.051  29.620  28.461  1.00  0.00    -0.354 N 
ATOM     54  N   UNL A   1      46.717  28.825  27.509  1.00  0.00    -0.248 NA
ATOM     55  C   UNL A   1      48.936  29.361  27.009  1.00  0.00     0.031 C 
ATOM     56  C   UNL A   1      43.759  31.710  29.152  1.00  0.00     0.029 A 
ATOM     57  C   UNL A   1      44.699  30.834  28.632  1.00  0.00     0.049 A 
ATOM     58  H   UNL A   1      44.466  28.806  28.096  1.00  0.00     0.167 HD
ATOM     59  C   UNL A   1      46.949  30.161  27.828  1.00  0.00     0.074 A 
ATOM     60  C   UNL A   1      48.341  30.423  27.533  1.00  0.00     0.031 C 
ATOM     61  C   UNL A   1      46.088  31.086  28.326  1.00  0.00     0.034 A 
BRANCH  48  62
ATOM     62  C   UNL A   1      40.331  28.947  29.222  1.00  0.00     0.023 A 
ATOM     63  C   UNL A   1      39.926  28.903  30.568  1.00  0.00     0.031 A 
ATOM     64  C   UNL A   1      39.356  29.248  28.254  1.00  0.00     0.131 A 
ATOM     65  C   UNL A   1      38.575  29.075  30.900  1.00  0.00     0.055 A 
ATOM     66  C   UNL A   1      38.028  29.506  28.600  1.00  0.00     0.041 A 
ATOM     67  F   UNL A   1      39.675  29.284  26.950  1.00  0.00    -0.206 F 
ATOM     68  C   UNL A   1      37.627  29.404  29.930  1.00  0.00     0.022 A 
BRANCH  65  69
ATOM     69  S   UNL A   1      38.049  28.715  32.598  1.00  0.00     0.124 S 
ATOM     70  O   UNL A   1      39.044  29.449  33.376  1.00  0.00    -0.237 OA
ATOM     71  O   UNL A   1      36.693  29.250  32.630  1.00  0.00    -0.237 OA
ATOM     72  O   UNL A   1      38.149  27.260  32.688  1.00  0.00    -0.744 OA
ENDBRANCH  65  69
ENDBRANCH  48  62
BRANCH  49  73
ATOM     73  C   UNL A   1      49.576  26.650  26.100  1.00  0.00     0.023 A 
ATOM     74  C   UNL A   1      49.998  27.088  24.833  1.00  0.00     0.031 A 
ATOM     75  C   UNL A   1      50.466  25.865  26.854  1.00  0.00     0.131 A 
ATOM     76  C   UNL A   1      51.251  26.695  24.339  1.00  0.00     0.055 A 
ATOM     77  C   UNL A   1      51.735  25.526  26.382  1.00  0.00     0.041 A 
ATOM     78  F   UNL A   1      50.115  25.423  28.073  1.00  0.00    -0.206 F 
ATOM     79  C   UNL A   1      52.129  25.929  25.110  1.00  0.00     0.022 A 
BRANCH  76  80
ATOM     80  S   UNL A   1      51.682  27.120  22.629  1.00  0.00     0.124 S 
ATOM     81  O   UNL A   1      52.815  26.236  22.380  1.00  0.00    -0.237 OA
ATOM     82  O   UNL A   1      50.449  26.801  21.917  1.00  0.00    -0.237 OA
ATOM     83  O   UNL A   1      52.005  28.543  22.703  1.00  0.00    -0.744 OA
ENDBRANCH  76  80
ENDBRANCH  49  73
BRANCH  61  84
ATOM     84  C   UNL A   1      46.649  32.455  28.630  1.00  0.00     0.023 A 
ATOM     85  C   UNL A   1      46.748  33.453  27.645  1.00  0.00     0.031 A 
ATOM     86  C   UNL A   1      47.101  32.759  29.927  1.00  0.00     0.131 A 
ATOM     87  C   UNL A   1      47.338  34.688  27.958  1.00  0.00     0.055 A 
ATOM     88  C   UNL A   1      47.627  34.011  30.249  1.00  0.00     0.041 A 
ATOM     89  F   UNL A   1      47.036  31.842  30.906  1.00  0.00    -0.206 F 
ATOM     90  C   UNL A   1      47.760  34.980  29.258  1.00  0.00     0.022 A 
BRANCH  87  91
ATOM     91  S   UNL A   1      47.636  35.876  26.621  1.00  0.00     0.124 S 
ATOM     92  O   UNL A   1      49.019  36.272  26.867  1.00  0.00    -0.237 OA
ATOM     93  O   UNL A   1      47.407  35.067  25.428  1.00  0.00    -0.237 OA
ATOM     94  O   UNL A   1      46.640  36.919  26.860  1.00  0.00    -0.744 OA
ENDBRANCH  87  91
ENDBRANCH  61  84
ENDBRANCH  35  36
ENDBRANCH  27  30
ENDBRANCH  25  26
ENDBRANCH   1  25
TORSDOF 16
ENDMDL
MODEL 2
REMARK VINA RESULT:     -11.8      5.865     10.800
REMARK SMILES C[NH2+][C@]1(C(=O)NCCCCNC(=O)c2ccc(-c3c4nc(c(-c5cc(S(=O)(=O)[O-])ccc5F)c5ccc([nH]5)c(-c5cc(S(=O)(=O)[O-])ccc5F)c5nc(c(-c6cc(S(=O)(=O)[O-])ccc6F)c6ccc3[nH]6)C=C5)C=C4)cc2)CCC[C@@H]([N@H+]2CC[C@@H](C)C2)C1
REMARK SMILES IDX 9 1 8 2 7 3 6 4 4 5 5 6 3 8 77 9 87 10 78 11 80 12 79 13
REMARK SMILES IDX 2 14 1 15 81 18 82 19 86 20 83 22 84 23 85 24 10 25 11 26
REMARK SMILES IDX 12 27 13 29 14 30 15 31 76 32 16 33 75 34 17 35 18 36 19 37
REMARK SMILES IDX 69 38 20 39 74 40 68 41 70 42 21 43 73 44 67 45 66 46 22 48
REMARK SMILES IDX 54 49 34 50 53 51 35 52 38 53 52 54 71 55 36 56 37 57 51 59
REMARK SMILES IDX 72 60 39 61 23 62 24 63 32 64 25 65 31 66 33 67 30 68 26 69
REMARK SMILES IDX 27 70 28 71 29 72 55 73 56 74 64 75 57 76 63 77 65 78 62 79
REMARK SMILES IDX 58 80 59 81 60 82 61 83 40 84 41 85 49 86 42 87 48 88 50 89
REMARK SMILES IDX 47 90 43 91 44 92 45 93 46 94
REMARK H PARENT 6 7 2 16 2 17 81 21 11 28 70 47 38 58
REMARK Flexibility Score: inf
ROOT
ATOM      1  C   UNL A   1      31.633  28.506  25.945  1.00  0.00     0.023 C 
ENDROOT
BRANCH   1   2
ATOM      2  C   UNL A   1      32.000  27.357  26.882  1.00  0.00     0.023 C 
BRANCH   2   3
ATOM      3  C   UNL A   1      32.459  26.085  26.182  1.00  0.00     0.116 C 
BRANCH   3   4
ATOM      4  N   UNL A   1      31.780  24.890  26.669  1.00  0.00    -0.351 N 
ATOM      5  C   UNL A   1      32.005  23.552  26.468  1.00  0.00     0.281 C 
ATOM      6  O   UNL A   1      31.341  22.802  27.190  1.00  0.00    -0.268 OA
ATOM      7  H   UNL A   1      31.013  25.080  27.256  1.00  0.00     0.163 HD
BRANCH   5   8
ATOM      8  C   UNL A   1      33.070  23.039  25.426  1.00  0.00     0.181 C 
ATOM      9  C   UNL A   1      34.467  23.622  25.732  1.00  0.00     0.079 C 
ATOM     10  C   UNL A   1      33.015  21.499  25.510  1.00  0.00     0.144 C 
ATOM     11  C   UNL A   1      35.611  22.838  25.090  1.00  0.00     0.013 C 
ATOM     12  C   UNL A   1      34.218  20.712  24.985  1.00  0.00     0.190 C 
ATOM     13  C   UNL A   1      35.548  21.349  25.431  1.00  0.00     0.065 C 
BRANCH   8  14
ATOM     14  N   UNL A   1      32.773  23.359  23.989  1.00  0.00    -0.336 N 
ATOM     15  C   UNL A   1      31.381  23.274  23.570  1.00  0.00     0.331 C 
ATOM     16  H   UNL A   1      33.091  24.313  23.813  1.00  0.00     0.346 HD
ATOM     17  H   UNL A   1      33.257  22.640  23.451  1.00  0.00     0.346 HD
ENDBRANCH   8  14
BRANCH  12  18
ATOM     18  N   UNL A   1      34.140  19.275  25.341  1.00  0.00    -0.332 N 
ATOM     19  C   UNL A   1      32.863  18.806  25.895  1.00  0.00     0.262 C 
ATOM     20  C   UNL A   1      34.535  18.351  24.268  1.00  0.00     0.265 C 
ATOM     21  H   UNL A   1      34.832  19.248  26.090  1.00  0.00     0.348 HD
ATOM     22  C   UNL A   1      32.526  17.486  25.209  1.00  0.00     0.070 C 
ATOM     23  C   UNL A   1      33.316  17.499  23.908  1.00  0.00     0.047 C 
ATOM     24  C   UNL A   1      32.485  18.018  22.734  1.00  0.00     0.014 C 
ENDBRANCH  12  18
ENDBRANCH   5   8
ENDBRANCH   3   4
ENDBRANCH   2   3
ENDBRANCH   1   2
BRANCH   1  25
ATOM     25  C   UNL A   1      32.749  29.513  25.680  1.00  0.00     0.116 C 
BRANCH  25  26
ATOM     26  N   UNL A   1      32.403  30.863  26.098  1.00  0.00    -0.352 N 
ATOM     27  C   UNL A   1      33.016  31.679  27.024  1.00  0.00     0.251 C 
ATOM     28  H   UNL A   1      31.616  31.251  25.652  1.00  0.00     0.163 HD
ATOM     29  O   UNL A   1      32.481  32.726  27.357  1.00  0.00    -0.269 OA
BRANCH  27  30
ATOM     30  C   UNL A   1      34.297  31.259  27.636  1.00  0.00     0.039 A 
ATOM     31  C   UNL A   1      35.295  32.214  27.838  1.00  0.00     0.014 A 
ATOM     32  C   UNL A   1      34.504  29.935  28.031  1.00  0.00     0.014 A 
ATOM     33  C   UNL A   1      36.468  31.859  28.512  1.00  0.00     0.010 A 
ATOM     34  C   UNL A   1      35.633  29.603  28.775  1.00  0.00     0.010 A 
ATOM     35  C   UNL A   1      36.626  30.562  29.028  1.00  0.00    -0.014 A 
BRANCH  35  36
ATOM     36  C   UNL A   1      37.819  30.192  29.837  1.00  0.00     0.031 A 
ATOM     37  C   UNL A   1      38.849  29.248  29.277  1.00  0.00     0.074 A 
ATOM     38  C   UNL A   1      37.942  30.652  31.099  1.00  0.00     0.049 A 
ATOM     39  N   UNL A   1      39.909  28.741  29.853  1.00  0.00    -0.248 NA
ATOM     40  C   UNL A   1      38.641  28.792  27.895  1.00  0.00     0.031 C 
ATOM     41  C   UNL A   1      36.991  31.542  31.771  1.00  0.00     0.029 A 
ATOM     42  N   UNL A   1      38.911  30.431  32.047  1.00  0.00    -0.354 N 
ATOM     43  C   UNL A   1      40.488  27.899  28.909  1.00  0.00     0.074 A 
ATOM     44  C   UNL A   1      39.621  27.913  27.749  1.00  0.00     0.031 C 
ATOM     45  C   UNL A   1      37.439  31.815  33.006  1.00  0.00     0.029 A 
ATOM     46  C   UNL A   1      38.678  31.080  33.239  1.00  0.00     0.049 A 
ATOM     47  H   UNL A   1      39.698  29.863  31.890  1.00  0.00     0.167 HD
ATOM     48  C   UNL A   1      41.646  27.197  28.992  1.00  0.00     0.034 A 
ATOM     49  C   UNL A   1      39.375  31.072  34.394  1.00  0.00     0.034 A 
ATOM     50  C   UNL A   1      42.504  27.201  30.153  1.00  0.00     0.049 A 
ATOM     51  C   UNL A   1      40.640  30.255  34.476  1.00  0.00     0.074 A 
ATOM     52  C   UNL A   1      43.722  26.567  30.324  1.00  0.00     0.029 A 
ATOM     53  N   UNL A   1      42.232  27.862  31.343  1.00  0.00    -0.354 N 
ATOM     54  N   UNL A   1      41.197  29.500  33.556  1.00  0.00    -0.248 NA
ATOM     55  C   UNL A   1      41.374  30.296  35.746  1.00  0.00     0.031 C 
ATOM     56  C   UNL A   1      44.149  26.783  31.639  1.00  0.00     0.029 A 
ATOM     57  C   UNL A   1      43.242  27.623  32.264  1.00  0.00     0.049 A 
ATOM     58  H   UNL A   1      41.438  28.420  31.510  1.00  0.00     0.167 HD
ATOM     59  C   UNL A   1      42.367  29.006  34.130  1.00  0.00     0.074 A 
ATOM     60  C   UNL A   1      42.440  29.560  35.465  1.00  0.00     0.031 C 
ATOM     61  C   UNL A   1      43.299  28.175  33.597  1.00  0.00     0.034 A 
BRANCH  48  62
ATOM     62  C   UNL A   1      42.035  26.354  27.801  1.00  0.00     0.023 A 
ATOM     63  C   UNL A   1      41.648  25.006  27.691  1.00  0.00     0.031 A 
ATOM     64  C   UNL A   1      42.823  26.895  26.769  1.00  0.00     0.131 A 
ATOM     65  C   UNL A   1      42.114  24.227  26.622  1.00  0.00     0.055 A 
ATOM     66  C   UNL A   1      43.210  26.137  25.662  1.00  0.00     0.041 A 
ATOM     67  F   UNL A   1      43.243  28.169  26.826  1.00  0.00    -0.206 F 
ATOM     68  C   UNL A   1      42.869  24.789  25.591  1.00  0.00     0.022 A 
BRANCH  65  69
ATOM     69  S   UNL A   1      41.844  22.434  26.676  1.00  0.00     0.124 S 
ATOM     70  O   UNL A   1      42.674  22.046  27.815  1.00  0.00    -0.237 OA
ATOM     71  O   UNL A   1      40.402  22.337  26.874  1.00  0.00    -0.237 OA
ATOM     72  O   UNL A   1      42.329  21.974  25.377  1.00  0.00    -0.744 OA
ENDBRANCH  65  69
ENDBRANCH  48  62
BRANCH  49  73
ATOM     73  C   UNL A   1      38.897  31.850  35.574  1.00  0.00     0.023 A 
ATOM     74  C   UNL A   1      38.313  31.204  36.676  1.00  0.00     0.031 A 
ATOM     75  C   UNL A   1      38.970  33.255  35.598  1.00  0.00     0.131 A 
ATOM     76  C   UNL A   1      37.780  31.963  37.731  1.00  0.00     0.055 A 
ATOM     77  C   UNL A   1      38.492  34.001  36.676  1.00  0.00     0.041 A 
ATOM     78  F   UNL A   1      39.522  33.923  34.572  1.00  0.00    -0.206 F 
ATOM     79  C   UNL A   1      37.879  33.356  37.745  1.00  0.00     0.022 A 
BRANCH  76  80
ATOM     80  S   UNL A   1      36.869  31.104  39.043  1.00  0.00     0.124 S 
ATOM     81  O   UNL A   1      37.795  31.210  40.165  1.00  0.00    -0.237 OA
ATOM     82  O   UNL A   1      35.651  31.903  39.138  1.00  0.00    -0.237 OA
ATOM     83  O   UNL A   1      36.688  29.757  38.507  1.00  0.00    -0.744 OA
ENDBRANCH  76  80
ENDBRANCH  49  73
BRANCH  61  84
ATOM     84  C   UNL A   1      44.505  27.857  34.450  1.00  0.00     0.023 A 
ATOM     85  C   UNL A   1      44.537  26.744  35.307  1.00  0.00     0.031 A 
ATOM     86  C   UNL A   1      45.637  28.691  34.407  1.00  0.00     0.131 A 
ATOM     87  C   UNL A   1      45.654  26.528  36.131  1.00  0.00     0.055 A 
ATOM     88  C   UNL A   1      46.771  28.434  35.179  1.00  0.00     0.041 A 
ATOM     89  F   UNL A   1      45.661  29.772  33.610  1.00  0.00    -0.206 F 
ATOM     90  C   UNL A   1      46.778  27.354  36.057  1.00  0.00     0.022 A 
BRANCH  87  91
ATOM     91  S   UNL A   1      45.580  25.205  37.369  1.00  0.00     0.124 S 
ATOM     92  O   UNL A   1      44.551  24.330  36.818  1.00  0.00    -0.237 OA
ATOM     93  O   UNL A   1      46.942  24.681  37.348  1.00  0.00    -0.237 OA
ATOM     94  O   UNL A   1      45.206  25.905  38.597  1.00  0.00    -0.744 OA
ENDBRANCH  87  91
ENDBRANCH  61  84
ENDBRANCH  35  36
ENDBRANCH  27  30
ENDBRANCH  25  26
ENDBRANCH   1  25
TORSDOF 16
ENDMDL
MODEL 3
REMARK VINA RESULT:     -11.6      0.485      7.854
REMARK SMILES C[NH2+][C@]1(C(=O)NCCCCNC(=O)c2ccc(-c3c4nc(c(-c5cc(S(=O)(=O)[O-])ccc5F)c5ccc([nH]5)c(-c5cc(S(=O)(=O)[O-])ccc5F)c5nc(c(-c6cc(S(=O)(=O)[O-])ccc6F)c6ccc3[nH]6)C=C5)C=C4)cc2)CCC[C@@H]([N@H+]2CC[C@@H](C)C2)C1
REMARK SMILES IDX 9 1 8 2 7 3 6 4 4 5 5 6 3 8 77 9 87 10 78 11 80 12 79 13
REMARK SMILES IDX 2 14 1 15 81 18 82 19 86 20 83 22 84 23 85 24 10 25 11 26
REMARK SMILES IDX 12 27 13 29 14 30 15 31 76 32 16 33 75 34 17 35 18 36 19 37
REMARK SMILES IDX 69 38 20 39 74 40 68 41 70 42 21 43 73 44 67 45 66 46 22 48
REMARK SMILES IDX 54 49 34 50 53 51 35 52 38 53 52 54 71 55 36 56 37 57 51 59
REMARK SMILES IDX 72 60 39 61 23 62 24 63 32 64 25 65 31 66 33 67 30 68 26 69
REMARK SMILES IDX 27 70 28 71 29 72 55 73 56 74 64 75 57 76 63 77 65 78 62 79
REMARK SMILES IDX 58 80 59 81 60 82 61 83 40 84 41 85 49 86 42 87 48 88 50 89
REMARK SMILES IDX 47 90 43 91 44 92 45 93 46 94
REMARK H PARENT 6 7 2 16 2 17 81 21 11 28 70 47 38 58
REMARK Flexibility Score: inf
ROOT
ATOM      1  C   UNL A   1      38.498  19.912  25.049  1.00  0.00     0.023 C 
ENDROOT
BRANCH   1   2
ATOM      2  C   UNL A   1      37.495  21.057  24.927  1.00  0.00     0.023 C 
BRANCH   2   3
ATOM      3  C   UNL A   1      36.052  20.674  25.223  1.00  0.00     0.116 C 
BRANCH   3   4
ATOM      4  N   UNL A   1      35.504  21.368  26.382  1.00  0.00    -0.351 N 
ATOM      5  C   UNL A   1      34.224  21.714  26.734  1.00  0.00     0.281 C 
ATOM      6  O   UNL A   1      34.102  22.138  27.887  1.00  0.00    -0.268 OA
ATOM      7  H   UNL A   1      36.184  21.640  27.040  1.00  0.00     0.163 HD
BRANCH   5   8
ATOM      8  C   UNL A   1      33.015  21.528  25.741  1.00  0.00     0.181 C 
ATOM      9  C   UNL A   1      33.255  22.301  24.427  1.00  0.00     0.079 C 
ATOM     10  C   UNL A   1      32.881  20.003  25.541  1.00  0.00     0.144 C 
ATOM     11  C   UNL A   1      32.391  21.814  23.263  1.00  0.00     0.013 C 
ATOM     12  C   UNL A   1      32.126  19.509  24.305  1.00  0.00     0.190 C 
ATOM     13  C   UNL A   1      32.519  20.307  23.047  1.00  0.00     0.065 C 
BRANCH   8  14
ATOM     14  N   UNL A   1      31.677  21.968  26.264  1.00  0.00    -0.336 N 
ATOM     15  C   UNL A   1      31.396  23.397  26.231  1.00  0.00     0.331 C 
ATOM     16  H   UNL A   1      30.959  21.499  25.710  1.00  0.00     0.346 HD
ATOM     17  H   UNL A   1      31.683  21.721  27.254  1.00  0.00     0.346 HD
ENDBRANCH   8  14
BRANCH  12  18
ATOM     18  N   UNL A   1      32.278  18.047  24.109  1.00  0.00    -0.332 N 
ATOM     19  C   UNL A   1      32.847  17.614  22.827  1.00  0.00     0.262 C 
ATOM     20  C   UNL A   1      33.002  17.353  25.184  1.00  0.00     0.265 C 
ATOM     21  H   UNL A   1      31.296  17.771  24.123  1.00  0.00     0.348 HD
ATOM     22  C   UNL A   1      33.879  16.532  23.128  1.00  0.00     0.070 C 
ATOM     23  C   UNL A   1      34.273  16.750  24.582  1.00  0.00     0.047 C 
ATOM     24  C   UNL A   1      35.528  17.615  24.716  1.00  0.00     0.014 C 
ENDBRANCH  12  18
ENDBRANCH   5   8
ENDBRANCH   3   4
ENDBRANCH   2   3
ENDBRANCH   1   2
BRANCH   1  25
ATOM     25  C   UNL A   1      39.627  20.137  26.052  1.00  0.00     0.116 C 
BRANCH  25  26
ATOM     26  N   UNL A   1      40.675  19.133  25.959  1.00  0.00    -0.352 N 
ATOM     27  C   UNL A   1      42.044  19.289  25.980  1.00  0.00     0.251 C 
ATOM     28  H   UNL A   1      40.360  18.204  25.869  1.00  0.00     0.163 HD
ATOM     29  O   UNL A   1      42.766  18.337  25.728  1.00  0.00    -0.269 OA
BRANCH  27  30
ATOM     30  C   UNL A   1      42.625  20.620  26.272  1.00  0.00     0.039 A 
ATOM     31  C   UNL A   1      43.080  21.406  25.211  1.00  0.00     0.014 A 
ATOM     32  C   UNL A   1      42.698  21.100  27.581  1.00  0.00     0.014 A 
ATOM     33  C   UNL A   1      43.530  22.707  25.456  1.00  0.00     0.010 A 
ATOM     34  C   UNL A   1      43.067  22.422  27.814  1.00  0.00     0.010 A 
ATOM     35  C   UNL A   1      43.483  23.243  26.754  1.00  0.00    -0.014 A 
BRANCH  35  36
ATOM     36  C   UNL A   1      43.860  24.657  27.022  1.00  0.00     0.031 A 
ATOM     37  C   UNL A   1      45.288  25.102  26.858  1.00  0.00     0.074 A 
ATOM     38  C   UNL A   1      42.930  25.524  27.473  1.00  0.00     0.049 A 
ATOM     39  N   UNL A   1      45.829  26.265  27.121  1.00  0.00    -0.248 NA
ATOM     40  C   UNL A   1      46.239  24.097  26.363  1.00  0.00     0.031 C 
ATOM     41  C   UNL A   1      41.519  25.204  27.709  1.00  0.00     0.029 A 
ATOM     42  N   UNL A   1      43.029  26.848  27.823  1.00  0.00    -0.354 N 
ATOM     43  C   UNL A   1      47.183  26.128  26.834  1.00  0.00     0.074 A 
ATOM     44  C   UNL A   1      47.389  24.749  26.442  1.00  0.00     0.031 C 
ATOM     45  C   UNL A   1      40.882  26.307  28.133  1.00  0.00     0.029 A 
ATOM     46  C   UNL A   1      41.843  27.398  28.253  1.00  0.00     0.049 A 
ATOM     47  H   UNL A   1      43.870  27.357  27.771  1.00  0.00     0.167 HD
ATOM     48  C   UNL A   1      48.160  27.069  26.869  1.00  0.00     0.034 A 
ATOM     49  C   UNL A   1      41.562  28.637  28.707  1.00  0.00     0.034 A 
ATOM     50  C   UNL A   1      47.936  28.442  27.254  1.00  0.00     0.049 A 
ATOM     51  C   UNL A   1      42.672  29.657  28.774  1.00  0.00     0.074 A 
ATOM     52  C   UNL A   1      48.842  29.488  27.277  1.00  0.00     0.029 A 
ATOM     53  N   UNL A   1      46.724  28.960  27.691  1.00  0.00    -0.354 N 
ATOM     54  N   UNL A   1      43.939  29.522  28.453  1.00  0.00    -0.248 NA
ATOM     55  C   UNL A   1      42.313  30.997  29.254  1.00  0.00     0.031 C 
ATOM     56  C   UNL A   1      48.199  30.616  27.797  1.00  0.00     0.029 A 
ATOM     57  C   UNL A   1      46.867  30.301  28.018  1.00  0.00     0.049 A 
ATOM     58  H   UNL A   1      45.884  28.451  27.759  1.00  0.00     0.167 HD
ATOM     59  C   UNL A   1      44.517  30.772  28.661  1.00  0.00     0.074 A 
ATOM     60  C   UNL A   1      43.459  31.648  29.118  1.00  0.00     0.031 C 
ATOM     61  C   UNL A   1      45.806  31.162  28.483  1.00  0.00     0.034 A 
BRANCH  48  62
ATOM     62  C   UNL A   1      49.559  26.633  26.504  1.00  0.00     0.023 A 
ATOM     63  C   UNL A   1      50.186  27.073  25.325  1.00  0.00     0.031 A 
ATOM     64  C   UNL A   1      50.269  25.745  27.332  1.00  0.00     0.131 A 
ATOM     65  C   UNL A   1      51.444  26.566  24.968  1.00  0.00     0.055 A 
ATOM     66  C   UNL A   1      51.558  25.312  27.015  1.00  0.00     0.041 A 
ATOM     67  F   UNL A   1      49.716  25.271  28.460  1.00  0.00    -0.206 F 
ATOM     68  C   UNL A   1      52.148  25.710  25.817  1.00  0.00     0.022 A 
BRANCH  65  69
ATOM     69  S   UNL A   1      52.082  26.923  23.308  1.00  0.00     0.124 S 
ATOM     70  O   UNL A   1      52.607  28.277  23.480  1.00  0.00    -0.237 OA
ATOM     71  O   UNL A   1      53.075  25.873  23.117  1.00  0.00    -0.237 OA
ATOM     72  O   UNL A   1      50.898  26.827  22.457  1.00  0.00    -0.744 OA
ENDBRANCH  65  69
ENDBRANCH  48  62
BRANCH  49  73
ATOM     73  C   UNL A   1      40.181  28.990  29.145  1.00  0.00     0.023 A 
ATOM     74  C   UNL A   1      39.818  28.938  30.501  1.00  0.00     0.031 A 
ATOM     75  C   UNL A   1      39.187  29.338  28.212  1.00  0.00     0.131 A 
ATOM     76  C   UNL A   1      38.488  29.177  30.880  1.00  0.00     0.055 A 
ATOM     77  C   UNL A   1      37.879  29.632  28.600  1.00  0.00     0.041 A 
ATOM     78  F   UNL A   1      39.480  29.407  26.903  1.00  0.00    -0.206 F 
ATOM     79  C   UNL A   1      37.519  29.538  29.940  1.00  0.00     0.022 A 
BRANCH  76  80
ATOM     80  S   UNL A   1      38.018  28.915  32.612  1.00  0.00     0.124 S 
ATOM     81  O   UNL A   1      38.994  29.743  33.312  1.00  0.00    -0.237 OA
ATOM     82  O   UNL A   1      36.639  29.395  32.628  1.00  0.00    -0.237 OA
ATOM     83  O   UNL A   1      38.176  27.474  32.794  1.00  0.00    -0.744 OA
ENDBRANCH  76  80
ENDBRANCH  49  73
BRANCH  61  84
ATOM     84  C   UNL A   1      46.126  32.616  28.738  1.00  0.00     0.023 A 
ATOM     85  C   UNL A   1      45.993  33.594  27.737  1.00  0.00     0.031 A 
ATOM     86  C   UNL A   1      46.581  33.025  30.005  1.00  0.00     0.131 A 
ATOM     87  C   UNL A   1      46.367  34.921  28.002  1.00  0.00     0.055 A 
ATOM     88  C   UNL A   1      46.888  34.358  30.282  1.00  0.00     0.041 A 
ATOM     89  F   UNL A   1      46.731  32.133  30.998  1.00  0.00    -0.206 F 
ATOM     90  C   UNL A   1      46.795  35.312  29.273  1.00  0.00     0.022 A 
BRANCH  87  91
ATOM     91  S   UNL A   1      46.377  36.112  26.635  1.00  0.00     0.124 S 
ATOM     92  O   UNL A   1      45.133  36.842  26.858  1.00  0.00    -0.237 OA
ATOM     93  O   UNL A   1      47.607  36.859  26.880  1.00  0.00    -0.237 OA
ATOM     94  O   UNL A   1      46.394  35.267  25.443  1.00  0.00    -0.744 OA
ENDBRANCH  87  91
ENDBRANCH  61  84
ENDBRANCH  35  36
ENDBRANCH  27  30
ENDBRANCH  25  26
ENDBRANCH   1  25
TORSDOF 16
ENDMDL
