MODEL 1
REMARK VINA RESULT:     -12.1      0.000      0.000
REMARK SMILES Nc1oc(-c2ccccc2)cc1C(=O)NCCCCNC(=O)c1ccc(-c2c3nc(c(-c4cc(S(=O)(=O)[O-])ccc4F)c4ccc([nH]4)c(-c4cc(S(=O)(=O)[O-])ccc4F)c4nc(c(-c5cc(S(=O)(=O)[O-])ccc5F)c5ccc2[nH]5)C=C4)C=C3)cc1
REMARK SMILES IDX 18 1 17 2 16 3 15 4 13 5 14 6 12 8 2 9 3 10 4 11 11 12 1 13
REMARK SMILES IDX 5 16 6 17 10 18 7 19 9 20 8 21 19 22 20 23 21 24 22 26 23 27
REMARK SMILES IDX 24 28 85 29 25 30 84 31 26 32 27 33 28 34 78 35 29 36 83 37
REMARK SMILES IDX 77 38 79 39 30 40 82 41 76 42 75 43 31 45 63 46 43 47 62 48
REMARK SMILES IDX 44 49 47 50 61 51 80 52 45 53 46 54 60 56 81 57 48 58 32 59
REMARK SMILES IDX 33 60 41 61 34 62 40 63 42 64 39 65 35 66 36 67 37 68 38 69
REMARK SMILES IDX 64 70 65 71 73 72 66 73 72 74 74 75 71 76 67 77 68 78 69 79
REMARK SMILES IDX 70 80 49 81 50 82 58 83 51 84 57 85 59 86 56 87 52 88 53 89
REMARK SMILES IDX 54 90 55 91
REMARK H PARENT 15 7 1 14 1 15 20 25 79 44 47 55
REMARK Flexibility Score: inf
ROOT
ATOM      1  C   UNL A   1      31.361  31.493  26.128  1.00  0.00     0.023 C 
ENDROOT
BRANCH   1   2
ATOM      2  C   UNL A   1      31.636  30.066  25.623  1.00  0.00     0.023 C 
BRANCH   2   3
ATOM      3  C   UNL A   1      33.117  29.713  25.449  1.00  0.00     0.116 C 
BRANCH   3   4
ATOM      4  N   UNL A   1      33.470  29.520  24.055  1.00  0.00    -0.352 N 
ATOM      5  C   UNL A   1      33.618  28.395  23.281  1.00  0.00     0.256 C 
ATOM      6  O   UNL A   1      33.915  28.586  22.094  1.00  0.00    -0.269 OA
ATOM      7  H   UNL A   1      33.636  30.359  23.569  1.00  0.00     0.163 HD
BRANCH   5   8
ATOM      8  C   UNL A   1      33.423  27.054  23.812  1.00  0.00     0.103 A 
ATOM      9  C   UNL A   1      32.445  26.178  23.356  1.00  0.00     0.203 A 
ATOM     10  O   UNL A   1      32.437  25.018  24.066  1.00  0.00    -0.440 OA
ATOM     11  C   UNL A   1      33.421  25.133  24.994  1.00  0.00     0.137 A 
ATOM     12  C   UNL A   1      34.093  26.321  24.828  1.00  0.00     0.067 A 
BRANCH   9  13
ATOM     13  N   UNL A   1      31.527  26.274  22.388  1.00  0.00    -0.369 N 
ATOM     14  H   UNL A   1      31.417  27.120  21.899  1.00  0.00     0.159 HD
ATOM     15  H   UNL A   1      30.963  25.499  22.166  1.00  0.00     0.159 HD
ENDBRANCH   9  13
BRANCH  11  16
ATOM     16  C   UNL A   1      33.581  24.073  25.966  1.00  0.00     0.017 A 
ATOM     17  C   UNL A   1      32.522  23.677  26.786  1.00  0.00     0.012 A 
ATOM     18  C   UNL A   1      34.775  23.337  25.981  1.00  0.00     0.012 A 
ATOM     19  C   UNL A   1      32.642  22.531  27.578  1.00  0.00     0.001 A 
ATOM     20  C   UNL A   1      34.898  22.200  26.779  1.00  0.00     0.001 A 
ATOM     21  C   UNL A   1      33.824  21.790  27.567  1.00  0.00     0.000 A 
ENDBRANCH  11  16
ENDBRANCH   5   8
ENDBRANCH   3   4
ENDBRANCH   2   3
ENDBRANCH   1   2
BRANCH   1  22
ATOM     22  C   UNL A   1      32.342  32.019  27.175  1.00  0.00     0.116 C 
BRANCH  22  23
ATOM     23  N   UNL A   1      32.308  33.480  27.324  1.00  0.00    -0.352 N 
ATOM     24  C   UNL A   1      32.971  34.266  28.253  1.00  0.00     0.251 C 
ATOM     25  H   UNL A   1      31.739  33.963  26.683  1.00  0.00     0.163 HD
ATOM     26  O   UNL A   1      32.526  35.377  28.560  1.00  0.00    -0.269 OA
BRANCH  24  27
ATOM     27  C   UNL A   1      34.234  33.778  28.833  1.00  0.00     0.039 A 
ATOM     28  C   UNL A   1      34.350  33.224  30.113  1.00  0.00     0.014 A 
ATOM     29  C   UNL A   1      35.345  33.869  28.007  1.00  0.00     0.014 A 
ATOM     30  C   UNL A   1      35.595  32.731  30.518  1.00  0.00     0.010 A 
ATOM     31  C   UNL A   1      36.469  33.158  28.299  1.00  0.00     0.010 A 
ATOM     32  C   UNL A   1      36.650  32.709  29.596  1.00  0.00    -0.014 A 
BRANCH  32  33
ATOM     33  C   UNL A   1      37.959  32.127  29.859  1.00  0.00     0.031 A 
ATOM     34  C   UNL A   1      38.071  30.724  29.394  1.00  0.00     0.074 A 
ATOM     35  C   UNL A   1      39.039  32.899  30.136  1.00  0.00     0.049 A 
ATOM     36  N   UNL A   1      38.018  29.651  30.110  1.00  0.00    -0.248 NA
ATOM     37  C   UNL A   1      37.979  30.469  27.944  1.00  0.00     0.031 C 
ATOM     38  C   UNL A   1      39.115  34.363  30.239  1.00  0.00     0.029 A 
ATOM     39  N   UNL A   1      40.342  32.539  30.269  1.00  0.00    -0.354 N 
ATOM     40  C   UNL A   1      38.212  28.607  29.211  1.00  0.00     0.074 A 
ATOM     41  C   UNL A   1      37.845  29.142  27.932  1.00  0.00     0.031 C 
ATOM     42  C   UNL A   1      40.409  34.760  30.190  1.00  0.00     0.029 A 
ATOM     43  C   UNL A   1      41.265  33.586  30.201  1.00  0.00     0.049 A 
ATOM     44  H   UNL A   1      40.618  31.603  30.405  1.00  0.00     0.167 HD
ATOM     45  C   UNL A   1      38.982  27.530  29.541  1.00  0.00     0.034 A 
ATOM     46  C   UNL A   1      42.625  33.479  30.127  1.00  0.00     0.034 A 
ATOM     47  C   UNL A   1      39.275  27.543  30.965  1.00  0.00     0.049 A 
ATOM     48  C   UNL A   1      42.956  32.108  30.604  1.00  0.00     0.074 A 
ATOM     49  C   UNL A   1      38.505  27.582  32.113  1.00  0.00     0.029 A 
ATOM     50  N   UNL A   1      40.535  27.953  31.357  1.00  0.00    -0.354 N 
ATOM     51  N   UNL A   1      42.742  31.711  31.830  1.00  0.00    -0.248 NA
ATOM     52  C   UNL A   1      43.008  31.045  29.610  1.00  0.00     0.031 C 
ATOM     53  C   UNL A   1      39.185  28.494  32.977  1.00  0.00     0.029 A 
ATOM     54  C   UNL A   1      40.385  28.868  32.370  1.00  0.00     0.049 A 
ATOM     55  H   UNL A   1      41.389  27.644  30.978  1.00  0.00     0.167 HD
ATOM     56  C   UNL A   1      42.202  30.438  31.707  1.00  0.00     0.074 A 
ATOM     57  C   UNL A   1      42.465  30.050  30.319  1.00  0.00     0.031 C 
ATOM     58  C   UNL A   1      41.320  29.949  32.631  1.00  0.00     0.034 A 
BRANCH  45  59
ATOM     59  C   UNL A   1      39.835  26.726  28.569  1.00  0.00     0.023 A 
ATOM     60  C   UNL A   1      40.942  27.401  28.021  1.00  0.00     0.031 A 
ATOM     61  C   UNL A   1      39.507  25.504  27.940  1.00  0.00     0.131 A 
ATOM     62  C   UNL A   1      41.532  26.979  26.819  1.00  0.00     0.055 A 
ATOM     63  C   UNL A   1      40.141  25.050  26.779  1.00  0.00     0.041 A 
ATOM     64  F   UNL A   1      38.526  24.700  28.357  1.00  0.00    -0.206 F 
ATOM     65  C   UNL A   1      41.130  25.811  26.184  1.00  0.00     0.022 A 
BRANCH  62  66
ATOM     66  S   UNL A   1      42.688  28.107  26.008  1.00  0.00     0.124 S 
ATOM     67  O   UNL A   1      42.312  29.380  26.615  1.00  0.00    -0.237 OA
ATOM     68  O   UNL A   1      43.976  27.555  26.414  1.00  0.00    -0.237 OA
ATOM     69  O   UNL A   1      42.362  27.963  24.593  1.00  0.00    -0.744 OA
ENDBRANCH  62  66
ENDBRANCH  45  59
BRANCH  46  70
ATOM     70  C   UNL A   1      43.593  34.336  29.370  1.00  0.00     0.023 A 
ATOM     71  C   UNL A   1      44.146  33.974  28.116  1.00  0.00     0.031 A 
ATOM     72  C   UNL A   1      43.792  35.677  29.771  1.00  0.00     0.131 A 
ATOM     73  C   UNL A   1      44.851  34.929  27.334  1.00  0.00     0.055 A 
ATOM     74  C   UNL A   1      44.480  36.614  28.995  1.00  0.00     0.041 A 
ATOM     75  F   UNL A   1      43.245  36.150  30.903  1.00  0.00    -0.206 F 
ATOM     76  C   UNL A   1      45.004  36.247  27.766  1.00  0.00     0.022 A 
BRANCH  73  77
ATOM     77  S   UNL A   1      45.514  34.502  25.684  1.00  0.00     0.124 S 
ATOM     78  O   UNL A   1      46.478  35.571  25.449  1.00  0.00    -0.237 OA
ATOM     79  O   UNL A   1      46.063  33.168  25.897  1.00  0.00    -0.237 OA
ATOM     80  O   UNL A   1      44.335  34.542  24.818  1.00  0.00    -0.744 OA
ENDBRANCH  73  77
ENDBRANCH  46  70
BRANCH  58  81
ATOM     81  C   UNL A   1      41.162  30.680  33.951  1.00  0.00     0.023 A 
ATOM     82  C   UNL A   1      40.136  31.604  34.265  1.00  0.00     0.031 A 
ATOM     83  C   UNL A   1      42.035  30.301  34.987  1.00  0.00     0.131 A 
ATOM     84  C   UNL A   1      40.022  32.109  35.578  1.00  0.00     0.055 A 
ATOM     85  C   UNL A   1      41.904  30.785  36.286  1.00  0.00     0.041 A 
ATOM     86  F   UNL A   1      43.013  29.410  34.759  1.00  0.00    -0.206 F 
ATOM     87  C   UNL A   1      40.900  31.696  36.586  1.00  0.00     0.022 A 
BRANCH  84  88
ATOM     88  S   UNL A   1      38.740  33.335  36.005  1.00  0.00     0.124 S 
ATOM     89  O   UNL A   1      39.322  34.062  37.126  1.00  0.00    -0.237 OA
ATOM     90  O   UNL A   1      38.592  34.086  34.762  1.00  0.00    -0.237 OA
ATOM     91  O   UNL A   1      37.582  32.507  36.354  1.00  0.00    -0.744 OA
ENDBRANCH  84  88
ENDBRANCH  58  81
ENDBRANCH  32  33
ENDBRANCH  24  27
ENDBRANCH  22  23
ENDBRANCH   1  22
TORSDOF 16
ENDMDL
MODEL 2
REMARK VINA RESULT:     -12.1      4.288      9.421
REMARK SMILES Nc1oc(-c2ccccc2)cc1C(=O)NCCCCNC(=O)c1ccc(-c2c3nc(c(-c4cc(S(=O)(=O)[O-])ccc4F)c4ccc([nH]4)c(-c4cc(S(=O)(=O)[O-])ccc4F)c4nc(c(-c5cc(S(=O)(=O)[O-])ccc5F)c5ccc2[nH]5)C=C4)C=C3)cc1
REMARK SMILES IDX 18 1 17 2 16 3 15 4 13 5 14 6 12 8 2 9 3 10 4 11 11 12 1 13
REMARK SMILES IDX 5 16 6 17 10 18 7 19 9 20 8 21 19 22 20 23 21 24 22 26 23 27
REMARK SMILES IDX 24 28 85 29 25 30 84 31 26 32 27 33 28 34 78 35 29 36 83 37
REMARK SMILES IDX 77 38 79 39 30 40 82 41 76 42 75 43 31 45 63 46 43 47 62 48
REMARK SMILES IDX 44 49 47 50 61 51 80 52 45 53 46 54 60 56 81 57 48 58 32 59
REMARK SMILES IDX 33 60 41 61 34 62 40 63 42 64 39 65 35 66 36 67 37 68 38 69
REMARK SMILES IDX 64 70 65 71 73 72 66 73 72 74 74 75 71 76 67 77 68 78 69 79
REMARK SMILES IDX 70 80 49 81 50 82 58 83 51 84 57 85 59 86 56 87 52 88 53 89
REMARK SMILES IDX 54 90 55 91
REMARK H PARENT 15 7 1 14 1 15 20 25 79 44 47 55
REMARK Flexibility Score: inf
ROOT
ATOM      1  C   UNL A   1      34.774  32.620  32.192  1.00  0.00     0.023 C 
ENDROOT
BRANCH   1   2
ATOM      2  C   UNL A   1      33.962  33.438  33.212  1.00  0.00     0.023 C 
BRANCH   2   3
ATOM      3  C   UNL A   1      34.740  34.555  33.916  1.00  0.00     0.116 C 
BRANCH   3   4
ATOM      4  N   UNL A   1      35.489  34.062  35.056  1.00  0.00    -0.352 N 
ATOM      5  C   UNL A   1      36.720  33.464  35.172  1.00  0.00     0.256 C 
ATOM      6  O   UNL A   1      37.080  33.177  36.321  1.00  0.00    -0.269 OA
ATOM      7  H   UNL A   1      35.023  34.178  35.915  1.00  0.00     0.163 HD
BRANCH   5   8
ATOM      8  C   UNL A   1      37.567  33.197  34.019  1.00  0.00     0.103 A 
ATOM      9  C   UNL A   1      37.998  31.926  33.655  1.00  0.00     0.203 A 
ATOM     10  O   UNL A   1      38.831  31.965  32.581  1.00  0.00    -0.440 OA
ATOM     11  C   UNL A   1      38.946  33.272  32.235  1.00  0.00     0.137 A 
ATOM     12  C   UNL A   1      38.138  34.047  33.034  1.00  0.00     0.067 A 
BRANCH   9  13
ATOM     13  N   UNL A   1      37.763  30.713  34.166  1.00  0.00    -0.369 N 
ATOM     14  H   UNL A   1      38.392  29.977  33.995  1.00  0.00     0.159 HD
ATOM     15  H   UNL A   1      36.959  30.557  34.714  1.00  0.00     0.159 HD
ENDBRANCH   9  13
BRANCH  11  16
ATOM     16  C   UNL A   1      39.859  33.627  31.170  1.00  0.00     0.017 A 
ATOM     17  C   UNL A   1      39.506  34.566  30.198  1.00  0.00     0.012 A 
ATOM     18  C   UNL A   1      41.169  33.126  31.200  1.00  0.00     0.012 A 
ATOM     19  C   UNL A   1      40.467  35.032  29.295  1.00  0.00     0.001 A 
ATOM     20  C   UNL A   1      42.124  33.584  30.293  1.00  0.00     0.001 A 
ATOM     21  C   UNL A   1      41.775  34.549  29.350  1.00  0.00     0.000 A 
ENDBRANCH  11  16
ENDBRANCH   5   8
ENDBRANCH   3   4
ENDBRANCH   2   3
ENDBRANCH   1   2
BRANCH   1  22
ATOM     22  C   UNL A   1      35.105  33.344  30.887  1.00  0.00     0.116 C 
BRANCH  22  23
ATOM     23  N   UNL A   1      34.507  32.711  29.703  1.00  0.00    -0.352 N 
ATOM     24  C   UNL A   1      35.115  31.886  28.769  1.00  0.00     0.251 C 
ATOM     25  H   UNL A   1      33.553  32.899  29.553  1.00  0.00     0.163 HD
ATOM     26  O   UNL A   1      34.656  31.798  27.625  1.00  0.00    -0.269 OA
BRANCH  24  27
ATOM     27  C   UNL A   1      36.284  31.087  29.173  1.00  0.00     0.039 A 
ATOM     28  C   UNL A   1      36.220  29.752  29.587  1.00  0.00     0.014 A 
ATOM     29  C   UNL A   1      37.508  31.736  29.095  1.00  0.00     0.014 A 
ATOM     30  C   UNL A   1      37.413  29.082  29.875  1.00  0.00     0.010 A 
ATOM     31  C   UNL A   1      38.662  31.015  29.117  1.00  0.00     0.010 A 
ATOM     32  C   UNL A   1      38.632  29.733  29.638  1.00  0.00    -0.014 A 
BRANCH  32  33
ATOM     33  C   UNL A   1      39.939  29.111  29.797  1.00  0.00     0.031 A 
ATOM     34  C   UNL A   1      40.268  28.811  31.211  1.00  0.00     0.074 A 
ATOM     35  C   UNL A   1      40.585  28.535  28.753  1.00  0.00     0.049 A 
ATOM     36  N   UNL A   1      41.056  29.470  31.993  1.00  0.00    -0.248 NA
ATOM     37  C   UNL A   1      39.439  27.815  31.915  1.00  0.00     0.031 C 
ATOM     38  C   UNL A   1      40.152  28.436  27.352  1.00  0.00     0.029 A 
ATOM     39  N   UNL A   1      41.729  27.801  28.748  1.00  0.00    -0.354 N 
ATOM     40  C   UNL A   1      41.052  28.763  33.191  1.00  0.00     0.074 A 
ATOM     41  C   UNL A   1      39.833  28.008  33.175  1.00  0.00     0.031 C 
ATOM     42  C   UNL A   1      40.898  27.508  26.706  1.00  0.00     0.029 A 
ATOM     43  C   UNL A   1      41.954  27.050  27.592  1.00  0.00     0.049 A 
ATOM     44  H   UNL A   1      42.356  27.799  29.507  1.00  0.00     0.167 HD
ATOM     45  C   UNL A   1      42.200  28.590  33.908  1.00  0.00     0.034 A 
ATOM     46  C   UNL A   1      42.920  26.102  27.404  1.00  0.00     0.034 A 
ATOM     47  C   UNL A   1      43.248  29.453  33.389  1.00  0.00     0.049 A 
ATOM     48  C   UNL A   1      43.953  26.354  28.448  1.00  0.00     0.074 A 
ATOM     49  C   UNL A   1      43.365  30.815  33.173  1.00  0.00     0.029 A 
ATOM     50  N   UNL A   1      44.226  28.875  32.602  1.00  0.00    -0.354 N 
ATOM     51  N   UNL A   1      44.675  27.442  28.484  1.00  0.00    -0.248 NA
ATOM     52  C   UNL A   1      43.798  25.671  29.725  1.00  0.00     0.031 C 
ATOM     53  C   UNL A   1      44.021  30.929  31.910  1.00  0.00     0.029 A 
ATOM     54  C   UNL A   1      44.377  29.650  31.479  1.00  0.00     0.049 A 
ATOM     55  H   UNL A   1      44.726  28.054  32.811  1.00  0.00     0.167 HD
ATOM     56  C   UNL A   1      44.693  27.818  29.821  1.00  0.00     0.074 A 
ATOM     57  C   UNL A   1      44.203  26.644  30.548  1.00  0.00     0.031 C 
ATOM     58  C   UNL A   1      44.794  29.131  30.187  1.00  0.00     0.034 A 
BRANCH  45  59
ATOM     59  C   UNL A   1      42.533  27.370  34.756  1.00  0.00     0.023 A 
ATOM     60  C   UNL A   1      43.500  26.497  34.223  1.00  0.00     0.031 A 
ATOM     61  C   UNL A   1      41.809  26.861  35.857  1.00  0.00     0.131 A 
ATOM     62  C   UNL A   1      43.581  25.158  34.636  1.00  0.00     0.055 A 
ATOM     63  C   UNL A   1      41.938  25.544  36.312  1.00  0.00     0.041 A 
ATOM     64  F   UNL A   1      40.893  27.565  36.527  1.00  0.00    -0.206 F 
ATOM     65  C   UNL A   1      42.795  24.668  35.671  1.00  0.00     0.022 A 
BRANCH  62  66
ATOM     66  S   UNL A   1      44.586  24.031  33.643  1.00  0.00     0.124 S 
ATOM     67  O   UNL A   1      45.205  23.215  34.682  1.00  0.00    -0.237 OA
ATOM     68  O   UNL A   1      43.573  23.373  32.823  1.00  0.00    -0.237 OA
ATOM     69  O   UNL A   1      45.487  24.927  32.926  1.00  0.00    -0.744 OA
ENDBRANCH  62  66
ENDBRANCH  45  59
BRANCH  46  70
ATOM     70  C   UNL A   1      42.842  24.823  26.626  1.00  0.00     0.023 A 
ATOM     71  C   UNL A   1      43.917  24.304  25.862  1.00  0.00     0.031 A 
ATOM     72  C   UNL A   1      41.755  23.947  26.843  1.00  0.00     0.131 A 
ATOM     73  C   UNL A   1      43.871  22.975  25.361  1.00  0.00     0.055 A 
ATOM     74  C   UNL A   1      41.719  22.638  26.353  1.00  0.00     0.041 A 
ATOM     75  F   UNL A   1      40.719  24.305  27.619  1.00  0.00    -0.206 F 
ATOM     76  C   UNL A   1      42.782  22.141  25.618  1.00  0.00     0.022 A 
BRANCH  73  77
ATOM     77  S   UNL A   1      45.275  22.263  24.430  1.00  0.00     0.124 S 
ATOM     78  O   UNL A   1      44.618  21.267  23.591  1.00  0.00    -0.237 OA
ATOM     79  O   UNL A   1      45.827  23.426  23.746  1.00  0.00    -0.237 OA
ATOM     80  O   UNL A   1      46.136  21.708  25.475  1.00  0.00    -0.744 OA
ENDBRANCH  73  77
ENDBRANCH  46  70
BRANCH  58  81
ATOM     81  C   UNL A   1      45.190  30.156  29.140  1.00  0.00     0.023 A 
ATOM     82  C   UNL A   1      46.512  30.440  28.723  1.00  0.00     0.031 A 
ATOM     83  C   UNL A   1      44.139  30.775  28.439  1.00  0.00     0.131 A 
ATOM     84  C   UNL A   1      46.734  31.318  27.640  1.00  0.00     0.055 A 
ATOM     85  C   UNL A   1      44.362  31.621  27.357  1.00  0.00     0.041 A 
ATOM     86  F   UNL A   1      42.862  30.526  28.771  1.00  0.00    -0.206 F 
ATOM     87  C   UNL A   1      45.662  31.901  26.955  1.00  0.00     0.022 A 
BRANCH  84  88
ATOM     88  S   UNL A   1      48.426  31.741  27.104  1.00  0.00     0.124 S 
ATOM     89  O   UNL A   1      48.945  30.482  26.587  1.00  0.00    -0.237 OA
ATOM     90  O   UNL A   1      48.193  32.792  26.117  1.00  0.00    -0.237 OA
ATOM     91  O   UNL A   1      49.067  32.202  28.338  1.00  0.00    -0.744 OA
ENDBRANCH  84  88
ENDBRANCH  58  81
ENDBRANCH  32  33
ENDBRANCH  24  27
ENDBRANCH  22  23
ENDBRANCH   1  22
TORSDOF 16
ENDMDL
MODEL 3
REMARK VINA RESULT:     -12.1      4.738      6.632
REMARK SMILES Nc1oc(-c2ccccc2)cc1C(=O)NCCCCNC(=O)c1ccc(-c2c3nc(c(-c4cc(S(=O)(=O)[O-])ccc4F)c4ccc([nH]4)c(-c4cc(S(=O)(=O)[O-])ccc4F)c4nc(c(-c5cc(S(=O)(=O)[O-])ccc5F)c5ccc2[nH]5)C=C4)C=C3)cc1
REMARK SMILES IDX 18 1 17 2 16 3 15 4 13 5 14 6 12 8 2 9 3 10 4 11 11 12 1 13
REMARK SMILES IDX 5 16 6 17 10 18 7 19 9 20 8 21 19 22 20 23 21 24 22 26 23 27
REMARK SMILES IDX 24 28 85 29 25 30 84 31 26 32 27 33 28 34 78 35 29 36 83 37
REMARK SMILES IDX 77 38 79 39 30 40 82 41 76 42 75 43 31 45 63 46 43 47 62 48
REMARK SMILES IDX 44 49 47 50 61 51 80 52 45 53 46 54 60 56 81 57 48 58 32 59
REMARK SMILES IDX 33 60 41 61 34 62 40 63 42 64 39 65 35 66 36 67 37 68 38 69
REMARK SMILES IDX 64 70 65 71 73 72 66 73 72 74 74 75 71 76 67 77 68 78 69 79
REMARK SMILES IDX 70 80 49 81 50 82 58 83 51 84 57 85 59 86 56 87 52 88 53 89
REMARK SMILES IDX 54 90 55 91
REMARK H PARENT 15 7 1 14 1 15 20 25 79 44 47 55
REMARK Flexibility Score: inf
ROOT
ATOM      1  C   UNL A   1      34.020  29.572  27.061  1.00  0.00     0.023 C 
ENDROOT
BRANCH   1   2
ATOM      2  C   UNL A   1      33.223  28.305  26.706  1.00  0.00     0.023 C 
BRANCH   2   3
ATOM      3  C   UNL A   1      33.654  27.608  25.412  1.00  0.00     0.116 C 
BRANCH   3   4
ATOM      4  N   UNL A   1      32.941  26.363  25.200  1.00  0.00    -0.352 N 
ATOM      5  C   UNL A   1      31.837  26.040  24.450  1.00  0.00     0.256 C 
ATOM      6  O   UNL A   1      31.490  24.852  24.475  1.00  0.00    -0.269 OA
ATOM      7  H   UNL A   1      33.322  25.601  25.692  1.00  0.00     0.163 HD
BRANCH   5   8
ATOM      8  C   UNL A   1      31.121  27.026  23.653  1.00  0.00     0.103 A 
ATOM      9  C   UNL A   1      31.168  27.079  22.265  1.00  0.00     0.203 A 
ATOM     10  O   UNL A   1      30.465  28.136  21.778  1.00  0.00    -0.440 OA
ATOM     11  C   UNL A   1      29.949  28.780  22.855  1.00  0.00     0.137 A 
ATOM     12  C   UNL A   1      30.261  28.099  24.009  1.00  0.00     0.067 A 
BRANCH   9  13
ATOM     13  N   UNL A   1      31.777  26.314  21.353  1.00  0.00    -0.369 N 
ATOM     14  H   UNL A   1      31.668  25.337  21.379  1.00  0.00     0.159 HD
ATOM     15  H   UNL A   1      32.335  26.729  20.656  1.00  0.00     0.159 HD
ENDBRANCH   9  13
BRANCH  11  16
ATOM     16  C   UNL A   1      29.224  30.014  22.640  1.00  0.00     0.017 A 
ATOM     17  C   UNL A   1      29.154  30.994  23.633  1.00  0.00     0.012 A 
ATOM     18  C   UNL A   1      28.706  30.288  21.366  1.00  0.00     0.012 A 
ATOM     19  C   UNL A   1      28.614  32.249  23.339  1.00  0.00     0.001 A 
ATOM     20  C   UNL A   1      28.159  31.537  21.076  1.00  0.00     0.001 A 
ATOM     21  C   UNL A   1      28.126  32.522  22.060  1.00  0.00     0.000 A 
ENDBRANCH  11  16
ENDBRANCH   5   8
ENDBRANCH   3   4
ENDBRANCH   2   3
ENDBRANCH   1   2
BRANCH   1  22
ATOM     22  C   UNL A   1      35.423  29.331  27.619  1.00  0.00     0.116 C 
BRANCH  22  23
ATOM     23  N   UNL A   1      35.564  29.720  29.029  1.00  0.00    -0.352 N 
ATOM     24  C   UNL A   1      36.535  29.328  29.936  1.00  0.00     0.251 C 
ATOM     25  H   UNL A   1      34.879  30.336  29.374  1.00  0.00     0.163 HD
ATOM     26  O   UNL A   1      36.299  29.349  31.149  1.00  0.00    -0.269 OA
BRANCH  24  27
ATOM     27  C   UNL A   1      37.863  28.931  29.437  1.00  0.00     0.039 A 
ATOM     28  C   UNL A   1      38.477  29.484  28.307  1.00  0.00     0.014 A 
ATOM     29  C   UNL A   1      38.517  27.962  30.185  1.00  0.00     0.014 A 
ATOM     30  C   UNL A   1      39.772  29.071  27.980  1.00  0.00     0.010 A 
ATOM     31  C   UNL A   1      39.854  27.765  30.020  1.00  0.00     0.010 A 
ATOM     32  C   UNL A   1      40.448  28.202  28.849  1.00  0.00    -0.014 A 
BRANCH  32  33
ATOM     33  C   UNL A   1      41.832  27.782  28.677  1.00  0.00     0.031 A 
ATOM     34  C   UNL A   1      41.962  26.526  27.900  1.00  0.00     0.074 A 
ATOM     35  C   UNL A   1      42.866  28.639  28.868  1.00  0.00     0.049 A 
ATOM     36  N   UNL A   1      42.196  25.340  28.355  1.00  0.00    -0.248 NA
ATOM     37  C   UNL A   1      41.536  26.541  26.488  1.00  0.00     0.031 C 
ATOM     38  C   UNL A   1      42.819  30.051  29.272  1.00  0.00     0.029 A 
ATOM     39  N   UNL A   1      44.190  28.458  28.623  1.00  0.00    -0.354 N 
ATOM     40  C   UNL A   1      42.261  24.527  27.228  1.00  0.00     0.074 A 
ATOM     41  C   UNL A   1      41.535  25.236  26.214  1.00  0.00     0.031 C 
ATOM     42  C   UNL A   1      44.015  30.639  29.023  1.00  0.00     0.029 A 
ATOM     43  C   UNL A   1      44.958  29.625  28.583  1.00  0.00     0.049 A 
ATOM     44  H   UNL A   1      44.582  27.566  28.483  1.00  0.00     0.167 HD
ATOM     45  C   UNL A   1      43.191  23.534  27.130  1.00  0.00     0.034 A 
ATOM     46  C   UNL A   1      46.259  29.738  28.184  1.00  0.00     0.034 A 
ATOM     47  C   UNL A   1      43.829  23.320  28.419  1.00  0.00     0.049 A 
ATOM     48  C   UNL A   1      46.834  28.366  28.259  1.00  0.00     0.074 A 
ATOM     49  C   UNL A   1      43.371  23.024  29.690  1.00  0.00     0.029 A 
ATOM     50  N   UNL A   1      45.100  23.830  28.600  1.00  0.00    -0.354 N 
ATOM     51  N   UNL A   1      46.973  27.715  29.384  1.00  0.00    -0.248 NA
ATOM     52  C   UNL A   1      46.740  27.532  27.069  1.00  0.00     0.031 C 
ATOM     53  C   UNL A   1      44.152  23.845  30.559  1.00  0.00     0.029 A 
ATOM     54  C   UNL A   1      45.119  24.503  29.797  1.00  0.00     0.049 A 
ATOM     55  H   UNL A   1      45.858  23.729  27.980  1.00  0.00     0.167 HD
ATOM     56  C   UNL A   1      46.548  26.423  29.107  1.00  0.00     0.074 A 
ATOM     57  C   UNL A   1      46.492  26.350  27.645  1.00  0.00     0.031 C 
ATOM     58  C   UNL A   1      45.978  25.641  30.073  1.00  0.00     0.034 A 
BRANCH  45  59
ATOM     59  C   UNL A   1      43.849  23.067  25.839  1.00  0.00     0.023 A 
ATOM     60  C   UNL A   1      43.821  21.679  25.602  1.00  0.00     0.031 A 
ATOM     61  C   UNL A   1      44.717  23.800  24.999  1.00  0.00     0.131 A 
ATOM     62  C   UNL A   1      44.739  21.068  24.735  1.00  0.00     0.055 A 
ATOM     63  C   UNL A   1      45.586  23.193  24.085  1.00  0.00     0.041 A 
ATOM     64  F   UNL A   1      44.833  25.129  25.038  1.00  0.00    -0.206 F 
ATOM     65  C   UNL A   1      45.635  21.816  23.981  1.00  0.00     0.022 A 
BRANCH  62  66
ATOM     66  S   UNL A   1      44.868  19.266  24.781  1.00  0.00     0.124 S 
ATOM     67  O   UNL A   1      46.250  19.093  25.219  1.00  0.00    -0.237 OA
ATOM     68  O   UNL A   1      43.835  18.919  25.752  1.00  0.00    -0.237 OA
ATOM     69  O   UNL A   1      44.590  18.873  23.403  1.00  0.00    -0.744 OA
ENDBRANCH  62  66
ENDBRANCH  45  59
BRANCH  46  70
ATOM     70  C   UNL A   1      46.918  30.858  27.437  1.00  0.00     0.023 A 
ATOM     71  C   UNL A   1      46.221  31.989  26.944  1.00  0.00     0.031 A 
ATOM     72  C   UNL A   1      48.329  30.946  27.425  1.00  0.00     0.131 A 
ATOM     73  C   UNL A   1      46.930  33.128  26.476  1.00  0.00     0.055 A 
ATOM     74  C   UNL A   1      49.021  32.072  26.969  1.00  0.00     0.041 A 
ATOM     75  F   UNL A   1      49.089  29.966  27.941  1.00  0.00    -0.206 F 
ATOM     76  C   UNL A   1      48.325  33.174  26.502  1.00  0.00     0.022 A 
BRANCH  73  77
ATOM     77  S   UNL A   1      46.049  34.623  25.898  1.00  0.00     0.124 S 
ATOM     78  O   UNL A   1      45.086  34.851  26.969  1.00  0.00    -0.237 OA
ATOM     79  O   UNL A   1      47.126  35.599  25.774  1.00  0.00    -0.237 OA
ATOM     80  O   UNL A   1      45.459  34.204  24.625  1.00  0.00    -0.744 OA
ENDBRANCH  73  77
ENDBRANCH  46  70
BRANCH  58  81
ATOM     81  C   UNL A   1      46.084  26.075  31.524  1.00  0.00     0.023 A 
ATOM     82  C   UNL A   1      45.040  26.640  32.294  1.00  0.00     0.031 A 
ATOM     83  C   UNL A   1      47.285  25.764  32.186  1.00  0.00     0.131 A 
ATOM     84  C   UNL A   1      45.229  26.872  33.673  1.00  0.00     0.055 A 
ATOM     85  C   UNL A   1      47.459  25.973  33.551  1.00  0.00     0.041 A 
ATOM     86  F   UNL A   1      48.304  25.203  31.516  1.00  0.00    -0.206 F 
ATOM     87  C   UNL A   1      46.433  26.533  34.301  1.00  0.00     0.022 A 
BRANCH  84  88
ATOM     88  S   UNL A   1      43.920  27.640  34.686  1.00  0.00     0.124 S 
ATOM     89  O   UNL A   1      44.633  28.110  35.867  1.00  0.00    -0.237 OA
ATOM     90  O   UNL A   1      43.399  28.677  33.798  1.00  0.00    -0.237 OA
ATOM     91  O   UNL A   1      42.992  26.535  34.935  1.00  0.00    -0.744 OA
ENDBRANCH  84  88
ENDBRANCH  58  81
ENDBRANCH  32  33
ENDBRANCH  24  27
ENDBRANCH  22  23
ENDBRANCH   1  22
TORSDOF 16
ENDMDL
