MODEL 1
REMARK VINA RESULT:     -11.6      0.000      0.000
REMARK SMILES O=C(NCCCCNC(=O)c1cccc(N[C@H]2CCCC[C@@H]2O)c1)c1ccc(-c2c3nc(c(-c4cc(S(=O)(=O)[O-])ccc4F)c4ccc([nH]4)c(-c4cc(S(=O)(=O)[O-])ccc4F)c4nc(c(-c5cc(S(=O)(=O)[O-])ccc5F)c5ccc2[nH]5)C=C4)C=C3)cc1
REMARK SMILES IDX 5 1 4 2 3 3 1 4 2 5 25 7 26 8 87 9 27 10 86 11 28 12 29 13
REMARK SMILES IDX 30 14 80 15 31 16 85 17 79 18 81 19 32 20 84 21 78 22 77 23
REMARK SMILES IDX 33 25 65 26 45 27 64 28 46 29 49 30 63 31 82 32 47 33 48 34
REMARK SMILES IDX 62 36 83 37 50 38 34 39 35 40 43 41 36 42 42 43 44 44 41 45
REMARK SMILES IDX 37 46 38 47 39 48 40 49 66 50 67 51 75 52 68 53 74 54 76 55
REMARK SMILES IDX 73 56 69 57 70 58 71 59 72 60 51 61 52 62 60 63 53 64 59 65
REMARK SMILES IDX 61 66 58 67 54 68 55 69 56 70 57 71 6 72 7 73 8 74 9 75
REMARK SMILES IDX 10 77 11 78 12 79 24 80 13 81 15 82 14 83 16 84 17 86 18 87
REMARK SMILES IDX 22 88 19 89 21 90 20 91 23 92
REMARK H PARENT 3 6 81 24 49 35 8 76 16 85 23 93
REMARK Flexibility Score: inf
ROOT
ATOM      1  C   UNL A   1      33.175  27.585  26.527  1.00  0.00     0.023 C 
ENDROOT
BRANCH   1   2
ATOM      2  C   UNL A   1      34.133  28.658  26.028  1.00  0.00     0.116 C 
BRANCH   2   3
ATOM      3  N   UNL A   1      33.775  29.992  26.488  1.00  0.00    -0.352 N 
ATOM      4  O   UNL A   1      33.848  31.807  27.826  1.00  0.00    -0.269 OA
ATOM      5  C   UNL A   1      34.376  30.762  27.455  1.00  0.00     0.251 C 
ATOM      6  H   UNL A   1      32.995  30.398  26.047  1.00  0.00     0.163 HD
BRANCH   5   7
ATOM      7  C   UNL A   1      35.651  30.314  28.055  1.00  0.00     0.039 A 
ATOM      8  C   UNL A   1      36.866  30.605  27.430  1.00  0.00     0.014 A 
ATOM      9  C   UNL A   1      35.629  29.580  29.243  1.00  0.00     0.014 A 
ATOM     10  C   UNL A   1      38.041  30.040  27.908  1.00  0.00     0.010 A 
ATOM     11  C   UNL A   1      36.826  29.095  29.777  1.00  0.00     0.010 A 
ATOM     12  C   UNL A   1      38.039  29.298  29.100  1.00  0.00    -0.014 A 
BRANCH  12  13
ATOM     13  C   UNL A   1      39.325  28.806  29.658  1.00  0.00     0.031 A 
ATOM     14  C   UNL A   1      39.997  29.510  30.801  1.00  0.00     0.074 A 
ATOM     15  C   UNL A   1      39.886  27.710  29.112  1.00  0.00     0.049 A 
ATOM     16  N   UNL A   1      41.145  29.246  31.373  1.00  0.00    -0.248 NA
ATOM     17  C   UNL A   1      39.297  30.671  31.367  1.00  0.00     0.031 C 
ATOM     18  C   UNL A   1      39.322  26.949  27.993  1.00  0.00     0.029 A 
ATOM     19  N   UNL A   1      41.047  27.045  29.411  1.00  0.00    -0.354 N 
ATOM     20  C   UNL A   1      41.317  30.216  32.354  1.00  0.00     0.074 A 
ATOM     21  C   UNL A   1      40.168  31.096  32.270  1.00  0.00     0.031 C 
ATOM     22  C   UNL A   1      40.124  25.913  27.716  1.00  0.00     0.029 A 
ATOM     23  C   UNL A   1      41.299  25.982  28.577  1.00  0.00     0.049 A 
ATOM     24  H   UNL A   1      41.641  27.304  30.152  1.00  0.00     0.167 HD
ATOM     25  C   UNL A   1      42.335  30.350  33.242  1.00  0.00     0.034 A 
ATOM     26  C   UNL A   1      42.374  25.177  28.476  1.00  0.00     0.034 A 
ATOM     27  C   UNL A   1      43.474  29.461  33.294  1.00  0.00     0.049 A 
ATOM     28  C   UNL A   1      43.521  25.384  29.426  1.00  0.00     0.074 A 
ATOM     29  C   UNL A   1      44.539  29.476  34.178  1.00  0.00     0.029 A 
ATOM     30  N   UNL A   1      43.711  28.413  32.412  1.00  0.00    -0.354 N 
ATOM     31  N   UNL A   1      43.655  26.284  30.372  1.00  0.00    -0.248 NA
ATOM     32  C   UNL A   1      44.657  24.464  29.300  1.00  0.00     0.031 C 
ATOM     33  C   UNL A   1      45.460  28.502  33.776  1.00  0.00     0.029 A 
ATOM     34  C   UNL A   1      44.927  27.808  32.700  1.00  0.00     0.049 A 
ATOM     35  H   UNL A   1      43.104  28.139  31.686  1.00  0.00     0.167 HD
ATOM     36  C   UNL A   1      44.884  26.025  30.970  1.00  0.00     0.074 A 
ATOM     37  C   UNL A   1      45.444  24.878  30.284  1.00  0.00     0.031 C 
ATOM     38  C   UNL A   1      45.488  26.675  31.998  1.00  0.00     0.034 A 
BRANCH  25  39
ATOM     39  C   UNL A   1      42.289  31.535  34.182  1.00  0.00     0.023 A 
ATOM     40  C   UNL A   1      41.530  31.518  35.366  1.00  0.00     0.031 A 
ATOM     41  C   UNL A   1      42.983  32.718  33.869  1.00  0.00     0.131 A 
ATOM     42  C   UNL A   1      41.407  32.684  36.138  1.00  0.00     0.055 A 
ATOM     43  C   UNL A   1      42.932  33.845  34.693  1.00  0.00     0.041 A 
ATOM     44  F   UNL A   1      43.710  32.809  32.744  1.00  0.00    -0.206 F 
ATOM     45  C   UNL A   1      42.123  33.840  35.825  1.00  0.00     0.022 A 
BRANCH  42  46
ATOM     46  S   UNL A   1      40.152  32.721  37.450  1.00  0.00     0.124 S 
ATOM     47  O   UNL A   1      40.959  32.451  38.639  1.00  0.00    -0.237 OA
ATOM     48  O   UNL A   1      39.616  34.072  37.335  1.00  0.00    -0.237 OA
ATOM     49  O   UNL A   1      39.233  31.648  37.075  1.00  0.00    -0.744 OA
ENDBRANCH  42  46
ENDBRANCH  25  39
BRANCH  26  50
ATOM     50  C   UNL A   1      42.427  24.154  27.396  1.00  0.00     0.023 A 
ATOM     51  C   UNL A   1      41.743  22.934  27.507  1.00  0.00     0.031 A 
ATOM     52  C   UNL A   1      43.165  24.394  26.221  1.00  0.00     0.131 A 
ATOM     53  C   UNL A   1      41.832  21.990  26.472  1.00  0.00     0.055 A 
ATOM     54  C   UNL A   1      43.203  23.477  25.171  1.00  0.00     0.041 A 
ATOM     55  F   UNL A   1      43.833  25.548  26.063  1.00  0.00    -0.206 F 
ATOM     56  C   UNL A   1      42.541  22.260  25.298  1.00  0.00     0.022 A 
BRANCH  53  57
ATOM     57  S   UNL A   1      41.060  20.367  26.708  1.00  0.00     0.124 S 
ATOM     58  O   UNL A   1      39.806  20.526  25.981  1.00  0.00    -0.237 OA
ATOM     59  O   UNL A   1      42.043  19.472  26.107  1.00  0.00    -0.237 OA
ATOM     60  O   UNL A   1      40.930  20.261  28.161  1.00  0.00    -0.744 OA
ENDBRANCH  53  57
ENDBRANCH  26  50
BRANCH  38  61
ATOM     61  C   UNL A   1      46.811  26.126  32.476  1.00  0.00     0.023 A 
ATOM     62  C   UNL A   1      46.894  25.131  33.465  1.00  0.00     0.031 A 
ATOM     63  C   UNL A   1      48.011  26.608  31.921  1.00  0.00     0.131 A 
ATOM     64  C   UNL A   1      48.150  24.681  33.899  1.00  0.00     0.055 A 
ATOM     65  C   UNL A   1      49.255  26.110  32.311  1.00  0.00     0.041 A 
ATOM     66  F   UNL A   1      47.993  27.564  30.979  1.00  0.00    -0.206 F 
ATOM     67  C   UNL A   1      49.330  25.148  33.313  1.00  0.00     0.022 A 
BRANCH  64  68
ATOM     68  S   UNL A   1      48.232  23.533  35.301  1.00  0.00     0.124 S 
ATOM     69  O   UNL A   1      47.906  22.259  34.668  1.00  0.00    -0.237 OA
ATOM     70  O   UNL A   1      49.612  23.685  35.753  1.00  0.00    -0.237 OA
ATOM     71  O   UNL A   1      47.219  24.044  36.223  1.00  0.00    -0.744 OA
ENDBRANCH  64  68
ENDBRANCH  38  61
ENDBRANCH  12  13
ENDBRANCH   5   7
ENDBRANCH   2   3
ENDBRANCH   1   2
BRANCH   1  72
ATOM     72  C   UNL A   1      32.408  26.849  25.433  1.00  0.00     0.023 C 
BRANCH  72  73
ATOM     73  C   UNL A   1      32.775  25.379  25.264  1.00  0.00     0.116 C 
BRANCH  73  74
ATOM     74  N   UNL A   1      32.863  24.976  23.869  1.00  0.00    -0.352 N 
ATOM     75  C   UNL A   1      33.761  24.133  23.267  1.00  0.00     0.251 C 
ATOM     76  H   UNL A   1      32.181  25.361  23.273  1.00  0.00     0.163 HD
ATOM     77  O   UNL A   1      33.784  24.013  22.043  1.00  0.00    -0.269 OA
BRANCH  75  78
ATOM     78  C   UNL A   1      34.728  23.381  24.089  1.00  0.00     0.041 A 
ATOM     79  C   UNL A   1      35.811  24.063  24.635  1.00  0.00     0.014 A 
ATOM     80  C   UNL A   1      34.562  22.006  24.317  1.00  0.00     0.039 A 
ATOM     81  C   UNL A   1      36.696  23.372  25.450  1.00  0.00     0.003 A 
ATOM     82  C   UNL A   1      35.412  21.299  25.174  1.00  0.00     0.035 A 
ATOM     83  C   UNL A   1      36.486  22.012  25.723  1.00  0.00     0.026 A 
BRANCH  82  84
ATOM     84  N   UNL A   1      35.113  19.977  25.444  1.00  0.00    -0.380 N 
ATOM     85  H   UNL A   1      35.530  19.601  26.253  1.00  0.00     0.160 HD
BRANCH  84  86
ATOM     86  C   UNL A   1      34.255  19.058  24.686  1.00  0.00     0.107 C 
ATOM     87  C   UNL A   1      35.044  17.838  24.199  1.00  0.00     0.027 C 
ATOM     88  C   UNL A   1      32.929  18.748  25.432  1.00  0.00     0.136 C 
ATOM     89  C   UNL A   1      34.152  16.785  23.554  1.00  0.00     0.002 C 
ATOM     90  C   UNL A   1      32.132  17.629  24.768  1.00  0.00     0.034 C 
ATOM     91  C   UNL A   1      32.991  16.411  24.467  1.00  0.00     0.003 C 
BRANCH  88  92
ATOM     92  O   UNL A   1      32.073  19.901  25.449  1.00  0.00    -0.391 OA
ATOM     93  H   UNL A   1      31.149  19.619  25.369  1.00  0.00     0.211 HD
ENDBRANCH  88  92
ENDBRANCH  84  86
ENDBRANCH  82  84
ENDBRANCH  75  78
ENDBRANCH  73  74
ENDBRANCH  72  73
ENDBRANCH   1  72
TORSDOF 17
ENDMDL
MODEL 2
REMARK VINA RESULT:     -11.6      3.916      7.627
REMARK SMILES O=C(NCCCCNC(=O)c1cccc(N[C@H]2CCCC[C@@H]2O)c1)c1ccc(-c2c3nc(c(-c4cc(S(=O)(=O)[O-])ccc4F)c4ccc([nH]4)c(-c4cc(S(=O)(=O)[O-])ccc4F)c4nc(c(-c5cc(S(=O)(=O)[O-])ccc5F)c5ccc2[nH]5)C=C4)C=C3)cc1
REMARK SMILES IDX 5 1 4 2 3 3 1 4 2 5 25 7 26 8 87 9 27 10 86 11 28 12 29 13
REMARK SMILES IDX 30 14 80 15 31 16 85 17 79 18 81 19 32 20 84 21 78 22 77 23
REMARK SMILES IDX 33 25 65 26 45 27 64 28 46 29 49 30 63 31 82 32 47 33 48 34
REMARK SMILES IDX 62 36 83 37 50 38 34 39 35 40 43 41 36 42 42 43 44 44 41 45
REMARK SMILES IDX 37 46 38 47 39 48 40 49 66 50 67 51 75 52 68 53 74 54 76 55
REMARK SMILES IDX 73 56 69 57 70 58 71 59 72 60 51 61 52 62 60 63 53 64 59 65
REMARK SMILES IDX 61 66 58 67 54 68 55 69 56 70 57 71 6 72 7 73 8 74 9 75
REMARK SMILES IDX 10 77 11 78 12 79 24 80 13 81 15 82 14 83 16 84 17 86 18 87
REMARK SMILES IDX 22 88 19 89 21 90 20 91 23 92
REMARK H PARENT 3 6 81 24 49 35 8 76 16 85 23 93
REMARK Flexibility Score: inf
ROOT
ATOM      1  C   UNL A   1      35.072  34.367  28.693  1.00  0.00     0.023 C 
ENDROOT
BRANCH   1   2
ATOM      2  C   UNL A   1      34.408  33.110  29.239  1.00  0.00     0.116 C 
BRANCH   2   3
ATOM      3  N   UNL A   1      33.924  32.227  28.189  1.00  0.00    -0.352 N 
ATOM      4  O   UNL A   1      34.042  30.565  26.667  1.00  0.00    -0.269 OA
ATOM      5  C   UNL A   1      34.521  31.107  27.659  1.00  0.00     0.251 C 
ATOM      6  H   UNL A   1      33.050  32.463  27.804  1.00  0.00     0.163 HD
BRANCH   5   7
ATOM      7  C   UNL A   1      35.752  30.574  28.282  1.00  0.00     0.039 A 
ATOM      8  C   UNL A   1      37.006  30.923  27.776  1.00  0.00     0.014 A 
ATOM      9  C   UNL A   1      35.648  29.703  29.369  1.00  0.00     0.014 A 
ATOM     10  C   UNL A   1      38.145  30.290  28.257  1.00  0.00     0.010 A 
ATOM     11  C   UNL A   1      36.806  29.142  29.916  1.00  0.00     0.010 A 
ATOM     12  C   UNL A   1      38.061  29.410  29.348  1.00  0.00    -0.014 A 
BRANCH  12  13
ATOM     13  C   UNL A   1      39.306  28.839  29.924  1.00  0.00     0.031 A 
ATOM     14  C   UNL A   1      39.921  29.411  31.168  1.00  0.00     0.074 A 
ATOM     15  C   UNL A   1      39.882  27.792  29.301  1.00  0.00     0.049 A 
ATOM     16  N   UNL A   1      41.031  29.067  31.773  1.00  0.00    -0.248 NA
ATOM     17  C   UNL A   1      39.207  30.522  31.809  1.00  0.00     0.031 C 
ATOM     18  C   UNL A   1      39.373  27.159  28.081  1.00  0.00     0.029 A 
ATOM     19  N   UNL A   1      41.014  27.077  29.596  1.00  0.00    -0.354 N 
ATOM     20  C   UNL A   1      41.160  29.930  32.856  1.00  0.00     0.074 A 
ATOM     21  C   UNL A   1      40.031  30.837  32.798  1.00  0.00     0.031 C 
ATOM     22  C   UNL A   1      40.174  26.140  27.746  1.00  0.00     0.029 A 
ATOM     23  C   UNL A   1      41.298  26.099  28.673  1.00  0.00     0.049 A 
ATOM     24  H   UNL A   1      41.569  27.248  30.391  1.00  0.00     0.167 HD
ATOM     25  C   UNL A   1      42.127  29.954  33.808  1.00  0.00     0.034 A 
ATOM     26  C   UNL A   1      42.366  25.287  28.552  1.00  0.00     0.034 A 
ATOM     27  C   UNL A   1      43.249  29.042  33.833  1.00  0.00     0.049 A 
ATOM     28  C   UNL A   1      43.459  25.373  29.580  1.00  0.00     0.074 A 
ATOM     29  C   UNL A   1      44.261  28.946  34.772  1.00  0.00     0.029 A 
ATOM     30  N   UNL A   1      43.521  28.083  32.864  1.00  0.00    -0.354 N 
ATOM     31  N   UNL A   1      43.552  26.171  30.619  1.00  0.00    -0.248 NA
ATOM     32  C   UNL A   1      44.587  24.449  29.425  1.00  0.00     0.031 C 
ATOM     33  C   UNL A   1      45.189  28.000  34.325  1.00  0.00     0.029 A 
ATOM     34  C   UNL A   1      44.709  27.428  33.157  1.00  0.00     0.049 A 
ATOM     35  H   UNL A   1      42.953  27.895  32.081  1.00  0.00     0.167 HD
ATOM     36  C   UNL A   1      44.740  25.829  31.255  1.00  0.00     0.074 A 
ATOM     37  C   UNL A   1      45.322  24.745  30.489  1.00  0.00     0.031 C 
ATOM     38  C   UNL A   1      45.293  26.359  32.376  1.00  0.00     0.034 A 
BRANCH  25  39
ATOM     39  C   UNL A   1      42.044  31.040  34.860  1.00  0.00     0.023 A 
ATOM     40  C   UNL A   1      40.983  31.104  35.781  1.00  0.00     0.031 A 
ATOM     41  C   UNL A   1      43.021  32.051  34.916  1.00  0.00     0.131 A 
ATOM     42  C   UNL A   1      40.874  32.202  36.649  1.00  0.00     0.055 A 
ATOM     43  C   UNL A   1      42.956  33.090  35.848  1.00  0.00     0.041 A 
ATOM     44  F   UNL A   1      44.048  32.059  34.053  1.00  0.00    -0.206 F 
ATOM     45  C   UNL A   1      41.866  33.182  36.708  1.00  0.00     0.022 A 
BRANCH  42  46
ATOM     46  S   UNL A   1      39.323  32.425  37.567  1.00  0.00     0.124 S 
ATOM     47  O   UNL A   1      38.876  33.728  37.080  1.00  0.00    -0.237 OA
ATOM     48  O   UNL A   1      38.535  31.276  37.137  1.00  0.00    -0.237 OA
ATOM     49  O   UNL A   1      39.747  32.404  38.965  1.00  0.00    -0.744 OA
ENDBRANCH  42  46
ENDBRANCH  25  39
BRANCH  26  50
ATOM     50  C   UNL A   1      42.466  24.376  27.378  1.00  0.00     0.023 A 
ATOM     51  C   UNL A   1      41.935  23.078  27.409  1.00  0.00     0.031 A 
ATOM     52  C   UNL A   1      43.095  24.806  26.193  1.00  0.00     0.131 A 
ATOM     53  C   UNL A   1      42.065  22.247  26.285  1.00  0.00     0.055 A 
ATOM     54  C   UNL A   1      43.170  23.996  25.061  1.00  0.00     0.041 A 
ATOM     55  F   UNL A   1      43.616  26.041  26.110  1.00  0.00    -0.206 F 
ATOM     56  C   UNL A   1      42.661  22.702  25.107  1.00  0.00     0.022 A 
BRANCH  53  57
ATOM     57  S   UNL A   1      41.499  20.528  26.407  1.00  0.00     0.124 S 
ATOM     58  O   UNL A   1      41.856  20.195  27.781  1.00  0.00    -0.237 OA
ATOM     59  O   UNL A   1      40.073  20.658  26.127  1.00  0.00    -0.237 OA
ATOM     60  O   UNL A   1      42.275  19.842  25.376  1.00  0.00    -0.744 OA
ENDBRANCH  53  57
ENDBRANCH  26  50
BRANCH  38  61
ATOM     61  C   UNL A   1      46.579  25.739  32.868  1.00  0.00     0.023 A 
ATOM     62  C   UNL A   1      46.590  24.635  33.738  1.00  0.00     0.031 A 
ATOM     63  C   UNL A   1      47.816  26.263  32.450  1.00  0.00     0.131 A 
ATOM     64  C   UNL A   1      47.813  24.118  34.194  1.00  0.00     0.055 A 
ATOM     65  C   UNL A   1      49.028  25.706  32.856  1.00  0.00     0.041 A 
ATOM     66  F   UNL A   1      47.865  27.323  31.627  1.00  0.00    -0.206 F 
ATOM     67  C   UNL A   1      49.031  24.632  33.742  1.00  0.00     0.022 A 
BRANCH  64  68
ATOM     68  S   UNL A   1      47.795  22.814  35.455  1.00  0.00     0.124 S 
ATOM     69  O   UNL A   1      47.085  23.464  36.552  1.00  0.00    -0.237 OA
ATOM     70  O   UNL A   1      47.079  21.736  34.782  1.00  0.00    -0.237 OA
ATOM     71  O   UNL A   1      49.213  22.556  35.702  1.00  0.00    -0.744 OA
ENDBRANCH  64  68
ENDBRANCH  38  61
ENDBRANCH  12  13
ENDBRANCH   5   7
ENDBRANCH   2   3
ENDBRANCH   1   2
BRANCH   1  72
ATOM     72  C   UNL A   1      34.131  35.548  28.475  1.00  0.00     0.023 C 
BRANCH  72  73
ATOM     73  C   UNL A   1      32.903  35.572  29.379  1.00  0.00     0.116 C 
BRANCH  73  74
ATOM     74  N   UNL A   1      32.868  36.732  30.254  1.00  0.00    -0.352 N 
ATOM     75  C   UNL A   1      33.218  36.830  31.576  1.00  0.00     0.251 C 
ATOM     76  H   UNL A   1      32.549  37.566  29.839  1.00  0.00     0.163 HD
ATOM     77  O   UNL A   1      32.989  37.858  32.210  1.00  0.00    -0.269 OA
BRANCH  75  78
ATOM     78  C   UNL A   1      33.854  35.684  32.254  1.00  0.00     0.041 A 
ATOM     79  C   UNL A   1      33.056  34.608  32.632  1.00  0.00     0.014 A 
ATOM     80  C   UNL A   1      35.232  35.677  32.514  1.00  0.00     0.039 A 
ATOM     81  C   UNL A   1      33.655  33.505  33.224  1.00  0.00     0.003 A 
ATOM     82  C   UNL A   1      35.866  34.558  33.066  1.00  0.00     0.035 A 
ATOM     83  C   UNL A   1      35.044  33.482  33.423  1.00  0.00     0.026 A 
BRANCH  82  84
ATOM     84  N   UNL A   1      37.244  34.579  33.180  1.00  0.00    -0.380 N 
ATOM     85  H   UNL A   1      37.601  35.059  33.962  1.00  0.00     0.160 HD
BRANCH  84  86
ATOM     86  C   UNL A   1      38.247  33.979  32.291  1.00  0.00     0.107 C 
ATOM     87  C   UNL A   1      37.757  33.959  30.838  1.00  0.00     0.027 C 
ATOM     88  C   UNL A   1      39.661  34.578  32.517  1.00  0.00     0.136 C 
ATOM     89  C   UNL A   1      38.836  33.498  29.866  1.00  0.00     0.002 C 
ATOM     90  C   UNL A   1      40.662  34.131  31.456  1.00  0.00     0.034 C 
ATOM     91  C   UNL A   1      40.120  34.298  30.046  1.00  0.00     0.003 C 
BRANCH  88  92
ATOM     92  O   UNL A   1      40.194  34.158  33.782  1.00  0.00    -0.391 OA
ATOM     93  H   UNL A   1      40.616  33.290  33.683  1.00  0.00     0.211 HD
ENDBRANCH  88  92
ENDBRANCH  84  86
ENDBRANCH  82  84
ENDBRANCH  75  78
ENDBRANCH  73  74
ENDBRANCH  72  73
ENDBRANCH   1  72
TORSDOF 17
ENDMDL
MODEL 3
REMARK VINA RESULT:     -11.6      4.738     10.221
REMARK SMILES O=C(NCCCCNC(=O)c1cccc(N[C@H]2CCCC[C@@H]2O)c1)c1ccc(-c2c3nc(c(-c4cc(S(=O)(=O)[O-])ccc4F)c4ccc([nH]4)c(-c4cc(S(=O)(=O)[O-])ccc4F)c4nc(c(-c5cc(S(=O)(=O)[O-])ccc5F)c5ccc2[nH]5)C=C4)C=C3)cc1
REMARK SMILES IDX 5 1 4 2 3 3 1 4 2 5 25 7 26 8 87 9 27 10 86 11 28 12 29 13
REMARK SMILES IDX 30 14 80 15 31 16 85 17 79 18 81 19 32 20 84 21 78 22 77 23
REMARK SMILES IDX 33 25 65 26 45 27 64 28 46 29 49 30 63 31 82 32 47 33 48 34
REMARK SMILES IDX 62 36 83 37 50 38 34 39 35 40 43 41 36 42 42 43 44 44 41 45
REMARK SMILES IDX 37 46 38 47 39 48 40 49 66 50 67 51 75 52 68 53 74 54 76 55
REMARK SMILES IDX 73 56 69 57 70 58 71 59 72 60 51 61 52 62 60 63 53 64 59 65
REMARK SMILES IDX 61 66 58 67 54 68 55 69 56 70 57 71 6 72 7 73 8 74 9 75
REMARK SMILES IDX 10 77 11 78 12 79 24 80 13 81 15 82 14 83 16 84 17 86 18 87
REMARK SMILES IDX 22 88 19 89 21 90 20 91 23 92
REMARK H PARENT 3 6 81 24 49 35 8 76 16 85 23 93
REMARK Flexibility Score: inf
ROOT
ATOM      1  C   UNL A   1      35.440  23.272  25.133  1.00  0.00     0.023 C 
ENDROOT
BRANCH   1   2
ATOM      2  C   UNL A   1      36.682  23.713  25.895  1.00  0.00     0.116 C 
BRANCH   2   3
ATOM      3  N   UNL A   1      37.664  22.648  26.036  1.00  0.00    -0.352 N 
ATOM      4  O   UNL A   1      39.712  21.750  26.333  1.00  0.00    -0.269 OA
ATOM      5  C   UNL A   1      38.983  22.735  26.415  1.00  0.00     0.251 C 
ATOM      6  H   UNL A   1      37.339  21.742  25.834  1.00  0.00     0.163 HD
BRANCH   5   7
ATOM      7  C   UNL A   1      39.518  24.024  26.902  1.00  0.00     0.039 A 
ATOM      8  C   UNL A   1      39.544  24.305  28.270  1.00  0.00     0.014 A 
ATOM      9  C   UNL A   1      39.980  24.966  25.980  1.00  0.00     0.014 A 
ATOM     10  C   UNL A   1      39.890  25.578  28.706  1.00  0.00     0.010 A 
ATOM     11  C   UNL A   1      40.422  26.213  26.431  1.00  0.00     0.010 A 
ATOM     12  C   UNL A   1      40.356  26.539  27.795  1.00  0.00    -0.014 A 
BRANCH  12  13
ATOM     13  C   UNL A   1      40.836  27.852  28.299  1.00  0.00     0.031 A 
ATOM     14  C   UNL A   1      42.302  28.166  28.376  1.00  0.00     0.074 A 
ATOM     15  C   UNL A   1      39.925  28.762  28.693  1.00  0.00     0.049 A 
ATOM     16  N   UNL A   1      42.893  29.240  28.838  1.00  0.00    -0.248 NA
ATOM     17  C   UNL A   1      43.227  27.136  27.885  1.00  0.00     0.031 C 
ATOM     18  C   UNL A   1      38.473  28.561  28.666  1.00  0.00     0.029 A 
ATOM     19  N   UNL A   1      40.073  30.029  29.195  1.00  0.00    -0.354 N 
ATOM     20  C   UNL A   1      44.259  29.010  28.712  1.00  0.00     0.074 A 
ATOM     21  C   UNL A   1      44.404  27.676  28.164  1.00  0.00     0.031 C 
ATOM     22  C   UNL A   1      37.867  29.670  29.108  1.00  0.00     0.029 A 
ATOM     23  C   UNL A   1      38.882  30.627  29.530  1.00  0.00     0.049 A 
ATOM     24  H   UNL A   1      40.948  30.468  29.304  1.00  0.00     0.167 HD
ATOM     25  C   UNL A   1      45.288  29.840  29.020  1.00  0.00     0.034 A 
ATOM     26  C   UNL A   1      38.627  31.795  30.151  1.00  0.00     0.034 A 
ATOM     27  C   UNL A   1      45.111  31.163  29.576  1.00  0.00     0.049 A 
ATOM     28  C   UNL A   1      39.784  32.671  30.544  1.00  0.00     0.074 A 
ATOM     29  C   UNL A   1      46.077  32.104  29.884  1.00  0.00     0.029 A 
ATOM     30  N   UNL A   1      43.889  31.724  29.932  1.00  0.00    -0.354 N 
ATOM     31  N   UNL A   1      41.070  32.457  30.387  1.00  0.00    -0.248 NA
ATOM     32  C   UNL A   1      39.457  33.947  31.190  1.00  0.00     0.031 C 
ATOM     33  C   UNL A   1      45.452  33.190  30.508  1.00  0.00     0.029 A 
ATOM     34  C   UNL A   1      44.083  32.975  30.500  1.00  0.00     0.049 A 
ATOM     35  H   UNL A   1      43.012  31.295  29.800  1.00  0.00     0.167 HD
ATOM     36  C   UNL A   1      41.707  33.583  30.897  1.00  0.00     0.074 A 
ATOM     37  C   UNL A   1      40.662  34.477  31.354  1.00  0.00     0.031 C 
ATOM     38  C   UNL A   1      43.035  33.854  30.971  1.00  0.00     0.034 A 
BRANCH  25  39
ATOM     39  C   UNL A   1      46.693  29.313  28.819  1.00  0.00     0.023 A 
ATOM     40  C   UNL A   1      47.250  29.150  27.538  1.00  0.00     0.031 A 
ATOM     41  C   UNL A   1      47.473  28.929  29.925  1.00  0.00     0.131 A 
ATOM     42  C   UNL A   1      48.503  28.532  27.392  1.00  0.00     0.055 A 
ATOM     43  C   UNL A   1      48.758  28.402  29.776  1.00  0.00     0.041 A 
ATOM     44  F   UNL A   1      46.992  29.040  31.173  1.00  0.00    -0.206 F 
ATOM     45  C   UNL A   1      49.272  28.181  28.503  1.00  0.00     0.022 A 
BRANCH  42  46
ATOM     46  S   UNL A   1      49.026  28.026  25.729  1.00  0.00     0.124 S 
ATOM     47  O   UNL A   1      50.248  28.808  25.552  1.00  0.00    -0.237 OA
ATOM     48  O   UNL A   1      49.204  26.587  25.879  1.00  0.00    -0.237 OA
ATOM     49  O   UNL A   1      47.909  28.433  24.880  1.00  0.00    -0.744 OA
ENDBRANCH  42  46
ENDBRANCH  25  39
BRANCH  26  50
ATOM     50  C   UNL A   1      37.222  32.156  30.487  1.00  0.00     0.023 A 
ATOM     51  C   UNL A   1      36.361  32.718  29.534  1.00  0.00     0.031 A 
ATOM     52  C   UNL A   1      36.718  31.931  31.783  1.00  0.00     0.131 A 
ATOM     53  C   UNL A   1      35.048  33.058  29.897  1.00  0.00     0.055 A 
ATOM     54  C   UNL A   1      35.397  32.218  32.123  1.00  0.00     0.041 A 
ATOM     55  F   UNL A   1      37.501  31.391  32.732  1.00  0.00    -0.206 F 
ATOM     56  C   UNL A   1      34.555  32.795  31.178  1.00  0.00     0.022 A 
BRANCH  53  57
ATOM     57  S   UNL A   1      34.007  33.916  28.686  1.00  0.00     0.124 S 
ATOM     58  O   UNL A   1      33.598  32.819  27.816  1.00  0.00    -0.237 OA
ATOM     59  O   UNL A   1      32.965  34.488  29.532  1.00  0.00    -0.237 OA
ATOM     60  O   UNL A   1      34.918  34.886  28.082  1.00  0.00    -0.744 OA
ENDBRANCH  53  57
ENDBRANCH  26  50
BRANCH  38  61
ATOM     61  C   UNL A   1      43.433  35.199  31.531  1.00  0.00     0.023 A 
ATOM     62  C   UNL A   1      43.641  36.318  30.708  1.00  0.00     0.031 A 
ATOM     63  C   UNL A   1      43.599  35.359  32.920  1.00  0.00     0.131 A 
ATOM     64  C   UNL A   1      44.044  37.537  31.275  1.00  0.00     0.055 A 
ATOM     65  C   UNL A   1      43.937  36.589  33.483  1.00  0.00     0.041 A 
ATOM     66  F   UNL A   1      43.422  34.322  33.753  1.00  0.00    -0.206 F 
ATOM     67  C   UNL A   1      44.172  37.685  32.659  1.00  0.00     0.022 A 
BRANCH  64  68
ATOM     68  S   UNL A   1      44.482  38.912  30.176  1.00  0.00     0.124 S 
ATOM     69  O   UNL A   1      43.170  39.445  29.822  1.00  0.00    -0.237 OA
ATOM     70  O   UNL A   1      45.302  39.756  31.039  1.00  0.00    -0.237 OA
ATOM     71  O   UNL A   1      45.202  38.261  29.082  1.00  0.00    -0.744 OA
ENDBRANCH  64  68
ENDBRANCH  38  61
ENDBRANCH  12  13
ENDBRANCH   5   7
ENDBRANCH   2   3
ENDBRANCH   1   2
BRANCH   1  72
ATOM     72  C   UNL A   1      34.715  24.387  24.385  1.00  0.00     0.023 C 
BRANCH  72  73
ATOM     73  C   UNL A   1      34.008  25.407  25.272  1.00  0.00     0.116 C 
BRANCH  73  74
ATOM     74  N   UNL A   1      32.716  24.939  25.751  1.00  0.00    -0.352 N 
ATOM     75  C   UNL A   1      31.682  25.659  26.290  1.00  0.00     0.251 C 
ATOM     76  H   UNL A   1      32.562  23.970  25.675  1.00  0.00     0.163 HD
ATOM     77  O   UNL A   1      30.710  25.087  26.781  1.00  0.00    -0.269 OA
BRANCH  75  78
ATOM     78  C   UNL A   1      31.742  27.133  26.307  1.00  0.00     0.041 A 
ATOM     79  C   UNL A   1      32.255  27.765  27.435  1.00  0.00     0.014 A 
ATOM     80  C   UNL A   1      31.291  27.883  25.210  1.00  0.00     0.039 A 
ATOM     81  C   UNL A   1      32.361  29.149  27.437  1.00  0.00     0.003 A 
ATOM     82  C   UNL A   1      31.432  29.275  25.169  1.00  0.00     0.035 A 
ATOM     83  C   UNL A   1      31.966  29.887  26.311  1.00  0.00     0.026 A 
BRANCH  82  84
ATOM     84  N   UNL A   1      31.077  29.932  24.006  1.00  0.00    -0.380 N 
ATOM     85  H   UNL A   1      31.821  30.306  23.482  1.00  0.00     0.160 HD
BRANCH  84  86
ATOM     86  C   UNL A   1      29.736  30.148  23.449  1.00  0.00     0.107 C 
ATOM     87  C   UNL A   1      29.091  31.412  24.030  1.00  0.00     0.027 C 
ATOM     88  C   UNL A   1      29.721  30.035  21.901  1.00  0.00     0.136 C 
ATOM     89  C   UNL A   1      27.771  31.757  23.352  1.00  0.00     0.002 C 
ATOM     90  C   UNL A   1      28.392  30.474  21.294  1.00  0.00     0.034 C 
ATOM     91  C   UNL A   1      27.927  31.816  21.837  1.00  0.00     0.003 C 
BRANCH  88  92
ATOM     92  O   UNL A   1      29.926  28.675  21.488  1.00  0.00    -0.391 OA
ATOM     93  H   UNL A   1      30.819  28.392  21.739  1.00  0.00     0.211 HD
ENDBRANCH  88  92
ENDBRANCH  84  86
ENDBRANCH  82  84
ENDBRANCH  75  78
ENDBRANCH  73  74
ENDBRANCH  72  73
ENDBRANCH   1  72
TORSDOF 17
ENDMDL
