MODEL 1
REMARK VINA RESULT:     -11.9      0.000      0.000
REMARK SMILES CCN1C(=O)CC[C@H](C(=O)NCCCCNC(=O)c2ccc(-c3c4nc(c(-c5cc(S(=O)(=O)[O-])ccc5F)c5ccc([nH]5)c(-c5cc(S(=O)(=O)[O-])ccc5F)c5nc(c(-c6cc(S(=O)(=O)[O-])ccc6F)c6ccc3[nH]6)C=C5)C=C4)cc2)[C@@H]1c1ccc(OC)cc1
REMARK SMILES IDX 14 1 13 2 12 3 11 4 9 5 10 6 8 8 3 9 4 10 82 11 5 12 6 13
REMARK SMILES IDX 7 14 2 15 1 16 83 17 84 18 90 19 85 20 89 21 86 22 87 23
REMARK SMILES IDX 88 24 15 25 16 26 17 27 18 29 19 30 20 31 81 32 21 33 80 34
REMARK SMILES IDX 22 35 23 36 24 37 74 38 25 39 79 40 73 41 75 42 26 43 78 44
REMARK SMILES IDX 72 45 71 46 27 48 59 49 39 50 58 51 40 52 43 53 57 54 76 55
REMARK SMILES IDX 41 56 42 57 56 59 77 60 44 61 28 62 29 63 37 64 30 65 36 66
REMARK SMILES IDX 38 67 35 68 31 69 32 70 33 71 34 72 60 73 61 74 69 75 62 76
REMARK SMILES IDX 68 77 70 78 67 79 63 80 64 81 65 82 66 83 45 84 46 85 54 86
REMARK SMILES IDX 47 87 53 88 55 89 52 90 48 91 49 92 50 93 51 94
REMARK H PARENT 11 7 16 28 75 47 43 58
REMARK Flexibility Score: inf
ROOT
ATOM      1  C   UNL A   1      32.418  30.671  27.109  1.00  0.00     0.023 C 
ENDROOT
BRANCH   1   2
ATOM      2  C   UNL A   1      32.846  29.327  26.524  1.00  0.00     0.023 C 
BRANCH   2   3
ATOM      3  C   UNL A   1      32.612  28.137  27.441  1.00  0.00     0.116 C 
BRANCH   3   4
ATOM      4  N   UNL A   1      31.321  27.502  27.265  1.00  0.00    -0.356 N 
ATOM      5  C   UNL A   1      30.959  26.463  26.464  1.00  0.00     0.225 C 
ATOM      6  O   UNL A   1      29.896  25.889  26.730  1.00  0.00    -0.275 OA
ATOM      7  H   UNL A   1      30.594  27.880  27.810  1.00  0.00     0.163 HD
BRANCH   5   8
ATOM      8  C   UNL A   1      31.784  25.990  25.269  1.00  0.00     0.106 C 
ATOM      9  N   UNL A   1      32.772  26.470  22.991  1.00  0.00    -0.335 N 
ATOM     10  C   UNL A   1      32.799  25.112  22.686  1.00  0.00     0.223 C 
ATOM     11  C   UNL A   1      32.054  27.039  24.167  1.00  0.00     0.128 C 
ATOM     12  O   UNL A   1      33.216  24.687  21.606  1.00  0.00    -0.275 OA
ATOM     13  C   UNL A   1      32.431  24.121  23.768  1.00  0.00     0.101 C 
ATOM     14  C   UNL A   1      31.387  24.620  24.738  1.00  0.00     0.026 C 
BRANCH   9  15
ATOM     15  C   UNL A   1      33.369  27.345  21.969  1.00  0.00     0.117 C 
ATOM     16  C   UNL A   1      34.223  28.525  22.406  1.00  0.00     0.027 C 
ENDBRANCH   9  15
BRANCH  11  17
ATOM     17  C   UNL A   1      30.854  27.886  23.755  1.00  0.00    -0.024 A 
ATOM     18  C   UNL A   1      30.866  29.289  23.808  1.00  0.00     0.010 A 
ATOM     19  C   UNL A   1      29.672  27.246  23.331  1.00  0.00     0.010 A 
ATOM     20  C   UNL A   1      29.737  30.022  23.428  1.00  0.00     0.047 A 
ATOM     21  C   UNL A   1      28.549  27.984  22.942  1.00  0.00     0.047 A 
ATOM     22  C   UNL A   1      28.588  29.376  22.972  1.00  0.00     0.118 A 
BRANCH  22  23
ATOM     23  O   UNL A   1      27.566  30.204  22.603  1.00  0.00    -0.497 OA
ATOM     24  C   UNL A   1      27.529  31.471  23.251  1.00  0.00     0.278 C 
ENDBRANCH  22  23
ENDBRANCH  11  17
ENDBRANCH   5   8
ENDBRANCH   3   4
ENDBRANCH   2   3
ENDBRANCH   1   2
BRANCH   1  25
ATOM     25  C   UNL A   1      33.510  31.734  27.213  1.00  0.00     0.116 C 
BRANCH  25  26
ATOM     26  N   UNL A   1      33.008  33.070  27.501  1.00  0.00    -0.352 N 
ATOM     27  C   UNL A   1      33.417  33.956  28.472  1.00  0.00     0.251 C 
ATOM     28  H   UNL A   1      32.276  33.382  26.922  1.00  0.00     0.163 HD
ATOM     29  O   UNL A   1      32.817  35.009  28.636  1.00  0.00    -0.269 OA
BRANCH  27  30
ATOM     30  C   UNL A   1      34.568  33.610  29.334  1.00  0.00     0.039 A 
ATOM     31  C   UNL A   1      34.353  32.797  30.450  1.00  0.00     0.014 A 
ATOM     32  C   UNL A   1      35.858  34.048  29.018  1.00  0.00     0.014 A 
ATOM     33  C   UNL A   1      35.445  32.350  31.195  1.00  0.00     0.010 A 
ATOM     34  C   UNL A   1      36.947  33.558  29.725  1.00  0.00     0.010 A 
ATOM     35  C   UNL A   1      36.751  32.689  30.808  1.00  0.00    -0.014 A 
BRANCH  35  36
ATOM     36  C   UNL A   1      37.934  32.099  31.479  1.00  0.00     0.031 A 
ATOM     37  C   UNL A   1      38.703  30.993  30.819  1.00  0.00     0.074 A 
ATOM     38  C   UNL A   1      38.238  32.501  32.728  1.00  0.00     0.049 A 
ATOM     39  N   UNL A   1      39.715  30.304  31.277  1.00  0.00    -0.248 NA
ATOM     40  C   UNL A   1      38.253  30.588  29.479  1.00  0.00     0.031 C 
ATOM     41  C   UNL A   1      37.511  33.524  33.485  1.00  0.00     0.029 A 
ATOM     42  N   UNL A   1      39.222  32.088  33.589  1.00  0.00    -0.354 N 
ATOM     43  C   UNL A   1      40.025  29.381  30.285  1.00  0.00     0.074 A 
ATOM     44  C   UNL A   1      39.049  29.558  29.229  1.00  0.00     0.031 C 
ATOM     45  C   UNL A   1      38.084  33.669  34.690  1.00  0.00     0.029 A 
ATOM     46  C   UNL A   1      39.192  32.727  34.808  1.00  0.00     0.049 A 
ATOM     47  H   UNL A   1      39.886  31.401  33.358  1.00  0.00     0.167 HD
ATOM     48  C   UNL A   1      41.043  28.485  30.252  1.00  0.00     0.034 A 
ATOM     49  C   UNL A   1      39.965  32.564  35.898  1.00  0.00     0.034 A 
ATOM     50  C   UNL A   1      41.998  28.326  31.323  1.00  0.00     0.049 A 
ATOM     51  C   UNL A   1      41.081  31.553  35.844  1.00  0.00     0.074 A 
ATOM     52  C   UNL A   1      43.104  27.495  31.377  1.00  0.00     0.029 A 
ATOM     53  N   UNL A   1      41.952  29.002  32.537  1.00  0.00    -0.354 N 
ATOM     54  N   UNL A   1      41.411  30.738  34.867  1.00  0.00    -0.248 NA
ATOM     55  C   UNL A   1      41.939  31.452  37.031  1.00  0.00     0.031 C 
ATOM     56  C   UNL A   1      43.683  27.618  32.645  1.00  0.00     0.029 A 
ATOM     57  C   UNL A   1      42.989  28.584  33.357  1.00  0.00     0.049 A 
ATOM     58  H   UNL A   1      41.281  29.680  32.780  1.00  0.00     0.167 HD
ATOM     59  C   UNL A   1      42.537  30.051  35.311  1.00  0.00     0.074 A 
ATOM     60  C   UNL A   1      42.835  30.558  36.636  1.00  0.00     0.031 C 
ATOM     61  C   UNL A   1      43.262  29.092  34.682  1.00  0.00     0.034 A 
BRANCH  48  62
ATOM     62  C   UNL A   1      41.154  27.602  29.032  1.00  0.00     0.023 A 
ATOM     63  C   UNL A   1      42.138  27.822  28.050  1.00  0.00     0.031 A 
ATOM     64  C   UNL A   1      40.253  26.541  28.830  1.00  0.00     0.131 A 
ATOM     65  C   UNL A   1      42.148  27.046  26.880  1.00  0.00     0.055 A 
ATOM     66  C   UNL A   1      40.321  25.721  27.703  1.00  0.00     0.041 A 
ATOM     67  F   UNL A   1      39.278  26.295  29.719  1.00  0.00    -0.206 F 
ATOM     68  C   UNL A   1      41.263  25.981  26.711  1.00  0.00     0.022 A 
BRANCH  65  69
ATOM     69  S   UNL A   1      43.238  27.549  25.520  1.00  0.00     0.124 S 
ATOM     70  O   UNL A   1      42.288  28.161  24.593  1.00  0.00    -0.237 OA
ATOM     71  O   UNL A   1      44.165  28.460  26.179  1.00  0.00    -0.237 OA
ATOM     72  O   UNL A   1      43.819  26.288  25.063  1.00  0.00    -0.744 OA
ENDBRANCH  65  69
ENDBRANCH  48  62
BRANCH  49  73
ATOM     73  C   UNL A   1      39.721  33.374  37.125  1.00  0.00     0.023 A 
ATOM     74  C   UNL A   1      38.984  32.852  38.199  1.00  0.00     0.031 A 
ATOM     75  C   UNL A   1      40.197  34.693  37.231  1.00  0.00     0.131 A 
ATOM     76  C   UNL A   1      38.701  33.659  39.311  1.00  0.00     0.055 A 
ATOM     77  C   UNL A   1      39.959  35.475  38.362  1.00  0.00     0.041 A 
ATOM     78  F   UNL A   1      40.917  35.237  36.236  1.00  0.00    -0.206 F 
ATOM     79  C   UNL A   1      39.195  34.962  39.407  1.00  0.00     0.022 A 
BRANCH  76  80
ATOM     80  S   UNL A   1      37.608  33.004  40.602  1.00  0.00     0.124 S 
ATOM     81  O   UNL A   1      37.599  34.099  41.566  1.00  0.00    -0.237 OA
ATOM     82  O   UNL A   1      36.367  32.787  39.865  1.00  0.00    -0.237 OA
ATOM     83  O   UNL A   1      38.291  31.790  41.042  1.00  0.00    -0.744 OA
ENDBRANCH  76  80
ENDBRANCH  49  73
BRANCH  61  84
ATOM     84  C   UNL A   1      44.475  28.566  35.411  1.00  0.00     0.023 A 
ATOM     85  C   UNL A   1      44.372  27.565  36.392  1.00  0.00     0.031 A 
ATOM     86  C   UNL A   1      45.749  29.092  35.130  1.00  0.00     0.131 A 
ATOM     87  C   UNL A   1      45.515  27.162  37.099  1.00  0.00     0.055 A 
ATOM     88  C   UNL A   1      46.891  28.640  35.793  1.00  0.00     0.041 A 
ATOM     89  F   UNL A   1      45.904  30.052  34.206  1.00  0.00    -0.206 F 
ATOM     90  C   UNL A   1      46.776  27.680  36.794  1.00  0.00     0.022 A 
BRANCH  87  91
ATOM     91  S   UNL A   1      45.315  26.018  38.493  1.00  0.00     0.124 S 
ATOM     92  O   UNL A   1      44.682  26.871  39.495  1.00  0.00    -0.237 OA
ATOM     93  O   UNL A   1      44.474  24.972  37.922  1.00  0.00    -0.237 OA
ATOM     94  O   UNL A   1      46.685  25.612  38.801  1.00  0.00    -0.744 OA
ENDBRANCH  87  91
ENDBRANCH  61  84
ENDBRANCH  35  36
ENDBRANCH  27  30
ENDBRANCH  25  26
ENDBRANCH   1  25
TORSDOF 17
ENDMDL
MODEL 2
REMARK VINA RESULT:     -11.8      1.244      2.912
REMARK SMILES CCN1C(=O)CC[C@H](C(=O)NCCCCNC(=O)c2ccc(-c3c4nc(c(-c5cc(S(=O)(=O)[O-])ccc5F)c5ccc([nH]5)c(-c5cc(S(=O)(=O)[O-])ccc5F)c5nc(c(-c6cc(S(=O)(=O)[O-])ccc6F)c6ccc3[nH]6)C=C5)C=C4)cc2)[C@@H]1c1ccc(OC)cc1
REMARK SMILES IDX 14 1 13 2 12 3 11 4 9 5 10 6 8 8 3 9 4 10 82 11 5 12 6 13
REMARK SMILES IDX 7 14 2 15 1 16 83 17 84 18 90 19 85 20 89 21 86 22 87 23
REMARK SMILES IDX 88 24 15 25 16 26 17 27 18 29 19 30 20 31 81 32 21 33 80 34
REMARK SMILES IDX 22 35 23 36 24 37 74 38 25 39 79 40 73 41 75 42 26 43 78 44
REMARK SMILES IDX 72 45 71 46 27 48 59 49 39 50 58 51 40 52 43 53 57 54 76 55
REMARK SMILES IDX 41 56 42 57 56 59 77 60 44 61 28 62 29 63 37 64 30 65 36 66
REMARK SMILES IDX 38 67 35 68 31 69 32 70 33 71 34 72 60 73 61 74 69 75 62 76
REMARK SMILES IDX 68 77 70 78 67 79 63 80 64 81 65 82 66 83 45 84 46 85 54 86
REMARK SMILES IDX 47 87 53 88 55 89 52 90 48 91 49 92 50 93 51 94
REMARK H PARENT 11 7 16 28 75 47 43 58
REMARK Flexibility Score: inf
ROOT
ATOM      1  C   UNL A   1      32.117  31.381  26.759  1.00  0.00     0.023 C 
ENDROOT
BRANCH   1   2
ATOM      2  C   UNL A   1      32.223  29.875  26.989  1.00  0.00     0.023 C 
BRANCH   2   3
ATOM      3  C   UNL A   1      33.612  29.299  26.762  1.00  0.00     0.116 C 
BRANCH   3   4
ATOM      4  N   UNL A   1      33.984  29.193  25.365  1.00  0.00    -0.356 N 
ATOM      5  C   UNL A   1      33.214  28.957  24.268  1.00  0.00     0.225 C 
ATOM      6  O   UNL A   1      33.698  29.241  23.167  1.00  0.00    -0.275 OA
ATOM      7  H   UNL A   1      34.945  29.310  25.181  1.00  0.00     0.163 HD
BRANCH   5   8
ATOM      8  C   UNL A   1      31.810  28.358  24.336  1.00  0.00     0.106 C 
ATOM      9  N   UNL A   1      30.321  26.373  24.817  1.00  0.00    -0.335 N 
ATOM     10  C   UNL A   1      29.335  26.872  23.970  1.00  0.00     0.223 C 
ATOM     11  C   UNL A   1      31.706  26.918  24.884  1.00  0.00     0.128 C 
ATOM     12  O   UNL A   1      28.270  26.281  23.778  1.00  0.00    -0.275 OA
ATOM     13  C   UNL A   1      29.523  28.249  23.375  1.00  0.00     0.101 C 
ATOM     14  C   UNL A   1      30.962  28.615  23.099  1.00  0.00     0.026 C 
BRANCH   9  15
ATOM     15  C   UNL A   1      29.953  25.142  25.536  1.00  0.00     0.117 C 
ATOM     16  C   UNL A   1      30.914  24.566  26.564  1.00  0.00     0.027 C 
ENDBRANCH   9  15
BRANCH  11  17
ATOM     17  C   UNL A   1      32.739  25.932  24.348  1.00  0.00    -0.024 A 
ATOM     18  C   UNL A   1      33.890  25.577  25.069  1.00  0.00     0.010 A 
ATOM     19  C   UNL A   1      32.559  25.374  23.066  1.00  0.00     0.010 A 
ATOM     20  C   UNL A   1      34.813  24.675  24.531  1.00  0.00     0.047 A 
ATOM     21  C   UNL A   1      33.480  24.464  22.536  1.00  0.00     0.047 A 
ATOM     22  C   UNL A   1      34.601  24.099  23.278  1.00  0.00     0.118 A 
BRANCH  22  23
ATOM     23  O   UNL A   1      35.560  23.212  22.879  1.00  0.00    -0.497 OA
ATOM     24  C   UNL A   1      36.308  22.594  23.921  1.00  0.00     0.278 C 
ENDBRANCH  22  23
ENDBRANCH  11  17
ENDBRANCH   5   8
ENDBRANCH   3   4
ENDBRANCH   2   3
ENDBRANCH   1   2
BRANCH   1  25
ATOM     25  C   UNL A   1      33.179  32.239  27.445  1.00  0.00     0.116 C 
BRANCH  25  26
ATOM     26  N   UNL A   1      32.760  33.611  27.692  1.00  0.00    -0.352 N 
ATOM     27  C   UNL A   1      33.247  34.511  28.612  1.00  0.00     0.251 C 
ATOM     28  H   UNL A   1      32.028  33.940  27.122  1.00  0.00     0.163 HD
ATOM     29  O   UNL A   1      32.711  35.602  28.750  1.00  0.00    -0.269 OA
BRANCH  27  30
ATOM     30  C   UNL A   1      34.404  34.137  29.454  1.00  0.00     0.039 A 
ATOM     31  C   UNL A   1      34.174  33.452  30.650  1.00  0.00     0.014 A 
ATOM     32  C   UNL A   1      35.711  34.419  29.044  1.00  0.00     0.014 A 
ATOM     33  C   UNL A   1      35.257  32.972  31.388  1.00  0.00     0.010 A 
ATOM     34  C   UNL A   1      36.786  33.893  29.748  1.00  0.00     0.010 A 
ATOM     35  C   UNL A   1      36.567  33.148  30.915  1.00  0.00    -0.014 A 
BRANCH  35  36
ATOM     36  C   UNL A   1      37.723  32.512  31.588  1.00  0.00     0.031 A 
ATOM     37  C   UNL A   1      38.434  31.360  30.941  1.00  0.00     0.074 A 
ATOM     38  C   UNL A   1      38.054  32.916  32.830  1.00  0.00     0.049 A 
ATOM     39  N   UNL A   1      39.414  30.629  31.404  1.00  0.00    -0.248 NA
ATOM     40  C   UNL A   1      37.957  30.958  29.610  1.00  0.00     0.031 C 
ATOM     41  C   UNL A   1      37.382  33.985  33.576  1.00  0.00     0.029 A 
ATOM     42  N   UNL A   1      39.022  32.469  33.692  1.00  0.00    -0.354 N 
ATOM     43  C   UNL A   1      39.673  29.678  30.424  1.00  0.00     0.074 A 
ATOM     44  C   UNL A   1      38.701  29.887  29.371  1.00  0.00     0.031 C 
ATOM     45  C   UNL A   1      37.969  34.119  34.776  1.00  0.00     0.029 A 
ATOM     46  C   UNL A   1      39.030  33.126  34.901  1.00  0.00     0.049 A 
ATOM     47  H   UNL A   1      39.651  31.747  33.467  1.00  0.00     0.167 HD
ATOM     48  C   UNL A   1      40.646  28.733  30.399  1.00  0.00     0.034 A 
ATOM     49  C   UNL A   1      39.801  32.941  35.989  1.00  0.00     0.034 A 
ATOM     50  C   UNL A   1      41.599  28.544  31.467  1.00  0.00     0.049 A 
ATOM     51  C   UNL A   1      40.867  31.876  35.945  1.00  0.00     0.074 A 
ATOM     52  C   UNL A   1      42.664  27.661  31.528  1.00  0.00     0.029 A 
ATOM     53  N   UNL A   1      41.593  29.239  32.671  1.00  0.00    -0.354 N 
ATOM     54  N   UNL A   1      41.151  31.033  34.978  1.00  0.00    -0.248 NA
ATOM     55  C   UNL A   1      41.726  31.751  37.128  1.00  0.00     0.031 C 
ATOM     56  C   UNL A   1      43.255  27.774  32.791  1.00  0.00     0.029 A 
ATOM     57  C   UNL A   1      42.613  28.783  33.491  1.00  0.00     0.049 A 
ATOM     58  H   UNL A   1      40.957  29.952  32.907  1.00  0.00     0.167 HD
ATOM     59  C   UNL A   1      42.245  30.298  35.426  1.00  0.00     0.074 A 
ATOM     60  C   UNL A   1      42.575  30.810  36.742  1.00  0.00     0.031 C 
ATOM     61  C   UNL A   1      42.918  29.296  34.808  1.00  0.00     0.034 A 
BRANCH  48  62
ATOM     62  C   UNL A   1      40.707  27.828  29.192  1.00  0.00     0.023 A 
ATOM     63  C   UNL A   1      41.645  28.034  28.163  1.00  0.00     0.031 A 
ATOM     64  C   UNL A   1      39.803  26.760  29.050  1.00  0.00     0.131 A 
ATOM     65  C   UNL A   1      41.606  27.237  27.008  1.00  0.00     0.055 A 
ATOM     66  C   UNL A   1      39.825  25.919  27.936  1.00  0.00     0.041 A 
ATOM     67  F   UNL A   1      38.870  26.526  29.986  1.00  0.00    -0.206 F 
ATOM     68  C   UNL A   1      40.720  26.165  26.898  1.00  0.00     0.022 A 
BRANCH  65  69
ATOM     69  S   UNL A   1      42.631  27.720  25.591  1.00  0.00     0.124 S 
ATOM     70  O   UNL A   1      41.903  28.880  25.082  1.00  0.00    -0.237 OA
ATOM     71  O   UNL A   1      43.919  27.996  26.214  1.00  0.00    -0.237 OA
ATOM     72  O   UNL A   1      42.595  26.542  24.726  1.00  0.00    -0.744 OA
ENDBRANCH  65  69
ENDBRANCH  48  62
BRANCH  49  73
ATOM     73  C   UNL A   1      39.604  33.780  37.206  1.00  0.00     0.023 A 
ATOM     74  C   UNL A   1      38.886  33.294  38.308  1.00  0.00     0.031 A 
ATOM     75  C   UNL A   1      40.106  35.092  37.272  1.00  0.00     0.131 A 
ATOM     76  C   UNL A   1      38.648  34.127  39.411  1.00  0.00     0.055 A 
ATOM     77  C   UNL A   1      39.912  35.900  38.393  1.00  0.00     0.041 A 
ATOM     78  F   UNL A   1      40.810  35.603  36.248  1.00  0.00    -0.206 F 
ATOM     79  C   UNL A   1      39.167  35.422  39.467  1.00  0.00     0.022 A 
BRANCH  76  80
ATOM     80  S   UNL A   1      37.577  33.519  40.743  1.00  0.00     0.124 S 
ATOM     81  O   UNL A   1      37.272  34.750  41.464  1.00  0.00    -0.237 OA
ATOM     82  O   UNL A   1      36.475  32.922  39.995  1.00  0.00    -0.237 OA
ATOM     83  O   UNL A   1      38.429  32.572  41.458  1.00  0.00    -0.744 OA
ENDBRANCH  76  80
ENDBRANCH  49  73
BRANCH  61  84
ATOM     84  C   UNL A   1      44.109  28.723  35.538  1.00  0.00     0.023 A 
ATOM     85  C   UNL A   1      43.974  27.676  36.466  1.00  0.00     0.031 A 
ATOM     86  C   UNL A   1      45.395  29.247  35.312  1.00  0.00     0.131 A 
ATOM     87  C   UNL A   1      45.095  27.227  37.179  1.00  0.00     0.055 A 
ATOM     88  C   UNL A   1      46.516  28.752  35.978  1.00  0.00     0.041 A 
ATOM     89  F   UNL A   1      45.581  30.249  34.439  1.00  0.00    -0.206 F 
ATOM     90  C   UNL A   1      46.368  27.746  36.928  1.00  0.00     0.022 A 
BRANCH  87  91
ATOM     91  S   UNL A   1      44.852  26.020  38.511  1.00  0.00     0.124 S 
ATOM     92  O   UNL A   1      44.125  24.956  37.825  1.00  0.00    -0.237 OA
ATOM     93  O   UNL A   1      46.222  25.706  38.903  1.00  0.00    -0.237 OA
ATOM     94  O   UNL A   1      44.076  26.759  39.505  1.00  0.00    -0.744 OA
ENDBRANCH  87  91
ENDBRANCH  61  84
ENDBRANCH  35  36
ENDBRANCH  27  30
ENDBRANCH  25  26
ENDBRANCH   1  25
TORSDOF 17
ENDMDL
MODEL 3
REMARK VINA RESULT:     -11.7      1.370      1.603
REMARK SMILES CCN1C(=O)CC[C@H](C(=O)NCCCCNC(=O)c2ccc(-c3c4nc(c(-c5cc(S(=O)(=O)[O-])ccc5F)c5ccc([nH]5)c(-c5cc(S(=O)(=O)[O-])ccc5F)c5nc(c(-c6cc(S(=O)(=O)[O-])ccc6F)c6ccc3[nH]6)C=C5)C=C4)cc2)[C@@H]1c1ccc(OC)cc1
REMARK SMILES IDX 14 1 13 2 12 3 11 4 9 5 10 6 8 8 3 9 4 10 82 11 5 12 6 13
REMARK SMILES IDX 7 14 2 15 1 16 83 17 84 18 90 19 85 20 89 21 86 22 87 23
REMARK SMILES IDX 88 24 15 25 16 26 17 27 18 29 19 30 20 31 81 32 21 33 80 34
REMARK SMILES IDX 22 35 23 36 24 37 74 38 25 39 79 40 73 41 75 42 26 43 78 44
REMARK SMILES IDX 72 45 71 46 27 48 59 49 39 50 58 51 40 52 43 53 57 54 76 55
REMARK SMILES IDX 41 56 42 57 56 59 77 60 44 61 28 62 29 63 37 64 30 65 36 66
REMARK SMILES IDX 38 67 35 68 31 69 32 70 33 71 34 72 60 73 61 74 69 75 62 76
REMARK SMILES IDX 68 77 70 78 67 79 63 80 64 81 65 82 66 83 45 84 46 85 54 86
REMARK SMILES IDX 47 87 53 88 55 89 52 90 48 91 49 92 50 93 51 94
REMARK H PARENT 11 7 16 28 75 47 43 58
REMARK Flexibility Score: inf
ROOT
ATOM      1  C   UNL A   1      32.191  30.971  27.169  1.00  0.00     0.023 C 
ENDROOT
BRANCH   1   2
ATOM      2  C   UNL A   1      32.560  29.666  26.466  1.00  0.00     0.023 C 
BRANCH   2   3
ATOM      3  C   UNL A   1      32.491  28.432  27.351  1.00  0.00     0.116 C 
BRANCH   3   4
ATOM      4  N   UNL A   1      31.255  27.685  27.226  1.00  0.00    -0.356 N 
ATOM      5  C   UNL A   1      30.966  26.589  26.473  1.00  0.00     0.225 C 
ATOM      6  O   UNL A   1      29.960  25.941  26.783  1.00  0.00    -0.275 OA
ATOM      7  H   UNL A   1      30.508  28.024  27.771  1.00  0.00     0.163 HD
BRANCH   5   8
ATOM      8  C   UNL A   1      31.806  26.139  25.279  1.00  0.00     0.106 C 
ATOM      9  N   UNL A   1      32.753  26.630  22.987  1.00  0.00    -0.335 N 
ATOM     10  C   UNL A   1      32.847  25.270  22.704  1.00  0.00     0.223 C 
ATOM     11  C   UNL A   1      32.015  27.181  24.158  1.00  0.00     0.128 C 
ATOM     12  O   UNL A   1      33.278  24.849  21.629  1.00  0.00    -0.275 OA
ATOM     13  C   UNL A   1      32.538  24.281  23.805  1.00  0.00     0.101 C 
ATOM     14  C   UNL A   1      31.477  24.742  24.775  1.00  0.00     0.026 C 
BRANCH   9  15
ATOM     15  C   UNL A   1      33.297  27.517  21.945  1.00  0.00     0.117 C 
ATOM     16  C   UNL A   1      34.316  28.578  22.331  1.00  0.00     0.027 C 
ENDBRANCH   9  15
BRANCH  11  17
ATOM     17  C   UNL A   1      30.770  27.959  23.741  1.00  0.00    -0.024 A 
ATOM     18  C   UNL A   1      30.736  29.361  23.693  1.00  0.00     0.010 A 
ATOM     19  C   UNL A   1      29.593  27.254  23.419  1.00  0.00     0.010 A 
ATOM     20  C   UNL A   1      29.569  30.029  23.313  1.00  0.00     0.047 A 
ATOM     21  C   UNL A   1      28.430  27.926  23.029  1.00  0.00     0.047 A 
ATOM     22  C   UNL A   1      28.423  29.317  22.957  1.00  0.00     0.118 A 
BRANCH  22  23
ATOM     23  O   UNL A   1      27.359  30.085  22.576  1.00  0.00    -0.497 OA
ATOM     24  C   UNL A   1      27.648  31.449  22.290  1.00  0.00     0.278 C 
ENDBRANCH  22  23
ENDBRANCH  11  17
ENDBRANCH   5   8
ENDBRANCH   3   4
ENDBRANCH   2   3
ENDBRANCH   1   2
BRANCH   1  25
ATOM     25  C   UNL A   1      33.312  32.000  27.301  1.00  0.00     0.116 C 
BRANCH  25  26
ATOM     26  N   UNL A   1      32.845  33.348  27.592  1.00  0.00    -0.352 N 
ATOM     27  C   UNL A   1      33.294  34.231  28.548  1.00  0.00     0.251 C 
ATOM     28  H   UNL A   1      32.107  33.672  27.028  1.00  0.00     0.163 HD
ATOM     29  O   UNL A   1      32.720  35.298  28.719  1.00  0.00    -0.269 OA
BRANCH  27  30
ATOM     30  C   UNL A   1      34.457  33.866  29.386  1.00  0.00     0.039 A 
ATOM     31  C   UNL A   1      34.239  33.139  30.559  1.00  0.00     0.014 A 
ATOM     32  C   UNL A   1      35.757  34.200  28.995  1.00  0.00     0.014 A 
ATOM     33  C   UNL A   1      35.332  32.669  31.290  1.00  0.00     0.010 A 
ATOM     34  C   UNL A   1      36.843  33.685  29.690  1.00  0.00     0.010 A 
ATOM     35  C   UNL A   1      36.639  32.899  30.833  1.00  0.00    -0.014 A 
BRANCH  35  36
ATOM     36  C   UNL A   1      37.810  32.278  31.495  1.00  0.00     0.031 A 
ATOM     37  C   UNL A   1      38.541  31.148  30.832  1.00  0.00     0.074 A 
ATOM     38  C   UNL A   1      38.137  32.674  32.740  1.00  0.00     0.049 A 
ATOM     39  N   UNL A   1      39.537  30.431  31.283  1.00  0.00    -0.248 NA
ATOM     40  C   UNL A   1      38.068  30.753  29.497  1.00  0.00     0.031 C 
ATOM     41  C   UNL A   1      37.446  33.719  33.501  1.00  0.00     0.029 A 
ATOM     42  N   UNL A   1      39.115  32.235  33.594  1.00  0.00    -0.354 N 
ATOM     43  C   UNL A   1      39.811  29.497  30.291  1.00  0.00     0.074 A 
ATOM     44  C   UNL A   1      38.832  29.700  29.243  1.00  0.00     0.031 C 
ATOM     45  C   UNL A   1      38.034  33.851  34.700  1.00  0.00     0.029 A 
ATOM     46  C   UNL A   1      39.115  32.878  34.811  1.00  0.00     0.049 A 
ATOM     47  H   UNL A   1      39.758  31.529  33.359  1.00  0.00     0.167 HD
ATOM     48  C   UNL A   1      40.803  28.572  30.252  1.00  0.00     0.034 A 
ATOM     49  C   UNL A   1      39.893  32.695  35.895  1.00  0.00     0.034 A 
ATOM     50  C   UNL A   1      41.762  28.388  31.315  1.00  0.00     0.049 A 
ATOM     51  C   UNL A   1      40.979  31.653  35.834  1.00  0.00     0.074 A 
ATOM     52  C   UNL A   1      42.844  27.527  31.361  1.00  0.00     0.029 A 
ATOM     53  N   UNL A   1      41.747  29.069  32.527  1.00  0.00    -0.354 N 
ATOM     54  N   UNL A   1      41.277  30.826  34.857  1.00  0.00    -0.248 NA
ATOM     55  C   UNL A   1      41.844  31.530  37.013  1.00  0.00     0.031 C 
ATOM     56  C   UNL A   1      43.438  27.636  32.624  1.00  0.00     0.029 A 
ATOM     57  C   UNL A   1      42.778  28.623  33.339  1.00  0.00     0.049 A 
ATOM     58  H   UNL A   1      41.097  29.766  32.773  1.00  0.00     0.167 HD
ATOM     59  C   UNL A   1      42.386  30.108  35.293  1.00  0.00     0.074 A 
ATOM     60  C   UNL A   1      42.710  30.610  36.613  1.00  0.00     0.031 C 
ATOM     61  C   UNL A   1      43.077  29.127  34.660  1.00  0.00     0.034 A 
BRANCH  48  62
ATOM     62  C   UNL A   1      40.878  27.683  29.033  1.00  0.00     0.023 A 
ATOM     63  C   UNL A   1      41.813  27.915  28.008  1.00  0.00     0.031 A 
ATOM     64  C   UNL A   1      39.989  26.604  28.878  1.00  0.00     0.131 A 
ATOM     65  C   UNL A   1      41.787  27.132  26.844  1.00  0.00     0.055 A 
ATOM     66  C   UNL A   1      40.024  25.777  27.753  1.00  0.00     0.041 A 
ATOM     67  F   UNL A   1      39.059  26.345  29.811  1.00  0.00    -0.206 F 
ATOM     68  C   UNL A   1      40.916  26.048  26.720  1.00  0.00     0.022 A 
BRANCH  65  69
ATOM     69  S   UNL A   1      42.806  27.646  25.434  1.00  0.00     0.124 S 
ATOM     70  O   UNL A   1      42.967  26.386  24.712  1.00  0.00    -0.237 OA
ATOM     71  O   UNL A   1      41.968  28.650  24.789  1.00  0.00    -0.237 OA
ATOM     72  O   UNL A   1      44.024  28.157  26.060  1.00  0.00    -0.744 OA
ENDBRANCH  65  69
ENDBRANCH  48  62
BRANCH  49  73
ATOM     73  C   UNL A   1      39.683  33.516  37.121  1.00  0.00     0.023 A 
ATOM     74  C   UNL A   1      40.443  34.672  37.355  1.00  0.00     0.031 A 
ATOM     75  C   UNL A   1      38.738  33.140  38.093  1.00  0.00     0.131 A 
ATOM     76  C   UNL A   1      40.281  35.386  38.551  1.00  0.00     0.055 A 
ATOM     77  C   UNL A   1      38.543  33.884  39.258  1.00  0.00     0.041 A 
ATOM     78  F   UNL A   1      37.977  32.049  37.914  1.00  0.00    -0.206 F 
ATOM     79  C   UNL A   1      39.328  35.008  39.498  1.00  0.00     0.022 A 
BRANCH  76  80
ATOM     80  S   UNL A   1      41.396  36.776  38.889  1.00  0.00     0.124 S 
ATOM     81  O   UNL A   1      42.065  36.939  37.602  1.00  0.00    -0.237 OA
ATOM     82  O   UNL A   1      40.459  37.830  39.264  1.00  0.00    -0.237 OA
ATOM     83  O   UNL A   1      42.240  36.280  39.972  1.00  0.00    -0.744 OA
ENDBRANCH  76  80
ENDBRANCH  49  73
BRANCH  61  84
ATOM     84  C   UNL A   1      44.281  28.569  35.380  1.00  0.00     0.023 A 
ATOM     85  C   UNL A   1      44.159  27.570  36.361  1.00  0.00     0.031 A 
ATOM     86  C   UNL A   1      45.567  29.059  35.090  1.00  0.00     0.131 A 
ATOM     87  C   UNL A   1      45.296  27.136  37.060  1.00  0.00     0.055 A 
ATOM     88  C   UNL A   1      46.701  28.577  35.744  1.00  0.00     0.041 A 
ATOM     89  F   UNL A   1      45.741  30.016  34.164  1.00  0.00    -0.206 F 
ATOM     90  C   UNL A   1      46.568  27.620  36.745  1.00  0.00     0.022 A 
BRANCH  87  91
ATOM     91  S   UNL A   1      45.076  25.998  38.455  1.00  0.00     0.124 S 
ATOM     92  O   UNL A   1      46.311  26.199  39.207  1.00  0.00    -0.237 OA
ATOM     93  O   UNL A   1      43.858  26.501  39.081  1.00  0.00    -0.237 OA
ATOM     94  O   UNL A   1      44.948  24.690  37.814  1.00  0.00    -0.744 OA
ENDBRANCH  87  91
ENDBRANCH  61  84
ENDBRANCH  35  36
ENDBRANCH  27  30
ENDBRANCH  25  26
ENDBRANCH   1  25
TORSDOF 17
ENDMDL
