MODEL 1
REMARK VINA RESULT:     -11.8      0.000      0.000
REMARK SMILES Cc1ccn2c([C@H]3C[C@@H]3C(=O)NCCCCNC(=O)c3ccc(-c4c5nc(c(-c6cc(S(=O)(=O)[O-])ccc6F)c6ccc([nH]6)c(-c6cc(S(=O)(=O)[O-])ccc6F)c6nc(c(-c7cc(S(=O)(=O)[O-])ccc7F)c7ccc4[nH]7)C=C6)C=C5)cc3)nnc2c1
REMARK SMILES IDX 15 1 14 2 13 3 12 4 10 5 11 6 9 8 7 9 8 10 6 11 1 12 2 13
REMARK SMILES IDX 3 14 86 15 4 16 85 17 5 18 84 19 83 20 16 21 17 22 18 23
REMARK SMILES IDX 19 25 20 26 21 27 82 28 22 29 81 30 23 31 24 32 25 33 75 34
REMARK SMILES IDX 26 35 80 36 74 37 76 38 27 39 79 40 73 41 72 42 28 44 60 45
REMARK SMILES IDX 40 46 59 47 41 48 44 49 58 50 77 51 42 52 43 53 57 55 78 56
REMARK SMILES IDX 45 57 29 58 30 59 38 60 31 61 37 62 39 63 36 64 32 65 33 66
REMARK SMILES IDX 34 67 35 68 61 69 62 70 70 71 63 72 69 73 71 74 68 75 64 76
REMARK SMILES IDX 65 77 66 78 67 79 46 80 47 81 55 82 48 83 54 84 56 85 53 86
REMARK SMILES IDX 49 87 50 88 51 89 52 90
REMARK H PARENT 12 7 17 24 76 43 44 54
REMARK Flexibility Score: inf
ROOT
ATOM      1  C   UNL A   1      36.502  30.557  28.789  1.00  0.00     0.023 C 
ENDROOT
BRANCH   1   2
ATOM      2  C   UNL A   1      35.822  29.537  27.891  1.00  0.00     0.023 C 
BRANCH   2   3
ATOM      3  C   UNL A   1      34.431  30.058  27.542  1.00  0.00     0.116 C 
BRANCH   3   4
ATOM      4  N   UNL A   1      34.135  29.810  26.152  1.00  0.00    -0.356 N 
ATOM      5  C   UNL A   1      33.475  28.730  25.636  1.00  0.00     0.223 C 
ATOM      6  O   UNL A   1      33.256  28.660  24.430  1.00  0.00    -0.275 OA
ATOM      7  H   UNL A   1      34.440  30.489  25.508  1.00  0.00     0.163 HD
BRANCH   5   8
ATOM      8  C   UNL A   1      32.936  27.688  26.567  1.00  0.00     0.090 C 
ATOM      9  C   UNL A   1      32.008  26.568  26.111  1.00  0.00     0.071 C 
ATOM     10  C   UNL A   1      31.462  27.636  26.974  1.00  0.00     0.026 C 
BRANCH   9  11
ATOM     11  C   UNL A   1      32.220  25.083  26.400  1.00  0.00     0.141 A 
ATOM     12  C   UNL A   1      36.510  21.575  25.688  1.00  0.00     0.044 C 
ATOM     13  C   UNL A   1      35.440  22.589  25.957  1.00  0.00    -0.046 A 
ATOM     14  C   UNL A   1      35.595  23.938  25.417  1.00  0.00     0.022 A 
ATOM     15  C   UNL A   1      34.331  22.249  26.653  1.00  0.00     0.053 A 
ATOM     16  C   UNL A   1      34.591  24.821  25.560  1.00  0.00     0.095 A 
ATOM     17  C   UNL A   1      33.272  23.186  26.812  1.00  0.00     0.161 A 
ATOM     18  N   UNL A   1      33.426  24.428  26.218  1.00  0.00    -0.286 N 
ATOM     19  N   UNL A   1      32.097  23.131  27.403  1.00  0.00    -0.130 NA
ATOM     20  N   UNL A   1      31.439  24.330  27.153  1.00  0.00    -0.134 NA
ENDBRANCH   9  11
ENDBRANCH   5   8
ENDBRANCH   3   4
ENDBRANCH   2   3
ENDBRANCH   1   2
BRANCH   1  21
ATOM     21  C   UNL A   1      37.122  29.877  30.005  1.00  0.00     0.116 C 
BRANCH  21  22
ATOM     22  N   UNL A   1      37.729  28.592  29.697  1.00  0.00    -0.352 N 
ATOM     23  C   UNL A   1      38.904  28.259  29.039  1.00  0.00     0.251 C 
ATOM     24  H   UNL A   1      37.212  27.816  30.014  1.00  0.00     0.163 HD
ATOM     25  O   UNL A   1      39.147  27.062  28.884  1.00  0.00    -0.269 OA
BRANCH  23  26
ATOM     26  C   UNL A   1      39.846  29.242  28.386  1.00  0.00     0.039 A 
ATOM     27  C   UNL A   1      39.789  29.415  27.063  1.00  0.00     0.014 A 
ATOM     28  C   UNL A   1      41.215  29.217  28.823  1.00  0.00     0.014 A 
ATOM     29  C   UNL A   1      41.130  28.903  26.374  1.00  0.00     0.010 A 
ATOM     30  C   UNL A   1      42.422  29.394  28.079  1.00  0.00     0.010 A 
ATOM     31  C   UNL A   1      42.514  28.334  27.224  1.00  0.00    -0.014 A 
BRANCH  31  32
ATOM     32  C   UNL A   1      44.286  27.491  27.358  1.00  0.00     0.031 A 
ATOM     33  C   UNL A   1      42.924  26.036  27.069  1.00  0.00     0.074 A 
ATOM     34  C   UNL A   1      45.991  28.179  27.442  1.00  0.00     0.049 A 
ATOM     35  N   UNL A   1      41.989  25.620  27.986  1.00  0.00    -0.248 NA
ATOM     36  C   UNL A   1      41.655  25.358  25.835  1.00  0.00     0.031 C 
ATOM     37  C   UNL A   1      47.810  28.875  27.524  1.00  0.00     0.029 A 
ATOM     38  N   UNL A   1      47.417  27.269  28.020  1.00  0.00    -0.354 N 
ATOM     39  C   UNL A   1      41.686  24.246  27.577  1.00  0.00     0.074 A 
ATOM     40  C   UNL A   1      41.210  24.145  26.275  1.00  0.00     0.031 C 
ATOM     41  C   UNL A   1      49.209  28.536  27.147  1.00  0.00     0.029 A 
ATOM     42  C   UNL A   1      49.004  27.241  27.437  1.00  0.00     0.049 A 
ATOM     43  H   UNL A   1      47.252  26.694  28.801  1.00  0.00     0.167 HD
ATOM     44  C   UNL A   1      42.587  23.306  27.903  1.00  0.00     0.034 A 
ATOM     45  C   UNL A   1      49.908  26.240  27.088  1.00  0.00     0.034 A 
ATOM     46  C   UNL A   1      43.333  23.861  28.957  1.00  0.00     0.049 A 
ATOM     47  C   UNL A   1      48.918  25.275  27.514  1.00  0.00     0.074 A 
ATOM     48  C   UNL A   1      42.893  24.497  30.098  1.00  0.00     0.029 A 
ATOM     49  N   UNL A   1      44.493  24.442  28.583  1.00  0.00    -0.354 N 
ATOM     50  N   UNL A   1      48.542  25.158  28.772  1.00  0.00    -0.248 NA
ATOM     51  C   UNL A   1      47.971  24.985  26.453  1.00  0.00     0.031 C 
ATOM     52  C   UNL A   1      43.900  25.384  30.480  1.00  0.00     0.029 A 
ATOM     53  C   UNL A   1      44.924  25.275  29.562  1.00  0.00     0.049 A 
ATOM     54  H   UNL A   1      44.955  24.285  27.729  1.00  0.00     0.167 HD
ATOM     55  C   UNL A   1      47.152  25.093  28.701  1.00  0.00     0.074 A 
ATOM     56  C   UNL A   1      46.895  24.854  27.220  1.00  0.00     0.031 C 
ATOM     57  C   UNL A   1      46.276  25.706  29.606  1.00  0.00     0.034 A 
BRANCH  44  58
ATOM     58  C   UNL A   1      42.922  22.085  27.135  1.00  0.00     0.023 A 
ATOM     59  C   UNL A   1      43.996  21.835  26.234  1.00  0.00     0.031 A 
ATOM     60  C   UNL A   1      42.011  21.075  27.392  1.00  0.00     0.131 A 
ATOM     61  C   UNL A   1      44.006  20.640  25.497  1.00  0.00     0.055 A 
ATOM     62  C   UNL A   1      42.137  19.834  26.807  1.00  0.00     0.041 A 
ATOM     63  F   UNL A   1      40.964  21.310  28.199  1.00  0.00    -0.206 F 
ATOM     64  C   UNL A   1      43.078  19.636  25.797  1.00  0.00     0.022 A 
BRANCH  61  65
ATOM     65  S   UNL A   1      45.177  20.357  24.112  1.00  0.00     0.124 S 
ATOM     66  O   UNL A   1      45.410  21.708  23.612  1.00  0.00    -0.237 OA
ATOM     67  O   UNL A   1      46.319  19.741  24.789  1.00  0.00    -0.237 OA
ATOM     68  O   UNL A   1      44.445  19.464  23.219  1.00  0.00    -0.744 OA
ENDBRANCH  61  65
ENDBRANCH  44  58
BRANCH  45  69
ATOM     69  C   UNL A   1      50.769  26.198  25.759  1.00  0.00     0.023 A 
ATOM     70  C   UNL A   1      52.156  25.890  25.827  1.00  0.00     0.031 A 
ATOM     71  C   UNL A   1      50.344  26.672  24.490  1.00  0.00     0.131 A 
ATOM     72  C   UNL A   1      53.077  26.372  24.860  1.00  0.00     0.055 A 
ATOM     73  C   UNL A   1      51.251  26.979  23.439  1.00  0.00     0.041 A 
ATOM     74  F   UNL A   1      49.041  26.881  24.244  1.00  0.00    -0.206 F 
ATOM     75  C   UNL A   1      52.628  26.950  23.675  1.00  0.00     0.022 A 
BRANCH  72  76
ATOM     76  S   UNL A   1      54.888  26.394  25.215  1.00  0.00     0.124 S 
ATOM     77  O   UNL A   1      54.924  26.468  26.675  1.00  0.00    -0.237 OA
ATOM     78  O   UNL A   1      55.330  25.126  24.644  1.00  0.00    -0.237 OA
ATOM     79  O   UNL A   1      55.348  27.591  24.520  1.00  0.00    -0.744 OA
ENDBRANCH  72  76
ENDBRANCH  45  69
BRANCH  57  80
ATOM     80  C   UNL A   1      46.610  26.653  30.824  1.00  0.00     0.023 A 
ATOM     81  C   UNL A   1      47.375  26.091  31.848  1.00  0.00     0.031 A 
ATOM     82  C   UNL A   1      46.047  27.934  31.149  1.00  0.00     0.131 A 
ATOM     83  C   UNL A   1      47.426  26.690  33.123  1.00  0.00     0.055 A 
ATOM     84  C   UNL A   1      46.325  28.643  32.315  1.00  0.00     0.041 A 
ATOM     85  F   UNL A   1      45.180  28.593  30.382  1.00  0.00    -0.206 F 
ATOM     86  C   UNL A   1      46.917  27.971  33.356  1.00  0.00     0.022 A 
BRANCH  83  87
ATOM     87  S   UNL A   1      48.118  25.786  34.541  1.00  0.00     0.124 S 
ATOM     88  O   UNL A   1      49.555  25.922  34.317  1.00  0.00    -0.237 OA
ATOM     89  O   UNL A   1      47.595  26.535  35.681  1.00  0.00    -0.237 OA
ATOM     90  O   UNL A   1      47.588  24.435  34.388  1.00  0.00    -0.744 OA
ENDBRANCH  83  87
ENDBRANCH  57  80
ENDBRANCH  31  32
ENDBRANCH  23  26
ENDBRANCH  21  22
ENDBRANCH   1  21
TORSDOF 15
ENDMDL
MODEL 2
REMARK VINA RESULT:     -11.7      1.917      3.121
REMARK SMILES Cc1ccn2c([C@H]3C[C@@H]3C(=O)NCCCCNC(=O)c3ccc(-c4c5nc(c(-c6cc(S(=O)(=O)[O-])ccc6F)c6ccc([nH]6)c(-c6cc(S(=O)(=O)[O-])ccc6F)c6nc(c(-c7cc(S(=O)(=O)[O-])ccc7F)c7ccc4[nH]7)C=C6)C=C5)cc3)nnc2c1
REMARK SMILES IDX 15 1 14 2 13 3 12 4 10 5 11 6 9 8 7 9 8 10 6 11 1 12 2 13
REMARK SMILES IDX 3 14 86 15 4 16 85 17 5 18 84 19 83 20 16 21 17 22 18 23
REMARK SMILES IDX 19 25 20 26 21 27 82 28 22 29 81 30 23 31 24 32 25 33 75 34
REMARK SMILES IDX 26 35 80 36 74 37 76 38 27 39 79 40 73 41 72 42 28 44 60 45
REMARK SMILES IDX 40 46 59 47 41 48 44 49 58 50 77 51 42 52 43 53 57 55 78 56
REMARK SMILES IDX 45 57 29 58 30 59 38 60 31 61 37 62 39 63 36 64 32 65 33 66
REMARK SMILES IDX 34 67 35 68 61 69 62 70 70 71 63 72 69 73 71 74 68 75 64 76
REMARK SMILES IDX 65 77 66 78 67 79 46 80 47 81 55 82 48 83 54 84 56 85 53 86
REMARK SMILES IDX 49 87 50 88 51 89 52 90
REMARK H PARENT 12 7 17 24 76 43 44 54
REMARK Flexibility Score: inf
ROOT
ATOM      1  C   UNL A   1      35.936  30.111  29.551  1.00  0.00     0.023 C 
ENDROOT
BRANCH   1   2
ATOM      2  C   UNL A   1      36.098  29.343  28.250  1.00  0.00     0.023 C 
BRANCH   2   3
ATOM      3  C   UNL A   1      34.911  29.669  27.349  1.00  0.00     0.116 C 
BRANCH   3   4
ATOM      4  N   UNL A   1      33.680  29.228  27.959  1.00  0.00    -0.356 N 
ATOM      5  C   UNL A   1      32.648  28.578  27.342  1.00  0.00     0.223 C 
ATOM      6  O   UNL A   1      31.667  28.224  27.989  1.00  0.00    -0.275 OA
ATOM      7  H   UNL A   1      33.572  29.415  28.919  1.00  0.00     0.163 HD
BRANCH   5   8
ATOM      8  C   UNL A   1      32.773  28.214  25.894  1.00  0.00     0.090 C 
ATOM      9  C   UNL A   1      31.788  27.296  25.182  1.00  0.00     0.071 C 
ATOM     10  C   UNL A   1      33.159  26.807  25.432  1.00  0.00     0.026 C 
BRANCH   9  11
ATOM     11  C   UNL A   1      31.085  27.620  23.864  1.00  0.00     0.141 A 
ATOM     12  C   UNL A   1      28.303  32.071  21.950  1.00  0.00     0.044 C 
ATOM     13  C   UNL A   1      29.155  30.957  22.479  1.00  0.00    -0.046 A 
ATOM     14  C   UNL A   1      29.573  30.993  23.880  1.00  0.00     0.022 A 
ATOM     15  C   UNL A   1      29.497  29.918  21.685  1.00  0.00     0.053 A 
ATOM     16  C   UNL A   1      30.244  29.946  24.391  1.00  0.00     0.095 A 
ATOM     17  C   UNL A   1      30.215  28.813  22.222  1.00  0.00     0.161 A 
ATOM     18  N   UNL A   1      30.524  28.851  23.573  1.00  0.00    -0.286 N 
ATOM     19  N   UNL A   1      30.653  27.683  21.710  1.00  0.00    -0.130 NA
ATOM     20  N   UNL A   1      31.212  26.936  22.740  1.00  0.00    -0.134 NA
ENDBRANCH   9  11
ENDBRANCH   5   8
ENDBRANCH   3   4
ENDBRANCH   2   3
ENDBRANCH   1   2
BRANCH   1  21
ATOM     21  C   UNL A   1      37.167  29.941  30.435  1.00  0.00     0.116 C 
BRANCH  21  22
ATOM     22  N   UNL A   1      37.829  28.659  30.257  1.00  0.00    -0.352 N 
ATOM     23  C   UNL A   1      38.962  28.296  29.544  1.00  0.00     0.251 C 
ATOM     24  H   UNL A   1      37.394  27.913  30.729  1.00  0.00     0.163 HD
ATOM     25  O   UNL A   1      39.269  27.103  29.539  1.00  0.00    -0.269 OA
BRANCH  23  26
ATOM     26  C   UNL A   1      39.776  29.219  28.670  1.00  0.00     0.039 A 
ATOM     27  C   UNL A   1      39.533  29.253  27.358  1.00  0.00     0.014 A 
ATOM     28  C   UNL A   1      41.192  29.259  28.911  1.00  0.00     0.014 A 
ATOM     29  C   UNL A   1      40.780  28.692  26.543  1.00  0.00     0.010 A 
ATOM     30  C   UNL A   1      42.280  29.377  27.992  1.00  0.00     0.010 A 
ATOM     31  C   UNL A   1      42.284  28.235  27.243  1.00  0.00    -0.014 A 
BRANCH  31  32
ATOM     32  C   UNL A   1      44.081  27.437  27.212  1.00  0.00     0.031 A 
ATOM     33  C   UNL A   1      42.735  25.947  27.058  1.00  0.00     0.074 A 
ATOM     34  C   UNL A   1      45.769  28.167  27.133  1.00  0.00     0.049 A 
ATOM     35  N   UNL A   1      41.901  25.513  28.061  1.00  0.00    -0.248 NA
ATOM     36  C   UNL A   1      41.372  25.231  25.952  1.00  0.00     0.031 C 
ATOM     37  C   UNL A   1      47.570  28.908  27.041  1.00  0.00     0.029 A 
ATOM     38  N   UNL A   1      47.266  27.295  27.577  1.00  0.00    -0.354 N 
ATOM     39  C   UNL A   1      41.596  24.130  27.686  1.00  0.00     0.074 A 
ATOM     40  C   UNL A   1      41.001  24.010  26.435  1.00  0.00     0.031 C 
ATOM     41  C   UNL A   1      48.935  28.601  26.534  1.00  0.00     0.029 A 
ATOM     42  C   UNL A   1      48.791  27.303  26.847  1.00  0.00     0.049 A 
ATOM     43  H   UNL A   1      47.189  26.720  28.372  1.00  0.00     0.167 HD
ATOM     44  C   UNL A   1      42.546  23.214  27.929  1.00  0.00     0.034 A 
ATOM     45  C   UNL A   1      49.683  26.322  26.417  1.00  0.00     0.034 A 
ATOM     46  C   UNL A   1      43.375  23.793  28.906  1.00  0.00     0.049 A 
ATOM     47  C   UNL A   1      48.762  25.336  26.938  1.00  0.00     0.074 A 
ATOM     48  C   UNL A   1      43.028  24.425  30.081  1.00  0.00     0.029 A 
ATOM     49  N   UNL A   1      44.479  24.401  28.422  1.00  0.00    -0.354 N 
ATOM     50  N   UNL A   1      48.509  25.217  28.226  1.00  0.00    -0.248 NA
ATOM     51  C   UNL A   1      47.726  25.017  25.971  1.00  0.00     0.031 C 
ATOM     52  C   UNL A   1      44.044  25.339  30.363  1.00  0.00     0.029 A 
ATOM     53  C   UNL A   1      44.980  25.250  29.354  1.00  0.00     0.049 A 
ATOM     54  H   UNL A   1      44.862  24.250  27.528  1.00  0.00     0.167 HD
ATOM     55  C   UNL A   1      47.120  25.117  28.287  1.00  0.00     0.074 A 
ATOM     56  C   UNL A   1      46.730  24.863  26.838  1.00  0.00     0.031 C 
ATOM     57  C   UNL A   1      46.318  25.713  29.268  1.00  0.00     0.034 A 
BRANCH  44  58
ATOM     58  C   UNL A   1      42.837  21.998  27.136  1.00  0.00     0.023 A 
ATOM     59  C   UNL A   1      43.898  21.730  26.224  1.00  0.00     0.031 A 
ATOM     60  C   UNL A   1      41.897  21.012  27.381  1.00  0.00     0.131 A 
ATOM     61  C   UNL A   1      43.866  20.549  25.465  1.00  0.00     0.055 A 
ATOM     62  C   UNL A   1      41.980  19.779  26.773  1.00  0.00     0.041 A 
ATOM     63  F   UNL A   1      40.863  21.265  28.199  1.00  0.00    -0.206 F 
ATOM     64  C   UNL A   1      42.908  19.570  25.753  1.00  0.00     0.022 A 
BRANCH  61  65
ATOM     65  S   UNL A   1      45.019  20.255  24.068  1.00  0.00     0.124 S 
ATOM     66  O   UNL A   1      46.313  20.601  24.646  1.00  0.00    -0.237 OA
ATOM     67  O   UNL A   1      44.822  18.832  23.794  1.00  0.00    -0.237 OA
ATOM     68  O   UNL A   1      44.528  21.149  23.023  1.00  0.00    -0.744 OA
ENDBRANCH  61  65
ENDBRANCH  44  58
BRANCH  45  69
ATOM     69  C   UNL A   1      50.415  26.295  25.012  1.00  0.00     0.023 A 
ATOM     70  C   UNL A   1      51.806  26.007  24.949  1.00  0.00     0.031 A 
ATOM     71  C   UNL A   1      49.865  26.763  23.791  1.00  0.00     0.131 A 
ATOM     72  C   UNL A   1      52.625  26.504  23.901  1.00  0.00     0.055 A 
ATOM     73  C   UNL A   1      50.665  27.084  22.659  1.00  0.00     0.041 A 
ATOM     74  F   UNL A   1      48.542  26.952  23.668  1.00  0.00    -0.206 F 
ATOM     75  C   UNL A   1      52.058  27.076  22.764  1.00  0.00     0.022 A 
BRANCH  72  76
ATOM     76  S   UNL A   1      54.461  26.554  24.084  1.00  0.00     0.124 S 
ATOM     77  O   UNL A   1      54.754  25.259  24.696  1.00  0.00    -0.237 OA
ATOM     78  O   UNL A   1      54.905  26.704  22.702  1.00  0.00    -0.237 OA
ATOM     79  O   UNL A   1      54.678  27.712  24.943  1.00  0.00    -0.744 OA
ENDBRANCH  72  76
ENDBRANCH  45  69
BRANCH  57  80
ATOM     80  C   UNL A   1      46.742  26.675  30.446  1.00  0.00     0.023 A 
ATOM     81  C   UNL A   1      47.648  26.153  31.370  1.00  0.00     0.031 A 
ATOM     82  C   UNL A   1      46.155  27.925  30.844  1.00  0.00     0.131 A 
ATOM     83  C   UNL A   1      47.817  26.752  32.635  1.00  0.00     0.055 A 
ATOM     84  C   UNL A   1      46.529  28.646  31.975  1.00  0.00     0.041 A 
ATOM     85  F   UNL A   1      45.171  28.538  30.187  1.00  0.00    -0.206 F 
ATOM     86  C   UNL A   1      47.272  28.004  32.935  1.00  0.00     0.022 A 
BRANCH  83  87
ATOM     87  S   UNL A   1      48.715  25.884  33.957  1.00  0.00     0.124 S 
ATOM     88  O   UNL A   1      48.386  26.691  35.129  1.00  0.00    -0.237 OA
ATOM     89  O   UNL A   1      48.111  24.553  33.931  1.00  0.00    -0.237 OA
ATOM     90  O   UNL A   1      50.109  25.942  33.530  1.00  0.00    -0.744 OA
ENDBRANCH  83  87
ENDBRANCH  57  80
ENDBRANCH  31  32
ENDBRANCH  23  26
ENDBRANCH  21  22
ENDBRANCH   1  21
TORSDOF 15
ENDMDL
MODEL 3
REMARK VINA RESULT:     -11.5      1.816      2.255
REMARK SMILES Cc1ccn2c([C@H]3C[C@@H]3C(=O)NCCCCNC(=O)c3ccc(-c4c5nc(c(-c6cc(S(=O)(=O)[O-])ccc6F)c6ccc([nH]6)c(-c6cc(S(=O)(=O)[O-])ccc6F)c6nc(c(-c7cc(S(=O)(=O)[O-])ccc7F)c7ccc4[nH]7)C=C6)C=C5)cc3)nnc2c1
REMARK SMILES IDX 15 1 14 2 13 3 12 4 10 5 11 6 9 8 7 9 8 10 6 11 1 12 2 13
REMARK SMILES IDX 3 14 86 15 4 16 85 17 5 18 84 19 83 20 16 21 17 22 18 23
REMARK SMILES IDX 19 25 20 26 21 27 82 28 22 29 81 30 23 31 24 32 25 33 75 34
REMARK SMILES IDX 26 35 80 36 74 37 76 38 27 39 79 40 73 41 72 42 28 44 60 45
REMARK SMILES IDX 40 46 59 47 41 48 44 49 58 50 77 51 42 52 43 53 57 55 78 56
REMARK SMILES IDX 45 57 29 58 30 59 38 60 31 61 37 62 39 63 36 64 32 65 33 66
REMARK SMILES IDX 34 67 35 68 61 69 62 70 70 71 63 72 69 73 71 74 68 75 64 76
REMARK SMILES IDX 65 77 66 78 67 79 46 80 47 81 55 82 48 83 54 84 56 85 53 86
REMARK SMILES IDX 49 87 50 88 51 89 52 90
REMARK H PARENT 12 7 17 24 76 43 44 54
REMARK Flexibility Score: inf
ROOT
ATOM      1  C   UNL A   1      36.685  30.305  28.915  1.00  0.00     0.023 C 
ENDROOT
BRANCH   1   2
ATOM      2  C   UNL A   1      35.981  29.359  27.958  1.00  0.00     0.023 C 
BRANCH   2   3
ATOM      3  C   UNL A   1      34.635  29.972  27.580  1.00  0.00     0.116 C 
BRANCH   3   4
ATOM      4  N   UNL A   1      34.347  29.734  26.187  1.00  0.00    -0.356 N 
ATOM      5  C   UNL A   1      33.639  28.688  25.665  1.00  0.00     0.223 C 
ATOM      6  O   UNL A   1      33.433  28.625  24.456  1.00  0.00    -0.275 OA
ATOM      7  H   UNL A   1      34.696  30.394  25.545  1.00  0.00     0.163 HD
BRANCH   5   8
ATOM      8  C   UNL A   1      33.032  27.679  26.591  1.00  0.00     0.090 C 
ATOM      9  C   UNL A   1      32.002  26.652  26.139  1.00  0.00     0.071 C 
ATOM     10  C   UNL A   1      31.569  27.746  27.032  1.00  0.00     0.026 C 
BRANCH   9  11
ATOM     11  C   UNL A   1      32.092  25.149  26.398  1.00  0.00     0.141 A 
ATOM     12  C   UNL A   1      36.084  21.318  25.620  1.00  0.00     0.044 C 
ATOM     13  C   UNL A   1      35.099  22.410  25.909  1.00  0.00    -0.046 A 
ATOM     14  C   UNL A   1      35.365  23.753  25.396  1.00  0.00     0.022 A 
ATOM     15  C   UNL A   1      33.965  22.148  26.597  1.00  0.00     0.053 A 
ATOM     16  C   UNL A   1      34.436  24.712  25.555  1.00  0.00     0.095 A 
ATOM     17  C   UNL A   1      32.984  23.164  26.773  1.00  0.00     0.161 A 
ATOM     18  N   UNL A   1      33.241  24.402  26.204  1.00  0.00    -0.286 N 
ATOM     19  N   UNL A   1      31.808  23.194  27.361  1.00  0.00    -0.130 NA
ATOM     20  N   UNL A   1      31.250  24.447  27.135  1.00  0.00    -0.134 NA
ENDBRANCH   9  11
ENDBRANCH   5   8
ENDBRANCH   3   4
ENDBRANCH   2   3
ENDBRANCH   1   2
BRANCH   1  21
ATOM     21  C   UNL A   1      37.272  29.539  30.096  1.00  0.00     0.116 C 
BRANCH  21  22
ATOM     22  N   UNL A   1      37.907  28.288  29.711  1.00  0.00    -0.352 N 
ATOM     23  C   UNL A   1      39.048  28.021  28.970  1.00  0.00     0.251 C 
ATOM     24  H   UNL A   1      37.440  27.484  30.035  1.00  0.00     0.163 HD
ATOM     25  O   UNL A   1      39.325  26.839  28.763  1.00  0.00    -0.269 OA
BRANCH  23  26
ATOM     26  C   UNL A   1      39.909  29.058  28.290  1.00  0.00     0.039 A 
ATOM     27  C   UNL A   1      39.967  29.080  26.956  1.00  0.00     0.014 A 
ATOM     28  C   UNL A   1      41.216  29.282  28.844  1.00  0.00     0.014 A 
ATOM     29  C   UNL A   1      41.429  28.703  26.453  1.00  0.00     0.010 A 
ATOM     30  C   UNL A   1      42.458  29.557  28.193  1.00  0.00     0.010 A 
ATOM     31  C   UNL A   1      42.782  28.438  27.482  1.00  0.00    -0.014 A 
BRANCH  31  32
ATOM     32  C   UNL A   1      44.630  27.886  27.870  1.00  0.00     0.031 A 
ATOM     33  C   UNL A   1      43.723  26.381  26.885  1.00  0.00     0.074 A 
ATOM     34  C   UNL A   1      46.079  28.782  28.568  1.00  0.00     0.049 A 
ATOM     35  N   UNL A   1      42.735  25.572  27.391  1.00  0.00    -0.248 NA
ATOM     36  C   UNL A   1      42.930  25.900  25.232  1.00  0.00     0.031 C 
ATOM     37  C   UNL A   1      47.634  29.704  29.296  1.00  0.00     0.029 A 
ATOM     38  N   UNL A   1      47.519  27.982  29.262  1.00  0.00    -0.354 N 
ATOM     39  C   UNL A   1      42.844  24.348  26.594  1.00  0.00     0.074 A 
ATOM     40  C   UNL A   1      42.688  24.557  25.228  1.00  0.00     0.031 C 
ATOM     41  C   UNL A   1      49.121  29.717  29.231  1.00  0.00     0.029 A 
ATOM     42  C   UNL A   1      49.157  28.378  29.131  1.00  0.00     0.049 A 
ATOM     43  H   UNL A   1      47.327  27.184  29.806  1.00  0.00     0.167 HD
ATOM     44  C   UNL A   1      43.844  23.509  26.907  1.00  0.00     0.034 A 
ATOM     45  C   UNL A   1      50.317  27.679  28.800  1.00  0.00     0.034 A 
ATOM     46  C   UNL A   1      44.207  23.844  28.223  1.00  0.00     0.049 A 
ATOM     47  C   UNL A   1      49.503  26.488  28.700  1.00  0.00     0.074 A 
ATOM     48  C   UNL A   1      43.404  24.041  29.327  1.00  0.00     0.029 A 
ATOM     49  N   UNL A   1      45.257  24.686  28.323  1.00  0.00    -0.354 N 
ATOM     50  N   UNL A   1      48.907  25.950  29.745  1.00  0.00    -0.248 NA
ATOM     51  C   UNL A   1      48.891  26.373  27.388  1.00  0.00     0.031 C 
ATOM     52  C   UNL A   1      44.081  24.926  30.166  1.00  0.00     0.029 A 
ATOM     53  C   UNL A   1      45.273  25.254  29.554  1.00  0.00     0.049 A 
ATOM     54  H   UNL A   1      45.912  24.861  27.610  1.00  0.00     0.167 HD
ATOM     55  C   UNL A   1      47.614  25.688  29.296  1.00  0.00     0.074 A 
ATOM     56  C   UNL A   1      47.735  25.854  27.788  1.00  0.00     0.031 C 
ATOM     57  C   UNL A   1      46.452  25.862  30.057  1.00  0.00     0.034 A 
BRANCH  44  58
ATOM     58  C   UNL A   1      44.600  22.636  25.980  1.00  0.00     0.023 A 
ATOM     59  C   UNL A   1      44.437  21.251  25.689  1.00  0.00     0.031 A 
ATOM     60  C   UNL A   1      45.592  23.348  25.329  1.00  0.00     0.131 A 
ATOM     61  C   UNL A   1      45.393  20.604  24.888  1.00  0.00     0.055 A 
ATOM     62  C   UNL A   1      46.407  22.746  24.396  1.00  0.00     0.041 A 
ATOM     63  F   UNL A   1      45.791  24.641  25.629  1.00  0.00    -0.206 F 
ATOM     64  C   UNL A   1      46.371  21.362  24.234  1.00  0.00     0.022 A 
BRANCH  61  65
ATOM     65  S   UNL A   1      45.431  18.779  24.696  1.00  0.00     0.124 S 
ATOM     66  O   UNL A   1      44.058  18.398  25.010  1.00  0.00    -0.237 OA
ATOM     67  O   UNL A   1      45.814  18.620  23.294  1.00  0.00    -0.237 OA
ATOM     68  O   UNL A   1      46.446  18.354  25.656  1.00  0.00    -0.744 OA
ENDBRANCH  61  65
ENDBRANCH  44  58
BRANCH  45  69
ATOM     69  C   UNL A   1      51.425  28.166  27.778  1.00  0.00     0.023 A 
ATOM     70  C   UNL A   1      51.056  28.499  26.445  1.00  0.00     0.031 A 
ATOM     71  C   UNL A   1      52.826  28.087  27.986  1.00  0.00     0.131 A 
ATOM     72  C   UNL A   1      51.968  28.380  25.364  1.00  0.00     0.055 A 
ATOM     73  C   UNL A   1      53.769  28.159  26.924  1.00  0.00     0.041 A 
ATOM     74  F   UNL A   1      53.321  27.907  29.221  1.00  0.00    -0.206 F 
ATOM     75  C   UNL A   1      53.327  28.175  25.599  1.00  0.00     0.022 A 
BRANCH  72  76
ATOM     76  S   UNL A   1      51.362  28.329  23.622  1.00  0.00     0.124 S 
ATOM     77  O   UNL A   1      52.114  27.211  23.057  1.00  0.00    -0.237 OA
ATOM     78  O   UNL A   1      49.933  28.092  23.799  1.00  0.00    -0.237 OA
ATOM     79  O   UNL A   1      51.721  29.645  23.107  1.00  0.00    -0.744 OA
ENDBRANCH  72  76
ENDBRANCH  45  69
BRANCH  57  80
ATOM     80  C   UNL A   1      46.300  26.453  31.514  1.00  0.00     0.023 A 
ATOM     81  C   UNL A   1      46.951  25.754  32.531  1.00  0.00     0.031 A 
ATOM     82  C   UNL A   1      45.397  27.467  31.984  1.00  0.00     0.131 A 
ATOM     83  C   UNL A   1      46.600  25.952  33.882  1.00  0.00     0.055 A 
ATOM     84  C   UNL A   1      45.257  27.840  33.318  1.00  0.00     0.041 A 
ATOM     85  F   UNL A   1      44.573  28.165  31.202  1.00  0.00    -0.206 F 
ATOM     86  C   UNL A   1      45.767  27.003  34.280  1.00  0.00     0.022 A 
BRANCH  83  87
ATOM     87  S   UNL A   1      47.182  24.804  35.167  1.00  0.00     0.124 S 
ATOM     88  O   UNL A   1      48.593  24.652  34.822  1.00  0.00    -0.237 OA
ATOM     89  O   UNL A   1      46.922  25.546  36.398  1.00  0.00    -0.237 OA
ATOM     90  O   UNL A   1      46.361  23.615  34.972  1.00  0.00    -0.744 OA
ENDBRANCH  83  87
ENDBRANCH  57  80
ENDBRANCH  31  32
ENDBRANCH  23  26
ENDBRANCH  21  22
ENDBRANCH   1  21
TORSDOF 15
ENDMDL
