MODEL 1
REMARK VINA RESULT:     -12.9      0.000      0.000
REMARK SMILES COc1cc2c(CC(=O)NCCCCNC(=O)c3ccc(-c4c5nc(c(-c6cc(S(=O)(=O)[O-])ccc6F)c6ccc([nH]6)c(-c6cc(S(=O)(=O)[O-])ccc6F)c6nc(c(-c7cc(S(=O)(=O)[O-])ccc7F)c7ccc4[nH]7)C=C6)C=C5)cc3)c(C)n(C(=O)c3ccc(Cl)cc3)c2cc1Cl
REMARK SMILES IDX 12 1 11 2 10 3 8 4 9 5 7 7 6 8 3 9 4 10 95 11 5 12 94 13
REMARK SMILES IDX 96 14 93 15 81 16 83 17 82 18 2 19 1 20 84 21 85 22 86 23
REMARK SMILES IDX 87 24 92 25 88 26 91 27 89 28 90 29 13 30 14 31 15 32 16 33
REMARK SMILES IDX 17 35 18 36 19 37 80 38 20 39 79 40 21 41 22 42 23 43 73 44
REMARK SMILES IDX 24 45 78 46 72 47 74 48 25 49 77 50 71 51 70 52 26 54 58 55
REMARK SMILES IDX 38 56 57 57 39 58 42 59 56 60 75 61 40 62 41 63 55 65 76 66
REMARK SMILES IDX 43 67 27 68 28 69 36 70 29 71 35 72 37 73 34 74 30 75 31 76
REMARK SMILES IDX 32 77 33 78 59 79 60 80 68 81 61 82 67 83 69 84 66 85 62 86
REMARK SMILES IDX 63 87 64 88 65 89 44 90 45 91 53 92 46 93 52 94 54 95 51 96
REMARK SMILES IDX 47 97 48 98 49 99 50 100
REMARK H PARENT 10 6 15 34 74 53 42 64
REMARK Flexibility Score: inf
ROOT
ATOM      1  C   UNL A   1      35.671  21.164  24.631  1.00  0.00     0.023 C 
ENDROOT
BRANCH   1   2
ATOM      2  C   UNL A   1      34.376  21.964  24.547  1.00  0.00     0.116 C 
BRANCH   2   3
ATOM      3  N   UNL A   1      34.377  22.899  23.439  1.00  0.00    -0.356 N 
ATOM      4  C   UNL A   1      34.265  24.260  23.472  1.00  0.00     0.224 C 
ATOM      5  O   UNL A   1      34.327  24.882  22.408  1.00  0.00    -0.275 OA
ATOM      6  H   UNL A   1      34.472  22.499  22.544  1.00  0.00     0.163 HD
BRANCH   4   7
ATOM      7  C   UNL A   1      34.143  24.990  24.801  1.00  0.00     0.138 C 
BRANCH   7   8
ATOM      8  C   UNL A   1      32.977  25.937  24.869  1.00  0.00    -0.009 A 
ATOM      9  C   UNL A   1      33.726  29.344  26.459  1.00  0.00     0.138 A 
ATOM     10  C   UNL A   1      34.010  28.053  25.990  1.00  0.00     0.058 A 
ATOM     11  C   UNL A   1      32.442  29.854  26.325  1.00  0.00     0.085 A 
ATOM     12  C   UNL A   1      32.999  27.260  25.396  1.00  0.00     0.008 A 
ATOM     13  C   UNL A   1      31.421  29.063  25.789  1.00  0.00     0.051 A 
ATOM     14  Cl  UNL A   1      32.018  31.483  26.716  1.00  0.00    -0.080 Cl
ATOM     15  C   UNL A   1      31.708  27.783  25.273  1.00  0.00     0.058 A 
ATOM     16  C   UNL A   1      31.665  25.666  24.491  1.00  0.00     0.028 A 
ATOM     17  N   UNL A   1      30.926  26.857  24.560  1.00  0.00    -0.280 N 
ATOM     18  C   UNL A   1      31.113  24.352  24.026  1.00  0.00     0.065 C 
BRANCH   9  19
ATOM     19  O   UNL A   1      34.793  30.038  26.970  1.00  0.00    -0.495 OA
ATOM     20  C   UNL A   1      35.671  29.222  27.744  1.00  0.00     0.278 C 
ENDBRANCH   9  19
BRANCH  17  21
ATOM     21  C   UNL A   1      29.630  27.083  24.006  1.00  0.00     0.262 C 
ATOM     22  O   UNL A   1      28.713  26.314  24.294  1.00  0.00    -0.268 OA
BRANCH  21  23
ATOM     23  C   UNL A   1      29.274  28.203  23.117  1.00  0.00     0.040 A 
ATOM     24  C   UNL A   1      30.246  28.851  22.346  1.00  0.00     0.015 A 
ATOM     25  C   UNL A   1      27.949  28.651  23.127  1.00  0.00     0.015 A 
ATOM     26  C   UNL A   1      29.902  30.020  21.657  1.00  0.00     0.021 A 
ATOM     27  C   UNL A   1      27.610  29.810  22.427  1.00  0.00     0.021 A 
ATOM     28  C   UNL A   1      28.592  30.501  21.715  1.00  0.00     0.041 A 
ATOM     29  Cl  UNL A   1      28.184  31.976  20.931  1.00  0.00    -0.084 Cl
ENDBRANCH  21  23
ENDBRANCH  17  21
ENDBRANCH   7   8
ENDBRANCH   4   7
ENDBRANCH   2   3
ENDBRANCH   1   2
BRANCH   1  30
ATOM     30  C   UNL A   1      36.939  21.979  24.346  1.00  0.00     0.023 C 
BRANCH  30  31
ATOM     31  C   UNL A   1      37.609  22.584  25.584  1.00  0.00     0.116 C 
BRANCH  31  32
ATOM     32  N   UNL A   1      38.995  22.198  25.754  1.00  0.00    -0.352 N 
ATOM     33  C   UNL A   1      40.013  22.628  26.564  1.00  0.00     0.251 C 
ATOM     34  H   UNL A   1      39.264  21.464  25.155  1.00  0.00     0.163 HD
ATOM     35  O   UNL A   1      41.021  21.916  26.583  1.00  0.00    -0.269 OA
BRANCH  33  36
ATOM     36  C   UNL A   1      40.010  23.897  27.344  1.00  0.00     0.039 A 
ATOM     37  C   UNL A   1      38.952  24.802  27.399  1.00  0.00     0.014 A 
ATOM     38  C   UNL A   1      41.211  24.232  28.004  1.00  0.00     0.014 A 
ATOM     39  C   UNL A   1      39.120  26.045  27.993  1.00  0.00     0.010 A 
ATOM     40  C   UNL A   1      41.378  25.472  28.620  1.00  0.00     0.010 A 
ATOM     41  C   UNL A   1      40.343  26.396  28.570  1.00  0.00    -0.014 A 
BRANCH  41  42
ATOM     42  C   UNL A   1      40.424  27.727  29.166  1.00  0.00     0.031 A 
ATOM     43  C   UNL A   1      41.407  28.640  28.520  1.00  0.00     0.074 A 
ATOM     44  C   UNL A   1      39.680  28.144  30.208  1.00  0.00     0.049 A 
ATOM     45  N   UNL A   1      42.523  29.080  29.004  1.00  0.00    -0.248 NA
ATOM     46  C   UNL A   1      41.181  28.990  27.112  1.00  0.00     0.031 C 
ATOM     47  C   UNL A   1      38.486  27.522  30.782  1.00  0.00     0.029 A 
ATOM     48  N   UNL A   1      39.806  29.296  30.926  1.00  0.00    -0.354 N 
ATOM     49  C   UNL A   1      43.073  29.905  28.022  1.00  0.00     0.074 A 
ATOM     50  C   UNL A   1      42.276  29.700  26.837  1.00  0.00     0.031 C 
ATOM     51  C   UNL A   1      37.871  28.412  31.594  1.00  0.00     0.029 A 
ATOM     52  C   UNL A   1      38.709  29.595  31.718  1.00  0.00     0.049 A 
ATOM     53  H   UNL A   1      40.607  29.867  30.885  1.00  0.00     0.167 HD
ATOM     54  C   UNL A   1      44.046  30.819  28.304  1.00  0.00     0.034 A 
ATOM     55  C   UNL A   1      38.472  30.763  32.364  1.00  0.00     0.034 A 
ATOM     56  C   UNL A   1      44.634  30.579  29.592  1.00  0.00     0.049 A 
ATOM     57  C   UNL A   1      39.754  31.494  32.499  1.00  0.00     0.074 A 
ATOM     58  C   UNL A   1      45.395  29.569  30.143  1.00  0.00     0.029 A 
ATOM     59  N   UNL A   1      44.182  31.334  30.645  1.00  0.00    -0.354 N 
ATOM     60  N   UNL A   1      40.724  31.136  33.291  1.00  0.00    -0.248 NA
ATOM     61  C   UNL A   1      40.123  32.417  31.437  1.00  0.00     0.031 C 
ATOM     62  C   UNL A   1      44.983  29.499  31.503  1.00  0.00     0.029 A 
ATOM     63  C   UNL A   1      44.031  30.499  31.719  1.00  0.00     0.049 A 
ATOM     64  H   UNL A   1      43.998  32.302  30.631  1.00  0.00     0.167 HD
ATOM     65  C   UNL A   1      41.875  31.399  32.566  1.00  0.00     0.074 A 
ATOM     66  C   UNL A   1      41.451  32.295  31.492  1.00  0.00     0.031 C 
ATOM     67  C   UNL A   1      43.003  30.648  32.730  1.00  0.00     0.034 A 
BRANCH  54  68
ATOM     68  C   UNL A   1      44.256  32.113  27.552  1.00  0.00     0.023 A 
ATOM     69  C   UNL A   1      43.632  33.317  27.921  1.00  0.00     0.031 A 
ATOM     70  C   UNL A   1      45.276  32.222  26.582  1.00  0.00     0.131 A 
ATOM     71  C   UNL A   1      44.002  34.542  27.353  1.00  0.00     0.055 A 
ATOM     72  C   UNL A   1      45.692  33.455  26.062  1.00  0.00     0.041 A 
ATOM     73  F   UNL A   1      45.944  31.140  26.152  1.00  0.00    -0.206 F 
ATOM     74  C   UNL A   1      45.056  34.626  26.449  1.00  0.00     0.022 A 
BRANCH  71  75
ATOM     75  S   UNL A   1      43.121  36.062  27.806  1.00  0.00     0.124 S 
ATOM     76  O   UNL A   1      42.778  36.613  26.499  1.00  0.00    -0.237 OA
ATOM     77  O   UNL A   1      42.004  35.534  28.585  1.00  0.00    -0.237 OA
ATOM     78  O   UNL A   1      44.110  36.813  28.574  1.00  0.00    -0.744 OA
ENDBRANCH  71  75
ENDBRANCH  54  68
BRANCH  55  79
ATOM     79  C   UNL A   1      37.176  31.475  32.444  1.00  0.00     0.023 A 
ATOM     80  C   UNL A   1      36.510  31.832  31.256  1.00  0.00     0.031 A 
ATOM     81  C   UNL A   1      36.760  32.095  33.633  1.00  0.00     0.131 A 
ATOM     82  C   UNL A   1      35.518  32.819  31.269  1.00  0.00     0.055 A 
ATOM     83  C   UNL A   1      35.753  33.067  33.648  1.00  0.00     0.041 A 
ATOM     84  F   UNL A   1      37.376  31.824  34.794  1.00  0.00    -0.206 F 
ATOM     85  C   UNL A   1      35.138  33.446  32.457  1.00  0.00     0.022 A 
BRANCH  82  86
ATOM     86  S   UNL A   1      34.768  33.377  29.716  1.00  0.00     0.124 S 
ATOM     87  O   UNL A   1      35.869  34.099  29.082  1.00  0.00    -0.237 OA
ATOM     88  O   UNL A   1      34.403  32.110  29.091  1.00  0.00    -0.237 OA
ATOM     89  O   UNL A   1      33.655  34.215  30.155  1.00  0.00    -0.744 OA
ENDBRANCH  82  86
ENDBRANCH  55  79
BRANCH  67  90
ATOM     90  C   UNL A   1      43.093  29.704  33.908  1.00  0.00     0.023 A 
ATOM     91  C   UNL A   1      43.773  30.173  35.047  1.00  0.00     0.031 A 
ATOM     92  C   UNL A   1      42.756  28.338  33.870  1.00  0.00     0.131 A 
ATOM     93  C   UNL A   1      44.139  29.292  36.069  1.00  0.00     0.055 A 
ATOM     94  C   UNL A   1      43.052  27.475  34.933  1.00  0.00     0.041 A 
ATOM     95  F   UNL A   1      42.215  27.775  32.781  1.00  0.00    -0.206 F 
ATOM     96  C   UNL A   1      43.765  27.947  36.030  1.00  0.00     0.022 A 
BRANCH  93  97
ATOM     97  S   UNL A   1      45.261  29.837  37.382  1.00  0.00     0.124 S 
ATOM     98  O   UNL A   1      44.873  31.235  37.557  1.00  0.00    -0.237 OA
ATOM     99  O   UNL A   1      44.905  28.946  38.484  1.00  0.00    -0.237 OA
ATOM    100  O   UNL A   1      46.592  29.622  36.823  1.00  0.00    -0.744 OA
ENDBRANCH  93  97
ENDBRANCH  67  90
ENDBRANCH  41  42
ENDBRANCH  33  36
ENDBRANCH  31  32
ENDBRANCH  30  31
ENDBRANCH   1  30
TORSDOF 18
ENDMDL
MODEL 2
REMARK VINA RESULT:     -12.9      4.005      9.310
REMARK SMILES COc1cc2c(CC(=O)NCCCCNC(=O)c3ccc(-c4c5nc(c(-c6cc(S(=O)(=O)[O-])ccc6F)c6ccc([nH]6)c(-c6cc(S(=O)(=O)[O-])ccc6F)c6nc(c(-c7cc(S(=O)(=O)[O-])ccc7F)c7ccc4[nH]7)C=C6)C=C5)cc3)c(C)n(C(=O)c3ccc(Cl)cc3)c2cc1Cl
REMARK SMILES IDX 12 1 11 2 10 3 8 4 9 5 7 7 6 8 3 9 4 10 95 11 5 12 94 13
REMARK SMILES IDX 96 14 93 15 81 16 83 17 82 18 2 19 1 20 84 21 85 22 86 23
REMARK SMILES IDX 87 24 92 25 88 26 91 27 89 28 90 29 13 30 14 31 15 32 16 33
REMARK SMILES IDX 17 35 18 36 19 37 80 38 20 39 79 40 21 41 22 42 23 43 73 44
REMARK SMILES IDX 24 45 78 46 72 47 74 48 25 49 77 50 71 51 70 52 26 54 58 55
REMARK SMILES IDX 38 56 57 57 39 58 42 59 56 60 75 61 40 62 41 63 55 65 76 66
REMARK SMILES IDX 43 67 27 68 28 69 36 70 29 71 35 72 37 73 34 74 30 75 31 76
REMARK SMILES IDX 32 77 33 78 59 79 60 80 68 81 61 82 67 83 69 84 66 85 62 86
REMARK SMILES IDX 63 87 64 88 65 89 44 90 45 91 53 92 46 93 52 94 54 95 51 96
REMARK SMILES IDX 47 97 48 98 49 99 50 100
REMARK H PARENT 10 6 15 34 74 53 42 64
REMARK Flexibility Score: inf
ROOT
ATOM      1  C   UNL A   1      31.843  28.888  27.367  1.00  0.00     0.023 C 
ENDROOT
BRANCH   1   2
ATOM      2  C   UNL A   1      31.518  27.865  26.283  1.00  0.00     0.116 C 
BRANCH   2   3
ATOM      3  N   UNL A   1      31.276  26.544  26.828  1.00  0.00    -0.356 N 
ATOM      4  C   UNL A   1      31.967  25.388  26.596  1.00  0.00     0.224 C 
ATOM      5  O   UNL A   1      31.620  24.365  27.194  1.00  0.00    -0.275 OA
ATOM      6  H   UNL A   1      30.514  26.470  27.447  1.00  0.00     0.163 HD
BRANCH   4   7
ATOM      7  C   UNL A   1      33.181  25.387  25.680  1.00  0.00     0.138 C 
BRANCH   7   8
ATOM      8  C   UNL A   1      33.455  24.057  25.034  1.00  0.00    -0.009 A 
ATOM      9  C   UNL A   1      36.955  22.624  25.656  1.00  0.00     0.138 A 
ATOM     10  C   UNL A   1      35.903  23.544  25.771  1.00  0.00     0.058 A 
ATOM     11  C   UNL A   1      36.774  21.465  24.913  1.00  0.00     0.085 A 
ATOM     12  C   UNL A   1      34.665  23.312  25.125  1.00  0.00     0.008 A 
ATOM     13  C   UNL A   1      35.575  21.248  24.226  1.00  0.00     0.051 A 
ATOM     14  Cl  UNL A   1      37.938  20.190  24.836  1.00  0.00    -0.080 Cl
ATOM     15  C   UNL A   1      34.497  22.144  24.375  1.00  0.00     0.058 A 
ATOM     16  C   UNL A   1      32.602  23.356  24.187  1.00  0.00     0.028 A 
ATOM     17  N   UNL A   1      33.162  22.094  23.935  1.00  0.00    -0.280 N 
ATOM     18  C   UNL A   1      31.275  23.813  23.662  1.00  0.00     0.065 C 
BRANCH   9  19
ATOM     19  O   UNL A   1      38.090  22.928  26.363  1.00  0.00    -0.495 OA
ATOM     20  C   UNL A   1      38.175  24.309  26.715  1.00  0.00     0.278 C 
ENDBRANCH   9  19
BRANCH  17  21
ATOM     21  C   UNL A   1      32.500  20.975  23.346  1.00  0.00     0.262 C 
ATOM     22  O   UNL A   1      31.869  21.134  22.301  1.00  0.00    -0.268 OA
BRANCH  21  23
ATOM     23  C   UNL A   1      32.527  19.602  23.879  1.00  0.00     0.040 A 
ATOM     24  C   UNL A   1      32.494  19.359  25.257  1.00  0.00     0.015 A 
ATOM     25  C   UNL A   1      32.666  18.548  22.968  1.00  0.00     0.015 A 
ATOM     26  C   UNL A   1      32.704  18.058  25.726  1.00  0.00     0.021 A 
ATOM     27  C   UNL A   1      32.861  17.251  23.442  1.00  0.00     0.021 A 
ATOM     28  C   UNL A   1      32.903  17.014  24.817  1.00  0.00     0.041 A 
ATOM     29  Cl  UNL A   1      33.234  15.428  25.391  1.00  0.00    -0.084 Cl
ENDBRANCH  21  23
ENDBRANCH  17  21
ENDBRANCH   7   8
ENDBRANCH   4   7
ENDBRANCH   2   3
ENDBRANCH   1   2
BRANCH   1  30
ATOM     30  C   UNL A   1      32.294  30.254  26.835  1.00  0.00     0.023 C 
BRANCH  30  31
ATOM     31  C   UNL A   1      33.762  30.598  27.104  1.00  0.00     0.116 C 
BRANCH  31  32
ATOM     32  N   UNL A   1      33.973  31.399  28.292  1.00  0.00    -0.352 N 
ATOM     33  C   UNL A   1      35.042  31.611  29.123  1.00  0.00     0.251 C 
ATOM     34  H   UNL A   1      33.171  31.901  28.564  1.00  0.00     0.163 HD
ATOM     35  O   UNL A   1      34.918  32.535  29.932  1.00  0.00    -0.269 OA
BRANCH  33  36
ATOM     36  C   UNL A   1      36.278  30.779  29.159  1.00  0.00     0.039 A 
ATOM     37  C   UNL A   1      36.336  29.447  29.561  1.00  0.00     0.014 A 
ATOM     38  C   UNL A   1      37.486  31.434  28.838  1.00  0.00     0.014 A 
ATOM     39  C   UNL A   1      37.561  28.821  29.746  1.00  0.00     0.010 A 
ATOM     40  C   UNL A   1      38.718  30.803  29.002  1.00  0.00     0.010 A 
ATOM     41  C   UNL A   1      38.753  29.509  29.504  1.00  0.00    -0.014 A 
BRANCH  41  42
ATOM     42  C   UNL A   1      39.991  28.768  29.731  1.00  0.00     0.031 A 
ATOM     43  C   UNL A   1      40.541  28.883  31.110  1.00  0.00     0.074 A 
ATOM     44  C   UNL A   1      40.613  28.016  28.803  1.00  0.00     0.049 A 
ATOM     45  N   UNL A   1      41.617  29.493  31.489  1.00  0.00    -0.248 NA
ATOM     46  C   UNL A   1      39.718  28.374  32.212  1.00  0.00     0.031 C 
ATOM     47  C   UNL A   1      40.097  27.547  27.516  1.00  0.00     0.029 A 
ATOM     48  N   UNL A   1      41.842  27.433  28.877  1.00  0.00    -0.354 N 
ATOM     49  C   UNL A   1      41.703  29.307  32.869  1.00  0.00     0.074 A 
ATOM     50  C   UNL A   1      40.441  28.734  33.273  1.00  0.00     0.031 C 
ATOM     51  C   UNL A   1      40.909  26.572  27.044  1.00  0.00     0.029 A 
ATOM     52  C   UNL A   1      42.073  26.466  27.910  1.00  0.00     0.049 A 
ATOM     53  H   UNL A   1      42.510  27.677  29.557  1.00  0.00     0.167 HD
ATOM     54  C   UNL A   1      42.867  29.490  33.555  1.00  0.00     0.034 A 
ATOM     55  C   UNL A   1      43.107  25.590  27.872  1.00  0.00     0.034 A 
ATOM     56  C   UNL A   1      43.837  30.196  32.766  1.00  0.00     0.049 A 
ATOM     57  C   UNL A   1      44.198  26.114  28.727  1.00  0.00     0.074 A 
ATOM     58  C   UNL A   1      43.925  31.468  32.239  1.00  0.00     0.029 A 
ATOM     59  N   UNL A   1      44.798  29.452  32.128  1.00  0.00    -0.354 N 
ATOM     60  N   UNL A   1      44.931  27.148  28.431  1.00  0.00    -0.248 NA
ATOM     61  C   UNL A   1      44.210  25.721  30.128  1.00  0.00     0.031 C 
ATOM     62  C   UNL A   1      44.608  31.307  31.002  1.00  0.00     0.029 A 
ATOM     63  C   UNL A   1      44.941  29.957  30.864  1.00  0.00     0.049 A 
ATOM     64  H   UNL A   1      45.294  28.692  32.510  1.00  0.00     0.167 HD
ATOM     65  C   UNL A   1      45.110  27.801  29.639  1.00  0.00     0.074 A 
ATOM     66  C   UNL A   1      44.752  26.818  30.659  1.00  0.00     0.031 C 
ATOM     67  C   UNL A   1      45.257  29.158  29.697  1.00  0.00     0.034 A 
BRANCH  54  68
ATOM     68  C   UNL A   1      43.242  28.762  34.826  1.00  0.00     0.023 A 
ATOM     69  C   UNL A   1      43.458  27.374  34.873  1.00  0.00     0.031 A 
ATOM     70  C   UNL A   1      43.622  29.482  35.979  1.00  0.00     0.131 A 
ATOM     71  C   UNL A   1      44.010  26.753  35.999  1.00  0.00     0.055 A 
ATOM     72  C   UNL A   1      44.236  28.870  37.080  1.00  0.00     0.041 A 
ATOM     73  F   UNL A   1      43.464  30.813  36.051  1.00  0.00    -0.206 F 
ATOM     74  C   UNL A   1      44.437  27.497  37.094  1.00  0.00     0.022 A 
BRANCH  71  75
ATOM     75  S   UNL A   1      44.205  24.950  36.044  1.00  0.00     0.124 S 
ATOM     76  O   UNL A   1      43.012  24.499  35.337  1.00  0.00    -0.237 OA
ATOM     77  O   UNL A   1      45.469  24.773  35.332  1.00  0.00    -0.237 OA
ATOM     78  O   UNL A   1      44.254  24.648  37.472  1.00  0.00    -0.744 OA
ENDBRANCH  71  75
ENDBRANCH  54  68
BRANCH  55  79
ATOM     79  C   UNL A   1      43.025  24.151  27.536  1.00  0.00     0.023 A 
ATOM     80  C   UNL A   1      43.924  23.608  26.599  1.00  0.00     0.031 A 
ATOM     81  C   UNL A   1      41.885  23.395  27.856  1.00  0.00     0.131 A 
ATOM     82  C   UNL A   1      43.644  22.388  25.971  1.00  0.00     0.055 A 
ATOM     83  C   UNL A   1      41.616  22.165  27.241  1.00  0.00     0.041 A 
ATOM     84  F   UNL A   1      40.970  23.870  28.714  1.00  0.00    -0.206 F 
ATOM     85  C   UNL A   1      42.491  21.665  26.280  1.00  0.00     0.022 A 
BRANCH  82  86
ATOM     86  S   UNL A   1      44.733  21.767  24.662  1.00  0.00     0.124 S 
ATOM     87  O   UNL A   1      46.058  21.946  25.251  1.00  0.00    -0.237 OA
ATOM     88  O   UNL A   1      44.283  20.385  24.534  1.00  0.00    -0.237 OA
ATOM     89  O   UNL A   1      44.439  22.640  23.529  1.00  0.00    -0.744 OA
ENDBRANCH  82  86
ENDBRANCH  55  79
BRANCH  67  90
ATOM     90  C   UNL A   1      45.510  29.925  28.418  1.00  0.00     0.023 A 
ATOM     91  C   UNL A   1      46.835  30.326  28.170  1.00  0.00     0.031 A 
ATOM     92  C   UNL A   1      44.504  30.455  27.588  1.00  0.00     0.131 A 
ATOM     93  C   UNL A   1      47.119  31.259  27.167  1.00  0.00     0.055 A 
ATOM     94  C   UNL A   1      44.802  31.326  26.532  1.00  0.00     0.041 A 
ATOM     95  F   UNL A   1      43.204  30.226  27.820  1.00  0.00    -0.206 F 
ATOM     96  C   UNL A   1      46.112  31.747  26.331  1.00  0.00     0.022 A 
BRANCH  93  97
ATOM     97  S   UNL A   1      48.772  31.989  27.046  1.00  0.00     0.124 S 
ATOM     98  O   UNL A   1      48.563  33.063  26.078  1.00  0.00    -0.237 OA
ATOM     99  O   UNL A   1      49.021  32.422  28.419  1.00  0.00    -0.237 OA
ATOM    100  O   UNL A   1      49.613  30.888  26.587  1.00  0.00    -0.744 OA
ENDBRANCH  93  97
ENDBRANCH  67  90
ENDBRANCH  41  42
ENDBRANCH  33  36
ENDBRANCH  31  32
ENDBRANCH  30  31
ENDBRANCH   1  30
TORSDOF 18
ENDMDL
MODEL 3
REMARK VINA RESULT:     -12.9      3.948      9.173
REMARK SMILES COc1cc2c(CC(=O)NCCCCNC(=O)c3ccc(-c4c5nc(c(-c6cc(S(=O)(=O)[O-])ccc6F)c6ccc([nH]6)c(-c6cc(S(=O)(=O)[O-])ccc6F)c6nc(c(-c7cc(S(=O)(=O)[O-])ccc7F)c7ccc4[nH]7)C=C6)C=C5)cc3)c(C)n(C(=O)c3ccc(Cl)cc3)c2cc1Cl
REMARK SMILES IDX 12 1 11 2 10 3 8 4 9 5 7 7 6 8 3 9 4 10 95 11 5 12 94 13
REMARK SMILES IDX 96 14 93 15 81 16 83 17 82 18 2 19 1 20 84 21 85 22 86 23
REMARK SMILES IDX 87 24 92 25 88 26 91 27 89 28 90 29 13 30 14 31 15 32 16 33
REMARK SMILES IDX 17 35 18 36 19 37 80 38 20 39 79 40 21 41 22 42 23 43 73 44
REMARK SMILES IDX 24 45 78 46 72 47 74 48 25 49 77 50 71 51 70 52 26 54 58 55
REMARK SMILES IDX 38 56 57 57 39 58 42 59 56 60 75 61 40 62 41 63 55 65 76 66
REMARK SMILES IDX 43 67 27 68 28 69 36 70 29 71 35 72 37 73 34 74 30 75 31 76
REMARK SMILES IDX 32 77 33 78 59 79 60 80 68 81 61 82 67 83 69 84 66 85 62 86
REMARK SMILES IDX 63 87 64 88 65 89 44 90 45 91 53 92 46 93 52 94 54 95 51 96
REMARK SMILES IDX 47 97 48 98 49 99 50 100
REMARK H PARENT 10 6 15 34 74 53 42 64
REMARK Flexibility Score: inf
ROOT
ATOM      1  C   UNL A   1      31.805  28.773  27.266  1.00  0.00     0.023 C 
ENDROOT
BRANCH   1   2
ATOM      2  C   UNL A   1      31.301  27.769  26.235  1.00  0.00     0.116 C 
BRANCH   2   3
ATOM      3  N   UNL A   1      31.103  26.449  26.802  1.00  0.00    -0.356 N 
ATOM      4  C   UNL A   1      31.843  25.318  26.605  1.00  0.00     0.224 C 
ATOM      5  O   UNL A   1      31.527  24.294  27.217  1.00  0.00    -0.275 OA
ATOM      6  H   UNL A   1      30.334  26.357  27.410  1.00  0.00     0.163 HD
BRANCH   4   7
ATOM      7  C   UNL A   1      33.072  25.348  25.709  1.00  0.00     0.138 C 
BRANCH   7   8
ATOM      8  C   UNL A   1      33.379  24.029  25.055  1.00  0.00    -0.009 A 
ATOM      9  C   UNL A   1      36.891  22.646  25.729  1.00  0.00     0.138 A 
ATOM     10  C   UNL A   1      35.821  23.548  25.834  1.00  0.00     0.058 A 
ATOM     11  C   UNL A   1      36.742  21.493  24.970  1.00  0.00     0.085 A 
ATOM     12  C   UNL A   1      34.600  23.303  25.161  1.00  0.00     0.008 A 
ATOM     13  C   UNL A   1      35.561  21.264  24.258  1.00  0.00     0.051 A 
ATOM     14  Cl  UNL A   1      37.928  20.238  24.903  1.00  0.00    -0.080 Cl
ATOM     15  C   UNL A   1      34.465  22.141  24.395  1.00  0.00     0.058 A 
ATOM     16  C   UNL A   1      32.555  23.324  24.184  1.00  0.00     0.028 A 
ATOM     17  N   UNL A   1      33.140  22.074  23.929  1.00  0.00    -0.280 N 
ATOM     18  C   UNL A   1      31.231  23.765  23.638  1.00  0.00     0.065 C 
BRANCH   9  19
ATOM     19  O   UNL A   1      38.007  22.961  26.461  1.00  0.00    -0.495 OA
ATOM     20  C   UNL A   1      38.302  24.357  26.456  1.00  0.00     0.278 C 
ENDBRANCH   9  19
BRANCH  17  21
ATOM     21  C   UNL A   1      32.508  20.951  23.316  1.00  0.00     0.262 C 
ATOM     22  O   UNL A   1      31.913  21.106  22.249  1.00  0.00    -0.268 OA
BRANCH  21  23
ATOM     23  C   UNL A   1      32.527  19.577  23.847  1.00  0.00     0.040 A 
ATOM     24  C   UNL A   1      32.506  19.333  25.225  1.00  0.00     0.015 A 
ATOM     25  C   UNL A   1      32.647  18.523  22.933  1.00  0.00     0.015 A 
ATOM     26  C   UNL A   1      32.708  18.029  25.690  1.00  0.00     0.021 A 
ATOM     27  C   UNL A   1      32.835  17.223  23.404  1.00  0.00     0.021 A 
ATOM     28  C   UNL A   1      32.888  16.985  24.779  1.00  0.00     0.041 A 
ATOM     29  Cl  UNL A   1      33.210  15.395  25.348  1.00  0.00    -0.084 Cl
ENDBRANCH  21  23
ENDBRANCH  17  21
ENDBRANCH   7   8
ENDBRANCH   4   7
ENDBRANCH   2   3
ENDBRANCH   1   2
BRANCH   1  30
ATOM     30  C   UNL A   1      33.324  28.981  27.259  1.00  0.00     0.023 C 
BRANCH  30  31
ATOM     31  C   UNL A   1      33.783  30.364  26.783  1.00  0.00     0.116 C 
BRANCH  31  32
ATOM     32  N   UNL A   1      33.749  31.383  27.812  1.00  0.00    -0.352 N 
ATOM     33  C   UNL A   1      34.675  31.885  28.689  1.00  0.00     0.251 C 
ATOM     34  H   UNL A   1      32.866  31.810  27.900  1.00  0.00     0.163 HD
ATOM     35  O   UNL A   1      34.343  32.911  29.289  1.00  0.00    -0.269 OA
BRANCH  33  36
ATOM     36  C   UNL A   1      35.986  31.252  29.007  1.00  0.00     0.039 A 
ATOM     37  C   UNL A   1      37.226  31.871  28.878  1.00  0.00     0.014 A 
ATOM     38  C   UNL A   1      35.952  29.894  29.386  1.00  0.00     0.014 A 
ATOM     39  C   UNL A   1      38.397  31.135  29.012  1.00  0.00     0.010 A 
ATOM     40  C   UNL A   1      37.124  29.156  29.541  1.00  0.00     0.010 A 
ATOM     41  C   UNL A   1      38.346  29.770  29.306  1.00  0.00    -0.014 A 
BRANCH  41  42
ATOM     42  C   UNL A   1      39.629  29.081  29.422  1.00  0.00     0.031 A 
ATOM     43  C   UNL A   1      40.035  28.753  30.817  1.00  0.00     0.074 A 
ATOM     44  C   UNL A   1      40.409  28.737  28.380  1.00  0.00     0.049 A 
ATOM     45  N   UNL A   1      41.001  29.267  31.507  1.00  0.00    -0.248 NA
ATOM     46  C   UNL A   1      39.171  27.842  31.576  1.00  0.00     0.031 C 
ATOM     47  C   UNL A   1      40.066  28.705  26.957  1.00  0.00     0.029 A 
ATOM     48  N   UNL A   1      41.681  28.249  28.405  1.00  0.00    -0.354 N 
ATOM     49  C   UNL A   1      40.978  28.625  32.745  1.00  0.00     0.074 A 
ATOM     50  C   UNL A   1      39.752  27.864  32.777  1.00  0.00     0.031 C 
ATOM     51  C   UNL A   1      41.015  28.009  26.290  1.00  0.00     0.029 A 
ATOM     52  C   UNL A   1      42.099  27.690  27.207  1.00  0.00     0.049 A 
ATOM     53  H   UNL A   1      42.253  28.288  29.204  1.00  0.00     0.167 HD
ATOM     54  C   UNL A   1      42.049  28.639  33.590  1.00  0.00     0.034 A 
ATOM     55  C   UNL A   1      43.218  26.952  27.006  1.00  0.00     0.034 A 
ATOM     56  C   UNL A   1      43.007  29.636  33.206  1.00  0.00     0.049 A 
ATOM     57  C   UNL A   1      44.165  27.223  28.113  1.00  0.00     0.074 A 
ATOM     58  C   UNL A   1      43.009  31.015  33.149  1.00  0.00     0.029 A 
ATOM     59  N   UNL A   1      44.096  29.223  32.479  1.00  0.00    -0.354 N 
ATOM     60  N   UNL A   1      44.811  28.343  28.271  1.00  0.00    -0.248 NA
ATOM     61  C   UNL A   1      44.090  26.374  29.292  1.00  0.00     0.031 C 
ATOM     62  C   UNL A   1      43.817  31.335  32.022  1.00  0.00     0.029 A 
ATOM     63  C   UNL A   1      44.302  30.140  31.484  1.00  0.00     0.049 A 
ATOM     64  H   UNL A   1      44.632  28.413  32.643  1.00  0.00     0.167 HD
ATOM     65  C   UNL A   1      44.807  28.552  29.640  1.00  0.00     0.074 A 
ATOM     66  C   UNL A   1      44.462  27.257  30.222  1.00  0.00     0.031 C 
ATOM     67  C   UNL A   1      44.805  29.813  30.165  1.00  0.00     0.034 A 
BRANCH  54  68
ATOM     68  C   UNL A   1      42.379  27.546  34.580  1.00  0.00     0.023 A 
ATOM     69  C   UNL A   1      43.017  26.350  34.210  1.00  0.00     0.031 A 
ATOM     70  C   UNL A   1      42.271  27.780  35.968  1.00  0.00     0.131 A 
ATOM     71  C   UNL A   1      43.506  25.450  35.164  1.00  0.00     0.055 A 
ATOM     72  C   UNL A   1      42.819  26.913  36.923  1.00  0.00     0.041 A 
ATOM     73  F   UNL A   1      41.682  28.889  36.442  1.00  0.00    -0.206 F 
ATOM     74  C   UNL A   1      43.445  25.740  36.523  1.00  0.00     0.022 A 
BRANCH  71  75
ATOM     75  S   UNL A   1      44.259  23.884  34.642  1.00  0.00     0.124 S 
ATOM     76  O   UNL A   1      44.964  23.471  35.850  1.00  0.00    -0.237 OA
ATOM     77  O   UNL A   1      43.081  23.094  34.293  1.00  0.00    -0.237 OA
ATOM     78  O   UNL A   1      45.100  24.270  33.513  1.00  0.00    -0.744 OA
ENDBRANCH  71  75
ENDBRANCH  54  68
BRANCH  55  79
ATOM     79  C   UNL A   1      43.319  25.714  26.201  1.00  0.00     0.023 A 
ATOM     80  C   UNL A   1      42.563  24.586  26.571  1.00  0.00     0.031 A 
ATOM     81  C   UNL A   1      44.378  25.518  25.299  1.00  0.00     0.131 A 
ATOM     82  C   UNL A   1      42.909  23.314  26.099  1.00  0.00     0.055 A 
ATOM     83  C   UNL A   1      44.710  24.248  24.812  1.00  0.00     0.041 A 
ATOM     84  F   UNL A   1      45.159  26.546  24.932  1.00  0.00    -0.206 F 
ATOM     85  C   UNL A   1      43.984  23.135  25.227  1.00  0.00     0.022 A 
BRANCH  82  86
ATOM     86  S   UNL A   1      42.022  21.849  26.694  1.00  0.00     0.124 S 
ATOM     87  O   UNL A   1      40.857  21.814  25.814  1.00  0.00    -0.237 OA
ATOM     88  O   UNL A   1      43.008  20.796  26.475  1.00  0.00    -0.237 OA
ATOM     89  O   UNL A   1      41.731  22.169  28.089  1.00  0.00    -0.744 OA
ENDBRANCH  82  86
ENDBRANCH  55  79
BRANCH  67  90
ATOM     90  C   UNL A   1      45.093  30.987  29.257  1.00  0.00     0.023 A 
ATOM     91  C   UNL A   1      46.401  31.503  29.281  1.00  0.00     0.031 A 
ATOM     92  C   UNL A   1      44.114  31.733  28.573  1.00  0.00     0.131 A 
ATOM     93  C   UNL A   1      46.689  32.738  28.690  1.00  0.00     0.055 A 
ATOM     94  C   UNL A   1      44.423  32.928  27.913  1.00  0.00     0.041 A 
ATOM     95  F   UNL A   1      42.820  31.385  28.595  1.00  0.00    -0.206 F 
ATOM     96  C   UNL A   1      45.712  33.446  27.987  1.00  0.00     0.022 A 
BRANCH  93  97
ATOM     97  S   UNL A   1      48.292  33.531  28.976  1.00  0.00     0.124 S 
ATOM     98  O   UNL A   1      48.141  34.797  28.263  1.00  0.00    -0.237 OA
ATOM     99  O   UNL A   1      48.332  33.634  30.433  1.00  0.00    -0.237 OA
ATOM    100  O   UNL A   1      49.257  32.599  28.399  1.00  0.00    -0.744 OA
ENDBRANCH  93  97
ENDBRANCH  67  90
ENDBRANCH  41  42
ENDBRANCH  33  36
ENDBRANCH  31  32
ENDBRANCH  30  31
ENDBRANCH   1  30
TORSDOF 18
ENDMDL
