MODEL 1
REMARK VINA RESULT:     -11.8      0.000      0.000
REMARK SMILES C[C@@H]1[C@@H](C(=O)NCCCCNC(=O)c2ccc(-c3c4nc(c(-c5cc(S(=O)(=O)[O-])ccc5F)c5ccc([nH]5)c(-c5cc(S(=O)(=O)[O-])ccc5F)c5nc(c(-c6cc(S(=O)(=O)[O-])ccc6F)c6ccc3[nH]6)C=C5)C=C4)cc2)CCN1C(=O)CN1C(=O)CNC1=O
REMARK SMILES IDX 8 1 7 2 6 3 4 4 5 5 3 7 1 8 2 9 79 10 77 11 78 12 80 13
REMARK SMILES IDX 81 14 82 15 83 16 84 17 88 18 85 19 86 20 87 21 89 22 9 24
REMARK SMILES IDX 10 25 11 26 12 27 13 29 14 30 15 31 76 32 16 33 75 34 17 35
REMARK SMILES IDX 18 36 19 37 69 38 20 39 74 40 68 41 70 42 21 43 73 44 67 45
REMARK SMILES IDX 66 46 22 48 54 49 34 50 53 51 35 52 38 53 52 54 71 55 36 56
REMARK SMILES IDX 37 57 51 59 72 60 39 61 23 62 24 63 32 64 25 65 31 66 33 67
REMARK SMILES IDX 30 68 26 69 27 70 28 71 29 72 55 73 56 74 64 75 57 76 63 77
REMARK SMILES IDX 65 78 62 79 58 80 59 81 60 82 61 83 40 84 41 85 49 86 42 87
REMARK SMILES IDX 48 88 50 89 47 90 43 91 44 92 45 93 46 94
REMARK H PARENT 6 6 87 23 11 28 70 47 38 58
REMARK Flexibility Score: inf
ROOT
ATOM      1  C   UNL A   1      34.809  23.135  26.515  1.00  0.00     0.023 C 
ENDROOT
BRANCH   1   2
ATOM      2  C   UNL A   1      33.317  23.010  26.810  1.00  0.00     0.116 C 
BRANCH   2   3
ATOM      3  N   UNL A   1      32.499  23.502  25.724  1.00  0.00    -0.356 N 
ATOM      4  C   UNL A   1      32.045  24.759  25.473  1.00  0.00     0.225 C 
ATOM      5  O   UNL A   1      31.081  24.853  24.707  1.00  0.00    -0.275 OA
ATOM      6  H   UNL A   1      32.228  22.823  25.065  1.00  0.00     0.163 HD
BRANCH   4   7
ATOM      7  C   UNL A   1      32.565  25.971  26.250  1.00  0.00     0.102 C 
ATOM      8  C   UNL A   1      31.454  27.825  27.579  1.00  0.00     0.032 C 
ATOM      9  C   UNL A   1      31.517  27.114  26.225  1.00  0.00     0.094 C 
ATOM     10  N   UNL A   1      31.983  28.027  25.166  1.00  0.00    -0.338 N 
ATOM     11  C   UNL A   1      33.825  26.685  25.749  1.00  0.00     0.037 C 
ATOM     12  C   UNL A   1      33.323  27.696  24.740  1.00  0.00     0.121 C 
BRANCH  10  13
ATOM     13  C   UNL A   1      31.240  28.895  24.379  1.00  0.00     0.243 C 
ATOM     14  O   UNL A   1      31.028  30.063  24.715  1.00  0.00    -0.273 OA
BRANCH  13  15
ATOM     15  C   UNL A   1      30.750  28.380  23.033  1.00  0.00     0.230 C 
BRANCH  15  16
ATOM     16  N   UNL A   1      29.334  28.543  22.775  1.00  0.00    -0.253 N 
ATOM     17  C   UNL A   1      28.825  29.672  22.196  1.00  0.00     0.250 C 
ATOM     18  C   UNL A   1      28.325  27.805  23.319  1.00  0.00     0.325 C 
ATOM     19  O   UNL A   1      29.466  30.560  21.648  1.00  0.00    -0.272 OA
ATOM     20  C   UNL A   1      27.319  29.689  22.392  1.00  0.00     0.218 C 
ATOM     21  N   UNL A   1      27.141  28.476  23.127  1.00  0.00    -0.329 N 
ATOM     22  O   UNL A   1      28.396  26.726  23.876  1.00  0.00    -0.248 OA
ATOM     23  H   UNL A   1      26.270  28.158  23.459  1.00  0.00     0.165 HD
ENDBRANCH  15  16
ENDBRANCH  13  15
ENDBRANCH  10  13
ENDBRANCH   4   7
ENDBRANCH   2   3
ENDBRANCH   1   2
BRANCH   1  24
ATOM     24  C   UNL A   1      35.483  21.869  25.982  1.00  0.00     0.023 C 
BRANCH  24  25
ATOM     25  C   UNL A   1      36.806  22.085  25.254  1.00  0.00     0.116 C 
BRANCH  25  26
ATOM     26  N   UNL A   1      37.811  21.090  25.601  1.00  0.00    -0.352 N 
ATOM     27  C   UNL A   1      39.072  21.250  26.126  1.00  0.00     0.251 C 
ATOM     28  H   UNL A   1      37.546  20.157  25.431  1.00  0.00     0.163 HD
ATOM     29  O   UNL A   1      39.824  20.282  26.186  1.00  0.00    -0.269 OA
BRANCH  27  30
ATOM     30  C   UNL A   1      39.529  22.581  26.584  1.00  0.00     0.039 A 
ATOM     31  C   UNL A   1      40.545  22.656  27.541  1.00  0.00     0.014 A 
ATOM     32  C   UNL A   1      38.961  23.752  26.078  1.00  0.00     0.014 A 
ATOM     33  C   UNL A   1      41.044  23.903  27.929  1.00  0.00     0.010 A 
ATOM     34  C   UNL A   1      39.516  24.988  26.401  1.00  0.00     0.010 A 
ATOM     35  C   UNL A   1      40.562  25.079  27.333  1.00  0.00    -0.014 A 
BRANCH  35  36
ATOM     36  C   UNL A   1      41.124  26.413  27.677  1.00  0.00     0.031 A 
ATOM     37  C   UNL A   1      42.550  26.742  27.323  1.00  0.00     0.074 A 
ATOM     38  C   UNL A   1      40.378  27.301  28.366  1.00  0.00     0.049 A 
ATOM     39  N   UNL A   1      43.256  27.804  27.620  1.00  0.00    -0.248 NA
ATOM     40  C   UNL A   1      43.289  25.722  26.565  1.00  0.00     0.031 C 
ATOM     41  C   UNL A   1      38.996  27.088  28.799  1.00  0.00     0.029 A 
ATOM     42  N   UNL A   1      40.679  28.558  28.829  1.00  0.00    -0.354 N 
ATOM     43  C   UNL A   1      44.525  27.572  27.100  1.00  0.00     0.074 A 
ATOM     44  C   UNL A   1      44.507  26.240  26.533  1.00  0.00     0.031 C 
ATOM     45  C   UNL A   1      38.562  28.184  29.442  1.00  0.00     0.029 A 
ATOM     46  C   UNL A   1      39.645  29.160  29.511  1.00  0.00     0.049 A 
ATOM     47  H   UNL A   1      41.553  28.989  28.688  1.00  0.00     0.167 HD
ATOM     48  C   UNL A   1      45.599  28.401  27.074  1.00  0.00     0.034 A 
ATOM     49  C   UNL A   1      39.581  30.355  30.129  1.00  0.00     0.034 A 
ATOM     50  C   UNL A   1      45.597  29.732  27.633  1.00  0.00     0.049 A 
ATOM     51  C   UNL A   1      40.793  31.253  30.108  1.00  0.00     0.074 A 
ATOM     52  C   UNL A   1      46.611  30.673  27.625  1.00  0.00     0.029 A 
ATOM     53  N   UNL A   1      44.528  30.310  28.308  1.00  0.00    -0.354 N 
ATOM     54  N   UNL A   1      41.974  31.036  29.578  1.00  0.00    -0.248 NA
ATOM     55  C   UNL A   1      40.657  32.563  30.759  1.00  0.00     0.031 C 
ATOM     56  C   UNL A   1      46.181  31.790  28.348  1.00  0.00     0.029 A 
ATOM     57  C   UNL A   1      44.868  31.583  28.740  1.00  0.00     0.049 A 
ATOM     58  H   UNL A   1      43.655  29.879  28.457  1.00  0.00     0.167 HD
ATOM     59  C   UNL A   1      42.708  32.199  29.798  1.00  0.00     0.074 A 
ATOM     60  C   UNL A   1      41.833  33.115  30.500  1.00  0.00     0.031 C 
ATOM     61  C   UNL A   1      43.988  32.486  29.444  1.00  0.00     0.034 A 
BRANCH  48  62
ATOM     62  C   UNL A   1      46.866  27.873  26.441  1.00  0.00     0.023 A 
ATOM     63  C   UNL A   1      47.153  28.081  25.079  1.00  0.00     0.031 A 
ATOM     64  C   UNL A   1      47.781  27.117  27.194  1.00  0.00     0.131 A 
ATOM     65  C   UNL A   1      48.269  27.465  24.495  1.00  0.00     0.055 A 
ATOM     66  C   UNL A   1      48.940  26.583  26.627  1.00  0.00     0.041 A 
ATOM     67  F   UNL A   1      47.556  26.866  28.494  1.00  0.00    -0.206 F 
ATOM     68  C   UNL A   1      49.180  26.739  25.265  1.00  0.00     0.022 A 
BRANCH  65  69
ATOM     69  S   UNL A   1      48.422  27.490  22.687  1.00  0.00     0.124 S 
ATOM     70  O   UNL A   1      47.208  28.204  22.300  1.00  0.00    -0.237 OA
ATOM     71  O   UNL A   1      49.676  28.205  22.486  1.00  0.00    -0.237 OA
ATOM     72  O   UNL A   1      48.444  26.074  22.326  1.00  0.00    -0.744 OA
ENDBRANCH  65  69
ENDBRANCH  48  62
BRANCH  49  73
ATOM     73  C   UNL A   1      38.332  30.781  30.824  1.00  0.00     0.023 A 
ATOM     74  C   UNL A   1      37.312  31.452  30.130  1.00  0.00     0.031 A 
ATOM     75  C   UNL A   1      38.155  30.559  32.201  1.00  0.00     0.131 A 
ATOM     76  C   UNL A   1      36.185  31.921  30.823  1.00  0.00     0.055 A 
ATOM     77  C   UNL A   1      37.006  30.980  32.875  1.00  0.00     0.041 A 
ATOM     78  F   UNL A   1      39.096  29.917  32.912  1.00  0.00    -0.206 F 
ATOM     79  C   UNL A   1      36.019  31.677  32.188  1.00  0.00     0.022 A 
BRANCH  76  80
ATOM     80  S   UNL A   1      34.972  32.930  29.927  1.00  0.00     0.124 S 
ATOM     81  O   UNL A   1      34.490  31.990  28.921  1.00  0.00    -0.237 OA
ATOM     82  O   UNL A   1      34.028  33.278  30.985  1.00  0.00    -0.237 OA
ATOM     83  O   UNL A   1      35.767  34.043  29.414  1.00  0.00    -0.744 OA
ENDBRANCH  76  80
ENDBRANCH  49  73
BRANCH  61  84
ATOM     84  C   UNL A   1      44.493  33.874  29.760  1.00  0.00     0.023 A 
ATOM     85  C   UNL A   1      44.306  34.954  28.880  1.00  0.00     0.031 A 
ATOM     86  C   UNL A   1      45.184  34.113  30.962  1.00  0.00     0.131 A 
ATOM     87  C   UNL A   1      44.855  36.209  29.187  1.00  0.00     0.055 A 
ATOM     88  C   UNL A   1      45.672  35.378  31.291  1.00  0.00     0.041 A 
ATOM     89  F   UNL A   1      45.394  33.118  31.839  1.00  0.00    -0.206 F 
ATOM     90  C   UNL A   1      45.522  36.431  30.394  1.00  0.00     0.022 A 
BRANCH  87  91
ATOM     91  S   UNL A   1      44.774  37.525  27.941  1.00  0.00     0.124 S 
ATOM     92  O   UNL A   1      43.884  36.942  26.941  1.00  0.00    -0.237 OA
ATOM     93  O   UNL A   1      44.229  38.643  28.704  1.00  0.00    -0.237 OA
ATOM     94  O   UNL A   1      46.164  37.683  27.518  1.00  0.00    -0.744 OA
ENDBRANCH  87  91
ENDBRANCH  61  84
ENDBRANCH  35  36
ENDBRANCH  27  30
ENDBRANCH  25  26
ENDBRANCH  24  25
ENDBRANCH   1  24
TORSDOF 17
ENDMDL
MODEL 2
REMARK VINA RESULT:     -11.7      1.866      2.516
REMARK SMILES C[C@@H]1[C@@H](C(=O)NCCCCNC(=O)c2ccc(-c3c4nc(c(-c5cc(S(=O)(=O)[O-])ccc5F)c5ccc([nH]5)c(-c5cc(S(=O)(=O)[O-])ccc5F)c5nc(c(-c6cc(S(=O)(=O)[O-])ccc6F)c6ccc3[nH]6)C=C5)C=C4)cc2)CCN1C(=O)CN1C(=O)CNC1=O
REMARK SMILES IDX 8 1 7 2 6 3 4 4 5 5 3 7 1 8 2 9 79 10 77 11 78 12 80 13
REMARK SMILES IDX 81 14 82 15 83 16 84 17 88 18 85 19 86 20 87 21 89 22 9 24
REMARK SMILES IDX 10 25 11 26 12 27 13 29 14 30 15 31 76 32 16 33 75 34 17 35
REMARK SMILES IDX 18 36 19 37 69 38 20 39 74 40 68 41 70 42 21 43 73 44 67 45
REMARK SMILES IDX 66 46 22 48 54 49 34 50 53 51 35 52 38 53 52 54 71 55 36 56
REMARK SMILES IDX 37 57 51 59 72 60 39 61 23 62 24 63 32 64 25 65 31 66 33 67
REMARK SMILES IDX 30 68 26 69 27 70 28 71 29 72 55 73 56 74 64 75 57 76 63 77
REMARK SMILES IDX 65 78 62 79 58 80 59 81 60 82 61 83 40 84 41 85 49 86 42 87
REMARK SMILES IDX 48 88 50 89 47 90 43 91 44 92 45 93 46 94
REMARK H PARENT 6 6 87 23 11 28 70 47 38 58
REMARK Flexibility Score: inf
ROOT
ATOM      1  C   UNL A   1      34.986  21.647  26.430  1.00  0.00     0.023 C 
ENDROOT
BRANCH   1   2
ATOM      2  C   UNL A   1      33.683  20.855  26.468  1.00  0.00     0.116 C 
BRANCH   2   3
ATOM      3  N   UNL A   1      32.603  21.602  27.074  1.00  0.00    -0.356 N 
ATOM      4  C   UNL A   1      32.093  22.820  26.747  1.00  0.00     0.225 C 
ATOM      5  O   UNL A   1      31.437  23.394  27.622  1.00  0.00    -0.275 OA
ATOM      6  H   UNL A   1      32.170  21.163  27.842  1.00  0.00     0.163 HD
BRANCH   4   7
ATOM      7  C   UNL A   1      32.476  23.528  25.446  1.00  0.00     0.102 C 
ATOM      8  C   UNL A   1      34.021  25.458  24.877  1.00  0.00     0.032 C 
ATOM      9  C   UNL A   1      32.830  25.012  25.727  1.00  0.00     0.094 C 
ATOM     10  N   UNL A   1      31.612  25.762  25.372  1.00  0.00    -0.338 N 
ATOM     11  C   UNL A   1      31.426  23.658  24.337  1.00  0.00     0.037 C 
ATOM     12  C   UNL A   1      30.668  24.926  24.667  1.00  0.00     0.121 C 
BRANCH  10  13
ATOM     13  C   UNL A   1      31.169  26.981  25.864  1.00  0.00     0.243 C 
ATOM     14  O   UNL A   1      31.044  27.191  27.073  1.00  0.00    -0.273 OA
BRANCH  13  15
ATOM     15  C   UNL A   1      30.909  28.094  24.858  1.00  0.00     0.230 C 
BRANCH  15  16
ATOM     16  N   UNL A   1      32.048  28.495  24.057  1.00  0.00    -0.253 N 
ATOM     17  C   UNL A   1      32.269  27.990  22.805  1.00  0.00     0.250 C 
ATOM     18  C   UNL A   1      33.166  29.132  24.505  1.00  0.00     0.325 C 
ATOM     19  O   UNL A   1      31.480  27.337  22.135  1.00  0.00    -0.272 OA
ATOM     20  C   UNL A   1      33.693  28.317  22.388  1.00  0.00     0.218 C 
ATOM     21  N   UNL A   1      34.148  29.014  23.551  1.00  0.00    -0.329 N 
ATOM     22  O   UNL A   1      33.323  29.732  25.551  1.00  0.00    -0.248 OA
ATOM     23  H   UNL A   1      35.061  29.368  23.656  1.00  0.00     0.165 HD
ENDBRANCH  15  16
ENDBRANCH  13  15
ENDBRANCH  10  13
ENDBRANCH   4   7
ENDBRANCH   2   3
ENDBRANCH   1   2
BRANCH   1  24
ATOM     24  C   UNL A   1      35.641  21.773  25.054  1.00  0.00     0.023 C 
BRANCH  24  25
ATOM     25  C   UNL A   1      37.085  22.266  25.054  1.00  0.00     0.116 C 
BRANCH  25  26
ATOM     26  N   UNL A   1      38.026  21.259  25.518  1.00  0.00    -0.352 N 
ATOM     27  C   UNL A   1      39.229  21.404  26.169  1.00  0.00     0.251 C 
ATOM     28  H   UNL A   1      37.761  20.328  25.337  1.00  0.00     0.163 HD
ATOM     29  O   UNL A   1      39.951  20.423  26.322  1.00  0.00    -0.269 OA
BRANCH  27  30
ATOM     30  C   UNL A   1      39.665  22.733  26.650  1.00  0.00     0.039 A 
ATOM     31  C   UNL A   1      40.663  22.807  27.627  1.00  0.00     0.014 A 
ATOM     32  C   UNL A   1      39.094  23.905  26.148  1.00  0.00     0.014 A 
ATOM     33  C   UNL A   1      41.141  24.054  28.039  1.00  0.00     0.010 A 
ATOM     34  C   UNL A   1      39.631  25.142  26.496  1.00  0.00     0.010 A 
ATOM     35  C   UNL A   1      40.658  25.232  27.448  1.00  0.00    -0.014 A 
BRANCH  35  36
ATOM     36  C   UNL A   1      41.200  26.568  27.818  1.00  0.00     0.031 A 
ATOM     37  C   UNL A   1      42.632  26.912  27.501  1.00  0.00     0.074 A 
ATOM     38  C   UNL A   1      40.431  27.442  28.498  1.00  0.00     0.049 A 
ATOM     39  N   UNL A   1      43.321  27.977  27.824  1.00  0.00    -0.248 NA
ATOM     40  C   UNL A   1      43.397  25.906  26.750  1.00  0.00     0.031 C 
ATOM     41  C   UNL A   1      39.041  27.213  28.897  1.00  0.00     0.029 A 
ATOM     42  N   UNL A   1      40.710  28.697  28.980  1.00  0.00    -0.354 N 
ATOM     43  C   UNL A   1      44.604  27.761  27.332  1.00  0.00     0.074 A 
ATOM     44  C   UNL A   1      44.611  26.436  26.751  1.00  0.00     0.031 C 
ATOM     45  C   UNL A   1      38.583  28.299  29.540  1.00  0.00     0.029 A 
ATOM     46  C   UNL A   1      39.655  29.283  29.643  1.00  0.00     0.049 A 
ATOM     47  H   UNL A   1      41.584  29.137  28.864  1.00  0.00     0.167 HD
ATOM     48  C   UNL A   1      45.671  28.600  27.340  1.00  0.00     0.034 A 
ATOM     49  C   UNL A   1      39.566  30.472  30.272  1.00  0.00     0.034 A 
ATOM     50  C   UNL A   1      45.645  29.925  27.911  1.00  0.00     0.049 A 
ATOM     51  C   UNL A   1      40.770  31.380  30.288  1.00  0.00     0.074 A 
ATOM     52  C   UNL A   1      46.650  30.875  27.936  1.00  0.00     0.029 A 
ATOM     53  N   UNL A   1      44.555  30.487  28.567  1.00  0.00    -0.354 N 
ATOM     54  N   UNL A   1      41.966  31.179  29.784  1.00  0.00    -0.248 NA
ATOM     55  C   UNL A   1      40.608  32.683  30.948  1.00  0.00     0.031 C 
ATOM     56  C   UNL A   1      46.193  31.981  28.660  1.00  0.00     0.029 A 
ATOM     57  C   UNL A   1      44.873  31.759  29.019  1.00  0.00     0.049 A 
ATOM     58  H   UNL A   1      43.682  30.047  28.691  1.00  0.00     0.167 HD
ATOM     59  C   UNL A   1      42.684  32.346  30.032  1.00  0.00     0.074 A 
ATOM     60  C   UNL A   1      41.785  33.248  30.722  1.00  0.00     0.031 C 
ATOM     61  C   UNL A   1      43.969  32.647  29.711  1.00  0.00     0.034 A 
BRANCH  48  62
ATOM     62  C   UNL A   1      46.957  28.090  26.731  1.00  0.00     0.023 A 
ATOM     63  C   UNL A   1      47.210  28.188  25.350  1.00  0.00     0.031 A 
ATOM     64  C   UNL A   1      47.926  27.459  27.531  1.00  0.00     0.131 A 
ATOM     65  C   UNL A   1      48.352  27.585  24.802  1.00  0.00     0.055 A 
ATOM     66  C   UNL A   1      49.106  26.942  26.990  1.00  0.00     0.041 A 
ATOM     67  F   UNL A   1      47.735  27.316  28.852  1.00  0.00    -0.206 F 
ATOM     68  C   UNL A   1      49.316  26.986  25.615  1.00  0.00     0.022 A 
BRANCH  65  69
ATOM     69  S   UNL A   1      48.475  27.452  22.996  1.00  0.00     0.124 S 
ATOM     70  O   UNL A   1      49.766  28.086  22.742  1.00  0.00    -0.237 OA
ATOM     71  O   UNL A   1      48.418  26.011  22.782  1.00  0.00    -0.237 OA
ATOM     72  O   UNL A   1      47.316  28.203  22.517  1.00  0.00    -0.744 OA
ENDBRANCH  65  69
ENDBRANCH  48  62
BRANCH  49  73
ATOM     73  C   UNL A   1      38.298  30.880  30.942  1.00  0.00     0.023 A 
ATOM     74  C   UNL A   1      37.294  31.560  30.234  1.00  0.00     0.031 A 
ATOM     75  C   UNL A   1      38.086  30.632  32.309  1.00  0.00     0.131 A 
ATOM     76  C   UNL A   1      36.147  32.012  30.905  1.00  0.00     0.055 A 
ATOM     77  C   UNL A   1      36.918  31.036  32.961  1.00  0.00     0.041 A 
ATOM     78  F   UNL A   1      39.011  29.981  33.033  1.00  0.00    -0.206 F 
ATOM     79  C   UNL A   1      35.947  31.742  32.261  1.00  0.00     0.022 A 
BRANCH  76  80
ATOM     80  S   UNL A   1      34.953  33.032  29.997  1.00  0.00     0.124 S 
ATOM     81  O   UNL A   1      34.064  33.472  31.066  1.00  0.00    -0.237 OA
ATOM     82  O   UNL A   1      35.814  34.059  29.415  1.00  0.00    -0.237 OA
ATOM     83  O   UNL A   1      34.366  32.098  29.039  1.00  0.00    -0.744 OA
ENDBRANCH  76  80
ENDBRANCH  49  73
BRANCH  61  84
ATOM     84  C   UNL A   1      44.454  34.036  30.052  1.00  0.00     0.023 A 
ATOM     85  C   UNL A   1      45.083  34.327  31.274  1.00  0.00     0.031 A 
ATOM     86  C   UNL A   1      44.270  35.089  29.137  1.00  0.00     0.131 A 
ATOM     87  C   UNL A   1      45.453  35.648  31.573  1.00  0.00     0.055 A 
ATOM     88  C   UNL A   1      44.698  36.388  29.413  1.00  0.00     0.041 A 
ATOM     89  F   UNL A   1      43.673  34.870  27.954  1.00  0.00    -0.206 F 
ATOM     90  C   UNL A   1      45.280  36.676  30.644  1.00  0.00     0.022 A 
BRANCH  87  91
ATOM     91  S   UNL A   1      46.074  36.025  33.236  1.00  0.00     0.124 S 
ATOM     92  O   UNL A   1      44.892  35.795  34.061  1.00  0.00    -0.237 OA
ATOM     93  O   UNL A   1      47.157  35.059  33.391  1.00  0.00    -0.237 OA
ATOM     94  O   UNL A   1      46.498  37.420  33.136  1.00  0.00    -0.744 OA
ENDBRANCH  87  91
ENDBRANCH  61  84
ENDBRANCH  35  36
ENDBRANCH  27  30
ENDBRANCH  25  26
ENDBRANCH  24  25
ENDBRANCH   1  24
TORSDOF 17
ENDMDL
MODEL 3
REMARK VINA RESULT:     -11.7      4.908      7.875
REMARK SMILES C[C@@H]1[C@@H](C(=O)NCCCCNC(=O)c2ccc(-c3c4nc(c(-c5cc(S(=O)(=O)[O-])ccc5F)c5ccc([nH]5)c(-c5cc(S(=O)(=O)[O-])ccc5F)c5nc(c(-c6cc(S(=O)(=O)[O-])ccc6F)c6ccc3[nH]6)C=C5)C=C4)cc2)CCN1C(=O)CN1C(=O)CNC1=O
REMARK SMILES IDX 8 1 7 2 6 3 4 4 5 5 3 7 1 8 2 9 79 10 77 11 78 12 80 13
REMARK SMILES IDX 81 14 82 15 83 16 84 17 88 18 85 19 86 20 87 21 89 22 9 24
REMARK SMILES IDX 10 25 11 26 12 27 13 29 14 30 15 31 76 32 16 33 75 34 17 35
REMARK SMILES IDX 18 36 19 37 69 38 20 39 74 40 68 41 70 42 21 43 73 44 67 45
REMARK SMILES IDX 66 46 22 48 54 49 34 50 53 51 35 52 38 53 52 54 71 55 36 56
REMARK SMILES IDX 37 57 51 59 72 60 39 61 23 62 24 63 32 64 25 65 31 66 33 67
REMARK SMILES IDX 30 68 26 69 27 70 28 71 29 72 55 73 56 74 64 75 57 76 63 77
REMARK SMILES IDX 65 78 62 79 58 80 59 81 60 82 61 83 40 84 41 85 49 86 42 87
REMARK SMILES IDX 48 88 50 89 47 90 43 91 44 92 45 93 46 94
REMARK H PARENT 6 6 87 23 11 28 70 47 38 58
REMARK Flexibility Score: inf
ROOT
ATOM      1  C   UNL A   1      31.369  28.244  23.734  1.00  0.00     0.023 C 
ENDROOT
BRANCH   1   2
ATOM      2  C   UNL A   1      30.803  27.565  22.491  1.00  0.00     0.116 C 
BRANCH   2   3
ATOM      3  N   UNL A   1      31.826  26.901  21.714  1.00  0.00    -0.356 N 
ATOM      4  C   UNL A   1      32.635  25.858  22.044  1.00  0.00     0.225 C 
ATOM      5  O   UNL A   1      33.655  25.717  21.363  1.00  0.00    -0.275 OA
ATOM      6  H   UNL A   1      31.959  27.259  20.806  1.00  0.00     0.163 HD
BRANCH   4   7
ATOM      7  C   UNL A   1      32.400  25.030  23.310  1.00  0.00     0.102 C 
ATOM      8  C   UNL A   1      33.562  24.881  25.561  1.00  0.00     0.032 C 
ATOM      9  C   UNL A   1      33.744  24.782  24.044  1.00  0.00     0.094 C 
ATOM     10  N   UNL A   1      34.145  23.421  23.644  1.00  0.00    -0.338 N 
ATOM     11  C   UNL A   1      31.848  23.607  23.171  1.00  0.00     0.037 C 
ATOM     12  C   UNL A   1      33.068  22.735  22.967  1.00  0.00     0.121 C 
BRANCH  10  13
ATOM     13  C   UNL A   1      35.419  22.879  23.567  1.00  0.00     0.243 C 
ATOM     14  O   UNL A   1      36.227  23.230  22.703  1.00  0.00    -0.273 OA
BRANCH  13  15
ATOM     15  C   UNL A   1      35.825  21.880  24.641  1.00  0.00     0.230 C 
BRANCH  15  16
ATOM     16  N   UNL A   1      37.183  22.001  25.132  1.00  0.00    -0.253 N 
ATOM     17  C   UNL A   1      38.031  20.930  25.197  1.00  0.00     0.250 C 
ATOM     18  C   UNL A   1      37.691  23.040  25.853  1.00  0.00     0.325 C 
ATOM     19  O   UNL A   1      37.856  19.832  24.685  1.00  0.00    -0.272 OA
ATOM     20  C   UNL A   1      39.220  21.297  26.069  1.00  0.00     0.218 C 
ATOM     21  N   UNL A   1      38.870  22.635  26.431  1.00  0.00    -0.329 N 
ATOM     22  O   UNL A   1      37.234  24.158  25.988  1.00  0.00    -0.248 OA
ATOM     23  H   UNL A   1      39.412  23.201  27.028  1.00  0.00     0.165 HD
ENDBRANCH  15  16
ENDBRANCH  13  15
ENDBRANCH  10  13
ENDBRANCH   4   7
ENDBRANCH   2   3
ENDBRANCH   1   2
BRANCH   1  24
ATOM     24  C   UNL A   1      32.850  28.620  23.663  1.00  0.00     0.023 C 
BRANCH  24  25
ATOM     25  C   UNL A   1      33.431  29.252  24.924  1.00  0.00     0.116 C 
BRANCH  25  26
ATOM     26  N   UNL A   1      32.618  30.346  25.433  1.00  0.00    -0.352 N 
ATOM     27  C   UNL A   1      32.741  31.076  26.593  1.00  0.00     0.251 C 
ATOM     28  H   UNL A   1      31.861  30.604  24.859  1.00  0.00     0.163 HD
ATOM     29  O   UNL A   1      31.843  31.850  26.913  1.00  0.00    -0.269 OA
BRANCH  27  30
ATOM     30  C   UNL A   1      33.927  30.907  27.462  1.00  0.00     0.039 A 
ATOM     31  C   UNL A   1      34.246  29.630  27.931  1.00  0.00     0.014 A 
ATOM     32  C   UNL A   1      34.722  31.999  27.818  1.00  0.00     0.014 A 
ATOM     33  C   UNL A   1      35.405  29.437  28.688  1.00  0.00     0.010 A 
ATOM     34  C   UNL A   1      35.919  31.792  28.498  1.00  0.00     0.010 A 
ATOM     35  C   UNL A   1      36.274  30.510  28.945  1.00  0.00    -0.014 A 
BRANCH  35  36
ATOM     36  C   UNL A   1      37.549  30.319  29.689  1.00  0.00     0.031 A 
ATOM     37  C   UNL A   1      38.670  29.530  29.068  1.00  0.00     0.074 A 
ATOM     38  C   UNL A   1      37.673  30.793  30.945  1.00  0.00     0.049 A 
ATOM     39  N   UNL A   1      39.817  29.167  29.585  1.00  0.00    -0.248 NA
ATOM     40  C   UNL A   1      38.456  29.057  27.692  1.00  0.00     0.031 C 
ATOM     41  C   UNL A   1      36.645  31.541  31.673  1.00  0.00     0.029 A 
ATOM     42  N   UNL A   1      38.713  30.710  31.837  1.00  0.00    -0.354 N 
ATOM     43  C   UNL A   1      40.452  28.410  28.605  1.00  0.00     0.074 A 
ATOM     44  C   UNL A   1      39.531  28.310  27.493  1.00  0.00     0.031 C 
ATOM     45  C   UNL A   1      37.115  31.869  32.886  1.00  0.00     0.029 A 
ATOM     46  C   UNL A   1      38.457  31.317  33.047  1.00  0.00     0.049 A 
ATOM     47  H   UNL A   1      39.564  30.258  31.632  1.00  0.00     0.167 HD
ATOM     48  C   UNL A   1      41.696  27.870  28.621  1.00  0.00     0.034 A 
ATOM     49  C   UNL A   1      39.211  31.408  34.160  1.00  0.00     0.034 A 
ATOM     50  C   UNL A   1      42.608  27.990  29.733  1.00  0.00     0.049 A 
ATOM     51  C   UNL A   1      40.583  30.781  34.164  1.00  0.00     0.074 A 
ATOM     52  C   UNL A   1      43.906  27.522  29.840  1.00  0.00     0.029 A 
ATOM     53  N   UNL A   1      42.315  28.619  30.938  1.00  0.00    -0.354 N 
ATOM     54  N   UNL A   1      41.186  30.102  33.215  1.00  0.00    -0.248 NA
ATOM     55  C   UNL A   1      41.382  30.946  35.386  1.00  0.00     0.031 C 
ATOM     56  C   UNL A   1      44.373  27.809  31.127  1.00  0.00     0.029 A 
ATOM     57  C   UNL A   1      43.399  28.529  31.799  1.00  0.00     0.049 A 
ATOM     58  H   UNL A   1      41.463  29.065  31.149  1.00  0.00     0.167 HD
ATOM     59  C   UNL A   1      42.449  29.793  33.714  1.00  0.00     0.074 A 
ATOM     60  C   UNL A   1      42.523  30.368  35.041  1.00  0.00     0.031 C 
ATOM     61  C   UNL A   1      43.459  29.103  33.123  1.00  0.00     0.034 A 
BRANCH  48  62
ATOM     62  C   UNL A   1      42.124  27.082  27.404  1.00  0.00     0.023 A 
ATOM     63  C   UNL A   1      42.082  25.676  27.382  1.00  0.00     0.031 A 
ATOM     64  C   UNL A   1      42.620  27.739  26.265  1.00  0.00     0.131 A 
ATOM     65  C   UNL A   1      42.611  24.975  26.289  1.00  0.00     0.055 A 
ATOM     66  C   UNL A   1      43.060  27.036  25.140  1.00  0.00     0.041 A 
ATOM     67  F   UNL A   1      42.705  29.079  26.230  1.00  0.00    -0.206 F 
ATOM     68  C   UNL A   1      43.076  25.645  25.156  1.00  0.00     0.022 A 
BRANCH  65  69
ATOM     69  S   UNL A   1      42.834  23.180  26.440  1.00  0.00     0.124 S 
ATOM     70  O   UNL A   1      44.245  23.089  26.807  1.00  0.00    -0.237 OA
ATOM     71  O   UNL A   1      41.878  22.830  27.484  1.00  0.00    -0.237 OA
ATOM     72  O   UNL A   1      42.512  22.681  25.105  1.00  0.00    -0.744 OA
ENDBRANCH  65  69
ENDBRANCH  48  62
BRANCH  49  73
ATOM     73  C   UNL A   1      38.695  32.114  35.368  1.00  0.00     0.023 A 
ATOM     74  C   UNL A   1      38.204  31.395  36.469  1.00  0.00     0.031 A 
ATOM     75  C   UNL A   1      38.648  33.518  35.423  1.00  0.00     0.131 A 
ATOM     76  C   UNL A   1      37.642  32.080  37.558  1.00  0.00     0.055 A 
ATOM     77  C   UNL A   1      38.138  34.196  36.533  1.00  0.00     0.041 A 
ATOM     78  F   UNL A   1      39.109  34.255  34.400  1.00  0.00    -0.206 F 
ATOM     79  C   UNL A   1      37.619  33.476  37.603  1.00  0.00     0.022 A 
BRANCH  76  80
ATOM     80  S   UNL A   1      36.866  31.117  38.884  1.00  0.00     0.124 S 
ATOM     81  O   UNL A   1      36.780  29.793  38.278  1.00  0.00    -0.237 OA
ATOM     82  O   UNL A   1      37.830  31.264  39.970  1.00  0.00    -0.237 OA
ATOM     83  O   UNL A   1      35.588  31.793  39.094  1.00  0.00    -0.744 OA
ENDBRANCH  76  80
ENDBRANCH  49  73
BRANCH  61  84
ATOM     84  C   UNL A   1      44.754  28.989  33.893  1.00  0.00     0.023 A 
ATOM     85  C   UNL A   1      45.017  27.910  34.754  1.00  0.00     0.031 A 
ATOM     86  C   UNL A   1      45.736  29.989  33.767  1.00  0.00     0.131 A 
ATOM     87  C   UNL A   1      46.205  27.884  35.500  1.00  0.00     0.055 A 
ATOM     88  C   UNL A   1      46.943  29.925  34.463  1.00  0.00     0.041 A 
ATOM     89  F   UNL A   1      45.537  31.044  32.961  1.00  0.00    -0.206 F 
ATOM     90  C   UNL A   1      47.177  28.877  35.347  1.00  0.00     0.022 A 
BRANCH  87  91
ATOM     91  S   UNL A   1      46.423  26.588  36.750  1.00  0.00     0.124 S 
ATOM     92  O   UNL A   1      45.411  25.612  36.356  1.00  0.00    -0.237 OA
ATOM     93  O   UNL A   1      47.810  26.185  36.543  1.00  0.00    -0.237 OA
ATOM     94  O   UNL A   1      46.161  27.279  38.011  1.00  0.00    -0.744 OA
ENDBRANCH  87  91
ENDBRANCH  61  84
ENDBRANCH  35  36
ENDBRANCH  27  30
ENDBRANCH  25  26
ENDBRANCH  24  25
ENDBRANCH   1  24
TORSDOF 17
ENDMDL
