MODEL 1
REMARK VINA RESULT:     -13.7      0.000      0.000
REMARK SMILES Cc1nccn1C1(C(=O)NCCCCNC(=O)c2ccc(-c3c4nc(c(-c5cc(S(=O)(=O)[O-])ccc5F)c5ccc([nH]5)c(-c5cc(S(=O)(=O)[O-])ccc5F)c5nc(c(-c6cc(S(=O)(=O)[O-])ccc6F)c6ccc3[nH]6)C=C5)C=C4)cc2)CCN(C(=O)[C@@H]2C[C@H]2c2ccccc2)CC1
REMARK SMILES IDX 13 1 12 2 11 3 10 4 8 5 9 6 7 8 81 9 96 10 82 11 95 12 83 13
REMARK SMILES IDX 84 14 85 15 6 16 1 17 2 18 3 19 4 20 5 21 86 22 87 23 88 24
REMARK SMILES IDX 89 25 90 26 94 27 91 28 93 29 92 30 14 31 15 32 16 33 17 35
REMARK SMILES IDX 18 36 19 37 80 38 20 39 79 40 21 41 22 42 23 43 73 44 24 45
REMARK SMILES IDX 78 46 72 47 74 48 25 49 77 50 71 51 70 52 26 54 58 55 38 56
REMARK SMILES IDX 57 57 39 58 42 59 56 60 75 61 40 62 41 63 55 65 76 66 43 67
REMARK SMILES IDX 27 68 28 69 36 70 29 71 35 72 37 73 34 74 30 75 31 76 32 77
REMARK SMILES IDX 33 78 59 79 60 80 68 81 61 82 67 83 69 84 66 85 62 86 63 87
REMARK SMILES IDX 64 88 65 89 44 90 45 91 53 92 46 93 52 94 54 95 51 96 47 97
REMARK SMILES IDX 48 98 49 99 50 100
REMARK H PARENT 10 7 15 34 74 53 42 64
REMARK Flexibility Score: inf
ROOT
ATOM      1  C   UNL A   1      34.071  28.859  27.110  1.00  0.00     0.023 C 
ENDROOT
BRANCH   1   2
ATOM      2  C   UNL A   1      32.793  29.715  27.116  1.00  0.00     0.023 C 
BRANCH   2   3
ATOM      3  C   UNL A   1      31.963  29.752  25.824  1.00  0.00     0.116 C 
BRANCH   3   4
ATOM      4  N   UNL A   1      32.786  29.704  24.624  1.00  0.00    -0.354 N 
ATOM      5  C   UNL A   1      32.846  28.880  23.528  1.00  0.00     0.246 C 
ATOM      6  O   UNL A   1      33.613  29.326  22.669  1.00  0.00    -0.272 OA
ATOM      7  H   UNL A   1      33.452  30.428  24.592  1.00  0.00     0.163 HD
BRANCH   5   8
ATOM      8  C   UNL A   1      31.959  27.564  23.348  1.00  0.00     0.127 C 
ATOM      9  C   UNL A   1      32.403  26.894  22.023  1.00  0.00     0.061 C 
ATOM     10  C   UNL A   1      32.260  26.785  24.642  1.00  0.00     0.061 C 
ATOM     11  C   UNL A   1      32.734  25.402  22.053  1.00  0.00     0.122 C 
ATOM     12  C   UNL A   1      32.346  25.293  24.487  1.00  0.00     0.122 C 
ATOM     13  N   UNL A   1      33.129  24.868  23.348  1.00  0.00    -0.342 N 
ATOM     14  C   UNL A   1      33.811  23.643  23.331  1.00  0.00     0.226 C 
ATOM     15  O   UNL A   1      33.866  22.956  22.312  1.00  0.00    -0.275 OA
BRANCH   8  16
ATOM     16  N   UNL A   1      30.460  27.818  23.265  1.00  0.00    -0.320 N 
ATOM     17  C   UNL A   1      30.235  30.076  21.942  1.00  0.00     0.087 C 
ATOM     18  C   UNL A   1      29.752  28.883  22.677  1.00  0.00     0.106 A 
ATOM     19  N   UNL A   1      28.448  28.731  22.824  1.00  0.00    -0.242 NA
ATOM     20  C   UNL A   1      28.266  27.582  23.505  1.00  0.00     0.131 A 
ATOM     21  C   UNL A   1      29.474  27.026  23.818  1.00  0.00     0.108 A 
ENDBRANCH   8  16
BRANCH  14  22
ATOM     22  C   UNL A   1      34.696  23.247  24.460  1.00  0.00     0.087 C 
ATOM     23  C   UNL A   1      34.763  24.020  25.746  1.00  0.00     0.023 C 
ATOM     24  C   UNL A   1      36.004  23.866  24.916  1.00  0.00     0.032 C 
BRANCH  24  25
ATOM     25  C   UNL A   1      37.152  22.927  25.204  1.00  0.00    -0.044 A 
ATOM     26  C   UNL A   1      37.180  21.643  24.637  1.00  0.00     0.004 A 
ATOM     27  C   UNL A   1      38.157  23.242  26.136  1.00  0.00     0.004 A 
ATOM     28  C   UNL A   1      38.150  20.708  25.001  1.00  0.00     0.000 A 
ATOM     29  C   UNL A   1      39.150  22.320  26.471  1.00  0.00     0.000 A 
ATOM     30  C   UNL A   1      39.136  21.047  25.919  1.00  0.00     0.000 A 
ENDBRANCH  24  25
ENDBRANCH  14  22
ENDBRANCH   5   8
ENDBRANCH   3   4
ENDBRANCH   2   3
ENDBRANCH   1   2
BRANCH   1  31
ATOM     31  C   UNL A   1      35.359  29.595  27.457  1.00  0.00     0.116 C 
BRANCH  31  32
ATOM     32  N   UNL A   1      35.436  30.007  28.862  1.00  0.00    -0.352 N 
ATOM     33  C   UNL A   1      36.355  29.617  29.828  1.00  0.00     0.251 C 
ATOM     34  H   UNL A   1      34.747  30.643  29.158  1.00  0.00     0.163 HD
ATOM     35  O   UNL A   1      36.076  29.700  31.012  1.00  0.00    -0.269 OA
BRANCH  33  36
ATOM     36  C   UNL A   1      37.679  29.123  29.396  1.00  0.00     0.039 A 
ATOM     37  C   UNL A   1      38.299  29.542  28.214  1.00  0.00     0.014 A 
ATOM     38  C   UNL A   1      38.298  28.187  30.213  1.00  0.00     0.014 A 
ATOM     39  C   UNL A   1      39.572  29.051  27.911  1.00  0.00     0.010 A 
ATOM     40  C   UNL A   1      39.603  27.848  30.017  1.00  0.00     0.010 A 
ATOM     41  C   UNL A   1      40.214  28.205  28.826  1.00  0.00    -0.014 A 
BRANCH  41  42
ATOM     42  C   UNL A   1      41.587  27.746  28.663  1.00  0.00     0.031 A 
ATOM     43  C   UNL A   1      41.697  26.480  27.900  1.00  0.00     0.074 A 
ATOM     44  C   UNL A   1      42.642  28.564  28.878  1.00  0.00     0.049 A 
ATOM     45  N   UNL A   1      42.008  25.312  28.352  1.00  0.00    -0.248 NA
ATOM     46  C   UNL A   1      41.205  26.462  26.510  1.00  0.00     0.031 C 
ATOM     47  C   UNL A   1      42.611  29.974  29.289  1.00  0.00     0.029 A 
ATOM     48  N   UNL A   1      43.965  28.362  28.637  1.00  0.00    -0.354 N 
ATOM     49  C   UNL A   1      42.046  24.485  27.236  1.00  0.00     0.074 A 
ATOM     50  C   UNL A   1      41.273  25.159  26.230  1.00  0.00     0.031 C 
ATOM     51  C   UNL A   1      43.808  30.550  29.047  1.00  0.00     0.029 A 
ATOM     52  C   UNL A   1      44.738  29.523  28.614  1.00  0.00     0.049 A 
ATOM     53  H   UNL A   1      44.347  27.467  28.490  1.00  0.00     0.167 HD
ATOM     54  C   UNL A   1      42.970  23.488  27.137  1.00  0.00     0.034 A 
ATOM     55  C   UNL A   1      46.041  29.647  28.237  1.00  0.00     0.034 A 
ATOM     56  C   UNL A   1      43.609  23.262  28.420  1.00  0.00     0.049 A 
ATOM     57  C   UNL A   1      46.633  28.287  28.330  1.00  0.00     0.074 A 
ATOM     58  C   UNL A   1      43.149  22.955  29.686  1.00  0.00     0.029 A 
ATOM     59  N   UNL A   1      44.882  23.764  28.600  1.00  0.00    -0.354 N 
ATOM     60  N   UNL A   1      46.754  27.638  29.457  1.00  0.00    -0.248 NA
ATOM     61  C   UNL A   1      46.607  27.449  27.139  1.00  0.00     0.031 C 
ATOM     62  C   UNL A   1      43.945  23.746  30.567  1.00  0.00     0.029 A 
ATOM     63  C   UNL A   1      44.916  24.410  29.811  1.00  0.00     0.049 A 
ATOM     64  H   UNL A   1      45.633  23.675  27.971  1.00  0.00     0.167 HD
ATOM     65  C   UNL A   1      46.362  26.339  29.167  1.00  0.00     0.074 A 
ATOM     66  C   UNL A   1      46.391  26.257  27.706  1.00  0.00     0.031 C 
ATOM     67  C   UNL A   1      45.764  25.553  30.111  1.00  0.00     0.034 A 
BRANCH  54  68
ATOM     68  C   UNL A   1      43.594  22.998  25.843  1.00  0.00     0.023 A 
ATOM     69  C   UNL A   1      43.588  21.605  25.633  1.00  0.00     0.031 A 
ATOM     70  C   UNL A   1      44.415  23.741  24.964  1.00  0.00     0.131 A 
ATOM     71  C   UNL A   1      44.452  21.009  24.700  1.00  0.00     0.055 A 
ATOM     72  C   UNL A   1      45.220  23.146  23.987  1.00  0.00     0.041 A 
ATOM     73  F   UNL A   1      44.563  25.066  25.042  1.00  0.00    -0.206 F 
ATOM     74  C   UNL A   1      45.273  21.769  23.876  1.00  0.00     0.022 A 
BRANCH  71  75
ATOM     75  S   UNL A   1      44.619  19.207  24.728  1.00  0.00     0.124 S 
ATOM     76  O   UNL A   1      44.561  18.889  23.305  1.00  0.00    -0.237 OA
ATOM     77  O   UNL A   1      45.915  19.038  25.376  1.00  0.00    -0.237 OA
ATOM     78  O   UNL A   1      43.466  18.775  25.513  1.00  0.00    -0.744 OA
ENDBRANCH  71  75
ENDBRANCH  54  68
BRANCH  55  79
ATOM     79  C   UNL A   1      46.673  30.791  27.514  1.00  0.00     0.023 A 
ATOM     80  C   UNL A   1      45.945  31.851  26.928  1.00  0.00     0.031 A 
ATOM     81  C   UNL A   1      48.075  30.962  27.594  1.00  0.00     0.131 A 
ATOM     82  C   UNL A   1      46.619  33.006  26.452  1.00  0.00     0.055 A 
ATOM     83  C   UNL A   1      48.734  32.101  27.122  1.00  0.00     0.041 A 
ATOM     84  F   UNL A   1      48.849  30.055  28.211  1.00  0.00    -0.206 F 
ATOM     85  C   UNL A   1      48.006  33.133  26.555  1.00  0.00     0.022 A 
BRANCH  82  86
ATOM     86  S   UNL A   1      45.689  34.411  25.747  1.00  0.00     0.124 S 
ATOM     87  O   UNL A   1      45.000  33.796  24.618  1.00  0.00    -0.237 OA
ATOM     88  O   UNL A   1      44.856  34.828  26.870  1.00  0.00    -0.237 OA
ATOM     89  O   UNL A   1      46.736  35.365  25.377  1.00  0.00    -0.744 OA
ENDBRANCH  82  86
ENDBRANCH  55  79
BRANCH  67  90
ATOM     90  C   UNL A   1      45.815  25.997  31.564  1.00  0.00     0.023 A 
ATOM     91  C   UNL A   1      44.728  26.530  32.295  1.00  0.00     0.031 A 
ATOM     92  C   UNL A   1      47.005  25.733  32.266  1.00  0.00     0.131 A 
ATOM     93  C   UNL A   1      44.862  26.780  33.677  1.00  0.00     0.055 A 
ATOM     94  C   UNL A   1      47.127  25.961  33.636  1.00  0.00     0.041 A 
ATOM     95  F   UNL A   1      48.065  25.202  31.634  1.00  0.00    -0.206 F 
ATOM     96  C   UNL A   1      46.056  26.490  34.346  1.00  0.00     0.022 A 
BRANCH  93  97
ATOM     97  S   UNL A   1      43.489  27.502  34.636  1.00  0.00     0.124 S 
ATOM     98  O   UNL A   1      44.153  28.108  35.784  1.00  0.00    -0.237 OA
ATOM     99  O   UNL A   1      42.888  28.432  33.683  1.00  0.00    -0.237 OA
ATOM    100  O   UNL A   1      42.653  26.344  34.959  1.00  0.00    -0.744 OA
ENDBRANCH  93  97
ENDBRANCH  67  90
ENDBRANCH  41  42
ENDBRANCH  33  36
ENDBRANCH  31  32
ENDBRANCH   1  31
TORSDOF 17
ENDMDL
MODEL 2
REMARK VINA RESULT:     -13.1      3.800      9.075
REMARK SMILES Cc1nccn1C1(C(=O)NCCCCNC(=O)c2ccc(-c3c4nc(c(-c5cc(S(=O)(=O)[O-])ccc5F)c5ccc([nH]5)c(-c5cc(S(=O)(=O)[O-])ccc5F)c5nc(c(-c6cc(S(=O)(=O)[O-])ccc6F)c6ccc3[nH]6)C=C5)C=C4)cc2)CCN(C(=O)[C@@H]2C[C@H]2c2ccccc2)CC1
REMARK SMILES IDX 13 1 12 2 11 3 10 4 8 5 9 6 7 8 81 9 96 10 82 11 95 12 83 13
REMARK SMILES IDX 84 14 85 15 6 16 1 17 2 18 3 19 4 20 5 21 86 22 87 23 88 24
REMARK SMILES IDX 89 25 90 26 94 27 91 28 93 29 92 30 14 31 15 32 16 33 17 35
REMARK SMILES IDX 18 36 19 37 80 38 20 39 79 40 21 41 22 42 23 43 73 44 24 45
REMARK SMILES IDX 78 46 72 47 74 48 25 49 77 50 71 51 70 52 26 54 58 55 38 56
REMARK SMILES IDX 57 57 39 58 42 59 56 60 75 61 40 62 41 63 55 65 76 66 43 67
REMARK SMILES IDX 27 68 28 69 36 70 29 71 35 72 37 73 34 74 30 75 31 76 32 77
REMARK SMILES IDX 33 78 59 79 60 80 68 81 61 82 67 83 69 84 66 85 62 86 63 87
REMARK SMILES IDX 64 88 65 89 44 90 45 91 53 92 46 93 52 94 54 95 51 96 47 97
REMARK SMILES IDX 48 98 49 99 50 100
REMARK H PARENT 10 7 15 34 74 53 42 64
REMARK Flexibility Score: inf
ROOT
ATOM      1  C   UNL A   1      37.179  23.634  25.561  1.00  0.00     0.023 C 
ENDROOT
BRANCH   1   2
ATOM      2  C   UNL A   1      36.869  22.151  25.827  1.00  0.00     0.023 C 
BRANCH   2   3
ATOM      3  C   UNL A   1      36.232  21.348  24.684  1.00  0.00     0.116 C 
BRANCH   3   4
ATOM      4  N   UNL A   1      35.713  22.196  23.620  1.00  0.00    -0.354 N 
ATOM      5  C   UNL A   1      34.501  22.784  23.359  1.00  0.00     0.246 C 
ATOM      6  O   UNL A   1      34.571  23.559  22.401  1.00  0.00    -0.272 OA
ATOM      7  H   UNL A   1      36.386  22.391  22.929  1.00  0.00     0.163 HD
BRANCH   5   8
ATOM      8  C   UNL A   1      33.192  22.566  24.248  1.00  0.00     0.127 C 
ATOM      9  C   UNL A   1      33.397  23.362  25.563  1.00  0.00     0.061 C 
ATOM     10  C   UNL A   1      32.073  23.066  23.314  1.00  0.00     0.061 C 
ATOM     11  C   UNL A   1      32.276  24.297  26.013  1.00  0.00     0.122 C 
ATOM     12  C   UNL A   1      30.950  23.797  23.994  1.00  0.00     0.122 C 
ATOM     13  N   UNL A   1      31.391  24.776  24.962  1.00  0.00    -0.342 N 
ATOM     14  C   UNL A   1      30.633  25.918  25.262  1.00  0.00     0.226 C 
ATOM     15  O   UNL A   1      30.550  26.345  26.412  1.00  0.00    -0.275 OA
BRANCH   8  16
ATOM     16  N   UNL A   1      32.912  21.115  24.617  1.00  0.00    -0.320 N 
ATOM     17  C   UNL A   1      32.110  19.997  22.380  1.00  0.00     0.087 C 
ATOM     18  C   UNL A   1      32.450  20.050  23.822  1.00  0.00     0.106 A 
ATOM     19  N   UNL A   1      32.335  18.939  24.527  1.00  0.00    -0.242 NA
ATOM     20  C   UNL A   1      32.709  19.240  25.787  1.00  0.00     0.131 A 
ATOM     21  C   UNL A   1      33.030  20.565  25.877  1.00  0.00     0.108 A 
ENDBRANCH   8  16
BRANCH  14  22
ATOM     22  C   UNL A   1      30.108  26.791  24.179  1.00  0.00     0.087 C 
ATOM     23  C   UNL A   1      30.768  26.898  22.832  1.00  0.00     0.023 C 
ATOM     24  C   UNL A   1      30.633  28.127  23.684  1.00  0.00     0.032 C 
BRANCH  24  25
ATOM     25  C   UNL A   1      29.626  29.235  23.486  1.00  0.00    -0.044 A 
ATOM     26  C   UNL A   1      29.907  30.539  23.926  1.00  0.00     0.004 A 
ATOM     27  C   UNL A   1      28.337  28.991  22.979  1.00  0.00     0.004 A 
ATOM     28  C   UNL A   1      28.939  31.544  23.887  1.00  0.00     0.000 A 
ATOM     29  C   UNL A   1      27.382  30.005  22.905  1.00  0.00     0.000 A 
ATOM     30  C   UNL A   1      27.676  31.277  23.375  1.00  0.00     0.000 A 
ENDBRANCH  24  25
ENDBRANCH  14  22
ENDBRANCH   5   8
ENDBRANCH   3   4
ENDBRANCH   2   3
ENDBRANCH   1   2
BRANCH   1  31
ATOM     31  C   UNL A   1      38.424  24.181  26.249  1.00  0.00     0.116 C 
BRANCH  31  32
ATOM     32  N   UNL A   1      39.280  23.139  26.822  1.00  0.00    -0.352 N 
ATOM     33  C   UNL A   1      40.491  23.283  27.488  1.00  0.00     0.251 C 
ATOM     34  H   UNL A   1      38.954  22.215  26.722  1.00  0.00     0.163 HD
ATOM     35  O   UNL A   1      41.276  22.353  27.546  1.00  0.00    -0.269 OA
BRANCH  33  36
ATOM     36  C   UNL A   1      40.795  24.573  28.142  1.00  0.00     0.039 A 
ATOM     37  C   UNL A   1      42.091  24.962  28.494  1.00  0.00     0.014 A 
ATOM     38  C   UNL A   1      39.718  25.403  28.424  1.00  0.00     0.014 A 
ATOM     39  C   UNL A   1      42.285  26.220  29.070  1.00  0.00     0.010 A 
ATOM     40  C   UNL A   1      39.919  26.693  28.814  1.00  0.00     0.010 A 
ATOM     41  C   UNL A   1      41.186  27.078  29.222  1.00  0.00    -0.014 A 
BRANCH  41  42
ATOM     42  C   UNL A   1      41.304  28.452  29.690  1.00  0.00     0.031 A 
ATOM     43  C   UNL A   1      42.303  29.247  28.939  1.00  0.00     0.074 A 
ATOM     44  C   UNL A   1      40.362  29.019  30.478  1.00  0.00     0.049 A 
ATOM     45  N   UNL A   1      43.455  29.655  29.350  1.00  0.00    -0.248 NA
ATOM     46  C   UNL A   1      42.092  29.438  27.492  1.00  0.00     0.031 C 
ATOM     47  C   UNL A   1      39.125  28.404  30.979  1.00  0.00     0.029 A 
ATOM     48  N   UNL A   1      40.226  30.310  30.885  1.00  0.00    -0.354 N 
ATOM     49  C   UNL A   1      43.970  30.414  28.306  1.00  0.00     0.074 A 
ATOM     50  C   UNL A   1      43.250  29.997  27.135  1.00  0.00     0.031 C 
ATOM     51  C   UNL A   1      38.276  29.360  31.411  1.00  0.00     0.029 A 
ATOM     52  C   UNL A   1      38.960  30.641  31.369  1.00  0.00     0.049 A 
ATOM     53  H   UNL A   1      40.964  30.960  30.840  1.00  0.00     0.167 HD
ATOM     54  C   UNL A   1      44.705  31.535  28.553  1.00  0.00     0.034 A 
ATOM     55  C   UNL A   1      38.487  31.878  31.683  1.00  0.00     0.034 A 
ATOM     56  C   UNL A   1      45.092  31.587  29.950  1.00  0.00     0.049 A 
ATOM     57  C   UNL A   1      39.680  32.739  31.896  1.00  0.00     0.074 A 
ATOM     58  C   UNL A   1      45.778  30.733  30.794  1.00  0.00     0.029 A 
ATOM     59  N   UNL A   1      44.399  32.446  30.778  1.00  0.00    -0.354 N 
ATOM     60  N   UNL A   1      40.539  32.540  32.861  1.00  0.00    -0.248 NA
ATOM     61  C   UNL A   1      40.201  33.479  30.755  1.00  0.00     0.031 C 
ATOM     62  C   UNL A   1      45.071  30.797  32.032  1.00  0.00     0.029 A 
ATOM     63  C   UNL A   1      44.065  31.760  31.919  1.00  0.00     0.049 A 
ATOM     64  H   UNL A   1      44.182  33.386  30.583  1.00  0.00     0.167 HD
ATOM     65  C   UNL A   1      41.785  32.710  32.273  1.00  0.00     0.074 A 
ATOM     66  C   UNL A   1      41.512  33.395  31.009  1.00  0.00     0.031 C 
ATOM     67  C   UNL A   1      42.877  32.019  32.717  1.00  0.00     0.034 A 
BRANCH  54  68
ATOM     68  C   UNL A   1      44.738  32.773  27.675  1.00  0.00     0.023 A 
ATOM     69  C   UNL A   1      44.008  33.886  28.133  1.00  0.00     0.031 A 
ATOM     70  C   UNL A   1      45.184  32.849  26.336  1.00  0.00     0.131 A 
ATOM     71  C   UNL A   1      43.643  34.923  27.260  1.00  0.00     0.055 A 
ATOM     72  C   UNL A   1      44.877  33.921  25.490  1.00  0.00     0.041 A 
ATOM     73  F   UNL A   1      45.862  31.870  25.730  1.00  0.00    -0.206 F 
ATOM     74  C   UNL A   1      44.070  34.949  25.938  1.00  0.00     0.022 A 
BRANCH  71  75
ATOM     75  S   UNL A   1      42.434  36.138  27.843  1.00  0.00     0.124 S 
ATOM     76  O   UNL A   1      43.079  36.627  29.058  1.00  0.00    -0.237 OA
ATOM     77  O   UNL A   1      42.380  37.068  26.721  1.00  0.00    -0.237 OA
ATOM     78  O   UNL A   1      41.229  35.340  28.054  1.00  0.00    -0.744 OA
ENDBRANCH  71  75
ENDBRANCH  54  68
BRANCH  55  79
ATOM     79  C   UNL A   1      37.101  32.398  31.489  1.00  0.00     0.023 A 
ATOM     80  C   UNL A   1      36.511  32.612  30.223  1.00  0.00     0.031 A 
ATOM     81  C   UNL A   1      36.237  32.482  32.606  1.00  0.00     0.131 A 
ATOM     82  C   UNL A   1      35.124  32.898  30.119  1.00  0.00     0.055 A 
ATOM     83  C   UNL A   1      34.873  32.765  32.498  1.00  0.00     0.041 A 
ATOM     84  F   UNL A   1      36.679  32.209  33.845  1.00  0.00    -0.206 F 
ATOM     85  C   UNL A   1      34.308  32.968  31.250  1.00  0.00     0.022 A 
BRANCH  82  86
ATOM     86  S   UNL A   1      34.332  33.117  28.487  1.00  0.00     0.124 S 
ATOM     87  O   UNL A   1      35.450  33.534  27.650  1.00  0.00    -0.237 OA
ATOM     88  O   UNL A   1      33.782  31.792  28.227  1.00  0.00    -0.237 OA
ATOM     89  O   UNL A   1      33.330  34.157  28.729  1.00  0.00    -0.744 OA
ENDBRANCH  82  86
ENDBRANCH  55  79
BRANCH  67  90
ATOM     90  C   UNL A   1      42.788  31.301  34.053  1.00  0.00     0.023 A 
ATOM     91  C   UNL A   1      42.370  29.962  34.236  1.00  0.00     0.031 A 
ATOM     92  C   UNL A   1      43.285  31.986  35.176  1.00  0.00     0.131 A 
ATOM     93  C   UNL A   1      42.457  29.363  35.511  1.00  0.00     0.055 A 
ATOM     94  C   UNL A   1      43.391  31.385  36.429  1.00  0.00     0.041 A 
ATOM     95  F   UNL A   1      43.722  33.252  35.062  1.00  0.00    -0.206 F 
ATOM     96  C   UNL A   1      42.973  30.071  36.602  1.00  0.00     0.022 A 
BRANCH  93  97
ATOM     97  S   UNL A   1      41.891  27.651  35.782  1.00  0.00     0.124 S 
ATOM     98  O   UNL A   1      43.120  26.927  36.086  1.00  0.00    -0.237 OA
ATOM     99  O   UNL A   1      40.948  27.798  36.888  1.00  0.00    -0.237 OA
ATOM    100  O   UNL A   1      41.273  27.290  34.505  1.00  0.00    -0.744 OA
ENDBRANCH  93  97
ENDBRANCH  67  90
ENDBRANCH  41  42
ENDBRANCH  33  36
ENDBRANCH  31  32
ENDBRANCH   1  31
TORSDOF 17
ENDMDL
MODEL 3
REMARK VINA RESULT:     -12.7      2.328      6.583
REMARK SMILES Cc1nccn1C1(C(=O)NCCCCNC(=O)c2ccc(-c3c4nc(c(-c5cc(S(=O)(=O)[O-])ccc5F)c5ccc([nH]5)c(-c5cc(S(=O)(=O)[O-])ccc5F)c5nc(c(-c6cc(S(=O)(=O)[O-])ccc6F)c6ccc3[nH]6)C=C5)C=C4)cc2)CCN(C(=O)[C@@H]2C[C@H]2c2ccccc2)CC1
REMARK SMILES IDX 13 1 12 2 11 3 10 4 8 5 9 6 7 8 81 9 96 10 82 11 95 12 83 13
REMARK SMILES IDX 84 14 85 15 6 16 1 17 2 18 3 19 4 20 5 21 86 22 87 23 88 24
REMARK SMILES IDX 89 25 90 26 94 27 91 28 93 29 92 30 14 31 15 32 16 33 17 35
REMARK SMILES IDX 18 36 19 37 80 38 20 39 79 40 21 41 22 42 23 43 73 44 24 45
REMARK SMILES IDX 78 46 72 47 74 48 25 49 77 50 71 51 70 52 26 54 58 55 38 56
REMARK SMILES IDX 57 57 39 58 42 59 56 60 75 61 40 62 41 63 55 65 76 66 43 67
REMARK SMILES IDX 27 68 28 69 36 70 29 71 35 72 37 73 34 74 30 75 31 76 32 77
REMARK SMILES IDX 33 78 59 79 60 80 68 81 61 82 67 83 69 84 66 85 62 86 63 87
REMARK SMILES IDX 64 88 65 89 44 90 45 91 53 92 46 93 52 94 54 95 51 96 47 97
REMARK SMILES IDX 48 98 49 99 50 100
REMARK H PARENT 10 7 15 34 74 53 42 64
REMARK Flexibility Score: inf
ROOT
ATOM      1  C   UNL A   1      33.873  29.033  27.084  1.00  0.00     0.023 C 
ENDROOT
BRANCH   1   2
ATOM      2  C   UNL A   1      32.474  29.670  27.145  1.00  0.00     0.023 C 
BRANCH   2   3
ATOM      3  C   UNL A   1      31.671  29.736  25.839  1.00  0.00     0.116 C 
BRANCH   3   4
ATOM      4  N   UNL A   1      32.516  29.677  24.654  1.00  0.00    -0.354 N 
ATOM      5  C   UNL A   1      32.619  28.824  23.584  1.00  0.00     0.246 C 
ATOM      6  O   UNL A   1      33.388  29.266  22.725  1.00  0.00    -0.272 OA
ATOM      7  H   UNL A   1      33.162  30.418  24.612  1.00  0.00     0.163 HD
BRANCH   5   8
ATOM      8  C   UNL A   1      31.772  27.479  23.427  1.00  0.00     0.127 C 
ATOM      9  C   UNL A   1      32.244  26.794  22.119  1.00  0.00     0.061 C 
ATOM     10  C   UNL A   1      32.087  26.738  24.740  1.00  0.00     0.061 C 
ATOM     11  C   UNL A   1      32.618  25.314  22.184  1.00  0.00     0.122 C 
ATOM     12  C   UNL A   1      32.217  25.245  24.617  1.00  0.00     0.122 C 
ATOM     13  N   UNL A   1      33.020  24.819  23.493  1.00  0.00    -0.342 N 
ATOM     14  C   UNL A   1      33.738  23.614  23.507  1.00  0.00     0.226 C 
ATOM     15  O   UNL A   1      33.819  22.908  22.503  1.00  0.00    -0.275 OA
BRANCH   8  16
ATOM     16  N   UNL A   1      30.266  27.687  23.330  1.00  0.00    -0.320 N 
ATOM     17  C   UNL A   1      29.983  29.881  21.913  1.00  0.00     0.087 C 
ATOM     18  C   UNL A   1      29.531  28.706  22.696  1.00  0.00     0.106 A 
ATOM     19  N   UNL A   1      28.232  28.524  22.846  1.00  0.00    -0.242 NA
ATOM     20  C   UNL A   1      28.079  27.400  23.573  1.00  0.00     0.131 A 
ATOM     21  C   UNL A   1      29.301  26.891  23.912  1.00  0.00     0.108 A 
ENDBRANCH   8  16
BRANCH  14  22
ATOM     22  C   UNL A   1      34.626  23.269  24.649  1.00  0.00     0.087 C 
ATOM     23  C   UNL A   1      34.439  23.846  26.024  1.00  0.00     0.023 C 
ATOM     24  C   UNL A   1      35.726  24.093  25.293  1.00  0.00     0.032 C 
BRANCH  24  25
ATOM     25  C   UNL A   1      37.043  23.403  25.558  1.00  0.00    -0.044 A 
ATOM     26  C   UNL A   1      37.267  22.096  25.096  1.00  0.00     0.004 A 
ATOM     27  C   UNL A   1      38.035  23.976  26.374  1.00  0.00     0.004 A 
ATOM     28  C   UNL A   1      38.415  21.385  25.453  1.00  0.00     0.000 A 
ATOM     29  C   UNL A   1      39.199  23.280  26.699  1.00  0.00     0.000 A 
ATOM     30  C   UNL A   1      39.382  21.978  26.255  1.00  0.00     0.000 A 
ENDBRANCH  24  25
ENDBRANCH  14  22
ENDBRANCH   5   8
ENDBRANCH   3   4
ENDBRANCH   2   3
ENDBRANCH   1   2
BRANCH   1  31
ATOM     31  C   UNL A   1      35.043  30.008  27.132  1.00  0.00     0.116 C 
BRANCH  31  32
ATOM     32  N   UNL A   1      34.852  31.104  28.085  1.00  0.00    -0.352 N 
ATOM     33  C   UNL A   1      35.572  31.383  29.239  1.00  0.00     0.251 C 
ATOM     34  H   UNL A   1      34.115  31.725  27.879  1.00  0.00     0.163 HD
ATOM     35  O   UNL A   1      35.074  32.050  30.130  1.00  0.00    -0.269 OA
BRANCH  33  36
ATOM     36  C   UNL A   1      36.957  30.879  29.355  1.00  0.00     0.039 A 
ATOM     37  C   UNL A   1      38.075  31.718  29.365  1.00  0.00     0.014 A 
ATOM     38  C   UNL A   1      37.119  29.502  29.434  1.00  0.00     0.014 A 
ATOM     39  C   UNL A   1      39.343  31.150  29.521  1.00  0.00     0.010 A 
ATOM     40  C   UNL A   1      38.325  28.962  29.767  1.00  0.00     0.010 A 
ATOM     41  C   UNL A   1      39.451  29.767  29.725  1.00  0.00    -0.014 A 
BRANCH  41  42
ATOM     42  C   UNL A   1      40.711  29.100  30.025  1.00  0.00     0.031 A 
ATOM     43  C   UNL A   1      40.923  28.868  31.473  1.00  0.00     0.074 A 
ATOM     44  C   UNL A   1      41.423  28.460  29.070  1.00  0.00     0.049 A 
ATOM     45  N   UNL A   1      41.761  29.465  32.252  1.00  0.00    -0.248 NA
ATOM     46  C   UNL A   1      39.953  28.020  32.190  1.00  0.00     0.031 C 
ATOM     47  C   UNL A   1      41.089  28.322  27.646  1.00  0.00     0.029 A 
ATOM     48  N   UNL A   1      42.523  27.668  29.186  1.00  0.00    -0.354 N 
ATOM     49  C   UNL A   1      41.624  28.842  33.486  1.00  0.00     0.074 A 
ATOM     50  C   UNL A   1      40.336  28.206  33.456  1.00  0.00     0.031 C 
ATOM     51  C   UNL A   1      41.820  27.330  27.094  1.00  0.00     0.029 A 
ATOM     52  C   UNL A   1      42.784  26.865  28.075  1.00  0.00     0.049 A 
ATOM     53  H   UNL A   1      43.089  27.662  29.991  1.00  0.00     0.167 HD
ATOM     54  C   UNL A   1      42.705  28.634  34.288  1.00  0.00     0.034 A 
ATOM     55  C   UNL A   1      43.703  25.865  27.970  1.00  0.00     0.034 A 
ATOM     56  C   UNL A   1      43.840  29.406  33.815  1.00  0.00     0.049 A 
ATOM     57  C   UNL A   1      44.701  26.101  29.046  1.00  0.00     0.074 A 
ATOM     58  C   UNL A   1      44.057  30.747  33.564  1.00  0.00     0.029 A 
ATOM     59  N   UNL A   1      44.830  28.736  33.126  1.00  0.00    -0.354 N 
ATOM     60  N   UNL A   1      45.473  27.154  29.083  1.00  0.00    -0.248 NA
ATOM     61  C   UNL A   1      44.483  25.454  30.332  1.00  0.00     0.031 C 
ATOM     62  C   UNL A   1      44.824  30.775  32.361  1.00  0.00     0.029 A 
ATOM     63  C   UNL A   1      45.127  29.460  31.998  1.00  0.00     0.049 A 
ATOM     64  H   UNL A   1      45.249  27.887  33.395  1.00  0.00     0.167 HD
ATOM     65  C   UNL A   1      45.457  27.563  30.410  1.00  0.00     0.074 A 
ATOM     66  C   UNL A   1      44.924  26.418  31.148  1.00  0.00     0.031 C 
ATOM     67  C   UNL A   1      45.588  28.882  30.746  1.00  0.00     0.034 A 
BRANCH  54  68
ATOM     68  C   UNL A   1      42.885  27.459  35.231  1.00  0.00     0.023 A 
ATOM     69  C   UNL A   1      43.770  26.447  34.812  1.00  0.00     0.031 A 
ATOM     70  C   UNL A   1      42.071  27.131  36.340  1.00  0.00     0.131 A 
ATOM     71  C   UNL A   1      43.730  25.165  35.383  1.00  0.00     0.055 A 
ATOM     72  C   UNL A   1      42.086  25.873  36.951  1.00  0.00     0.041 A 
ATOM     73  F   UNL A   1      41.154  27.959  36.848  1.00  0.00    -0.206 F 
ATOM     74  C   UNL A   1      42.890  24.867  36.449  1.00  0.00     0.022 A 
BRANCH  71  75
ATOM     75  S   UNL A   1      44.660  23.844  34.568  1.00  0.00     0.124 S 
ATOM     76  O   UNL A   1      43.688  23.367  33.589  1.00  0.00    -0.237 OA
ATOM     77  O   UNL A   1      45.808  24.570  34.037  1.00  0.00    -0.237 OA
ATOM     78  O   UNL A   1      44.955  22.918  35.659  1.00  0.00    -0.744 OA
ENDBRANCH  71  75
ENDBRANCH  54  68
BRANCH  55  79
ATOM     79  C   UNL A   1      43.570  24.585  27.214  1.00  0.00     0.023 A 
ATOM     80  C   UNL A   1      44.388  24.229  26.118  1.00  0.00     0.031 A 
ATOM     81  C   UNL A   1      42.737  23.565  27.733  1.00  0.00     0.131 A 
ATOM     82  C   UNL A   1      44.347  22.911  25.592  1.00  0.00     0.055 A 
ATOM     83  C   UNL A   1      42.699  22.269  27.210  1.00  0.00     0.041 A 
ATOM     84  F   UNL A   1      41.987  23.773  28.827  1.00  0.00    -0.206 F 
ATOM     85  C   UNL A   1      43.512  21.934  26.139  1.00  0.00     0.022 A 
BRANCH  82  86
ATOM     86  S   UNL A   1      45.442  22.416  24.216  1.00  0.00     0.124 S 
ATOM     87  O   UNL A   1      46.088  23.674  23.862  1.00  0.00    -0.237 OA
ATOM     88  O   UNL A   1      46.286  21.403  24.839  1.00  0.00    -0.237 OA
ATOM     89  O   UNL A   1      44.514  21.901  23.207  1.00  0.00    -0.744 OA
ENDBRANCH  82  86
ENDBRANCH  55  79
BRANCH  67  90
ATOM     90  C   UNL A   1      46.064  29.857  29.682  1.00  0.00     0.023 A 
ATOM     91  C   UNL A   1      45.224  30.640  28.856  1.00  0.00     0.031 A 
ATOM     92  C   UNL A   1      47.449  30.091  29.611  1.00  0.00     0.131 A 
ATOM     93  C   UNL A   1      45.785  31.610  27.998  1.00  0.00     0.055 A 
ATOM     94  C   UNL A   1      47.998  31.066  28.778  1.00  0.00     0.041 A 
ATOM     95  F   UNL A   1      48.297  29.398  30.389  1.00  0.00    -0.206 F 
ATOM     96  C   UNL A   1      47.167  31.826  27.964  1.00  0.00     0.022 A 
BRANCH  93  97
ATOM     97  S   UNL A   1      44.729  32.607  26.895  1.00  0.00     0.124 S 
ATOM     98  O   UNL A   1      45.667  33.523  26.256  1.00  0.00    -0.237 OA
ATOM     99  O   UNL A   1      44.132  31.597  26.025  1.00  0.00    -0.237 OA
ATOM    100  O   UNL A   1      43.785  33.247  27.813  1.00  0.00    -0.744 OA
ENDBRANCH  93  97
ENDBRANCH  67  90
ENDBRANCH  41  42
ENDBRANCH  33  36
ENDBRANCH  31  32
ENDBRANCH   1  31
TORSDOF 17
ENDMDL
