MODEL 1
REMARK VINA RESULT:     -12.3      0.000      0.000
REMARK SMILES Cc1ccc(S(=O)(=O)n2cc(C(=O)C(=O)N[C@@H](Cc3cnc[nH]3)C(=O)NCCCCNC(=O)c3ccc(-c4c5nc(c(-c6cc(S(=O)(=O)[O-])ccc6F)c6ccc([nH]6)c(-c6cc(S(=O)(=O)[O-])ccc6F)c6nc(c(-c7cc(S(=O)(=O)[O-])ccc7F)c7ccc4[nH]7)C=C6)C=C5)cc3)c3ccccc32)cc1
REMARK SMILES IDX 27 1 26 2 24 3 25 4 17 6 16 7 14 8 15 9 12 11 13 12 11 13
REMARK SMILES IDX 9 14 10 15 102 16 97 17 101 18 98 19 100 20 99 21 6 22 7 23
REMARK SMILES IDX 8 24 5 25 1 26 2 27 3 28 104 29 4 30 103 31 18 32 19 33
REMARK SMILES IDX 20 34 23 35 21 36 22 37 28 39 29 40 30 41 31 42 32 43 33 45
REMARK SMILES IDX 34 46 35 47 96 48 36 49 95 50 37 51 38 52 39 53 89 54 40 55
REMARK SMILES IDX 94 56 88 57 90 58 41 59 93 60 87 61 86 62 42 64 74 65 54 66
REMARK SMILES IDX 73 67 55 68 58 69 72 70 91 71 56 72 57 73 71 75 92 76 59 77
REMARK SMILES IDX 43 78 44 79 52 80 45 81 51 82 53 83 50 84 46 85 47 86 48 87
REMARK SMILES IDX 49 88 75 89 76 90 84 91 77 92 83 93 85 94 82 95 78 96 79 97
REMARK SMILES IDX 80 98 81 99 60 100 61 101 69 102 62 103 68 104 70 105 67 106
REMARK SMILES IDX 63 107 64 108 65 109 66 110
REMARK H PARENT 26 5 16 10 23 38 31 44 90 63 58 74
REMARK Flexibility Score: inf
ROOT
ATOM      1  C   UNL A   1      36.950  19.565  24.595  1.00  0.00     0.116 C 
ENDROOT
BRANCH   1   2
ATOM      2  N   UNL A   1      35.775  18.790  24.952  1.00  0.00    -0.354 N 
ATOM      3  C   UNL A   1      34.479  19.034  24.578  1.00  0.00     0.242 C 
ATOM      4  O   UNL A   1      33.756  18.047  24.392  1.00  0.00    -0.273 OA
ATOM      5  H   UNL A   1      35.926  18.003  25.524  1.00  0.00     0.163 HD
BRANCH   3   6
ATOM      6  C   UNL A   1      33.921  20.466  24.326  1.00  0.00     0.177 C 
BRANCH   6   7
ATOM      7  N   UNL A   1      32.664  20.463  23.563  1.00  0.00    -0.337 N 
ATOM      8  C   UNL A   1      32.178  21.362  22.646  1.00  0.00     0.293 C 
ATOM      9  O   UNL A   1      31.253  21.021  21.915  1.00  0.00    -0.265 OA
ATOM     10  H   UNL A   1      32.076  19.693  23.738  1.00  0.00     0.164 HD
BRANCH   8  11
ATOM     11  C   UNL A   1      32.747  22.798  22.559  1.00  0.00     0.252 C 
ATOM     12  O   UNL A   1      33.833  22.977  22.017  1.00  0.00    -0.283 OA
BRANCH  11  13
ATOM     13  C   UNL A   1      32.059  23.949  23.156  1.00  0.00     0.054 A 
ATOM     14  N   UNL A   1      31.136  25.946  23.509  1.00  0.00    -0.240 N 
ATOM     15  C   UNL A   1      31.939  25.232  22.659  1.00  0.00     0.117 A 
ATOM     16  C   UNL A   1      30.740  25.182  24.586  1.00  0.00     0.065 A 
ATOM     17  C   UNL A   1      31.343  23.931  24.406  1.00  0.00     0.012 A 
ATOM     18  C   UNL A   1      29.937  25.458  25.709  1.00  0.00     0.028 A 
ATOM     19  C   UNL A   1      31.145  22.939  25.393  1.00  0.00     0.011 A 
ATOM     20  C   UNL A   1      29.772  24.457  26.671  1.00  0.00     0.002 A 
ATOM     21  C   UNL A   1      30.371  23.214  26.519  1.00  0.00     0.001 A 
BRANCH  14  22
ATOM     22  S   UNL A   1      30.745  27.584  23.282  1.00  0.00     0.268 S 
ATOM     23  O   UNL A   1      29.364  27.710  23.697  1.00  0.00    -0.201 OA
ATOM     24  O   UNL A   1      31.181  27.926  21.937  1.00  0.00    -0.201 OA
BRANCH  22  25
ATOM     25  C   UNL A   1      31.728  28.544  24.402  1.00  0.00     0.088 A 
ATOM     26  C   UNL A   1      33.764  30.866  27.393  1.00  0.00     0.044 C 
ATOM     27  C   UNL A   1      33.070  30.067  26.329  1.00  0.00    -0.051 A 
ATOM     28  C   UNL A   1      31.800  30.454  25.884  1.00  0.00     0.005 A 
ATOM     29  C   UNL A   1      33.676  28.934  25.770  1.00  0.00     0.005 A 
ATOM     30  C   UNL A   1      31.128  29.693  24.929  1.00  0.00     0.022 A 
ATOM     31  C   UNL A   1      33.015  28.179  24.797  1.00  0.00     0.022 A 
ENDBRANCH  22  25
ENDBRANCH  14  22
ENDBRANCH  11  13
ENDBRANCH   8  11
ENDBRANCH   6   7
BRANCH   6  32
ATOM     32  C   UNL A   1      33.899  21.416  25.541  1.00  0.00     0.090 C 
BRANCH  32  33
ATOM     33  C   UNL A   1      34.794  22.583  25.399  1.00  0.00     0.037 A 
ATOM     34  C   UNL A   1      35.075  23.661  26.213  1.00  0.00     0.134 A 
ATOM     35  N   UNL A   1      35.642  22.728  24.328  1.00  0.00    -0.348 N 
ATOM     36  N   UNL A   1      36.229  24.261  25.792  1.00  0.00    -0.245 NA
ATOM     37  C   UNL A   1      36.576  23.641  24.698  1.00  0.00     0.196 A 
ATOM     38  H   UNL A   1      35.584  22.262  23.463  1.00  0.00     0.167 HD
ENDBRANCH  32  33
ENDBRANCH   6  32
ENDBRANCH   3   6
ENDBRANCH   1   2
BRANCH   1  39
ATOM     39  C   UNL A   1      37.673  20.268  25.736  1.00  0.00     0.023 C 
BRANCH  39  40
ATOM     40  C   UNL A   1      38.981  20.946  25.357  1.00  0.00     0.023 C 
BRANCH  40  41
ATOM     41  C   UNL A   1      39.440  22.057  26.289  1.00  0.00     0.116 C 
BRANCH  41  42
ATOM     42  N   UNL A   1      40.844  22.420  26.285  1.00  0.00    -0.352 N 
ATOM     43  C   UNL A   1      41.404  23.691  26.222  1.00  0.00     0.251 C 
ATOM     44  H   UNL A   1      41.482  21.671  26.334  1.00  0.00     0.163 HD
ATOM     45  O   UNL A   1      42.599  23.831  25.970  1.00  0.00    -0.269 OA
BRANCH  43  46
ATOM     46  C   UNL A   1      40.615  24.889  26.642  1.00  0.00     0.039 A 
ATOM     47  C   UNL A   1      40.917  26.110  26.014  1.00  0.00     0.014 A 
ATOM     48  C   UNL A   1      39.876  24.901  27.816  1.00  0.00     0.014 A 
ATOM     49  C   UNL A   1      40.757  27.300  26.714  1.00  0.00     0.010 A 
ATOM     50  C   UNL A   1      39.895  26.026  28.588  1.00  0.00     0.010 A 
ATOM     51  C   UNL A   1      40.375  27.208  28.046  1.00  0.00    -0.014 A 
BRANCH  51  52
ATOM     52  C   UNL A   1      40.381  28.296  28.991  1.00  0.00     0.031 A 
ATOM     53  C   UNL A   1      39.403  29.357  28.761  1.00  0.00     0.074 A 
ATOM     54  C   UNL A   1      41.147  28.168  30.092  1.00  0.00     0.049 A 
ATOM     55  N   UNL A   1      39.622  30.595  28.999  1.00  0.00    -0.248 NA
ATOM     56  C   UNL A   1      38.100  29.108  28.137  1.00  0.00     0.031 C 
ATOM     57  C   UNL A   1      41.128  28.915  31.340  1.00  0.00     0.029 A 
ATOM     58  N   UNL A   1      42.258  27.347  30.222  1.00  0.00    -0.354 N 
ATOM     59  C   UNL A   1      38.393  31.212  28.944  1.00  0.00     0.074 A 
ATOM     60  C   UNL A   1      37.527  30.311  28.230  1.00  0.00     0.031 C 
ATOM     61  C   UNL A   1      42.312  28.742  31.964  1.00  0.00     0.029 A 
ATOM     62  C   UNL A   1      43.173  27.980  31.064  1.00  0.00     0.049 A 
ATOM     63  H   UNL A   1      42.380  26.469  29.793  1.00  0.00     0.167 HD
ATOM     64  C   UNL A   1      38.170  32.292  29.735  1.00  0.00     0.034 A 
ATOM     65  C   UNL A   1      44.413  28.344  30.624  1.00  0.00     0.034 A 
ATOM     66  C   UNL A   1      39.325  32.520  30.596  1.00  0.00     0.049 A 
ATOM     67  C   UNL A   1      44.483  29.868  30.585  1.00  0.00     0.074 A 
ATOM     68  C   UNL A   1      39.587  32.152  31.906  1.00  0.00     0.029 A 
ATOM     69  N   UNL A   1      40.544  32.851  30.026  1.00  0.00    -0.354 N 
ATOM     70  N   UNL A   1      43.436  30.650  30.489  1.00  0.00    -0.248 NA
ATOM     71  C   UNL A   1      45.726  30.619  30.713  1.00  0.00     0.031 C 
ATOM     72  C   UNL A   1      40.989  32.234  32.107  1.00  0.00     0.029 A 
ATOM     73  C   UNL A   1      41.570  32.659  30.926  1.00  0.00     0.049 A 
ATOM     74  H   UNL A   1      40.661  33.178  29.105  1.00  0.00     0.167 HD
ATOM     75  C   UNL A   1      43.828  31.963  30.581  1.00  0.00     0.074 A 
ATOM     76  C   UNL A   1      45.273  31.886  30.710  1.00  0.00     0.031 C 
ATOM     77  C   UNL A   1      42.934  33.002  30.564  1.00  0.00     0.034 A 
BRANCH  64  78
ATOM     78  C   UNL A   1      36.819  32.892  30.000  1.00  0.00     0.023 A 
ATOM     79  C   UNL A   1      36.393  33.008  31.337  1.00  0.00     0.031 A 
ATOM     80  C   UNL A   1      35.927  33.381  29.027  1.00  0.00     0.131 A 
ATOM     81  C   UNL A   1      35.132  33.519  31.667  1.00  0.00     0.055 A 
ATOM     82  C   UNL A   1      34.651  33.865  29.353  1.00  0.00     0.041 A 
ATOM     83  F   UNL A   1      36.268  33.447  27.732  1.00  0.00    -0.206 F 
ATOM     84  C   UNL A   1      34.246  33.933  30.681  1.00  0.00     0.022 A 
BRANCH  81  85
ATOM     85  S   UNL A   1      34.696  33.644  33.421  1.00  0.00     0.124 S 
ATOM     86  O   UNL A   1      33.295  33.236  33.416  1.00  0.00    -0.237 OA
ATOM     87  O   UNL A   1      35.635  32.716  34.041  1.00  0.00    -0.237 OA
ATOM     88  O   UNL A   1      34.929  35.055  33.725  1.00  0.00    -0.744 OA
ENDBRANCH  81  85
ENDBRANCH  64  78
BRANCH  65  89
ATOM     89  C   UNL A   1      44.951  27.419  29.562  1.00  0.00     0.023 A 
ATOM     90  C   UNL A   1      44.725  27.725  28.191  1.00  0.00     0.031 A 
ATOM     91  C   UNL A   1      46.028  26.568  29.866  1.00  0.00     0.131 A 
ATOM     92  C   UNL A   1      45.647  27.309  27.209  1.00  0.00     0.055 A 
ATOM     93  C   UNL A   1      46.947  26.175  28.885  1.00  0.00     0.041 A 
ATOM     94  F   UNL A   1      46.316  26.260  31.139  1.00  0.00    -0.206 F 
ATOM     95  C   UNL A   1      46.786  26.584  27.565  1.00  0.00     0.022 A 
BRANCH  92  96
ATOM     96  S   UNL A   1      45.449  27.704  25.436  1.00  0.00     0.124 S 
ATOM     97  O   UNL A   1      43.999  27.865  25.334  1.00  0.00    -0.237 OA
ATOM     98  O   UNL A   1      46.204  28.940  25.247  1.00  0.00    -0.237 OA
ATOM     99  O   UNL A   1      45.976  26.514  24.766  1.00  0.00    -0.744 OA
ENDBRANCH  92  96
ENDBRANCH  65  89
BRANCH  77 100
ATOM    100  C   UNL A   1      43.253  34.463  30.308  1.00  0.00     0.023 A 
ATOM    101  C   UNL A   1      43.171  35.042  29.041  1.00  0.00     0.031 A 
ATOM    102  C   UNL A   1      43.573  35.363  31.363  1.00  0.00     0.131 A 
ATOM    103  C   UNL A   1      43.496  36.392  28.833  1.00  0.00     0.055 A 
ATOM    104  C   UNL A   1      43.786  36.730  31.169  1.00  0.00     0.041 A 
ATOM    105  F   UNL A   1      43.682  34.970  32.639  1.00  0.00    -0.206 F 
ATOM    106  C   UNL A   1      43.774  37.252  29.890  1.00  0.00     0.022 A 
BRANCH 103 107
ATOM    107  S   UNL A   1      43.646  36.957  27.124  1.00  0.00     0.124 S 
ATOM    108  O   UNL A   1      44.744  36.127  26.634  1.00  0.00    -0.237 OA
ATOM    109  O   UNL A   1      42.329  36.649  26.576  1.00  0.00    -0.237 OA
ATOM    110  O   UNL A   1      43.952  38.379  27.256  1.00  0.00    -0.744 OA
ENDBRANCH 103 107
ENDBRANCH  77 100
ENDBRANCH  51  52
ENDBRANCH  43  46
ENDBRANCH  41  42
ENDBRANCH  40  41
ENDBRANCH  39  40
ENDBRANCH   1  39
TORSDOF 21
ENDMDL
MODEL 2
REMARK VINA RESULT:     -11.9      1.744      2.015
REMARK SMILES Cc1ccc(S(=O)(=O)n2cc(C(=O)C(=O)N[C@@H](Cc3cnc[nH]3)C(=O)NCCCCNC(=O)c3ccc(-c4c5nc(c(-c6cc(S(=O)(=O)[O-])ccc6F)c6ccc([nH]6)c(-c6cc(S(=O)(=O)[O-])ccc6F)c6nc(c(-c7cc(S(=O)(=O)[O-])ccc7F)c7ccc4[nH]7)C=C6)C=C5)cc3)c3ccccc32)cc1
REMARK SMILES IDX 27 1 26 2 24 3 25 4 17 6 16 7 14 8 15 9 12 11 13 12 11 13
REMARK SMILES IDX 9 14 10 15 102 16 97 17 101 18 98 19 100 20 99 21 6 22 7 23
REMARK SMILES IDX 8 24 5 25 1 26 2 27 3 28 104 29 4 30 103 31 18 32 19 33
REMARK SMILES IDX 20 34 23 35 21 36 22 37 28 39 29 40 30 41 31 42 32 43 33 45
REMARK SMILES IDX 34 46 35 47 96 48 36 49 95 50 37 51 38 52 39 53 89 54 40 55
REMARK SMILES IDX 94 56 88 57 90 58 41 59 93 60 87 61 86 62 42 64 74 65 54 66
REMARK SMILES IDX 73 67 55 68 58 69 72 70 91 71 56 72 57 73 71 75 92 76 59 77
REMARK SMILES IDX 43 78 44 79 52 80 45 81 51 82 53 83 50 84 46 85 47 86 48 87
REMARK SMILES IDX 49 88 75 89 76 90 84 91 77 92 83 93 85 94 82 95 78 96 79 97
REMARK SMILES IDX 80 98 81 99 60 100 61 101 69 102 62 103 68 104 70 105 67 106
REMARK SMILES IDX 63 107 64 108 65 109 66 110
REMARK H PARENT 26 5 16 10 23 38 31 44 90 63 58 74
REMARK Flexibility Score: inf
ROOT
ATOM      1  C   UNL A   1      36.975  19.440  24.533  1.00  0.00     0.116 C 
ENDROOT
BRANCH   1   2
ATOM      2  N   UNL A   1      35.789  18.681  24.893  1.00  0.00    -0.354 N 
ATOM      3  C   UNL A   1      34.489  18.977  24.573  1.00  0.00     0.242 C 
ATOM      4  O   UNL A   1      33.734  18.019  24.367  1.00  0.00    -0.273 OA
ATOM      5  H   UNL A   1      35.935  17.867  25.427  1.00  0.00     0.163 HD
BRANCH   3   6
ATOM      6  C   UNL A   1      33.965  20.433  24.400  1.00  0.00     0.177 C 
BRANCH   6   7
ATOM      7  N   UNL A   1      32.694  20.499  23.665  1.00  0.00    -0.337 N 
ATOM      8  C   UNL A   1      32.232  21.430  22.767  1.00  0.00     0.293 C 
ATOM      9  O   UNL A   1      31.276  21.142  22.054  1.00  0.00    -0.265 OA
ATOM     10  H   UNL A   1      32.073  19.756  23.846  1.00  0.00     0.164 HD
BRANCH   8  11
ATOM     11  C   UNL A   1      32.868  22.838  22.682  1.00  0.00     0.252 C 
ATOM     12  O   UNL A   1      33.953  22.968  22.124  1.00  0.00    -0.283 OA
BRANCH  11  13
ATOM     13  C   UNL A   1      32.245  24.016  23.297  1.00  0.00     0.054 A 
ATOM     14  N   UNL A   1      31.471  26.067  23.697  1.00  0.00    -0.240 N 
ATOM     15  C   UNL A   1      32.259  25.325  22.856  1.00  0.00     0.117 A 
ATOM     16  C   UNL A   1      30.955  25.293  24.714  1.00  0.00     0.065 A 
ATOM     17  C   UNL A   1      31.461  24.004  24.506  1.00  0.00     0.012 A 
ATOM     18  C   UNL A   1      30.115  25.587  25.805  1.00  0.00     0.028 A 
ATOM     19  C   UNL A   1      31.128  22.991  25.432  1.00  0.00     0.011 A 
ATOM     20  C   UNL A   1      29.816  24.563  26.709  1.00  0.00     0.002 A 
ATOM     21  C   UNL A   1      30.318  23.282  26.529  1.00  0.00     0.001 A 
BRANCH  14  22
ATOM     22  S   UNL A   1      31.230  27.740  23.528  1.00  0.00     0.268 S 
ATOM     23  O   UNL A   1      29.835  27.962  23.849  1.00  0.00    -0.201 OA
ATOM     24  O   UNL A   1      31.791  28.107  22.238  1.00  0.00    -0.201 OA
BRANCH  22  25
ATOM     25  C   UNL A   1      32.198  28.563  24.764  1.00  0.00     0.088 A 
ATOM     26  C   UNL A   1      34.184  30.554  28.015  1.00  0.00     0.044 C 
ATOM     27  C   UNL A   1      33.510  29.871  26.862  1.00  0.00    -0.051 A 
ATOM     28  C   UNL A   1      32.294  30.365  26.375  1.00  0.00     0.005 A 
ATOM     29  C   UNL A   1      34.080  28.741  26.262  1.00  0.00     0.005 A 
ATOM     30  C   UNL A   1      31.636  29.711  25.333  1.00  0.00     0.022 A 
ATOM     31  C   UNL A   1      33.436  28.093  25.205  1.00  0.00     0.022 A 
ENDBRANCH  22  25
ENDBRANCH  14  22
ENDBRANCH  11  13
ENDBRANCH   8  11
ENDBRANCH   6   7
BRANCH   6  32
ATOM     32  C   UNL A   1      33.994  21.325  25.659  1.00  0.00     0.090 C 
BRANCH  32  33
ATOM     33  C   UNL A   1      34.817  22.542  25.506  1.00  0.00     0.037 A 
ATOM     34  C   UNL A   1      35.018  23.651  26.302  1.00  0.00     0.134 A 
ATOM     35  N   UNL A   1      35.673  22.717  24.446  1.00  0.00    -0.348 N 
ATOM     36  N   UNL A   1      36.139  24.313  25.887  1.00  0.00    -0.245 NA
ATOM     37  C   UNL A   1      36.543  23.693  24.812  1.00  0.00     0.196 A 
ATOM     38  H   UNL A   1      35.658  22.232  23.590  1.00  0.00     0.167 HD
ENDBRANCH  32  33
ENDBRANCH   6  32
ENDBRANCH   3   6
ENDBRANCH   1   2
BRANCH   1  39
ATOM     39  C   UNL A   1      37.626  20.251  25.645  1.00  0.00     0.023 C 
BRANCH  39  40
ATOM     40  C   UNL A   1      38.967  20.876  25.292  1.00  0.00     0.023 C 
BRANCH  40  41
ATOM     41  C   UNL A   1      39.446  21.978  26.226  1.00  0.00     0.116 C 
BRANCH  41  42
ATOM     42  N   UNL A   1      40.858  22.308  26.232  1.00  0.00    -0.352 N 
ATOM     43  C   UNL A   1      41.447  23.566  26.214  1.00  0.00     0.251 C 
ATOM     44  H   UNL A   1      41.478  21.542  26.251  1.00  0.00     0.163 HD
ATOM     45  O   UNL A   1      42.644  23.688  25.964  1.00  0.00    -0.269 OA
BRANCH  43  46
ATOM     46  C   UNL A   1      40.687  24.767  26.681  1.00  0.00     0.039 A 
ATOM     47  C   UNL A   1      41.032  26.006  26.114  1.00  0.00     0.014 A 
ATOM     48  C   UNL A   1      39.933  24.745  27.845  1.00  0.00     0.014 A 
ATOM     49  C   UNL A   1      40.896  27.167  26.867  1.00  0.00     0.010 A 
ATOM     50  C   UNL A   1      39.974  25.832  28.669  1.00  0.00     0.010 A 
ATOM     51  C   UNL A   1      40.494  27.024  28.188  1.00  0.00    -0.014 A 
BRANCH  51  52
ATOM     52  C   UNL A   1      40.519  28.066  29.183  1.00  0.00     0.031 A 
ATOM     53  C   UNL A   1      39.475  29.083  29.080  1.00  0.00     0.074 A 
ATOM     54  C   UNL A   1      41.372  27.928  30.217  1.00  0.00     0.049 A 
ATOM     55  N   UNL A   1      39.649  30.318  29.363  1.00  0.00    -0.248 NA
ATOM     56  C   UNL A   1      38.142  28.793  28.543  1.00  0.00     0.031 C 
ATOM     57  C   UNL A   1      41.412  28.616  31.498  1.00  0.00     0.029 A 
ATOM     58  N   UNL A   1      42.530  27.163  30.223  1.00  0.00    -0.354 N 
ATOM     59  C   UNL A   1      38.391  30.871  29.429  1.00  0.00     0.074 A 
ATOM     60  C   UNL A   1      37.518  29.958  28.738  1.00  0.00     0.031 C 
ATOM     61  C   UNL A   1      42.648  28.478  32.023  1.00  0.00     0.029 A 
ATOM     62  C   UNL A   1      43.474  27.804  31.025  1.00  0.00     0.049 A 
ATOM     63  H   UNL A   1      42.663  26.314  29.743  1.00  0.00     0.167 HD
ATOM     64  C   UNL A   1      38.175  31.900  30.288  1.00  0.00     0.034 A 
ATOM     65  C   UNL A   1      44.657  28.254  30.512  1.00  0.00     0.034 A 
ATOM     66  C   UNL A   1      39.381  32.149  31.071  1.00  0.00     0.049 A 
ATOM     67  C   UNL A   1      44.648  29.780  30.545  1.00  0.00     0.074 A 
ATOM     68  C   UNL A   1      39.760  31.736  32.338  1.00  0.00     0.029 A 
ATOM     69  N   UNL A   1      40.535  32.571  30.429  1.00  0.00    -0.354 N 
ATOM     70  N   UNL A   1      43.560  30.509  30.566  1.00  0.00    -0.248 NA
ATOM     71  C   UNL A   1      45.858  30.590  30.617  1.00  0.00     0.031 C 
ATOM     72  C   UNL A   1      41.168  31.884  32.438  1.00  0.00     0.029 A 
ATOM     73  C   UNL A   1      41.635  32.393  31.240  1.00  0.00     0.049 A 
ATOM     74  H   UNL A   1      40.564  32.945  29.519  1.00  0.00     0.167 HD
ATOM     75  C   UNL A   1      43.891  31.835  30.693  1.00  0.00     0.074 A 
ATOM     76  C   UNL A   1      45.344  31.829  30.710  1.00  0.00     0.031 C 
ATOM     77  C   UNL A   1      42.948  32.824  30.794  1.00  0.00     0.034 A 
BRANCH  64  78
ATOM     78  C   UNL A   1      36.821  32.414  30.682  1.00  0.00     0.023 A 
ATOM     79  C   UNL A   1      36.091  33.158  29.736  1.00  0.00     0.031 A 
ATOM     80  C   UNL A   1      36.185  32.205  31.921  1.00  0.00     0.131 A 
ATOM     81  C   UNL A   1      34.839  33.708  30.037  1.00  0.00     0.055 A 
ATOM     82  C   UNL A   1      34.945  32.779  32.235  1.00  0.00     0.041 A 
ATOM     83  F   UNL A   1      36.718  31.406  32.856  1.00  0.00    -0.206 F 
ATOM     84  C   UNL A   1      34.265  33.539  31.291  1.00  0.00     0.022 A 
BRANCH  81  85
ATOM     85  S   UNL A   1      33.978  34.628  28.736  1.00  0.00     0.124 S 
ATOM     86  O   UNL A   1      32.867  35.226  29.471  1.00  0.00    -0.237 OA
ATOM     87  O   UNL A   1      35.010  35.546  28.269  1.00  0.00    -0.237 OA
ATOM     88  O   UNL A   1      33.599  33.587  27.782  1.00  0.00    -0.744 OA
ENDBRANCH  81  85
ENDBRANCH  64  78
BRANCH  65  89
ATOM     89  C   UNL A   1      45.157  27.409  29.369  1.00  0.00     0.023 A 
ATOM     90  C   UNL A   1      44.902  27.823  28.032  1.00  0.00     0.031 A 
ATOM     91  C   UNL A   1      46.231  26.525  29.579  1.00  0.00     0.131 A 
ATOM     92  C   UNL A   1      45.795  27.475  26.997  1.00  0.00     0.055 A 
ATOM     93  C   UNL A   1      47.120  26.199  28.548  1.00  0.00     0.041 A 
ATOM     94  F   UNL A   1      46.544  26.115  30.817  1.00  0.00    -0.206 F 
ATOM     95  C   UNL A   1      46.933  26.711  27.268  1.00  0.00     0.022 A 
BRANCH  92  96
ATOM     96  S   UNL A   1      45.560  28.010  25.267  1.00  0.00     0.124 S 
ATOM     97  O   UNL A   1      46.314  29.262  25.244  1.00  0.00    -0.237 OA
ATOM     98  O   UNL A   1      46.150  26.940  24.466  1.00  0.00    -0.237 OA
ATOM     99  O   UNL A   1      44.109  28.173  25.160  1.00  0.00    -0.744 OA
ENDBRANCH  92  96
ENDBRANCH  65  89
BRANCH  77 100
ATOM    100  C   UNL A   1      43.173  34.311  30.589  1.00  0.00     0.023 A 
ATOM    101  C   UNL A   1      43.628  35.151  31.605  1.00  0.00     0.031 A 
ATOM    102  C   UNL A   1      43.021  34.929  29.317  1.00  0.00     0.131 A 
ATOM    103  C   UNL A   1      43.805  36.528  31.390  1.00  0.00     0.055 A 
ATOM    104  C   UNL A   1      43.306  36.277  29.079  1.00  0.00     0.041 A 
ATOM    105  F   UNL A   1      42.602  34.261  28.235  1.00  0.00    -0.206 F 
ATOM    106  C   UNL A   1      43.678  37.095  30.127  1.00  0.00     0.022 A 
BRANCH 103 107
ATOM    107  S   UNL A   1      44.103  37.564  32.839  1.00  0.00     0.124 S 
ATOM    108  O   UNL A   1      42.875  37.361  33.606  1.00  0.00    -0.237 OA
ATOM    109  O   UNL A   1      45.308  36.968  33.407  1.00  0.00    -0.237 OA
ATOM    110  O   UNL A   1      44.271  38.902  32.278  1.00  0.00    -0.744 OA
ENDBRANCH 103 107
ENDBRANCH  77 100
ENDBRANCH  51  52
ENDBRANCH  43  46
ENDBRANCH  41  42
ENDBRANCH  40  41
ENDBRANCH  39  40
ENDBRANCH   1  39
TORSDOF 21
ENDMDL
MODEL 3
REMARK VINA RESULT:     -11.2      2.692      4.223
REMARK SMILES Cc1ccc(S(=O)(=O)n2cc(C(=O)C(=O)N[C@@H](Cc3cnc[nH]3)C(=O)NCCCCNC(=O)c3ccc(-c4c5nc(c(-c6cc(S(=O)(=O)[O-])ccc6F)c6ccc([nH]6)c(-c6cc(S(=O)(=O)[O-])ccc6F)c6nc(c(-c7cc(S(=O)(=O)[O-])ccc7F)c7ccc4[nH]7)C=C6)C=C5)cc3)c3ccccc32)cc1
REMARK SMILES IDX 27 1 26 2 24 3 25 4 17 6 16 7 14 8 15 9 12 11 13 12 11 13
REMARK SMILES IDX 9 14 10 15 102 16 97 17 101 18 98 19 100 20 99 21 6 22 7 23
REMARK SMILES IDX 8 24 5 25 1 26 2 27 3 28 104 29 4 30 103 31 18 32 19 33
REMARK SMILES IDX 20 34 23 35 21 36 22 37 28 39 29 40 30 41 31 42 32 43 33 45
REMARK SMILES IDX 34 46 35 47 96 48 36 49 95 50 37 51 38 52 39 53 89 54 40 55
REMARK SMILES IDX 94 56 88 57 90 58 41 59 93 60 87 61 86 62 42 64 74 65 54 66
REMARK SMILES IDX 73 67 55 68 58 69 72 70 91 71 56 72 57 73 71 75 92 76 59 77
REMARK SMILES IDX 43 78 44 79 52 80 45 81 51 82 53 83 50 84 46 85 47 86 48 87
REMARK SMILES IDX 49 88 75 89 76 90 84 91 77 92 83 93 85 94 82 95 78 96 79 97
REMARK SMILES IDX 80 98 81 99 60 100 61 101 69 102 62 103 68 104 70 105 67 106
REMARK SMILES IDX 63 107 64 108 65 109 66 110
REMARK H PARENT 26 5 16 10 23 38 31 44 90 63 58 74
REMARK Flexibility Score: inf
ROOT
ATOM      1  C   UNL A   1      37.941  24.045  26.522  1.00  0.00     0.116 C 
ENDROOT
BRANCH   1   2
ATOM      2  N   UNL A   1      37.964  22.688  26.004  1.00  0.00    -0.354 N 
ATOM      3  C   UNL A   1      37.023  22.093  25.204  1.00  0.00     0.242 C 
ATOM      4  O   UNL A   1      37.436  21.277  24.370  1.00  0.00    -0.273 OA
ATOM      5  H   UNL A   1      38.739  22.136  26.255  1.00  0.00     0.163 HD
BRANCH   3   6
ATOM      6  C   UNL A   1      35.508  22.445  25.265  1.00  0.00     0.177 C 
BRANCH   6   7
ATOM      7  N   UNL A   1      34.897  22.571  23.934  1.00  0.00    -0.337 N 
ATOM      8  C   UNL A   1      33.860  23.361  23.501  1.00  0.00     0.293 C 
ATOM      9  O   UNL A   1      33.706  23.527  22.295  1.00  0.00    -0.265 OA
ATOM     10  H   UNL A   1      35.294  21.994  23.241  1.00  0.00     0.164 HD
BRANCH   8  11
ATOM     11  C   UNL A   1      32.871  23.999  24.506  1.00  0.00     0.252 C 
ATOM     12  O   UNL A   1      32.072  23.278  25.093  1.00  0.00    -0.283 OA
BRANCH  11  13
ATOM     13  C   UNL A   1      32.818  25.447  24.738  1.00  0.00     0.054 A 
ATOM     14  N   UNL A   1      32.623  27.461  25.670  1.00  0.00    -0.240 N 
ATOM     15  C   UNL A   1      32.423  26.122  25.877  1.00  0.00     0.117 A 
ATOM     16  C   UNL A   1      33.112  27.707  24.405  1.00  0.00     0.065 A 
ATOM     17  C   UNL A   1      33.206  26.455  23.784  1.00  0.00     0.012 A 
ATOM     18  C   UNL A   1      33.464  28.892  23.731  1.00  0.00     0.028 A 
ATOM     19  C   UNL A   1      33.647  26.399  22.443  1.00  0.00     0.011 A 
ATOM     20  C   UNL A   1      33.885  28.800  22.401  1.00  0.00     0.002 A 
ATOM     21  C   UNL A   1      33.972  27.571  21.762  1.00  0.00     0.001 A 
BRANCH  14  22
ATOM     22  S   UNL A   1      32.246  28.657  26.817  1.00  0.00     0.268 S 
ATOM     23  O   UNL A   1      31.802  27.937  27.991  1.00  0.00    -0.201 OA
ATOM     24  O   UNL A   1      31.396  29.623  26.137  1.00  0.00    -0.201 OA
BRANCH  22  25
ATOM     25  C   UNL A   1      33.744  29.502  27.243  1.00  0.00     0.088 A 
ATOM     26  C   UNL A   1      37.169  31.693  28.641  1.00  0.00     0.044 C 
ATOM     27  C   UNL A   1      35.984  30.930  28.127  1.00  0.00    -0.051 A 
ATOM     28  C   UNL A   1      34.739  31.564  28.023  1.00  0.00     0.005 A 
ATOM     29  C   UNL A   1      36.102  29.587  27.746  1.00  0.00     0.005 A 
ATOM     30  C   UNL A   1      33.622  30.852  27.589  1.00  0.00     0.022 A 
ATOM     31  C   UNL A   1      34.990  28.874  27.291  1.00  0.00     0.022 A 
ENDBRANCH  22  25
ENDBRANCH  14  22
ENDBRANCH  11  13
ENDBRANCH   8  11
ENDBRANCH   6   7
BRANCH   6  32
ATOM     32  C   UNL A   1      34.654  21.630  26.258  1.00  0.00     0.090 C 
BRANCH  32  33
ATOM     33  C   UNL A   1      34.090  20.392  25.682  1.00  0.00     0.037 A 
ATOM     34  C   UNL A   1      32.800  19.941  25.497  1.00  0.00     0.134 A 
ATOM     35  N   UNL A   1      34.880  19.432  25.098  1.00  0.00    -0.348 N 
ATOM     36  N   UNL A   1      32.802  18.909  24.600  1.00  0.00    -0.245 NA
ATOM     37  C   UNL A   1      34.057  18.670  24.333  1.00  0.00     0.196 A 
ATOM     38  H   UNL A   1      35.851  19.319  25.211  1.00  0.00     0.167 HD
ENDBRANCH  32  33
ENDBRANCH   6  32
ENDBRANCH   3   6
ENDBRANCH   1   2
BRANCH   1  39
ATOM     39  C   UNL A   1      39.020  24.404  27.535  1.00  0.00     0.023 C 
BRANCH  39  40
ATOM     40  C   UNL A   1      39.947  25.538  27.123  1.00  0.00     0.023 C 
BRANCH  40  41
ATOM     41  C   UNL A   1      40.862  25.243  25.943  1.00  0.00     0.116 C 
BRANCH  41  42
ATOM     42  N   UNL A   1      41.378  23.897  25.793  1.00  0.00    -0.352 N 
ATOM     43  C   UNL A   1      42.681  23.449  25.977  1.00  0.00     0.251 C 
ATOM     44  H   UNL A   1      40.721  23.213  25.527  1.00  0.00     0.163 HD
ATOM     45  O   UNL A   1      43.021  22.342  25.568  1.00  0.00    -0.269 OA
BRANCH  43  46
ATOM     46  C   UNL A   1      43.634  24.220  26.834  1.00  0.00     0.039 A 
ATOM     47  C   UNL A   1      43.492  24.093  28.227  1.00  0.00     0.014 A 
ATOM     48  C   UNL A   1      44.385  25.271  26.327  1.00  0.00     0.014 A 
ATOM     49  C   UNL A   1      43.825  25.162  29.051  1.00  0.00     0.010 A 
ATOM     50  C   UNL A   1      44.532  26.394  27.086  1.00  0.00     0.010 A 
ATOM     51  C   UNL A   1      44.210  26.344  28.434  1.00  0.00    -0.014 A 
BRANCH  51  52
ATOM     52  C   UNL A   1      44.368  27.615  29.095  1.00  0.00     0.031 A 
ATOM     53  C   UNL A   1      43.187  28.474  29.134  1.00  0.00     0.074 A 
ATOM     54  C   UNL A   1      45.514  27.835  29.770  1.00  0.00     0.049 A 
ATOM     55  N   UNL A   1      43.228  29.751  29.051  1.00  0.00    -0.248 NA
ATOM     56  C   UNL A   1      41.823  27.939  29.175  1.00  0.00     0.031 C 
ATOM     57  C   UNL A   1      45.837  28.845  30.765  1.00  0.00     0.029 A 
ATOM     58  N   UNL A   1      46.728  27.200  29.545  1.00  0.00    -0.354 N 
ATOM     59  C   UNL A   1      41.980  30.193  29.424  1.00  0.00     0.074 A 
ATOM     60  C   UNL A   1      41.104  29.057  29.306  1.00  0.00     0.031 C 
ATOM     61  C   UNL A   1      47.179  28.958  30.844  1.00  0.00     0.029 A 
ATOM     62  C   UNL A   1      47.752  28.112  29.801  1.00  0.00     0.049 A 
ATOM     63  H   UNL A   1      46.845  26.267  29.255  1.00  0.00     0.167 HD
ATOM     64  C   UNL A   1      41.873  31.394  30.047  1.00  0.00     0.034 A 
ATOM     65  C   UNL A   1      48.618  28.504  28.821  1.00  0.00     0.034 A 
ATOM     66  C   UNL A   1      43.203  31.947  30.283  1.00  0.00     0.049 A 
ATOM     67  C   UNL A   1      48.360  29.975  28.508  1.00  0.00     0.074 A 
ATOM     68  C   UNL A   1      44.026  31.926  31.398  1.00  0.00     0.029 A 
ATOM     69  N   UNL A   1      44.006  32.274  29.202  1.00  0.00    -0.354 N 
ATOM     70  N   UNL A   1      47.225  30.588  28.741  1.00  0.00    -0.248 NA
ATOM     71  C   UNL A   1      49.374  30.872  27.969  1.00  0.00     0.031 C 
ATOM     72  C   UNL A   1      45.347  32.212  30.966  1.00  0.00     0.029 A 
ATOM     73  C   UNL A   1      45.319  32.415  29.597  1.00  0.00     0.049 A 
ATOM     74  H   UNL A   1      43.683  32.389  28.280  1.00  0.00     0.167 HD
ATOM     75  C   UNL A   1      47.349  31.922  28.441  1.00  0.00     0.074 A 
ATOM     76  C   UNL A   1      48.712  32.043  27.952  1.00  0.00     0.031 C 
ATOM     77  C   UNL A   1      46.331  32.819  28.638  1.00  0.00     0.034 A 
BRANCH  64  78
ATOM     78  C   UNL A   1      40.645  31.880  30.761  1.00  0.00     0.023 A 
ATOM     79  C   UNL A   1      39.997  30.999  31.647  1.00  0.00     0.031 A 
ATOM     80  C   UNL A   1      40.076  33.163  30.646  1.00  0.00     0.131 A 
ATOM     81  C   UNL A   1      38.824  31.360  32.320  1.00  0.00     0.055 A 
ATOM     82  C   UNL A   1      38.884  33.517  31.296  1.00  0.00     0.041 A 
ATOM     83  F   UNL A   1      40.670  34.133  29.937  1.00  0.00    -0.206 F 
ATOM     84  C   UNL A   1      38.249  32.611  32.137  1.00  0.00     0.022 A 
BRANCH  81  85
ATOM     85  S   UNL A   1      38.088  30.155  33.455  1.00  0.00     0.124 S 
ATOM     86  O   UNL A   1      36.909  29.719  32.712  1.00  0.00    -0.237 OA
ATOM     87  O   UNL A   1      39.156  29.173  33.601  1.00  0.00    -0.237 OA
ATOM     88  O   UNL A   1      37.808  30.947  34.651  1.00  0.00    -0.744 OA
ENDBRANCH  81  85
ENDBRANCH  64  78
BRANCH  65  89
ATOM     89  C   UNL A   1      48.870  27.425  27.799  1.00  0.00     0.023 A 
ATOM     90  C   UNL A   1      48.245  27.514  26.523  1.00  0.00     0.031 A 
ATOM     91  C   UNL A   1      50.027  26.632  27.898  1.00  0.00     0.131 A 
ATOM     92  C   UNL A   1      48.864  26.951  25.388  1.00  0.00     0.055 A 
ATOM     93  C   UNL A   1      50.642  26.092  26.762  1.00  0.00     0.041 A 
ATOM     94  F   UNL A   1      50.683  26.526  29.063  1.00  0.00    -0.206 F 
ATOM     95  C   UNL A   1      50.090  26.291  25.500  1.00  0.00     0.022 A 
BRANCH  92  96
ATOM     96  S   UNL A   1      48.146  27.067  23.712  1.00  0.00     0.124 S 
ATOM     97  O   UNL A   1      46.791  27.531  24.006  1.00  0.00    -0.237 OA
ATOM     98  O   UNL A   1      48.979  28.047  23.021  1.00  0.00    -0.237 OA
ATOM     99  O   UNL A   1      48.222  25.691  23.219  1.00  0.00    -0.744 OA
ENDBRANCH  92  96
ENDBRANCH  65  89
BRANCH  77 100
ATOM    100  C   UNL A   1      46.223  34.207  28.035  1.00  0.00     0.023 A 
ATOM    101  C   UNL A   1      46.222  35.367  28.811  1.00  0.00     0.031 A 
ATOM    102  C   UNL A   1      46.206  34.422  26.629  1.00  0.00     0.131 A 
ATOM    103  C   UNL A   1      46.097  36.637  28.225  1.00  0.00     0.055 A 
ATOM    104  C   UNL A   1      46.195  35.692  26.045  1.00  0.00     0.041 A 
ATOM    105  F   UNL A   1      46.212  33.416  25.745  1.00  0.00    -0.206 F 
ATOM    106  C   UNL A   1      46.115  36.814  26.846  1.00  0.00     0.022 A 
BRANCH 103 107
ATOM    107  S   UNL A   1      45.806  38.037  29.329  1.00  0.00     0.124 S 
ATOM    108  O   UNL A   1      44.583  37.623  30.014  1.00  0.00    -0.237 OA
ATOM    109  O   UNL A   1      47.015  38.047  30.147  1.00  0.00    -0.237 OA
ATOM    110  O   UNL A   1      45.656  39.169  28.419  1.00  0.00    -0.744 OA
ENDBRANCH 103 107
ENDBRANCH  77 100
ENDBRANCH  51  52
ENDBRANCH  43  46
ENDBRANCH  41  42
ENDBRANCH  40  41
ENDBRANCH  39  40
ENDBRANCH   1  39
TORSDOF 21
ENDMDL
