MODEL 1
REMARK VINA RESULT:     -11.7      0.000      0.000
REMARK SMILES O=C(NCCCCNC(=O)c1ccc2nc(Cl)sc2c1)c1ccc(-c2c3nc(c(-c4cc(S(=O)(=O)[O-])ccc4F)c4ccc([nH]4)c(-c4cc(S(=O)(=O)[O-])ccc4F)c4nc(c(-c5cc(S(=O)(=O)[O-])ccc5F)c5ccc2[nH]5)C=C4)C=C3)cc1
REMARK SMILES IDX 4 1 3 2 1 3 2 4 21 6 22 7 83 8 23 9 82 10 24 11 25 12 26 13
REMARK SMILES IDX 76 14 27 15 81 16 75 17 77 18 28 19 80 20 74 21 73 22 29 24
REMARK SMILES IDX 61 25 41 26 60 27 42 28 45 29 59 30 78 31 43 32 44 33 58 35
REMARK SMILES IDX 79 36 46 37 30 38 31 39 39 40 32 41 38 42 40 43 37 44 33 45
REMARK SMILES IDX 34 46 35 47 36 48 62 49 63 50 71 51 64 52 70 53 72 54 69 55
REMARK SMILES IDX 65 56 66 57 67 58 68 59 47 60 48 61 56 62 49 63 55 64 57 65
REMARK SMILES IDX 54 66 50 67 51 68 52 69 53 70 5 71 6 72 7 73 8 74 9 75 10 77
REMARK SMILES IDX 11 78 12 79 20 80 13 81 19 82 14 83 18 84 15 85 16 86 17 87
REMARK H PARENT 3 5 77 23 45 34 8 76
REMARK Flexibility Score: inf
ROOT
ATOM      1  C   UNL A   1      40.788  20.940  27.203  1.00  0.00     0.116 C 
ENDROOT
BRANCH   1   2
ATOM      2  N   UNL A   1      42.100  20.927  26.584  1.00  0.00    -0.352 N 
ATOM      3  O   UNL A   1      43.687  21.612  25.189  1.00  0.00    -0.269 OA
ATOM      4  C   UNL A   1      42.839  21.930  26.024  1.00  0.00     0.251 C 
ATOM      5  H   UNL A   1      42.533  20.042  26.565  1.00  0.00     0.163 HD
BRANCH   4   6
ATOM      6  C   UNL A   1      42.692  23.353  26.407  1.00  0.00     0.039 A 
ATOM      7  C   UNL A   1      42.970  24.307  25.418  1.00  0.00     0.014 A 
ATOM      8  C   UNL A   1      42.487  23.767  27.728  1.00  0.00     0.014 A 
ATOM      9  C   UNL A   1      43.065  25.656  25.747  1.00  0.00     0.010 A 
ATOM     10  C   UNL A   1      42.572  25.126  28.055  1.00  0.00     0.010 A 
ATOM     11  C   UNL A   1      42.876  26.074  27.070  1.00  0.00    -0.014 A 
BRANCH  11  12
ATOM     12  C   UNL A   1      42.993  27.518  27.351  1.00  0.00     0.031 A 
ATOM     13  C   UNL A   1      41.720  28.298  27.319  1.00  0.00     0.074 A 
ATOM     14  C   UNL A   1      44.034  28.001  28.063  1.00  0.00     0.049 A 
ATOM     15  N   UNL A   1      40.864  28.283  28.300  1.00  0.00    -0.248 NA
ATOM     16  C   UNL A   1      41.220  28.946  26.108  1.00  0.00     0.031 C 
ATOM     17  C   UNL A   1      44.706  27.235  29.125  1.00  0.00     0.029 A 
ATOM     18  N   UNL A   1      44.543  29.273  28.191  1.00  0.00    -0.354 N 
ATOM     19  C   UNL A   1      39.707  28.891  27.848  1.00  0.00     0.074 A 
ATOM     20  C   UNL A   1      39.973  29.282  26.480  1.00  0.00     0.031 C 
ATOM     21  C   UNL A   1      45.393  28.093  29.908  1.00  0.00     0.029 A 
ATOM     22  C   UNL A   1      45.347  29.429  29.322  1.00  0.00     0.049 A 
ATOM     23  H   UNL A   1      44.361  29.997  27.551  1.00  0.00     0.167 HD
ATOM     24  C   UNL A   1      38.601  29.052  28.625  1.00  0.00     0.034 A 
ATOM     25  C   UNL A   1      45.468  30.587  30.030  1.00  0.00     0.034 A 
ATOM     26  C   UNL A   1      38.737  28.605  29.982  1.00  0.00     0.049 A 
ATOM     27  C   UNL A   1      44.090  30.677  30.652  1.00  0.00     0.074 A 
ATOM     28  C   UNL A   1      38.416  27.497  30.733  1.00  0.00     0.029 A 
ATOM     29  N   UNL A   1      39.398  29.430  30.863  1.00  0.00    -0.354 N 
ATOM     30  N   UNL A   1      43.657  29.994  31.684  1.00  0.00    -0.248 NA
ATOM     31  C   UNL A   1      43.036  31.301  29.853  1.00  0.00     0.031 C 
ATOM     32  C   UNL A   1      39.296  27.532  31.863  1.00  0.00     0.029 A 
ATOM     33  C   UNL A   1      40.139  28.632  31.699  1.00  0.00     0.049 A 
ATOM     34  H   UNL A   1      39.348  30.414  30.890  1.00  0.00     0.167 HD
ATOM     35  C   UNL A   1      42.274  29.876  31.502  1.00  0.00     0.074 A 
ATOM     36  C   UNL A   1      41.965  30.707  30.357  1.00  0.00     0.031 C 
ATOM     37  C   UNL A   1      41.470  28.989  32.165  1.00  0.00     0.034 A 
BRANCH  24  38
ATOM     38  C   UNL A   1      37.408  29.830  28.224  1.00  0.00     0.023 A 
ATOM     39  C   UNL A   1      36.273  29.253  27.637  1.00  0.00     0.031 A 
ATOM     40  C   UNL A   1      37.359  31.185  28.603  1.00  0.00     0.131 A 
ATOM     41  C   UNL A   1      35.117  30.038  27.473  1.00  0.00     0.055 A 
ATOM     42  C   UNL A   1      36.209  31.952  28.450  1.00  0.00     0.041 A 
ATOM     43  F   UNL A   1      38.432  31.767  29.165  1.00  0.00    -0.206 F 
ATOM     44  C   UNL A   1      35.077  31.376  27.890  1.00  0.00     0.022 A 
BRANCH  41  45
ATOM     45  S   UNL A   1      33.601  29.356  26.744  1.00  0.00     0.124 S 
ATOM     46  O   UNL A   1      32.773  30.550  26.579  1.00  0.00    -0.237 OA
ATOM     47  O   UNL A   1      34.102  28.768  25.503  1.00  0.00    -0.237 OA
ATOM     48  O   UNL A   1      33.132  28.402  27.741  1.00  0.00    -0.744 OA
ENDBRANCH  41  45
ENDBRANCH  24  38
BRANCH  25  49
ATOM     49  C   UNL A   1      46.113  31.704  29.257  1.00  0.00     0.023 A 
ATOM     50  C   UNL A   1      45.509  32.419  28.213  1.00  0.00     0.031 A 
ATOM     51  C   UNL A   1      47.460  32.028  29.544  1.00  0.00     0.131 A 
ATOM     52  C   UNL A   1      46.283  33.239  27.374  1.00  0.00     0.055 A 
ATOM     53  C   UNL A   1      48.211  32.905  28.754  1.00  0.00     0.041 A 
ATOM     54  F   UNL A   1      48.082  31.472  30.597  1.00  0.00    -0.206 F 
ATOM     55  C   UNL A   1      47.631  33.486  27.635  1.00  0.00     0.022 A 
BRANCH  52  56
ATOM     56  S   UNL A   1      45.573  33.920  25.849  1.00  0.00     0.124 S 
ATOM     57  O   UNL A   1      44.695  34.971  26.354  1.00  0.00    -0.237 OA
ATOM     58  O   UNL A   1      46.774  34.377  25.155  1.00  0.00    -0.237 OA
ATOM     59  O   UNL A   1      44.900  32.772  25.250  1.00  0.00    -0.744 OA
ENDBRANCH  52  56
ENDBRANCH  25  49
BRANCH  37  60
ATOM     60  C   UNL A   1      42.082  28.215  33.295  1.00  0.00     0.023 A 
ATOM     61  C   UNL A   1      42.988  27.164  33.049  1.00  0.00     0.031 A 
ATOM     62  C   UNL A   1      41.660  28.424  34.618  1.00  0.00     0.131 A 
ATOM     63  C   UNL A   1      43.369  26.306  34.087  1.00  0.00     0.055 A 
ATOM     64  C   UNL A   1      42.100  27.609  35.663  1.00  0.00     0.041 A 
ATOM     65  F   UNL A   1      40.764  29.381  34.910  1.00  0.00    -0.206 F 
ATOM     66  C   UNL A   1      42.942  26.531  35.398  1.00  0.00     0.022 A 
BRANCH  63  67
ATOM     67  S   UNL A   1      44.345  24.813  33.754  1.00  0.00     0.124 S 
ATOM     68  O   UNL A   1      43.466  23.747  34.232  1.00  0.00    -0.237 OA
ATOM     69  O   UNL A   1      44.510  24.876  32.304  1.00  0.00    -0.237 OA
ATOM     70  O   UNL A   1      45.568  25.002  34.528  1.00  0.00    -0.744 OA
ENDBRANCH  63  67
ENDBRANCH  37  60
ENDBRANCH  11  12
ENDBRANCH   4   6
ENDBRANCH   1   2
BRANCH   1  71
ATOM     71  C   UNL A   1      39.722  21.368  26.181  1.00  0.00     0.023 C 
BRANCH  71  72
ATOM     72  C   UNL A   1      39.206  22.811  26.321  1.00  0.00     0.023 C 
BRANCH  72  73
ATOM     73  C   UNL A   1      37.716  23.005  26.043  1.00  0.00     0.116 C 
BRANCH  73  74
ATOM     74  N   UNL A   1      37.452  23.172  24.624  1.00  0.00    -0.352 N 
ATOM     75  C   UNL A   1      36.265  23.371  23.964  1.00  0.00     0.251 C 
ATOM     76  H   UNL A   1      38.248  23.138  24.047  1.00  0.00     0.163 HD
ATOM     77  O   UNL A   1      36.213  23.278  22.745  1.00  0.00    -0.269 OA
BRANCH  75  78
ATOM     78  C   UNL A   1      35.020  23.670  24.712  1.00  0.00     0.041 A 
ATOM     79  C   UNL A   1      34.762  24.943  25.222  1.00  0.00     0.016 A 
ATOM     80  C   UNL A   1      34.066  22.647  24.818  1.00  0.00     0.035 A 
ATOM     81  C   UNL A   1      33.568  25.201  25.909  1.00  0.00     0.031 A 
ATOM     82  C   UNL A   1      32.871  22.923  25.501  1.00  0.00     0.057 A 
ATOM     83  C   UNL A   1      32.608  24.179  26.059  1.00  0.00     0.083 A 
ATOM     84  S   UNL A   1      31.528  21.882  25.806  1.00  0.00    -0.102 S 
ATOM     85  N   UNL A   1      31.393  24.295  26.715  1.00  0.00    -0.225 NA
ATOM     86  C   UNL A   1      30.766  23.150  26.634  1.00  0.00     0.184 A 
ATOM     87  Cl  UNL A   1      29.219  22.903  27.336  1.00  0.00    -0.050 Cl
ENDBRANCH  75  78
ENDBRANCH  73  74
ENDBRANCH  72  73
ENDBRANCH  71  72
ENDBRANCH   1  71
TORSDOF 14
ENDMDL
MODEL 2
REMARK VINA RESULT:     -11.6      1.467      1.763
REMARK SMILES O=C(NCCCCNC(=O)c1ccc2nc(Cl)sc2c1)c1ccc(-c2c3nc(c(-c4cc(S(=O)(=O)[O-])ccc4F)c4ccc([nH]4)c(-c4cc(S(=O)(=O)[O-])ccc4F)c4nc(c(-c5cc(S(=O)(=O)[O-])ccc5F)c5ccc2[nH]5)C=C4)C=C3)cc1
REMARK SMILES IDX 4 1 3 2 1 3 2 4 21 6 22 7 83 8 23 9 82 10 24 11 25 12 26 13
REMARK SMILES IDX 76 14 27 15 81 16 75 17 77 18 28 19 80 20 74 21 73 22 29 24
REMARK SMILES IDX 61 25 41 26 60 27 42 28 45 29 59 30 78 31 43 32 44 33 58 35
REMARK SMILES IDX 79 36 46 37 30 38 31 39 39 40 32 41 38 42 40 43 37 44 33 45
REMARK SMILES IDX 34 46 35 47 36 48 62 49 63 50 71 51 64 52 70 53 72 54 69 55
REMARK SMILES IDX 65 56 66 57 67 58 68 59 47 60 48 61 56 62 49 63 55 64 57 65
REMARK SMILES IDX 54 66 50 67 51 68 52 69 53 70 5 71 6 72 7 73 8 74 9 75 10 77
REMARK SMILES IDX 11 78 12 79 20 80 13 81 19 82 14 83 18 84 15 85 16 86 17 87
REMARK H PARENT 3 5 77 23 45 34 8 76
REMARK Flexibility Score: inf
ROOT
ATOM      1  C   UNL A   1      39.100  22.151  26.231  1.00  0.00     0.116 C 
ENDROOT
BRANCH   1   2
ATOM      2  N   UNL A   1      40.154  21.367  26.847  1.00  0.00    -0.352 N 
ATOM      3  O   UNL A   1      42.248  20.722  27.209  1.00  0.00    -0.269 OA
ATOM      4  C   UNL A   1      41.462  21.665  27.100  1.00  0.00     0.251 C 
ATOM      5  H   UNL A   1      39.878  20.466  27.132  1.00  0.00     0.163 HD
BRANCH   4   6
ATOM      6  C   UNL A   1      41.954  23.049  27.288  1.00  0.00     0.039 A 
ATOM      7  C   UNL A   1      41.344  23.805  28.299  1.00  0.00     0.014 A 
ATOM      8  C   UNL A   1      42.834  23.671  26.396  1.00  0.00     0.014 A 
ATOM      9  C   UNL A   1      41.592  25.171  28.405  1.00  0.00     0.010 A 
ATOM     10  C   UNL A   1      43.091  25.044  26.510  1.00  0.00     0.010 A 
ATOM     11  C   UNL A   1      42.460  25.801  27.505  1.00  0.00    -0.014 A 
BRANCH  11  12
ATOM     12  C   UNL A   1      42.676  27.252  27.672  1.00  0.00     0.031 A 
ATOM     13  C   UNL A   1      41.460  28.112  27.580  1.00  0.00     0.074 A 
ATOM     14  C   UNL A   1      43.753  27.715  28.344  1.00  0.00     0.049 A 
ATOM     15  N   UNL A   1      40.611  28.233  28.559  1.00  0.00    -0.248 NA
ATOM     16  C   UNL A   1      40.999  28.697  26.322  1.00  0.00     0.031 C 
ATOM     17  C   UNL A   1      44.377  26.990  29.462  1.00  0.00     0.029 A 
ATOM     18  N   UNL A   1      44.348  28.956  28.372  1.00  0.00    -0.354 N 
ATOM     19  C   UNL A   1      39.496  28.882  28.061  1.00  0.00     0.074 A 
ATOM     20  C   UNL A   1      39.780  29.146  26.667  1.00  0.00     0.031 C 
ATOM     21  C   UNL A   1      45.125  27.857  30.176  1.00  0.00     0.029 A 
ATOM     22  C   UNL A   1      45.167  29.143  29.487  1.00  0.00     0.049 A 
ATOM     23  H   UNL A   1      44.212  29.639  27.678  1.00  0.00     0.167 HD
ATOM     24  C   UNL A   1      38.408  29.179  28.824  1.00  0.00     0.034 A 
ATOM     25  C   UNL A   1      45.371  30.342  30.103  1.00  0.00     0.034 A 
ATOM     26  C   UNL A   1      38.520  28.830  30.211  1.00  0.00     0.049 A 
ATOM     27  C   UNL A   1      44.006  30.575  30.717  1.00  0.00     0.074 A 
ATOM     28  C   UNL A   1      38.128  27.808  31.046  1.00  0.00     0.029 A 
ATOM     29  N   UNL A   1      39.241  29.674  31.025  1.00  0.00    -0.354 N 
ATOM     30  N   UNL A   1      43.533  30.006  31.799  1.00  0.00    -0.248 NA
ATOM     31  C   UNL A   1      42.992  31.205  29.871  1.00  0.00     0.031 C 
ATOM     32  C   UNL A   1      39.014  27.870  32.170  1.00  0.00     0.029 A 
ATOM     33  C   UNL A   1      39.930  28.894  31.920  1.00  0.00     0.049 A 
ATOM     34  H   UNL A   1      39.258  30.657  30.975  1.00  0.00     0.167 HD
ATOM     35  C   UNL A   1      42.144  29.969  31.627  1.00  0.00     0.074 A 
ATOM     36  C   UNL A   1      41.886  30.728  30.421  1.00  0.00     0.031 C 
ATOM     37  C   UNL A   1      41.285  29.194  32.357  1.00  0.00     0.034 A 
BRANCH  24  38
ATOM     38  C   UNL A   1      37.268  30.003  28.363  1.00  0.00     0.023 A 
ATOM     39  C   UNL A   1      36.097  29.462  27.814  1.00  0.00     0.031 A 
ATOM     40  C   UNL A   1      37.310  31.382  28.644  1.00  0.00     0.131 A 
ATOM     41  C   UNL A   1      34.996  30.308  27.590  1.00  0.00     0.055 A 
ATOM     42  C   UNL A   1      36.213  32.211  28.432  1.00  0.00     0.041 A 
ATOM     43  F   UNL A   1      38.419  31.930  29.168  1.00  0.00    -0.206 F 
ATOM     44  C   UNL A   1      35.045  31.672  27.911  1.00  0.00     0.022 A 
BRANCH  41  45
ATOM     45  S   UNL A   1      33.437  29.678  26.906  1.00  0.00     0.124 S 
ATOM     46  O   UNL A   1      32.600  30.876  26.888  1.00  0.00    -0.237 OA
ATOM     47  O   UNL A   1      33.859  29.193  25.593  1.00  0.00    -0.237 OA
ATOM     48  O   UNL A   1      33.032  28.645  27.851  1.00  0.00    -0.744 OA
ENDBRANCH  41  45
ENDBRANCH  24  38
BRANCH  25  49
ATOM     49  C   UNL A   1      46.087  31.349  29.245  1.00  0.00     0.023 A 
ATOM     50  C   UNL A   1      45.475  32.193  28.307  1.00  0.00     0.031 A 
ATOM     51  C   UNL A   1      47.498  31.416  29.326  1.00  0.00     0.131 A 
ATOM     52  C   UNL A   1      46.253  32.886  27.364  1.00  0.00     0.055 A 
ATOM     53  C   UNL A   1      48.270  32.168  28.435  1.00  0.00     0.041 A 
ATOM     54  F   UNL A   1      48.158  30.725  30.271  1.00  0.00    -0.206 F 
ATOM     55  C   UNL A   1      47.646  32.878  27.418  1.00  0.00     0.022 A 
BRANCH  52  56
ATOM     56  S   UNL A   1      45.460  33.730  25.966  1.00  0.00     0.124 S 
ATOM     57  O   UNL A   1      46.589  34.388  25.317  1.00  0.00    -0.237 OA
ATOM     58  O   UNL A   1      44.884  32.601  25.242  1.00  0.00    -0.237 OA
ATOM     59  O   UNL A   1      44.500  34.620  26.610  1.00  0.00    -0.744 OA
ENDBRANCH  52  56
ENDBRANCH  25  49
BRANCH  37  60
ATOM     60  C   UNL A   1      41.849  28.470  33.544  1.00  0.00     0.023 A 
ATOM     61  C   UNL A   1      42.679  27.344  33.380  1.00  0.00     0.031 A 
ATOM     62  C   UNL A   1      41.449  28.809  34.846  1.00  0.00     0.131 A 
ATOM     63  C   UNL A   1      43.007  26.544  34.482  1.00  0.00     0.055 A 
ATOM     64  C   UNL A   1      41.837  28.049  35.952  1.00  0.00     0.041 A 
ATOM     65  F   UNL A   1      40.622  29.845  35.063  1.00  0.00    -0.206 F 
ATOM     66  C   UNL A   1      42.603  26.899  35.771  1.00  0.00     0.022 A 
BRANCH  63  67
ATOM     67  S   UNL A   1      43.877  24.967  34.266  1.00  0.00     0.124 S 
ATOM     68  O   UNL A   1      42.849  23.987  34.615  1.00  0.00    -0.237 OA
ATOM     69  O   UNL A   1      44.237  25.011  32.851  1.00  0.00    -0.237 OA
ATOM     70  O   UNL A   1      45.000  25.045  35.196  1.00  0.00    -0.744 OA
ENDBRANCH  63  67
ENDBRANCH  37  60
ENDBRANCH  11  12
ENDBRANCH   4   6
ENDBRANCH   1   2
BRANCH   1  71
ATOM     71  C   UNL A   1      38.212  21.253  25.354  1.00  0.00     0.023 C 
BRANCH  71  72
ATOM     72  C   UNL A   1      36.975  21.934  24.741  1.00  0.00     0.023 C 
BRANCH  72  73
ATOM     73  C   UNL A   1      35.724  21.062  24.648  1.00  0.00     0.116 C 
BRANCH  73  74
ATOM     74  N   UNL A   1      35.057  20.943  25.933  1.00  0.00    -0.352 N 
ATOM     75  C   UNL A   1      34.307  21.861  26.627  1.00  0.00     0.251 C 
ATOM     76  H   UNL A   1      35.158  20.070  26.375  1.00  0.00     0.163 HD
ATOM     77  O   UNL A   1      34.000  21.653  27.793  1.00  0.00    -0.269 OA
BRANCH  75  78
ATOM     78  C   UNL A   1      33.879  23.130  25.991  1.00  0.00     0.041 A 
ATOM     79  C   UNL A   1      34.666  24.280  26.053  1.00  0.00     0.016 A 
ATOM     80  C   UNL A   1      32.690  23.112  25.246  1.00  0.00     0.035 A 
ATOM     81  C   UNL A   1      34.245  25.459  25.426  1.00  0.00     0.031 A 
ATOM     82  C   UNL A   1      32.285  24.299  24.616  1.00  0.00     0.057 A 
ATOM     83  C   UNL A   1      33.035  25.478  24.701  1.00  0.00     0.083 A 
ATOM     84  S   UNL A   1      30.882  24.596  23.654  1.00  0.00    -0.102 S 
ATOM     85  N   UNL A   1      32.500  26.571  24.039  1.00  0.00    -0.225 NA
ATOM     86  C   UNL A   1      31.382  26.205  23.468  1.00  0.00     0.184 A 
ATOM     87  Cl  UNL A   1      30.423  27.295  22.551  1.00  0.00    -0.050 Cl
ENDBRANCH  75  78
ENDBRANCH  73  74
ENDBRANCH  72  73
ENDBRANCH  71  72
ENDBRANCH   1  71
TORSDOF 14
ENDMDL
MODEL 3
REMARK VINA RESULT:     -11.2      3.166      8.429
REMARK SMILES O=C(NCCCCNC(=O)c1ccc2nc(Cl)sc2c1)c1ccc(-c2c3nc(c(-c4cc(S(=O)(=O)[O-])ccc4F)c4ccc([nH]4)c(-c4cc(S(=O)(=O)[O-])ccc4F)c4nc(c(-c5cc(S(=O)(=O)[O-])ccc5F)c5ccc2[nH]5)C=C4)C=C3)cc1
REMARK SMILES IDX 4 1 3 2 1 3 2 4 21 6 22 7 83 8 23 9 82 10 24 11 25 12 26 13
REMARK SMILES IDX 76 14 27 15 81 16 75 17 77 18 28 19 80 20 74 21 73 22 29 24
REMARK SMILES IDX 61 25 41 26 60 27 42 28 45 29 59 30 78 31 43 32 44 33 58 35
REMARK SMILES IDX 79 36 46 37 30 38 31 39 39 40 32 41 38 42 40 43 37 44 33 45
REMARK SMILES IDX 34 46 35 47 36 48 62 49 63 50 71 51 64 52 70 53 72 54 69 55
REMARK SMILES IDX 65 56 66 57 67 58 68 59 47 60 48 61 56 62 49 63 55 64 57 65
REMARK SMILES IDX 54 66 50 67 51 68 52 69 53 70 5 71 6 72 7 73 8 74 9 75 10 77
REMARK SMILES IDX 11 78 12 79 20 80 13 81 19 82 14 83 18 84 15 85 16 86 17 87
REMARK H PARENT 3 5 77 23 45 34 8 76
REMARK Flexibility Score: inf
ROOT
ATOM      1  C   UNL A   1      34.885  33.409  27.806  1.00  0.00     0.116 C 
ENDROOT
BRANCH   1   2
ATOM      2  N   UNL A   1      35.019  34.146  29.047  1.00  0.00    -0.352 N 
ATOM      3  O   UNL A   1      35.109  34.398  31.252  1.00  0.00    -0.269 OA
ATOM      4  C   UNL A   1      35.501  33.769  30.268  1.00  0.00     0.251 C 
ATOM      5  H   UNL A   1      34.708  35.080  29.002  1.00  0.00     0.163 HD
BRANCH   4   6
ATOM      6  C   UNL A   1      36.493  32.684  30.444  1.00  0.00     0.039 A 
ATOM      7  C   UNL A   1      36.331  31.854  31.563  1.00  0.00     0.014 A 
ATOM      8  C   UNL A   1      37.657  32.585  29.675  1.00  0.00     0.014 A 
ATOM      9  C   UNL A   1      37.328  30.952  31.922  1.00  0.00     0.010 A 
ATOM     10  C   UNL A   1      38.655  31.669  30.030  1.00  0.00     0.010 A 
ATOM     11  C   UNL A   1      38.502  30.860  31.163  1.00  0.00    -0.014 A 
BRANCH  11  12
ATOM     12  C   UNL A   1      39.520  29.884  31.600  1.00  0.00     0.031 A 
ATOM     13  C   UNL A   1      39.497  28.560  30.912  1.00  0.00     0.074 A 
ATOM     14  C   UNL A   1      40.669  30.298  32.179  1.00  0.00     0.049 A 
ATOM     15  N   UNL A   1      39.988  28.380  29.720  1.00  0.00    -0.248 NA
ATOM     16  C   UNL A   1      38.723  27.424  31.410  1.00  0.00     0.031 C 
ATOM     17  C   UNL A   1      41.318  31.577  31.853  1.00  0.00     0.029 A 
ATOM     18  N   UNL A   1      41.601  29.630  32.939  1.00  0.00    -0.354 N 
ATOM     19  C   UNL A   1      39.581  27.131  29.289  1.00  0.00     0.074 A 
ATOM     20  C   UNL A   1      38.794  26.576  30.370  1.00  0.00     0.031 C 
ATOM     21  C   UNL A   1      42.606  31.522  32.251  1.00  0.00     0.029 A 
ATOM     22  C   UNL A   1      42.831  30.287  32.995  1.00  0.00     0.049 A 
ATOM     23  H   UNL A   1      41.419  28.779  33.397  1.00  0.00     0.167 HD
ATOM     24  C   UNL A   1      39.924  26.616  28.077  1.00  0.00     0.034 A 
ATOM     25  C   UNL A   1      44.037  29.662  33.105  1.00  0.00     0.034 A 
ATOM     26  C   UNL A   1      40.802  27.435  27.290  1.00  0.00     0.049 A 
ATOM     27  C   UNL A   1      44.134  29.005  31.744  1.00  0.00     0.074 A 
ATOM     28  C   UNL A   1      40.708  28.337  26.254  1.00  0.00     0.029 A 
ATOM     29  N   UNL A   1      42.141  27.419  27.604  1.00  0.00    -0.354 N 
ATOM     30  N   UNL A   1      44.449  29.595  30.617  1.00  0.00    -0.248 NA
ATOM     31  C   UNL A   1      43.494  27.699  31.585  1.00  0.00     0.031 C 
ATOM     32  C   UNL A   1      41.899  29.130  26.327  1.00  0.00     0.029 A 
ATOM     33  C   UNL A   1      42.617  28.697  27.443  1.00  0.00     0.049 A 
ATOM     34  H   UNL A   1      42.664  26.635  27.892  1.00  0.00     0.167 HD
ATOM     35  C   UNL A   1      43.801  28.863  29.615  1.00  0.00     0.074 A 
ATOM     36  C   UNL A   1      43.236  27.710  30.286  1.00  0.00     0.031 C 
ATOM     37  C   UNL A   1      43.599  29.298  28.334  1.00  0.00     0.034 A 
BRANCH  24  38
ATOM     38  C   UNL A   1      39.635  25.229  27.649  1.00  0.00     0.023 A 
ATOM     39  C   UNL A   1      38.494  24.869  26.917  1.00  0.00     0.031 A 
ATOM     40  C   UNL A   1      40.639  24.264  27.854  1.00  0.00     0.131 A 
ATOM     41  C   UNL A   1      38.405  23.569  26.389  1.00  0.00     0.055 A 
ATOM     42  C   UNL A   1      40.551  22.983  27.318  1.00  0.00     0.041 A 
ATOM     43  F   UNL A   1      41.743  24.577  28.553  1.00  0.00    -0.206 F 
ATOM     44  C   UNL A   1      39.432  22.634  26.573  1.00  0.00     0.022 A 
BRANCH  41  45
ATOM     45  S   UNL A   1      36.972  23.037  25.411  1.00  0.00     0.124 S 
ATOM     46  O   UNL A   1      36.908  21.607  25.708  1.00  0.00    -0.237 OA
ATOM     47  O   UNL A   1      35.897  23.842  25.988  1.00  0.00    -0.237 OA
ATOM     48  O   UNL A   1      37.337  23.376  24.041  1.00  0.00    -0.744 OA
ENDBRANCH  41  45
ENDBRANCH  24  38
BRANCH  25  49
ATOM     49  C   UNL A   1      44.222  28.927  34.405  1.00  0.00     0.023 A 
ATOM     50  C   UNL A   1      43.513  27.782  34.794  1.00  0.00     0.031 A 
ATOM     51  C   UNL A   1      45.129  29.458  35.352  1.00  0.00     0.131 A 
ATOM     52  C   UNL A   1      43.553  27.343  36.129  1.00  0.00     0.055 A 
ATOM     53  C   UNL A   1      45.226  28.972  36.660  1.00  0.00     0.041 A 
ATOM     54  F   UNL A   1      45.929  30.486  35.023  1.00  0.00    -0.206 F 
ATOM     55  C   UNL A   1      44.402  27.931  37.066  1.00  0.00     0.022 A 
BRANCH  52  56
ATOM     56  S   UNL A   1      42.408  26.058  36.705  1.00  0.00     0.124 S 
ATOM     57  O   UNL A   1      41.252  26.256  35.837  1.00  0.00    -0.237 OA
ATOM     58  O   UNL A   1      43.188  24.849  36.455  1.00  0.00    -0.237 OA
ATOM     59  O   UNL A   1      42.204  26.394  38.110  1.00  0.00    -0.744 OA
ENDBRANCH  52  56
ENDBRANCH  25  49
BRANCH  37  60
ATOM     60  C   UNL A   1      44.279  30.570  27.922  1.00  0.00     0.023 A 
ATOM     61  C   UNL A   1      43.804  31.822  28.361  1.00  0.00     0.031 A 
ATOM     62  C   UNL A   1      45.316  30.555  26.976  1.00  0.00     0.131 A 
ATOM     63  C   UNL A   1      44.297  33.001  27.791  1.00  0.00     0.055 A 
ATOM     64  C   UNL A   1      45.855  31.736  26.462  1.00  0.00     0.041 A 
ATOM     65  F   UNL A   1      45.782  29.394  26.485  1.00  0.00    -0.206 F 
ATOM     66  C   UNL A   1      45.332  32.967  26.853  1.00  0.00     0.022 A 
BRANCH  63  67
ATOM     67  S   UNL A   1      43.543  34.608  28.169  1.00  0.00     0.124 S 
ATOM     68  O   UNL A   1      42.851  34.934  26.923  1.00  0.00    -0.237 OA
ATOM     69  O   UNL A   1      42.672  34.276  29.293  1.00  0.00    -0.237 OA
ATOM     70  O   UNL A   1      44.676  35.470  28.493  1.00  0.00    -0.744 OA
ENDBRANCH  63  67
ENDBRANCH  37  60
ENDBRANCH  11  12
ENDBRANCH   4   6
ENDBRANCH   1   2
BRANCH   1  71
ATOM     71  C   UNL A   1      34.063  32.130  28.031  1.00  0.00     0.023 C 
BRANCH  71  72
ATOM     72  C   UNL A   1      34.806  30.807  27.775  1.00  0.00     0.023 C 
BRANCH  72  73
ATOM     73  C   UNL A   1      34.074  29.805  26.883  1.00  0.00     0.116 C 
BRANCH  73  74
ATOM     74  N   UNL A   1      33.129  29.003  27.640  1.00  0.00    -0.352 N 
ATOM     75  C   UNL A   1      32.063  28.251  27.209  1.00  0.00     0.251 C 
ATOM     76  H   UNL A   1      33.274  28.997  28.613  1.00  0.00     0.163 HD
ATOM     77  O   UNL A   1      31.251  27.813  28.012  1.00  0.00    -0.269 OA
BRANCH  75  78
ATOM     78  C   UNL A   1      31.859  27.981  25.766  1.00  0.00     0.041 A 
ATOM     79  C   UNL A   1      30.999  28.760  24.991  1.00  0.00     0.016 A 
ATOM     80  C   UNL A   1      32.629  26.963  25.182  1.00  0.00     0.035 A 
ATOM     81  C   UNL A   1      30.840  28.491  23.625  1.00  0.00     0.031 A 
ATOM     82  C   UNL A   1      32.465  26.711  23.811  1.00  0.00     0.057 A 
ATOM     83  C   UNL A   1      31.576  27.450  23.022  1.00  0.00     0.083 A 
ATOM     84  S   UNL A   1      33.246  25.534  22.820  1.00  0.00    -0.102 S 
ATOM     85  N   UNL A   1      31.514  27.077  21.689  1.00  0.00    -0.225 NA
ATOM     86  C   UNL A   1      32.347  26.088  21.495  1.00  0.00     0.184 A 
ATOM     87  Cl  UNL A   1      32.549  25.349  19.958  1.00  0.00    -0.050 Cl
ENDBRANCH  75  78
ENDBRANCH  73  74
ENDBRANCH  72  73
ENDBRANCH  71  72
ENDBRANCH   1  71
TORSDOF 14
ENDMDL
