MODEL 1
REMARK VINA RESULT:     -12.7      0.000      0.000
REMARK SMILES CC1(C)S[C@@H]2[C@H]([NH2+]Cn3nnc4ccccc43)C(=O)N2[C@@H]1C(=O)NCCCCNC(=O)c1ccc(-c2c3nc(c(-c4cc(S(=O)(=O)[O-])ccc4F)c4ccc([nH]4)c(-c4cc(S(=O)(=O)[O-])ccc4F)c4nc(c(-c5cc(S(=O)(=O)[O-])ccc5F)c5ccc2[nH]5)C=C4)C=C3)cc1
REMARK SMILES IDX 26 1 25 2 24 3 22 4 23 5 21 7 1 8 2 9 3 10 4 11 5 12 20 13
REMARK SMILES IDX 6 14 18 15 19 16 7 17 8 20 9 21 10 22 17 23 11 24 12 25
REMARK SMILES IDX 16 26 13 27 15 28 14 29 27 30 28 31 29 32 30 33 31 35 32 36
REMARK SMILES IDX 33 37 94 38 34 39 93 40 35 41 36 42 37 43 87 44 38 45 92 46
REMARK SMILES IDX 86 47 88 48 39 49 91 50 85 51 84 52 40 54 72 55 52 56 71 57
REMARK SMILES IDX 53 58 56 59 70 60 89 61 54 62 55 63 69 65 90 66 57 67 41 68
REMARK SMILES IDX 42 69 50 70 43 71 49 72 51 73 48 74 44 75 45 76 46 77 47 78
REMARK SMILES IDX 73 79 74 80 82 81 75 82 81 83 83 84 80 85 76 86 77 87 78 88
REMARK SMILES IDX 79 89 58 90 59 91 67 92 60 93 66 94 68 95 65 96 61 97 62 98
REMARK SMILES IDX 63 99 64 100
REMARK H PARENT 24 6 7 18 7 19 29 34 88 53 56 64
REMARK Flexibility Score: inf
ROOT
ATOM      1  C   UNL A   1      31.514  29.652  26.930  1.00  0.00     0.023 C 
ENDROOT
BRANCH   1   2
ATOM      2  C   UNL A   1      32.242  28.354  27.267  1.00  0.00     0.116 C 
BRANCH   2   3
ATOM      3  N   UNL A   1      31.420  27.167  27.156  1.00  0.00    -0.354 N 
ATOM      4  C   UNL A   1      31.490  26.124  26.277  1.00  0.00     0.244 C 
ATOM      5  O   UNL A   1      30.922  25.076  26.610  1.00  0.00    -0.273 OA
ATOM      6  H   UNL A   1      30.695  27.101  27.819  1.00  0.00     0.163 HD
BRANCH   4   7
ATOM      7  C   UNL A   1      32.365  26.127  24.996  1.00  0.00     0.191 C 
ATOM      8  C   UNL A   1      30.284  27.326  23.933  1.00  0.00     0.026 C 
ATOM      9  C   UNL A   1      31.737  26.865  23.766  1.00  0.00     0.042 C 
ATOM     10  C   UNL A   1      32.587  28.063  23.317  1.00  0.00     0.026 C 
ATOM     11  S   UNL A   1      31.839  25.673  22.298  1.00  0.00    -0.121 SA
ATOM     12  C   UNL A   1      33.093  24.641  23.103  1.00  0.00     0.213 C 
ATOM     13  N   UNL A   1      32.713  24.824  24.491  1.00  0.00    -0.306 N 
ATOM     14  C   UNL A   1      33.124  23.104  23.413  1.00  0.00     0.307 C 
ATOM     15  C   UNL A   1      33.195  23.653  24.923  1.00  0.00     0.285 C 
ATOM     16  O   UNL A   1      33.447  23.266  26.037  1.00  0.00    -0.268 OA
BRANCH  14  17
ATOM     17  N   UNL A   1      31.971  22.205  23.137  1.00  0.00    -0.315 N 
ATOM     18  H   UNL A   1      31.438  22.608  22.366  1.00  0.00     0.348 HD
ATOM     19  H   UNL A   1      31.452  22.145  24.014  1.00  0.00     0.348 HD
BRANCH  17  20
ATOM     20  C   UNL A   1      32.303  20.844  22.783  1.00  0.00     0.415 C 
BRANCH  20  21
ATOM     21  N   UNL A   1      32.344  19.909  23.904  1.00  0.00    -0.194 N 
ATOM     22  N   UNL A   1      32.016  20.240  25.162  1.00  0.00    -0.061 NA
ATOM     23  C   UNL A   1      32.903  18.651  23.830  1.00  0.00     0.095 A 
ATOM     24  N   UNL A   1      32.352  19.213  25.939  1.00  0.00    -0.130 NA
ATOM     25  C   UNL A   1      32.910  18.237  25.154  1.00  0.00     0.113 A 
ATOM     26  C   UNL A   1      33.387  17.869  22.772  1.00  0.00     0.030 A 
ATOM     27  C   UNL A   1      33.431  16.973  25.464  1.00  0.00     0.032 A 
ATOM     28  C   UNL A   1      33.873  16.600  23.095  1.00  0.00     0.002 A 
ATOM     29  C   UNL A   1      33.897  16.159  24.418  1.00  0.00     0.002 A 
ENDBRANCH  20  21
ENDBRANCH  17  20
ENDBRANCH  14  17
ENDBRANCH   4   7
ENDBRANCH   2   3
ENDBRANCH   1   2
BRANCH   1  30
ATOM     30  C   UNL A   1      32.411  30.888  26.865  1.00  0.00     0.023 C 
BRANCH  30  31
ATOM     31  C   UNL A   1      33.891  30.632  27.166  1.00  0.00     0.116 C 
BRANCH  31  32
ATOM     32  N   UNL A   1      34.320  31.161  28.443  1.00  0.00    -0.352 N 
ATOM     33  C   UNL A   1      35.473  31.906  28.554  1.00  0.00     0.251 C 
ATOM     34  H   UNL A   1      33.778  30.984  29.245  1.00  0.00     0.163 HD
ATOM     35  O   UNL A   1      35.457  33.129  28.596  1.00  0.00    -0.269 OA
BRANCH  33  36
ATOM     36  C   UNL A   1      36.698  31.142  28.839  1.00  0.00     0.039 A 
ATOM     37  C   UNL A   1      37.785  31.754  29.459  1.00  0.00     0.014 A 
ATOM     38  C   UNL A   1      36.781  29.826  28.359  1.00  0.00     0.014 A 
ATOM     39  C   UNL A   1      38.988  31.091  29.506  1.00  0.00     0.010 A 
ATOM     40  C   UNL A   1      37.989  29.148  28.424  1.00  0.00     0.010 A 
ATOM     41  C   UNL A   1      39.090  29.805  28.963  1.00  0.00    -0.014 A 
BRANCH  41  42
ATOM     42  C   UNL A   1      40.362  29.143  29.177  1.00  0.00     0.031 A 
ATOM     43  C   UNL A   1      40.550  28.729  30.591  1.00  0.00     0.074 A 
ATOM     44  C   UNL A   1      41.276  28.920  28.223  1.00  0.00     0.049 A 
ATOM     45  N   UNL A   1      41.310  29.283  31.477  1.00  0.00    -0.248 NA
ATOM     46  C   UNL A   1      39.606  27.741  31.132  1.00  0.00     0.031 C 
ATOM     47  C   UNL A   1      41.130  28.993  26.771  1.00  0.00     0.029 A 
ATOM     48  N   UNL A   1      42.550  28.486  28.386  1.00  0.00    -0.354 N 
ATOM     49  C   UNL A   1      41.070  28.593  32.661  1.00  0.00     0.074 A 
ATOM     50  C   UNL A   1      39.884  27.806  32.432  1.00  0.00     0.031 C 
ATOM     51  C   UNL A   1      42.192  28.381  26.194  1.00  0.00     0.029 A 
ATOM     52  C   UNL A   1      43.148  28.016  27.232  1.00  0.00     0.049 A 
ATOM     53  H   UNL A   1      43.012  28.506  29.256  1.00  0.00     0.167 HD
ATOM     54  C   UNL A   1      41.982  28.563  33.673  1.00  0.00     0.034 A 
ATOM     55  C   UNL A   1      44.285  27.277  27.178  1.00  0.00     0.034 A 
ATOM     56  C   UNL A   1      42.979  29.587  33.510  1.00  0.00     0.049 A 
ATOM     57  C   UNL A   1      45.016  27.465  28.462  1.00  0.00     0.074 A 
ATOM     58  C   UNL A   1      42.949  30.967  33.509  1.00  0.00     0.029 A 
ATOM     59  N   UNL A   1      44.164  29.234  32.906  1.00  0.00    -0.354 N 
ATOM     60  N   UNL A   1      45.598  28.578  28.813  1.00  0.00    -0.248 NA
ATOM     61  C   UNL A   1      44.697  26.560  29.560  1.00  0.00     0.031 C 
ATOM     62  C   UNL A   1      43.871  31.357  32.496  1.00  0.00     0.029 A 
ATOM     63  C   UNL A   1      44.466  30.204  31.981  1.00  0.00     0.049 A 
ATOM     64  H   UNL A   1      44.698  28.430  33.100  1.00  0.00     0.167 HD
ATOM     65  C   UNL A   1      45.296  28.721  30.160  1.00  0.00     0.074 A 
ATOM     66  C   UNL A   1      44.827  27.404  30.588  1.00  0.00     0.031 C 
ATOM     67  C   UNL A   1      45.172  29.955  30.737  1.00  0.00     0.034 A 
BRANCH  54  68
ATOM     68  C   UNL A   1      42.137  27.392  34.611  1.00  0.00     0.023 A 
ATOM     69  C   UNL A   1      42.895  26.252  34.283  1.00  0.00     0.031 A 
ATOM     70  C   UNL A   1      41.710  27.476  35.950  1.00  0.00     0.131 A 
ATOM     71  C   UNL A   1      43.182  25.254  35.219  1.00  0.00     0.055 A 
ATOM     72  C   UNL A   1      42.056  26.513  36.908  1.00  0.00     0.041 A 
ATOM     73  F   UNL A   1      40.991  28.523  36.382  1.00  0.00    -0.206 F 
ATOM     74  C   UNL A   1      42.796  25.392  36.545  1.00  0.00     0.022 A 
BRANCH  71  75
ATOM     75  S   UNL A   1      44.079  23.763  34.708  1.00  0.00     0.124 S 
ATOM     76  O   UNL A   1      45.133  24.318  33.867  1.00  0.00    -0.237 OA
ATOM     77  O   UNL A   1      44.513  23.224  35.996  1.00  0.00    -0.237 OA
ATOM     78  O   UNL A   1      43.065  22.969  34.020  1.00  0.00    -0.744 OA
ENDBRANCH  71  75
ENDBRANCH  54  68
BRANCH  55  79
ATOM     79  C   UNL A   1      44.457  26.050  26.365  1.00  0.00     0.023 A 
ATOM     80  C   UNL A   1      43.608  24.946  26.578  1.00  0.00     0.031 A 
ATOM     81  C   UNL A   1      45.632  25.828  25.627  1.00  0.00     0.131 A 
ATOM     82  C   UNL A   1      43.967  23.672  26.125  1.00  0.00     0.055 A 
ATOM     83  C   UNL A   1      45.979  24.556  25.155  1.00  0.00     0.041 A 
ATOM     84  F   UNL A   1      46.504  26.826  25.418  1.00  0.00    -0.206 F 
ATOM     85  C   UNL A   1      45.151  23.466  25.418  1.00  0.00     0.022 A 
BRANCH  82  86
ATOM     86  S   UNL A   1      42.937  22.239  26.542  1.00  0.00     0.124 S 
ATOM     87  O   UNL A   1      42.810  22.358  27.992  1.00  0.00    -0.237 OA
ATOM     88  O   UNL A   1      41.725  22.516  25.779  1.00  0.00    -0.237 OA
ATOM     89  O   UNL A   1      43.730  21.101  26.084  1.00  0.00    -0.744 OA
ENDBRANCH  82  86
ENDBRANCH  55  79
BRANCH  67  90
ATOM     90  C   UNL A   1      45.567  31.179  29.932  1.00  0.00     0.023 A 
ATOM     91  C   UNL A   1      45.113  31.258  28.605  1.00  0.00     0.031 A 
ATOM     92  C   UNL A   1      46.519  32.134  30.344  1.00  0.00     0.131 A 
ATOM     93  C   UNL A   1      45.621  32.231  27.734  1.00  0.00     0.055 A 
ATOM     94  C   UNL A   1      46.969  33.150  29.494  1.00  0.00     0.041 A 
ATOM     95  F   UNL A   1      47.105  32.068  31.544  1.00  0.00    -0.206 F 
ATOM     96  C   UNL A   1      46.532  33.192  28.176  1.00  0.00     0.022 A 
BRANCH  93  97
ATOM     97  S   UNL A   1      45.229  32.169  25.968  1.00  0.00     0.124 S 
ATOM     98  O   UNL A   1      43.792  31.913  25.980  1.00  0.00    -0.237 OA
ATOM     99  O   UNL A   1      45.624  33.501  25.513  1.00  0.00    -0.237 OA
ATOM    100  O   UNL A   1      46.054  31.077  25.460  1.00  0.00    -0.744 OA
ENDBRANCH  93  97
ENDBRANCH  67  90
ENDBRANCH  41  42
ENDBRANCH  33  36
ENDBRANCH  31  32
ENDBRANCH  30  31
ENDBRANCH   1  30
TORSDOF 17
ENDMDL
MODEL 2
REMARK VINA RESULT:     -12.7      3.411      9.417
REMARK SMILES CC1(C)S[C@@H]2[C@H]([NH2+]Cn3nnc4ccccc43)C(=O)N2[C@@H]1C(=O)NCCCCNC(=O)c1ccc(-c2c3nc(c(-c4cc(S(=O)(=O)[O-])ccc4F)c4ccc([nH]4)c(-c4cc(S(=O)(=O)[O-])ccc4F)c4nc(c(-c5cc(S(=O)(=O)[O-])ccc5F)c5ccc2[nH]5)C=C4)C=C3)cc1
REMARK SMILES IDX 26 1 25 2 24 3 22 4 23 5 21 7 1 8 2 9 3 10 4 11 5 12 20 13
REMARK SMILES IDX 6 14 18 15 19 16 7 17 8 20 9 21 10 22 17 23 11 24 12 25
REMARK SMILES IDX 16 26 13 27 15 28 14 29 27 30 28 31 29 32 30 33 31 35 32 36
REMARK SMILES IDX 33 37 94 38 34 39 93 40 35 41 36 42 37 43 87 44 38 45 92 46
REMARK SMILES IDX 86 47 88 48 39 49 91 50 85 51 84 52 40 54 72 55 52 56 71 57
REMARK SMILES IDX 53 58 56 59 70 60 89 61 54 62 55 63 69 65 90 66 57 67 41 68
REMARK SMILES IDX 42 69 50 70 43 71 49 72 51 73 48 74 44 75 45 76 46 77 47 78
REMARK SMILES IDX 73 79 74 80 82 81 75 82 81 83 83 84 80 85 76 86 77 87 78 88
REMARK SMILES IDX 79 89 58 90 59 91 67 92 60 93 66 94 68 95 65 96 61 97 62 98
REMARK SMILES IDX 63 99 64 100
REMARK H PARENT 24 6 7 18 7 19 29 34 88 53 56 64
REMARK Flexibility Score: inf
ROOT
ATOM      1  C   UNL A   1      36.474  20.991  25.353  1.00  0.00     0.023 C 
ENDROOT
BRANCH   1   2
ATOM      2  C   UNL A   1      35.543  21.836  26.217  1.00  0.00     0.116 C 
BRANCH   2   3
ATOM      3  N   UNL A   1      35.468  23.228  25.823  1.00  0.00    -0.354 N 
ATOM      4  C   UNL A   1      34.393  23.979  25.440  1.00  0.00     0.244 C 
ATOM      5  O   UNL A   1      34.521  25.208  25.508  1.00  0.00    -0.273 OA
ATOM      6  H   UNL A   1      36.327  23.709  25.832  1.00  0.00     0.163 HD
BRANCH   4   7
ATOM      7  C   UNL A   1      33.001  23.388  25.098  1.00  0.00     0.191 C 
ATOM      8  C   UNL A   1      33.968  23.291  22.658  1.00  0.00     0.026 C 
ATOM      9  C   UNL A   1      32.820  22.933  23.610  1.00  0.00     0.042 C 
ATOM     10  C   UNL A   1      32.537  21.428  23.498  1.00  0.00     0.026 C 
ATOM     11  S   UNL A   1      31.224  23.734  22.979  1.00  0.00    -0.121 SA
ATOM     12  C   UNL A   1      30.623  24.076  24.654  1.00  0.00     0.213 C 
ATOM     13  N   UNL A   1      31.887  24.270  25.338  1.00  0.00    -0.306 N 
ATOM     14  C   UNL A   1      30.159  25.411  25.334  1.00  0.00     0.307 C 
ATOM     15  C   UNL A   1      31.407  25.077  26.291  1.00  0.00     0.285 C 
ATOM     16  O   UNL A   1      31.873  25.408  27.353  1.00  0.00    -0.268 OA
BRANCH  14  17
ATOM     17  N   UNL A   1      30.240  26.730  24.652  1.00  0.00    -0.315 N 
ATOM     18  H   UNL A   1      31.114  26.757  24.126  1.00  0.00     0.348 HD
ATOM     19  H   UNL A   1      30.178  27.429  25.393  1.00  0.00     0.348 HD
BRANCH  17  20
ATOM     20  C   UNL A   1      29.163  27.034  23.736  1.00  0.00     0.415 C 
BRANCH  20  21
ATOM     21  N   UNL A   1      29.409  28.172  22.854  1.00  0.00    -0.194 N 
ATOM     22  N   UNL A   1      30.412  28.222  21.966  1.00  0.00    -0.061 NA
ATOM     23  C   UNL A   1      28.762  29.383  22.970  1.00  0.00     0.095 A 
ATOM     24  N   UNL A   1      30.449  29.462  21.483  1.00  0.00    -0.130 NA
ATOM     25  C   UNL A   1      29.462  30.194  22.091  1.00  0.00     0.113 A 
ATOM     26  C   UNL A   1      27.674  29.828  23.736  1.00  0.00     0.030 A 
ATOM     27  C   UNL A   1      29.075  31.535  21.955  1.00  0.00     0.032 A 
ATOM     28  C   UNL A   1      27.282  31.157  23.563  1.00  0.00     0.002 A 
ATOM     29  C   UNL A   1      27.972  31.999  22.689  1.00  0.00     0.002 A 
ENDBRANCH  20  21
ENDBRANCH  17  20
ENDBRANCH  14  17
ENDBRANCH   4   7
ENDBRANCH   2   3
ENDBRANCH   1   2
BRANCH   1  30
ATOM     30  C   UNL A   1      37.793  21.670  24.982  1.00  0.00     0.023 C 
BRANCH  30  31
ATOM     31  C   UNL A   1      38.831  21.728  26.107  1.00  0.00     0.116 C 
BRANCH  31  32
ATOM     32  N   UNL A   1      40.101  22.283  25.691  1.00  0.00    -0.352 N 
ATOM     33  C   UNL A   1      41.073  22.606  26.613  1.00  0.00     0.251 C 
ATOM     34  H   UNL A   1      40.273  22.432  24.734  1.00  0.00     0.163 HD
ATOM     35  O   UNL A   1      42.018  21.866  26.849  1.00  0.00    -0.269 OA
BRANCH  33  36
ATOM     36  C   UNL A   1      41.024  23.982  27.132  1.00  0.00     0.039 A 
ATOM     37  C   UNL A   1      41.906  24.394  28.128  1.00  0.00     0.014 A 
ATOM     38  C   UNL A   1      39.990  24.819  26.684  1.00  0.00     0.014 A 
ATOM     39  C   UNL A   1      41.693  25.600  28.752  1.00  0.00     0.010 A 
ATOM     40  C   UNL A   1      39.786  26.045  27.299  1.00  0.00     0.010 A 
ATOM     41  C   UNL A   1      40.619  26.404  28.354  1.00  0.00    -0.014 A 
BRANCH  41  42
ATOM     42  C   UNL A   1      40.557  27.709  28.983  1.00  0.00     0.031 A 
ATOM     43  C   UNL A   1      41.544  28.658  28.409  1.00  0.00     0.074 A 
ATOM     44  C   UNL A   1      39.713  28.040  29.971  1.00  0.00     0.049 A 
ATOM     45  N   UNL A   1      42.651  29.058  28.942  1.00  0.00    -0.248 NA
ATOM     46  C   UNL A   1      41.393  29.006  26.989  1.00  0.00     0.031 C 
ATOM     47  C   UNL A   1      38.516  27.342  30.433  1.00  0.00     0.029 A 
ATOM     48  N   UNL A   1      39.730  29.165  30.728  1.00  0.00    -0.354 N 
ATOM     49  C   UNL A   1      43.261  29.861  27.984  1.00  0.00     0.074 A 
ATOM     50  C   UNL A   1      42.547  29.625  26.753  1.00  0.00     0.031 C 
ATOM     51  C   UNL A   1      37.797  28.183  31.216  1.00  0.00     0.029 A 
ATOM     52  C   UNL A   1      38.560  29.407  31.421  1.00  0.00     0.049 A 
ATOM     53  H   UNL A   1      40.514  29.760  30.779  1.00  0.00     0.167 HD
ATOM     54  C   UNL A   1      44.176  30.813  28.319  1.00  0.00     0.034 A 
ATOM     55  C   UNL A   1      38.220  30.583  32.008  1.00  0.00     0.034 A 
ATOM     56  C   UNL A   1      44.669  30.617  29.656  1.00  0.00     0.049 A 
ATOM     57  C   UNL A   1      39.464  31.378  32.198  1.00  0.00     0.074 A 
ATOM     58  C   UNL A   1      45.400  29.622  30.275  1.00  0.00     0.029 A 
ATOM     59  N   UNL A   1      44.075  31.335  30.667  1.00  0.00    -0.354 N 
ATOM     60  N   UNL A   1      40.402  31.072  33.050  1.00  0.00    -0.248 NA
ATOM     61  C   UNL A   1      39.881  32.252  31.107  1.00  0.00     0.031 C 
ATOM     62  C   UNL A   1      44.834  29.502  31.576  1.00  0.00     0.029 A 
ATOM     63  C   UNL A   1      43.838  30.472  31.709  1.00  0.00     0.049 A 
ATOM     64  H   UNL A   1      43.858  32.296  30.647  1.00  0.00     0.167 HD
ATOM     65  C   UNL A   1      41.587  31.310  32.368  1.00  0.00     0.074 A 
ATOM     66  C   UNL A   1      41.207  32.129  31.218  1.00  0.00     0.031 C 
ATOM     67  C   UNL A   1      42.719  30.587  32.626  1.00  0.00     0.034 A 
BRANCH  54  68
ATOM     68  C   UNL A   1      44.358  32.094  27.544  1.00  0.00     0.023 A 
ATOM     69  C   UNL A   1      43.727  33.298  27.912  1.00  0.00     0.031 A 
ATOM     70  C   UNL A   1      45.339  32.201  26.541  1.00  0.00     0.131 A 
ATOM     71  C   UNL A   1      44.037  34.517  27.301  1.00  0.00     0.055 A 
ATOM     72  C   UNL A   1      45.704  33.432  25.977  1.00  0.00     0.041 A 
ATOM     73  F   UNL A   1      46.015  31.122  26.117  1.00  0.00    -0.206 F 
ATOM     74  C   UNL A   1      45.050  34.600  26.356  1.00  0.00     0.022 A 
BRANCH  71  75
ATOM     75  S   UNL A   1      43.119  36.016  27.751  1.00  0.00     0.124 S 
ATOM     76  O   UNL A   1      42.948  36.663  26.456  1.00  0.00    -0.237 OA
ATOM     77  O   UNL A   1      41.909  35.453  28.345  1.00  0.00    -0.237 OA
ATOM     78  O   UNL A   1      44.008  36.694  28.690  1.00  0.00    -0.744 OA
ENDBRANCH  71  75
ENDBRANCH  54  68
BRANCH  55  79
ATOM     79  C   UNL A   1      36.897  31.239  31.879  1.00  0.00     0.023 A 
ATOM     80  C   UNL A   1      36.351  31.467  30.601  1.00  0.00     0.031 A 
ATOM     81  C   UNL A   1      36.324  31.933  32.958  1.00  0.00     0.131 A 
ATOM     82  C   UNL A   1      35.324  32.399  30.419  1.00  0.00     0.055 A 
ATOM     83  C   UNL A   1      35.281  32.850  32.777  1.00  0.00     0.041 A 
ATOM     84  F   UNL A   1      36.819  31.792  34.198  1.00  0.00    -0.206 F 
ATOM     85  C   UNL A   1      34.787  33.099  31.499  1.00  0.00     0.022 A 
BRANCH  82  86
ATOM     86  S   UNL A   1      34.740  32.789  28.747  1.00  0.00     0.124 S 
ATOM     87  O   UNL A   1      34.017  31.574  28.379  1.00  0.00    -0.237 OA
ATOM     88  O   UNL A   1      33.912  33.965  28.991  1.00  0.00    -0.237 OA
ATOM     89  O   UNL A   1      35.972  33.023  27.998  1.00  0.00    -0.744 OA
ENDBRANCH  82  86
ENDBRANCH  55  79
BRANCH  67  90
ATOM     90  C   UNL A   1      42.726  29.645  33.816  1.00  0.00     0.023 A 
ATOM     91  C   UNL A   1      43.420  30.057  34.966  1.00  0.00     0.031 A 
ATOM     92  C   UNL A   1      42.269  28.311  33.784  1.00  0.00     0.131 A 
ATOM     93  C   UNL A   1      43.666  29.156  36.011  1.00  0.00     0.055 A 
ATOM     94  C   UNL A   1      42.452  27.436  34.859  1.00  0.00     0.041 A 
ATOM     95  F   UNL A   1      41.711  27.788  32.687  1.00  0.00    -0.206 F 
ATOM     96  C   UNL A   1      43.168  27.852  35.974  1.00  0.00     0.022 A 
BRANCH  93  97
ATOM     97  S   UNL A   1      44.774  29.613  37.368  1.00  0.00     0.124 S 
ATOM     98  O   UNL A   1      44.195  30.871  37.829  1.00  0.00    -0.237 OA
ATOM     99  O   UNL A   1      44.629  28.483  38.284  1.00  0.00    -0.237 OA
ATOM    100  O   UNL A   1      46.084  29.723  36.732  1.00  0.00    -0.744 OA
ENDBRANCH  93  97
ENDBRANCH  67  90
ENDBRANCH  41  42
ENDBRANCH  33  36
ENDBRANCH  31  32
ENDBRANCH  30  31
ENDBRANCH   1  30
TORSDOF 17
ENDMDL
MODEL 3
REMARK VINA RESULT:     -12.7      1.709      2.243
REMARK SMILES CC1(C)S[C@@H]2[C@H]([NH2+]Cn3nnc4ccccc43)C(=O)N2[C@@H]1C(=O)NCCCCNC(=O)c1ccc(-c2c3nc(c(-c4cc(S(=O)(=O)[O-])ccc4F)c4ccc([nH]4)c(-c4cc(S(=O)(=O)[O-])ccc4F)c4nc(c(-c5cc(S(=O)(=O)[O-])ccc5F)c5ccc2[nH]5)C=C4)C=C3)cc1
REMARK SMILES IDX 26 1 25 2 24 3 22 4 23 5 21 7 1 8 2 9 3 10 4 11 5 12 20 13
REMARK SMILES IDX 6 14 18 15 19 16 7 17 8 20 9 21 10 22 17 23 11 24 12 25
REMARK SMILES IDX 16 26 13 27 15 28 14 29 27 30 28 31 29 32 30 33 31 35 32 36
REMARK SMILES IDX 33 37 94 38 34 39 93 40 35 41 36 42 37 43 87 44 38 45 92 46
REMARK SMILES IDX 86 47 88 48 39 49 91 50 85 51 84 52 40 54 72 55 52 56 71 57
REMARK SMILES IDX 53 58 56 59 70 60 89 61 54 62 55 63 69 65 90 66 57 67 41 68
REMARK SMILES IDX 42 69 50 70 43 71 49 72 51 73 48 74 44 75 45 76 46 77 47 78
REMARK SMILES IDX 73 79 74 80 82 81 75 82 81 83 83 84 80 85 76 86 77 87 78 88
REMARK SMILES IDX 79 89 58 90 59 91 67 92 60 93 66 94 68 95 65 96 61 97 62 98
REMARK SMILES IDX 63 99 64 100
REMARK H PARENT 24 6 7 18 7 19 29 34 88 53 56 64
REMARK Flexibility Score: inf
ROOT
ATOM      1  C   UNL A   1      34.018  28.274  26.937  1.00  0.00     0.023 C 
ENDROOT
BRANCH   1   2
ATOM      2  C   UNL A   1      33.632  27.507  25.675  1.00  0.00     0.116 C 
BRANCH   2   3
ATOM      3  N   UNL A   1      33.974  28.185  24.442  1.00  0.00    -0.354 N 
ATOM      4  C   UNL A   1      33.288  28.271  23.263  1.00  0.00     0.244 C 
ATOM      5  O   UNL A   1      33.607  29.191  22.500  1.00  0.00    -0.273 OA
ATOM      6  H   UNL A   1      34.837  28.658  24.454  1.00  0.00     0.163 HD
BRANCH   4   7
ATOM      7  C   UNL A   1      32.050  27.404  22.916  1.00  0.00     0.191 C 
ATOM      8  C   UNL A   1      30.817  29.027  24.571  1.00  0.00     0.026 C 
ATOM      9  C   UNL A   1      30.704  27.883  23.556  1.00  0.00     0.042 C 
ATOM     10  C   UNL A   1      29.665  28.268  22.492  1.00  0.00     0.026 C 
ATOM     11  S   UNL A   1      29.931  26.378  24.407  1.00  0.00    -0.121 SA
ATOM     12  C   UNL A   1      30.960  25.209  23.479  1.00  0.00     0.213 C 
ATOM     13  N   UNL A   1      32.150  26.017  23.293  1.00  0.00    -0.306 N 
ATOM     14  C   UNL A   1      31.924  24.071  23.962  1.00  0.00     0.307 C 
ATOM     15  C   UNL A   1      33.003  24.991  23.203  1.00  0.00     0.285 C 
ATOM     16  O   UNL A   1      34.132  24.937  22.784  1.00  0.00    -0.268 OA
BRANCH  14  17
ATOM     17  N   UNL A   1      32.223  23.827  25.399  1.00  0.00    -0.315 N 
ATOM     18  H   UNL A   1      31.471  24.242  25.949  1.00  0.00     0.348 HD
ATOM     19  H   UNL A   1      33.139  24.245  25.565  1.00  0.00     0.348 HD
BRANCH  17  20
ATOM     20  C   UNL A   1      32.347  22.442  25.791  1.00  0.00     0.415 C 
BRANCH  20  21
ATOM     21  N   UNL A   1      33.575  21.784  25.351  1.00  0.00    -0.194 N 
ATOM     22  N   UNL A   1      33.629  20.511  24.933  1.00  0.00    -0.061 NA
ATOM     23  C   UNL A   1      34.830  22.333  25.498  1.00  0.00     0.095 A 
ATOM     24  N   UNL A   1      34.915  20.195  24.799  1.00  0.00    -0.130 NA
ATOM     25  C   UNL A   1      35.669  21.285  25.152  1.00  0.00     0.113 A 
ATOM     26  C   UNL A   1      35.293  23.598  25.889  1.00  0.00     0.030 A 
ATOM     27  C   UNL A   1      37.056  21.485  25.197  1.00  0.00     0.032 A 
ATOM     28  C   UNL A   1      36.676  23.790  25.897  1.00  0.00     0.002 A 
ATOM     29  C   UNL A   1      37.545  22.751  25.559  1.00  0.00     0.002 A 
ENDBRANCH  20  21
ENDBRANCH  17  20
ENDBRANCH  14  17
ENDBRANCH   4   7
ENDBRANCH   2   3
ENDBRANCH   1   2
BRANCH   1  30
ATOM     30  C   UNL A   1      33.132  29.479  27.248  1.00  0.00     0.023 C 
BRANCH  30  31
ATOM     31  C   UNL A   1      33.813  30.842  27.093  1.00  0.00     0.116 C 
BRANCH  31  32
ATOM     32  N   UNL A   1      34.295  31.391  28.342  1.00  0.00    -0.352 N 
ATOM     33  C   UNL A   1      35.476  32.099  28.400  1.00  0.00     0.251 C 
ATOM     34  H   UNL A   1      33.771  31.256  29.164  1.00  0.00     0.163 HD
ATOM     35  O   UNL A   1      35.502  33.322  28.407  1.00  0.00    -0.269 OA
BRANCH  33  36
ATOM     36  C   UNL A   1      36.682  31.301  28.674  1.00  0.00     0.039 A 
ATOM     37  C   UNL A   1      37.724  31.833  29.430  1.00  0.00     0.014 A 
ATOM     38  C   UNL A   1      36.800  30.050  28.051  1.00  0.00     0.014 A 
ATOM     39  C   UNL A   1      38.923  31.163  29.479  1.00  0.00     0.010 A 
ATOM     40  C   UNL A   1      38.003  29.362  28.116  1.00  0.00     0.010 A 
ATOM     41  C   UNL A   1      39.064  29.948  28.798  1.00  0.00    -0.014 A 
BRANCH  41  42
ATOM     42  C   UNL A   1      40.322  29.259  29.017  1.00  0.00     0.031 A 
ATOM     43  C   UNL A   1      40.519  28.886  30.441  1.00  0.00     0.074 A 
ATOM     44  C   UNL A   1      41.216  28.981  28.058  1.00  0.00     0.049 A 
ATOM     45  N   UNL A   1      41.305  29.448  31.298  1.00  0.00    -0.248 NA
ATOM     46  C   UNL A   1      39.557  27.942  31.026  1.00  0.00     0.031 C 
ATOM     47  C   UNL A   1      41.051  29.011  26.607  1.00  0.00     0.029 A 
ATOM     48  N   UNL A   1      42.480  28.519  28.219  1.00  0.00    -0.354 N 
ATOM     49  C   UNL A   1      41.065  28.804  32.507  1.00  0.00     0.074 A 
ATOM     50  C   UNL A   1      39.855  28.042  32.320  1.00  0.00     0.031 C 
ATOM     51  C   UNL A   1      42.089  28.353  26.037  1.00  0.00     0.029 A 
ATOM     52  C   UNL A   1      43.049  27.996  27.073  1.00  0.00     0.049 A 
ATOM     53  H   UNL A   1      42.955  28.555  29.081  1.00  0.00     0.167 HD
ATOM     54  C   UNL A   1      41.990  28.782  33.508  1.00  0.00     0.034 A 
ATOM     55  C   UNL A   1      44.166  27.226  27.028  1.00  0.00     0.034 A 
ATOM     56  C   UNL A   1      43.011  29.773  33.297  1.00  0.00     0.049 A 
ATOM     57  C   UNL A   1      44.920  27.436  28.295  1.00  0.00     0.074 A 
ATOM     58  C   UNL A   1      43.017  31.153  33.252  1.00  0.00     0.029 A 
ATOM     59  N   UNL A   1      44.177  29.369  32.689  1.00  0.00    -0.354 N 
ATOM     60  N   UNL A   1      45.536  28.543  28.601  1.00  0.00    -0.248 NA
ATOM     61  C   UNL A   1      44.592  26.576  29.426  1.00  0.00     0.031 C 
ATOM     62  C   UNL A   1      43.934  31.485  32.215  1.00  0.00     0.029 A 
ATOM     63  C   UNL A   1      44.492  30.300  31.729  1.00  0.00     0.049 A 
ATOM     64  H   UNL A   1      44.693  28.558  32.903  1.00  0.00     0.167 HD
ATOM     65  C   UNL A   1      45.257  28.738  29.947  1.00  0.00     0.074 A 
ATOM     66  C   UNL A   1      44.759  27.448  30.424  1.00  0.00     0.031 C 
ATOM     67  C   UNL A   1      45.173  29.993  30.485  1.00  0.00     0.034 A 
BRANCH  54  68
ATOM     68  C   UNL A   1      42.128  27.638  34.481  1.00  0.00     0.023 A 
ATOM     69  C   UNL A   1      42.879  26.483  34.193  1.00  0.00     0.031 A 
ATOM     70  C   UNL A   1      41.690  27.765  35.813  1.00  0.00     0.131 A 
ATOM     71  C   UNL A   1      43.150  25.510  35.161  1.00  0.00     0.055 A 
ATOM     72  C   UNL A   1      42.020  26.829  36.803  1.00  0.00     0.041 A 
ATOM     73  F   UNL A   1      40.976  28.830  36.208  1.00  0.00    -0.206 F 
ATOM     74  C   UNL A   1      42.754  25.691  36.479  1.00  0.00     0.022 A 
BRANCH  71  75
ATOM     75  S   UNL A   1      44.039  23.998  34.702  1.00  0.00     0.124 S 
ATOM     76  O   UNL A   1      42.951  23.036  34.575  1.00  0.00    -0.237 OA
ATOM     77  O   UNL A   1      44.681  24.400  33.452  1.00  0.00    -0.237 OA
ATOM     78  O   UNL A   1      44.953  23.783  35.821  1.00  0.00    -0.744 OA
ENDBRANCH  71  75
ENDBRANCH  54  68
BRANCH  55  79
ATOM     79  C   UNL A   1      44.294  25.969  26.253  1.00  0.00     0.023 A 
ATOM     80  C   UNL A   1      43.359  24.933  26.443  1.00  0.00     0.031 A 
ATOM     81  C   UNL A   1      45.488  25.646  25.587  1.00  0.00     0.131 A 
ATOM     82  C   UNL A   1      43.650  23.625  26.039  1.00  0.00     0.055 A 
ATOM     83  C   UNL A   1      45.769  24.342  25.163  1.00  0.00     0.041 A 
ATOM     84  F   UNL A   1      46.438  26.576  25.405  1.00  0.00    -0.206 F 
ATOM     85  C   UNL A   1      44.853  23.319  25.404  1.00  0.00     0.022 A 
BRANCH  82  86
ATOM     86  S   UNL A   1      42.500  22.279  26.429  1.00  0.00     0.124 S 
ATOM     87  O   UNL A   1      42.834  21.978  27.819  1.00  0.00    -0.237 OA
ATOM     88  O   UNL A   1      41.208  22.924  26.218  1.00  0.00    -0.237 OA
ATOM     89  O   UNL A   1      42.854  21.236  25.471  1.00  0.00    -0.744 OA
ENDBRANCH  82  86
ENDBRANCH  55  79
BRANCH  67  90
ATOM     90  C   UNL A   1      45.588  31.179  29.636  1.00  0.00     0.023 A 
ATOM     91  C   UNL A   1      44.759  31.528  28.557  1.00  0.00     0.031 A 
ATOM     92  C   UNL A   1      46.840  31.824  29.718  1.00  0.00     0.131 A 
ATOM     93  C   UNL A   1      45.188  32.454  27.597  1.00  0.00     0.055 A 
ATOM     94  C   UNL A   1      47.235  32.801  28.800  1.00  0.00     0.041 A 
ATOM     95  F   UNL A   1      47.750  31.472  30.632  1.00  0.00    -0.206 F 
ATOM     96  C   UNL A   1      46.415  33.110  27.723  1.00  0.00     0.022 A 
BRANCH  93  97
ATOM     97  S   UNL A   1      44.232  32.707  26.081  1.00  0.00     0.124 S 
ATOM     98  O   UNL A   1      43.443  33.891  26.408  1.00  0.00    -0.237 OA
ATOM     99  O   UNL A   1      45.278  32.908  25.080  1.00  0.00    -0.237 OA
ATOM    100  O   UNL A   1      43.470  31.470  25.933  1.00  0.00    -0.744 OA
ENDBRANCH  93  97
ENDBRANCH  67  90
ENDBRANCH  41  42
ENDBRANCH  33  36
ENDBRANCH  31  32
ENDBRANCH  30  31
ENDBRANCH   1  30
TORSDOF 17
ENDMDL
