MODEL 1
REMARK VINA RESULT:     -13.5      0.000      0.000
REMARK SMILES O=C(Cn1nc(-c2ccc(Br)cc2)ccc1=O)N[C@H](C(=O)NCCCCNC(=O)c1ccc(-c2c3nc(c(-c4cc(S(=O)(=O)[O-])ccc4F)c4ccc([nH]4)c(-c4cc(S(=O)(=O)[O-])ccc4F)c4nc(c(-c5cc(S(=O)(=O)[O-])ccc5F)c5ccc2[nH]5)C=C4)C=C3)cc1)c1ccccc1
REMARK SMILES IDX 24 1 23 2 22 3 20 4 21 5 19 7 18 8 1 9 2 10 3 12 4 13 5 14
REMARK SMILES IDX 16 15 6 16 15 17 17 18 14 19 7 20 8 21 13 22 9 23 12 24
REMARK SMILES IDX 10 25 11 26 93 27 94 28 98 29 95 30 97 31 96 32 25 33 26 34
REMARK SMILES IDX 27 35 28 36 29 38 30 39 31 40 92 41 32 42 91 43 33 44 34 45
REMARK SMILES IDX 35 46 85 47 36 48 90 49 84 50 86 51 37 52 89 53 83 54 82 55
REMARK SMILES IDX 38 57 70 58 50 59 69 60 51 61 54 62 68 63 87 64 52 65 53 66
REMARK SMILES IDX 67 68 88 69 55 70 39 71 40 72 48 73 41 74 47 75 49 76 46 77
REMARK SMILES IDX 42 78 43 79 44 80 45 81 71 82 72 83 80 84 73 85 79 86 81 87
REMARK SMILES IDX 78 88 74 89 75 90 76 91 77 92 56 93 57 94 65 95 58 96 64 97
REMARK SMILES IDX 66 98 63 99 59 100 60 101 61 102 62 103
REMARK H PARENT 22 6 18 11 27 37 86 56 54 67
REMARK Flexibility Score: inf
ROOT
ATOM      1  C   UNL A   1      35.169  23.321  23.439  1.00  0.00     0.023 C 
ENDROOT
BRANCH   1   2
ATOM      2  C   UNL A   1      34.748  24.301  24.491  1.00  0.00     0.116 C 
BRANCH   2   3
ATOM      3  N   UNL A   1      34.896  23.709  25.797  1.00  0.00    -0.354 N 
ATOM      4  C   UNL A   1      33.944  23.134  26.598  1.00  0.00     0.247 C 
ATOM      5  O   UNL A   1      34.348  22.543  27.608  1.00  0.00    -0.272 OA
ATOM      6  H   UNL A   1      35.808  23.720  26.166  1.00  0.00     0.163 HD
BRANCH   4   7
ATOM      7  C   UNL A   1      32.435  23.054  26.157  1.00  0.00     0.202 C 
BRANCH   7   8
ATOM      8  N   UNL A   1      31.853  24.360  25.743  1.00  0.00    -0.339 N 
ATOM      9  O   UNL A   1      29.844  24.161  26.810  1.00  0.00    -0.273 OA
ATOM     10  C   UNL A   1      30.570  24.784  26.039  1.00  0.00     0.242 C 
ATOM     11  H   UNL A   1      32.424  24.967  25.218  1.00  0.00     0.164 HD
BRANCH  10  12
ATOM     12  C   UNL A   1      30.078  26.073  25.310  1.00  0.00     0.248 C 
BRANCH  12  13
ATOM     13  N   UNL A   1      30.964  27.212  24.985  1.00  0.00    -0.220 N 
ATOM     14  N   UNL A   1      31.378  28.047  26.004  1.00  0.00    -0.169 NA
ATOM     15  C   UNL A   1      31.473  27.326  23.690  1.00  0.00     0.267 A 
ATOM     16  C   UNL A   1      32.110  29.084  25.696  1.00  0.00     0.091 A 
ATOM     17  C   UNL A   1      32.325  28.512  23.415  1.00  0.00     0.075 A 
ATOM     18  O   UNL A   1      31.278  26.520  22.784  1.00  0.00    -0.268 OA
ATOM     19  C   UNL A   1      32.622  29.401  24.364  1.00  0.00     0.036 A 
BRANCH  16  20
ATOM     20  C   UNL A   1      32.389  30.075  26.772  1.00  0.00     0.002 A 
ATOM     21  C   UNL A   1      31.363  31.550  26.622  1.00  0.00     0.011 A 
ATOM     22  C   UNL A   1      34.084  30.193  27.442  1.00  0.00     0.011 A 
ATOM     23  C   UNL A   1      32.018  33.161  27.107  1.00  0.00     0.016 A 
ATOM     24  C   UNL A   1      34.757  31.860  27.843  1.00  0.00     0.016 A 
ATOM     25  C   UNL A   1      33.676  33.311  27.775  1.00  0.00     0.018 A 
ATOM     26  Br  UNL A   1      34.348  35.030  28.170  1.00  0.00    -0.051 Br
ENDBRANCH  16  20
ENDBRANCH  12  13
ENDBRANCH  10  12
ENDBRANCH   7   8
BRANCH   7  27
ATOM     27  C   UNL A   1      32.251  21.978  25.053  1.00  0.00    -0.016 A 
ATOM     28  C   UNL A   1      31.856  22.322  23.749  1.00  0.00     0.006 A 
ATOM     29  C   UNL A   1      32.570  20.622  25.291  1.00  0.00     0.006 A 
ATOM     30  C   UNL A   1      31.962  21.402  22.700  1.00  0.00     0.000 A 
ATOM     31  C   UNL A   1      32.693  19.709  24.239  1.00  0.00     0.000 A 
ATOM     32  C   UNL A   1      32.420  20.109  22.938  1.00  0.00     0.000 A 
ENDBRANCH   7  27
ENDBRANCH   4   7
ENDBRANCH   2   3
ENDBRANCH   1   2
BRANCH   1  33
ATOM     33  C   UNL A   1      36.622  22.951  23.523  1.00  0.00     0.023 C 
BRANCH  33  34
ATOM     34  C   UNL A   1      36.859  21.374  24.288  1.00  0.00     0.116 C 
BRANCH  34  35
ATOM     35  N   UNL A   1      38.496  20.678  25.384  1.00  0.00    -0.352 N 
ATOM     36  C   UNL A   1      39.647  20.854  26.283  1.00  0.00     0.251 C 
ATOM     37  H   UNL A   1      38.498  19.711  25.199  1.00  0.00     0.163 HD
ATOM     38  O   UNL A   1      40.315  19.829  26.472  1.00  0.00    -0.269 OA
BRANCH  36  39
ATOM     39  C   UNL A   1      40.161  22.107  26.938  1.00  0.00     0.039 A 
ATOM     40  C   UNL A   1      39.656  23.344  26.586  1.00  0.00     0.014 A 
ATOM     41  C   UNL A   1      41.170  22.083  27.908  1.00  0.00     0.014 A 
ATOM     42  C   UNL A   1      40.452  24.467  26.747  1.00  0.00     0.010 A 
ATOM     43  C   UNL A   1      41.772  23.289  28.340  1.00  0.00     0.010 A 
ATOM     44  C   UNL A   1      41.478  24.500  27.694  1.00  0.00    -0.014 A 
BRANCH  44  45
ATOM     45  C   UNL A   1      42.134  25.825  27.971  1.00  0.00     0.031 A 
ATOM     46  C   UNL A   1      43.429  26.229  27.304  1.00  0.00     0.074 A 
ATOM     47  C   UNL A   1      41.480  26.731  28.740  1.00  0.00     0.049 A 
ATOM     48  N   UNL A   1      44.102  27.346  27.427  1.00  0.00    -0.248 NA
ATOM     49  C   UNL A   1      44.053  25.265  26.383  1.00  0.00     0.031 C 
ATOM     50  C   UNL A   1      40.195  26.487  29.406  1.00  0.00     0.029 A 
ATOM     51  N   UNL A   1      41.739  28.049  29.040  1.00  0.00    -0.354 N 
ATOM     52  C   UNL A   1      45.242  27.205  26.638  1.00  0.00     0.074 A 
ATOM     53  C   UNL A   1      45.177  25.886  26.050  1.00  0.00     0.031 C 
ATOM     54  C   UNL A   1      39.713  27.635  29.890  1.00  0.00     0.029 A 
ATOM     55  C   UNL A   1      40.732  28.663  29.758  1.00  0.00     0.049 A 
ATOM     56  H   UNL A   1      42.566  28.510  28.771  1.00  0.00     0.167 HD
ATOM     57  C   UNL A   1      46.243  28.094  26.429  1.00  0.00     0.034 A 
ATOM     58  C   UNL A   1      40.636  29.895  30.301  1.00  0.00     0.034 A 
ATOM     59  C   UNL A   1      46.274  29.414  27.013  1.00  0.00     0.049 A 
ATOM     60  C   UNL A   1      41.791  30.836  30.106  1.00  0.00     0.074 A 
ATOM     61  C   UNL A   1      47.261  30.378  26.900  1.00  0.00     0.029 A 
ATOM     62  N   UNL A   1      45.273  29.964  27.805  1.00  0.00    -0.354 N 
ATOM     63  N   UNL A   1      42.881  30.658  29.399  1.00  0.00    -0.248 NA
ATOM     64  C   UNL A   1      41.717  32.135  30.783  1.00  0.00     0.031 C 
ATOM     65  C   UNL A   1      46.900  31.469  27.689  1.00  0.00     0.029 A 
ATOM     66  C   UNL A   1      45.633  31.241  28.206  1.00  0.00     0.049 A 
ATOM     67  H   UNL A   1      44.432  29.513  28.047  1.00  0.00     0.167 HD
ATOM     68  C   UNL A   1      43.613  31.833  29.523  1.00  0.00     0.074 A 
ATOM     69  C   UNL A   1      42.825  32.724  30.350  1.00  0.00     0.031 C 
ATOM     70  C   UNL A   1      44.828  32.136  29.005  1.00  0.00     0.034 A 
BRANCH  57  71
ATOM     71  C   UNL A   1      47.420  27.682  25.570  1.00  0.00     0.023 A 
ATOM     72  C   UNL A   1      47.413  27.987  24.193  1.00  0.00     0.031 A 
ATOM     73  C   UNL A   1      48.478  26.900  26.065  1.00  0.00     0.131 A 
ATOM     74  C   UNL A   1      48.416  27.481  23.356  1.00  0.00     0.055 A 
ATOM     75  C   UNL A   1      49.506  26.444  25.236  1.00  0.00     0.041 A 
ATOM     76  F   UNL A   1      48.537  26.580  27.368  1.00  0.00    -0.206 F 
ATOM     77  C   UNL A   1      49.470  26.723  23.872  1.00  0.00     0.022 A 
BRANCH  74  78
ATOM     78  S   UNL A   1      48.351  27.733  21.561  1.00  0.00     0.124 S 
ATOM     79  O   UNL A   1      48.578  26.379  21.060  1.00  0.00    -0.237 OA
ATOM     80  O   UNL A   1      46.998  28.249  21.375  1.00  0.00    -0.237 OA
ATOM     81  O   UNL A   1      49.431  28.679  21.301  1.00  0.00    -0.744 OA
ENDBRANCH  74  78
ENDBRANCH  57  71
BRANCH  58  82
ATOM     82  C   UNL A   1      39.413  30.275  31.080  1.00  0.00     0.023 A 
ATOM     83  C   UNL A   1      38.540  31.278  30.611  1.00  0.00     0.031 A 
ATOM     84  C   UNL A   1      39.146  29.722  32.344  1.00  0.00     0.131 A 
ATOM     85  C   UNL A   1      37.513  31.761  31.432  1.00  0.00     0.055 A 
ATOM     86  C   UNL A   1      38.061  30.140  33.120  1.00  0.00     0.041 A 
ATOM     87  F   UNL A   1      39.945  28.770  32.848  1.00  0.00    -0.206 F 
ATOM     88  C   UNL A   1      37.253  31.183  32.675  1.00  0.00     0.022 A 
BRANCH  85  89
ATOM     89  S   UNL A   1      36.588  33.255  30.978  1.00  0.00     0.124 S 
ATOM     90  O   UNL A   1      37.014  34.202  32.005  1.00  0.00    -0.237 OA
ATOM     91  O   UNL A   1      37.089  33.518  29.631  1.00  0.00    -0.237 OA
ATOM     92  O   UNL A   1      35.194  32.832  31.047  1.00  0.00    -0.744 OA
ENDBRANCH  85  89
ENDBRANCH  58  82
BRANCH  70  93
ATOM     93  C   UNL A   1      45.395  33.513  29.259  1.00  0.00     0.023 A 
ATOM     94  C   UNL A   1      45.244  34.510  28.276  1.00  0.00     0.031 A 
ATOM     95  C   UNL A   1      46.204  33.794  30.373  1.00  0.00     0.131 A 
ATOM     96  C   UNL A   1      45.939  35.717  28.394  1.00  0.00     0.055 A 
ATOM     97  C   UNL A   1      46.838  35.028  30.522  1.00  0.00     0.041 A 
ATOM     98  F   UNL A   1      46.392  32.873  31.331  1.00  0.00    -0.206 F 
ATOM     99  C   UNL A   1      46.724  35.988  29.520  1.00  0.00     0.022 A 
BRANCH  96 100
ATOM    100  S   UNL A   1      45.949  36.922  27.039  1.00  0.00     0.124 S 
ATOM    101  O   UNL A   1      44.542  37.308  26.968  1.00  0.00    -0.237 OA
ATOM    102  O   UNL A   1      46.854  37.949  27.550  1.00  0.00    -0.237 OA
ATOM    103  O   UNL A   1      46.444  36.162  25.896  1.00  0.00    -0.744 OA
ENDBRANCH  96 100
ENDBRANCH  70  93
ENDBRANCH  44  45
ENDBRANCH  36  39
ENDBRANCH  34  35
ENDBRANCH  33  34
ENDBRANCH   1  33
TORSDOF 19
ENDMDL
MODEL 2
REMARK VINA RESULT:     -13.5      1.050      7.252
REMARK SMILES O=C(Cn1nc(-c2ccc(Br)cc2)ccc1=O)N[C@H](C(=O)NCCCCNC(=O)c1ccc(-c2c3nc(c(-c4cc(S(=O)(=O)[O-])ccc4F)c4ccc([nH]4)c(-c4cc(S(=O)(=O)[O-])ccc4F)c4nc(c(-c5cc(S(=O)(=O)[O-])ccc5F)c5ccc2[nH]5)C=C4)C=C3)cc1)c1ccccc1
REMARK SMILES IDX 24 1 23 2 22 3 20 4 21 5 19 7 18 8 1 9 2 10 3 12 4 13 5 14
REMARK SMILES IDX 16 15 6 16 15 17 17 18 14 19 7 20 8 21 13 22 9 23 12 24
REMARK SMILES IDX 10 25 11 26 93 27 94 28 98 29 95 30 97 31 96 32 25 33 26 34
REMARK SMILES IDX 27 35 28 36 29 38 30 39 31 40 92 41 32 42 91 43 33 44 34 45
REMARK SMILES IDX 35 46 85 47 36 48 90 49 84 50 86 51 37 52 89 53 83 54 82 55
REMARK SMILES IDX 38 57 70 58 50 59 69 60 51 61 54 62 68 63 87 64 52 65 53 66
REMARK SMILES IDX 67 68 88 69 55 70 39 71 40 72 48 73 41 74 47 75 49 76 46 77
REMARK SMILES IDX 42 78 43 79 44 80 45 81 71 82 72 83 80 84 73 85 79 86 81 87
REMARK SMILES IDX 78 88 74 89 75 90 76 91 77 92 56 93 57 94 65 95 58 96 64 97
REMARK SMILES IDX 66 98 63 99 59 100 60 101 61 102 62 103
REMARK H PARENT 22 6 18 11 27 37 86 56 54 67
REMARK Flexibility Score: inf
ROOT
ATOM      1  C   UNL A   1      36.833  22.878  24.933  1.00  0.00     0.023 C 
ENDROOT
BRANCH   1   2
ATOM      2  C   UNL A   1      35.443  23.356  25.225  1.00  0.00     0.116 C 
BRANCH   2   3
ATOM      3  N   UNL A   1      34.914  22.652  26.366  1.00  0.00    -0.354 N 
ATOM      4  C   UNL A   1      33.754  21.933  26.474  1.00  0.00     0.247 C 
ATOM      5  O   UNL A   1      33.598  21.277  27.513  1.00  0.00    -0.272 OA
ATOM      6  H   UNL A   1      35.462  22.695  27.181  1.00  0.00     0.163 HD
BRANCH   4   7
ATOM      7  C   UNL A   1      32.760  21.783  25.263  1.00  0.00     0.202 C 
BRANCH   7   8
ATOM      8  N   UNL A   1      32.728  22.962  24.353  1.00  0.00    -0.339 N 
ATOM      9  O   UNL A   1      30.763  23.867  25.082  1.00  0.00    -0.273 OA
ATOM     10  C   UNL A   1      31.693  23.876  24.279  1.00  0.00     0.242 C 
ATOM     11  H   UNL A   1      33.502  23.100  23.760  1.00  0.00     0.164 HD
BRANCH  10  12
ATOM     12  C   UNL A   1      31.749  24.893  23.098  1.00  0.00     0.248 C 
BRANCH  12  13
ATOM     13  N   UNL A   1      32.432  26.203  23.182  1.00  0.00    -0.220 N 
ATOM     14  N   UNL A   1      32.421  26.885  24.383  1.00  0.00    -0.169 NA
ATOM     15  C   UNL A   1      33.190  26.642  22.095  1.00  0.00     0.267 A 
ATOM     16  C   UNL A   1      32.975  28.066  24.429  1.00  0.00     0.091 A 
ATOM     17  C   UNL A   1      33.821  27.981  22.226  1.00  0.00     0.075 A 
ATOM     18  O   UNL A   1      33.378  26.002  21.064  1.00  0.00    -0.268 OA
ATOM     19  C   UNL A   1      33.703  28.710  23.337  1.00  0.00     0.036 A 
BRANCH  16  20
ATOM     20  C   UNL A   1      32.791  28.866  25.671  1.00  0.00     0.002 A 
ATOM     21  C   UNL A   1      31.450  30.063  25.518  1.00  0.00     0.011 A 
ATOM     22  C   UNL A   1      34.252  29.244  26.700  1.00  0.00     0.011 A 
ATOM     23  C   UNL A   1      31.559  31.655  26.360  1.00  0.00     0.016 A 
ATOM     24  C   UNL A   1      34.377  30.911  27.473  1.00  0.00     0.016 A 
ATOM     25  C   UNL A   1      32.976  32.056  27.384  1.00  0.00     0.018 A 
ATOM     26  Br  UNL A   1      33.087  33.773  28.158  1.00  0.00    -0.051 Br
ENDBRANCH  16  20
ENDBRANCH  12  13
ENDBRANCH  10  12
ENDBRANCH   7   8
BRANCH   7  27
ATOM     27  C   UNL A   1      33.054  20.474  24.481  1.00  0.00    -0.016 A 
ATOM     28  C   UNL A   1      33.991  19.535  24.943  1.00  0.00     0.006 A 
ATOM     29  C   UNL A   1      32.317  20.130  23.324  1.00  0.00     0.006 A 
ATOM     30  C   UNL A   1      34.049  18.249  24.397  1.00  0.00     0.000 A 
ATOM     31  C   UNL A   1      32.363  18.839  22.791  1.00  0.00     0.000 A 
ATOM     32  C   UNL A   1      33.206  17.888  23.349  1.00  0.00     0.000 A 
ENDBRANCH   7  27
ENDBRANCH   4   7
ENDBRANCH   2   3
ENDBRANCH   1   2
BRANCH   1  33
ATOM     33  C   UNL A   1      36.869  21.693  24.011  1.00  0.00     0.023 C 
BRANCH  33  34
ATOM     34  C   UNL A   1      37.482  20.245  24.822  1.00  0.00     0.116 C 
BRANCH  34  35
ATOM     35  N   UNL A   1      39.307  19.960  25.799  1.00  0.00    -0.352 N 
ATOM     36  C   UNL A   1      40.464  20.419  26.582  1.00  0.00     0.251 C 
ATOM     37  H   UNL A   1      39.492  19.004  25.660  1.00  0.00     0.163 HD
ATOM     38  O   UNL A   1      41.340  19.562  26.759  1.00  0.00    -0.269 OA
BRANCH  36  39
ATOM     39  C   UNL A   1      40.761  21.789  27.129  1.00  0.00     0.039 A 
ATOM     40  C   UNL A   1      40.180  22.912  26.573  1.00  0.00     0.014 A 
ATOM     41  C   UNL A   1      41.640  21.991  28.201  1.00  0.00     0.014 A 
ATOM     42  C   UNL A   1      40.830  24.131  26.679  1.00  0.00     0.010 A 
ATOM     43  C   UNL A   1      42.056  23.299  28.544  1.00  0.00     0.010 A 
ATOM     44  C   UNL A   1      41.722  24.389  27.724  1.00  0.00    -0.014 A 
BRANCH  44  45
ATOM     45  C   UNL A   1      42.199  25.804  27.905  1.00  0.00     0.031 A 
ATOM     46  C   UNL A   1      41.418  26.811  28.716  1.00  0.00     0.074 A 
ATOM     47  C   UNL A   1      43.425  26.146  27.435  1.00  0.00     0.049 A 
ATOM     48  N   UNL A   1      41.713  28.060  28.978  1.00  0.00    -0.248 NA
ATOM     49  C   UNL A   1      40.146  26.370  29.311  1.00  0.00     0.031 C 
ATOM     50  C   UNL A   1      44.307  25.252  26.675  1.00  0.00     0.029 A 
ATOM     51  N   UNL A   1      44.185  27.285  27.575  1.00  0.00    -0.354 N 
ATOM     52  C   UNL A   1      40.652  28.564  29.727  1.00  0.00     0.074 A 
ATOM     53  C   UNL A   1      39.697  27.488  29.867  1.00  0.00     0.031 C 
ATOM     54  C   UNL A   1      45.517  25.805  26.558  1.00  0.00     0.029 A 
ATOM     55  C   UNL A   1      45.456  27.172  27.048  1.00  0.00     0.049 A 
ATOM     56  H   UNL A   1      43.853  28.104  28.009  1.00  0.00     0.167 HD
ATOM     57  C   UNL A   1      40.495  29.807  30.246  1.00  0.00     0.034 A 
ATOM     58  C   UNL A   1      46.458  28.066  26.917  1.00  0.00     0.034 A 
ATOM     59  C   UNL A   1      41.474  30.858  30.109  1.00  0.00     0.049 A 
ATOM     60  C   UNL A   1      46.230  29.454  27.445  1.00  0.00     0.074 A 
ATOM     61  C   UNL A   1      41.396  32.165  30.559  1.00  0.00     0.029 A 
ATOM     62  N   UNL A   1      42.712  30.726  29.491  1.00  0.00    -0.354 N 
ATOM     63  N   UNL A   1      45.195  29.919  28.103  1.00  0.00    -0.248 NA
ATOM     64  C   UNL A   1      47.288  30.443  27.208  1.00  0.00     0.031 C 
ATOM     65  C   UNL A   1      42.541  32.842  30.140  1.00  0.00     0.029 A 
ATOM     66  C   UNL A   1      43.392  31.933  29.527  1.00  0.00     0.049 A 
ATOM     67  H   UNL A   1      43.056  29.897  29.086  1.00  0.00     0.167 HD
ATOM     68  C   UNL A   1      45.487  31.249  28.384  1.00  0.00     0.074 A 
ATOM     69  C   UNL A   1      46.810  31.502  27.849  1.00  0.00     0.031 C 
ATOM     70  C   UNL A   1      44.724  32.171  29.019  1.00  0.00     0.034 A 
BRANCH  57  71
ATOM     71  C   UNL A   1      39.212  30.137  30.978  1.00  0.00     0.023 A 
ATOM     72  C   UNL A   1      38.321  31.080  30.425  1.00  0.00     0.031 A 
ATOM     73  C   UNL A   1      38.919  29.625  32.254  1.00  0.00     0.131 A 
ATOM     74  C   UNL A   1      37.208  31.510  31.159  1.00  0.00     0.055 A 
ATOM     75  C   UNL A   1      37.778  30.016  32.960  1.00  0.00     0.041 A 
ATOM     76  F   UNL A   1      39.731  28.724  32.830  1.00  0.00    -0.206 F 
ATOM     77  C   UNL A   1      36.924  30.974  32.418  1.00  0.00     0.022 A 
BRANCH  74  78
ATOM     78  S   UNL A   1      36.130  32.828  30.537  1.00  0.00     0.124 S 
ATOM     79  O   UNL A   1      36.455  32.835  29.112  1.00  0.00    -0.237 OA
ATOM     80  O   UNL A   1      34.803  32.319  30.871  1.00  0.00    -0.237 OA
ATOM     81  O   UNL A   1      36.559  34.011  31.276  1.00  0.00    -0.744 OA
ENDBRANCH  74  78
ENDBRANCH  57  71
BRANCH  58  82
ATOM     82  C   UNL A   1      47.738  27.661  26.249  1.00  0.00     0.023 A 
ATOM     83  C   UNL A   1      47.917  27.839  24.862  1.00  0.00     0.031 A 
ATOM     84  C   UNL A   1      48.758  27.001  26.955  1.00  0.00     0.131 A 
ATOM     85  C   UNL A   1      49.029  27.284  24.216  1.00  0.00     0.055 A 
ATOM     86  C   UNL A   1      49.914  26.534  26.321  1.00  0.00     0.041 A 
ATOM     87  F   UNL A   1      48.643  26.794  28.275  1.00  0.00    -0.206 F 
ATOM     88  C   UNL A   1      50.041  26.653  24.940  1.00  0.00     0.022 A 
BRANCH  85  89
ATOM     89  S   UNL A   1      49.116  27.229  22.404  1.00  0.00     0.124 S 
ATOM     90  O   UNL A   1      50.557  27.245  22.167  1.00  0.00    -0.237 OA
ATOM     91  O   UNL A   1      48.442  25.967  22.111  1.00  0.00    -0.237 OA
ATOM     92  O   UNL A   1      48.394  28.426  21.987  1.00  0.00    -0.744 OA
ENDBRANCH  85  89
ENDBRANCH  58  82
BRANCH  70  93
ATOM     93  C   UNL A   1      45.295  33.552  29.235  1.00  0.00     0.023 A 
ATOM     94  C   UNL A   1      45.230  34.493  28.190  1.00  0.00     0.031 A 
ATOM     95  C   UNL A   1      46.029  33.885  30.385  1.00  0.00     0.131 A 
ATOM     96  C   UNL A   1      45.935  35.696  28.290  1.00  0.00     0.055 A 
ATOM     97  C   UNL A   1      46.673  35.117  30.510  1.00  0.00     0.041 A 
ATOM     98  F   UNL A   1      46.135  33.018  31.404  1.00  0.00    -0.206 F 
ATOM     99  C   UNL A   1      46.645  36.020  29.450  1.00  0.00     0.022 A 
BRANCH  96 100
ATOM    100  S   UNL A   1      46.060  36.822  26.874  1.00  0.00     0.124 S 
ATOM    101  O   UNL A   1      44.781  37.526  26.935  1.00  0.00    -0.237 OA
ATOM    102  O   UNL A   1      47.231  37.623  27.222  1.00  0.00    -0.237 OA
ATOM    103  O   UNL A   1      46.226  35.932  25.730  1.00  0.00    -0.744 OA
ENDBRANCH  96 100
ENDBRANCH  70  93
ENDBRANCH  44  45
ENDBRANCH  36  39
ENDBRANCH  34  35
ENDBRANCH  33  34
ENDBRANCH   1  33
TORSDOF 19
ENDMDL
MODEL 3
REMARK VINA RESULT:     -13.1      2.008      2.387
REMARK SMILES O=C(Cn1nc(-c2ccc(Br)cc2)ccc1=O)N[C@H](C(=O)NCCCCNC(=O)c1ccc(-c2c3nc(c(-c4cc(S(=O)(=O)[O-])ccc4F)c4ccc([nH]4)c(-c4cc(S(=O)(=O)[O-])ccc4F)c4nc(c(-c5cc(S(=O)(=O)[O-])ccc5F)c5ccc2[nH]5)C=C4)C=C3)cc1)c1ccccc1
REMARK SMILES IDX 24 1 23 2 22 3 20 4 21 5 19 7 18 8 1 9 2 10 3 12 4 13 5 14
REMARK SMILES IDX 16 15 6 16 15 17 17 18 14 19 7 20 8 21 13 22 9 23 12 24
REMARK SMILES IDX 10 25 11 26 93 27 94 28 98 29 95 30 97 31 96 32 25 33 26 34
REMARK SMILES IDX 27 35 28 36 29 38 30 39 31 40 92 41 32 42 91 43 33 44 34 45
REMARK SMILES IDX 35 46 85 47 36 48 90 49 84 50 86 51 37 52 89 53 83 54 82 55
REMARK SMILES IDX 38 57 70 58 50 59 69 60 51 61 54 62 68 63 87 64 52 65 53 66
REMARK SMILES IDX 67 68 88 69 55 70 39 71 40 72 48 73 41 74 47 75 49 76 46 77
REMARK SMILES IDX 42 78 43 79 44 80 45 81 71 82 72 83 80 84 73 85 79 86 81 87
REMARK SMILES IDX 78 88 74 89 75 90 76 91 77 92 56 93 57 94 65 95 58 96 64 97
REMARK SMILES IDX 66 98 63 99 59 100 60 101 61 102 62 103
REMARK H PARENT 22 6 18 11 27 37 86 56 54 67
REMARK Flexibility Score: inf
ROOT
ATOM      1  C   UNL A   1      36.962  22.680  25.219  1.00  0.00     0.023 C 
ENDROOT
BRANCH   1   2
ATOM      2  C   UNL A   1      35.536  23.122  25.346  1.00  0.00     0.116 C 
BRANCH   2   3
ATOM      3  N   UNL A   1      34.919  22.463  26.470  1.00  0.00    -0.354 N 
ATOM      4  C   UNL A   1      33.743  21.762  26.520  1.00  0.00     0.247 C 
ATOM      5  O   UNL A   1      33.506  21.144  27.566  1.00  0.00    -0.272 OA
ATOM      6  H   UNL A   1      35.410  22.525  27.320  1.00  0.00     0.163 HD
BRANCH   4   7
ATOM      7  C   UNL A   1      32.833  21.586  25.248  1.00  0.00     0.202 C 
BRANCH   7   8
ATOM      8  N   UNL A   1      32.846  22.754  24.324  1.00  0.00    -0.339 N 
ATOM      9  O   UNL A   1      30.890  23.715  25.005  1.00  0.00    -0.273 OA
ATOM     10  C   UNL A   1      31.835  23.692  24.220  1.00  0.00     0.242 C 
ATOM     11  H   UNL A   1      33.634  22.867  23.744  1.00  0.00     0.164 HD
BRANCH  10  12
ATOM     12  C   UNL A   1      31.936  24.693  23.029  1.00  0.00     0.248 C 
BRANCH  12  13
ATOM     13  N   UNL A   1      32.598  26.012  23.128  1.00  0.00    -0.220 N 
ATOM     14  N   UNL A   1      32.683  26.626  24.362  1.00  0.00    -0.169 NA
ATOM     15  C   UNL A   1      33.246  26.531  22.005  1.00  0.00     0.267 A 
ATOM     16  C   UNL A   1      33.216  27.816  24.427  1.00  0.00     0.091 A 
ATOM     17  C   UNL A   1      33.860  27.875  22.156  1.00  0.00     0.075 A 
ATOM     18  O   UNL A   1      33.352  25.955  20.925  1.00  0.00    -0.268 OA
ATOM     19  C   UNL A   1      33.829  28.538  23.313  1.00  0.00     0.036 A 
BRANCH  16  20
ATOM     20  C   UNL A   1      33.129  28.540  25.725  1.00  0.00     0.002 A 
ATOM     21  C   UNL A   1      31.843  29.804  25.715  1.00  0.00     0.011 A 
ATOM     22  C   UNL A   1      34.653  28.782  26.702  1.00  0.00     0.011 A 
ATOM     23  C   UNL A   1      32.068  31.331  26.651  1.00  0.00     0.016 A 
ATOM     24  C   UNL A   1      34.895  30.387  27.572  1.00  0.00     0.016 A 
ATOM     25  C   UNL A   1      33.550  31.598  27.626  1.00  0.00     0.018 A 
ATOM     26  Br  UNL A   1      33.781  33.253  28.501  1.00  0.00    -0.051 Br
ENDBRANCH  16  20
ENDBRANCH  12  13
ENDBRANCH  10  12
ENDBRANCH   7   8
BRANCH   7  27
ATOM     27  C   UNL A   1      33.195  20.273  24.502  1.00  0.00    -0.016 A 
ATOM     28  C   UNL A   1      34.269  19.466  24.913  1.00  0.00     0.006 A 
ATOM     29  C   UNL A   1      32.395  19.788  23.442  1.00  0.00     0.006 A 
ATOM     30  C   UNL A   1      34.416  18.163  24.424  1.00  0.00     0.000 A 
ATOM     31  C   UNL A   1      32.532  18.481  22.968  1.00  0.00     0.000 A 
ATOM     32  C   UNL A   1      33.524  17.657  23.483  1.00  0.00     0.000 A 
ENDBRANCH   7  27
ENDBRANCH   4   7
ENDBRANCH   2   3
ENDBRANCH   1   2
BRANCH   1  33
ATOM     33  C   UNL A   1      37.156  21.596  24.197  1.00  0.00     0.023 C 
BRANCH  33  34
ATOM     34  C   UNL A   1      37.845  20.132  24.910  1.00  0.00     0.116 C 
BRANCH  34  35
ATOM     35  N   UNL A   1      39.727  19.852  25.775  1.00  0.00    -0.352 N 
ATOM     36  C   UNL A   1      40.931  20.316  26.481  1.00  0.00     0.251 C 
ATOM     37  H   UNL A   1      39.902  18.894  25.633  1.00  0.00     0.163 HD
ATOM     38  O   UNL A   1      41.815  19.458  26.610  1.00  0.00    -0.269 OA
BRANCH  36  39
ATOM     39  C   UNL A   1      41.263  21.690  26.997  1.00  0.00     0.039 A 
ATOM     40  C   UNL A   1      40.917  22.816  26.276  1.00  0.00     0.014 A 
ATOM     41  C   UNL A   1      41.943  21.889  28.204  1.00  0.00     0.014 A 
ATOM     42  C   UNL A   1      41.660  23.974  26.437  1.00  0.00     0.010 A 
ATOM     43  C   UNL A   1      42.423  23.176  28.547  1.00  0.00     0.010 A 
ATOM     44  C   UNL A   1      42.364  24.226  27.618  1.00  0.00    -0.014 A 
BRANCH  44  45
ATOM     45  C   UNL A   1      42.945  25.601  27.807  1.00  0.00     0.031 A 
ATOM     46  C   UNL A   1      44.293  25.982  27.240  1.00  0.00     0.074 A 
ATOM     47  C   UNL A   1      42.182  26.559  28.390  1.00  0.00     0.049 A 
ATOM     48  N   UNL A   1      44.915  27.134  27.304  1.00  0.00    -0.248 NA
ATOM     49  C   UNL A   1      45.044  24.948  26.510  1.00  0.00     0.031 C 
ATOM     50  C   UNL A   1      40.839  26.337  28.939  1.00  0.00     0.029 A 
ATOM     51  N   UNL A   1      42.366  27.912  28.561  1.00  0.00    -0.354 N 
ATOM     52  C   UNL A   1      46.139  26.953  26.664  1.00  0.00     0.074 A 
ATOM     53  C   UNL A   1      46.180  25.575  26.230  1.00  0.00     0.031 C 
ATOM     54  C   UNL A   1      40.271  27.510  29.231  1.00  0.00     0.029 A 
ATOM     55  C   UNL A   1      41.267  28.559  29.090  1.00  0.00     0.049 A 
ATOM     56  H   UNL A   1      43.204  28.375  28.330  1.00  0.00     0.167 HD
ATOM     57  C   UNL A   1      47.130  27.856  26.461  1.00  0.00     0.034 A 
ATOM     58  C   UNL A   1      41.074  29.839  29.472  1.00  0.00     0.034 A 
ATOM     59  C   UNL A   1      47.056  29.232  26.887  1.00  0.00     0.049 A 
ATOM     60  C   UNL A   1      42.215  30.801  29.294  1.00  0.00     0.074 A 
ATOM     61  C   UNL A   1      48.020  30.219  26.769  1.00  0.00     0.029 A 
ATOM     62  N   UNL A   1      45.956  29.825  27.498  1.00  0.00    -0.354 N 
ATOM     63  N   UNL A   1      43.382  30.591  28.734  1.00  0.00    -0.248 NA
ATOM     64  C   UNL A   1      42.028  32.164  29.804  1.00  0.00     0.031 C 
ATOM     65  C   UNL A   1      47.540  31.376  27.382  1.00  0.00     0.029 A 
ATOM     66  C   UNL A   1      46.232  31.153  27.784  1.00  0.00     0.049 A 
ATOM     67  H   UNL A   1      45.108  29.368  27.699  1.00  0.00     0.167 HD
ATOM     68  C   UNL A   1      44.060  31.803  28.798  1.00  0.00     0.074 A 
ATOM     69  C   UNL A   1      43.158  32.747  29.427  1.00  0.00     0.031 C 
ATOM     70  C   UNL A   1      45.316  32.098  28.382  1.00  0.00     0.034 A 
BRANCH  57  71
ATOM     71  C   UNL A   1      48.407  27.400  25.787  1.00  0.00     0.023 A 
ATOM     72  C   UNL A   1      48.571  27.607  24.402  1.00  0.00     0.031 A 
ATOM     73  C   UNL A   1      49.398  26.670  26.464  1.00  0.00     0.131 A 
ATOM     74  C   UNL A   1      49.673  27.057  23.735  1.00  0.00     0.055 A 
ATOM     75  C   UNL A   1      50.525  26.170  25.805  1.00  0.00     0.041 A 
ATOM     76  F   UNL A   1      49.295  26.442  27.784  1.00  0.00    -0.206 F 
ATOM     77  C   UNL A   1      50.658  26.351  24.431  1.00  0.00     0.022 A 
BRANCH  74  78
ATOM     78  S   UNL A   1      49.833  27.181  21.933  1.00  0.00     0.124 S 
ATOM     79  O   UNL A   1      51.216  26.755  21.723  1.00  0.00    -0.237 OA
ATOM     80  O   UNL A   1      48.815  26.242  21.472  1.00  0.00    -0.237 OA
ATOM     81  O   UNL A   1      49.570  28.588  21.653  1.00  0.00    -0.744 OA
ENDBRANCH  74  78
ENDBRANCH  57  71
BRANCH  58  82
ATOM     82  C   UNL A   1      39.761  30.251  30.066  1.00  0.00     0.023 A 
ATOM     83  C   UNL A   1      39.604  30.369  31.462  1.00  0.00     0.031 A 
ATOM     84  C   UNL A   1      38.620  30.436  29.268  1.00  0.00     0.131 A 
ATOM     85  C   UNL A   1      38.333  30.563  32.017  1.00  0.00     0.055 A 
ATOM     86  C   UNL A   1      37.368  30.726  29.821  1.00  0.00     0.041 A 
ATOM     87  F   UNL A   1      38.703  30.328  27.933  1.00  0.00    -0.206 F 
ATOM     88  C   UNL A   1      37.217  30.766  31.204  1.00  0.00     0.022 A 
BRANCH  85  89
ATOM     89  S   UNL A   1      38.067  30.401  33.805  1.00  0.00     0.124 S 
ATOM     90  O   UNL A   1      39.422  30.538  34.329  1.00  0.00    -0.237 OA
ATOM     91  O   UNL A   1      37.169  31.521  34.075  1.00  0.00    -0.237 OA
ATOM     92  O   UNL A   1      37.465  29.080  33.946  1.00  0.00    -0.744 OA
ENDBRANCH  85  89
ENDBRANCH  58  82
BRANCH  70  93
ATOM     93  C   UNL A   1      45.809  33.516  28.533  1.00  0.00     0.023 A 
ATOM     94  C   UNL A   1      46.389  33.917  29.751  1.00  0.00     0.031 A 
ATOM     95  C   UNL A   1      45.568  34.499  27.557  1.00  0.00     0.131 A 
ATOM     96  C   UNL A   1      46.656  35.269  29.987  1.00  0.00     0.055 A 
ATOM     97  C   UNL A   1      45.901  35.837  27.769  1.00  0.00     0.041 A 
ATOM     98  F   UNL A   1      45.003  34.172  26.384  1.00  0.00    -0.206 F 
ATOM     99  C   UNL A   1      46.429  36.230  28.997  1.00  0.00     0.022 A 
BRANCH  96 100
ATOM    100  S   UNL A   1      47.185  35.842  31.624  1.00  0.00     0.124 S 
ATOM    101  O   UNL A   1      46.166  35.257  32.491  1.00  0.00    -0.237 OA
ATOM    102  O   UNL A   1      48.516  35.252  31.739  1.00  0.00    -0.237 OA
ATOM    103  O   UNL A   1      47.150  37.296  31.516  1.00  0.00    -0.744 OA
ENDBRANCH  96 100
ENDBRANCH  70  93
ENDBRANCH  44  45
ENDBRANCH  36  39
ENDBRANCH  34  35
ENDBRANCH  33  34
ENDBRANCH   1  33
TORSDOF 19
ENDMDL
