MODEL 1
REMARK VINA RESULT:     -11.4      0.000      0.000
REMARK SMILES [NH3+][C@]1(C(=O)NCCCCNC(=O)c2ccc(-c3c4nc(c(-c5cc(S(=O)(=O)[O-])ccc5F)c5ccc([nH]5)c(-c5cc(S(=O)(=O)[O-])ccc5F)c5nc(c(-c6cc(S(=O)(=O)[O-])ccc6F)c6ccc3[nH]6)C=C5)C=C4)cc2)CC[C@@H](Sc2cc3ccccc3[nH]2)C1
REMARK SMILES IDX 8 1 7 2 6 3 5 4 3 5 4 6 2 8 76 9 89 10 77 11 78 12 1 13
REMARK SMILES IDX 79 17 80 18 81 19 88 20 82 21 87 22 83 24 86 25 84 26 85 27
REMARK SMILES IDX 9 28 10 29 11 30 12 32 13 33 14 34 75 35 15 36 74 37 16 38
REMARK SMILES IDX 17 39 18 40 68 41 19 42 73 43 67 44 69 45 20 46 72 47 66 48
REMARK SMILES IDX 65 49 21 51 53 52 33 53 52 54 34 55 37 56 51 57 70 58 35 59
REMARK SMILES IDX 36 60 50 62 71 63 38 64 22 65 23 66 31 67 24 68 30 69 32 70
REMARK SMILES IDX 29 71 25 72 26 73 27 74 28 75 54 76 55 77 63 78 56 79 62 80
REMARK SMILES IDX 64 81 61 82 57 83 58 84 59 85 60 86 39 87 40 88 48 89 41 90
REMARK SMILES IDX 47 91 49 92 46 93 42 94 43 95 44 96 45 97
REMARK H PARENT 5 7 1 14 1 15 1 16 88 23 10 31 69 50 37 61
REMARK Flexibility Score: inf
ROOT
ATOM      1  C   UNL A   1      34.779  35.237  27.943  1.00  0.00     0.023 C 
ENDROOT
BRANCH   1   2
ATOM      2  C   UNL A   1      33.876  36.402  28.353  1.00  0.00     0.023 C 
BRANCH   2   3
ATOM      3  C   UNL A   1      33.044  36.147  29.615  1.00  0.00     0.116 C 
BRANCH   3   4
ATOM      4  N   UNL A   1      33.468  36.995  30.710  1.00  0.00    -0.351 N 
ATOM      5  C   UNL A   1      33.705  36.714  32.020  1.00  0.00     0.281 C 
ATOM      6  O   UNL A   1      34.090  37.655  32.727  1.00  0.00    -0.268 OA
ATOM      7  H   UNL A   1      33.609  37.938  30.464  1.00  0.00     0.163 HD
BRANCH   5   8
ATOM      8  C   UNL A   1      33.623  35.276  32.613  1.00  0.00     0.175 C 
ATOM      9  C   UNL A   1      34.236  34.288  31.595  1.00  0.00     0.080 C 
ATOM     10  C   UNL A   1      34.470  35.003  33.852  1.00  0.00     0.094 C 
ATOM     11  C   UNL A   1      34.608  33.039  32.384  1.00  0.00     0.022 C 
ATOM     12  C   UNL A   1      34.861  33.533  33.800  1.00  0.00     0.060 C 
BRANCH   8  13
ATOM     13  N   UNL A   1      32.204  34.953  32.876  1.00  0.00    -0.345 N 
ATOM     14  H   UNL A   1      31.610  35.486  32.240  1.00  0.00     0.345 HD
ATOM     15  H   UNL A   1      31.972  35.195  33.840  1.00  0.00     0.345 HD
ATOM     16  H   UNL A   1      32.049  33.955  32.730  1.00  0.00     0.345 HD
ENDBRANCH   8  13
BRANCH  12  17
ATOM     17  S   UNL A   1      36.496  33.303  34.504  1.00  0.00    -0.105 SA
BRANCH  17  18
ATOM     18  C   UNL A   1      37.556  34.484  33.800  1.00  0.00     0.073 A 
ATOM     19  C   UNL A   1      38.908  34.722  33.957  1.00  0.00     0.043 A 
ATOM     20  N   UNL A   1      37.241  34.858  32.521  1.00  0.00    -0.350 N 
ATOM     21  C   UNL A   1      39.440  34.596  32.624  1.00  0.00     0.001 A 
ATOM     22  C   UNL A   1      38.349  34.578  31.753  1.00  0.00     0.046 A 
ATOM     23  H   UNL A   1      36.391  35.249  32.212  1.00  0.00     0.167 HD
ATOM     24  C   UNL A   1      40.717  34.312  32.101  1.00  0.00     0.010 A 
ATOM     25  C   UNL A   1      38.435  34.209  30.410  1.00  0.00     0.027 A 
ATOM     26  C   UNL A   1      40.814  33.876  30.771  1.00  0.00     0.001 A 
ATOM     27  C   UNL A   1      39.688  33.804  29.950  1.00  0.00     0.002 A 
ENDBRANCH  17  18
ENDBRANCH  12  17
ENDBRANCH   5   8
ENDBRANCH   3   4
ENDBRANCH   2   3
ENDBRANCH   1   2
BRANCH   1  28
ATOM     28  C   UNL A   1      34.528  33.935  28.689  1.00  0.00     0.116 C 
BRANCH  28  29
ATOM     29  N   UNL A   1      33.639  33.028  27.979  1.00  0.00    -0.352 N 
ATOM     30  C   UNL A   1      33.870  31.720  27.626  1.00  0.00     0.251 C 
ATOM     31  H   UNL A   1      32.764  33.397  27.718  1.00  0.00     0.163 HD
ATOM     32  O   UNL A   1      33.062  31.118  26.924  1.00  0.00    -0.269 OA
BRANCH  30  33
ATOM     33  C   UNL A   1      35.122  31.069  28.063  1.00  0.00     0.039 A 
ATOM     34  C   UNL A   1      36.315  31.792  28.003  1.00  0.00     0.014 A 
ATOM     35  C   UNL A   1      35.106  29.771  28.582  1.00  0.00     0.014 A 
ATOM     36  C   UNL A   1      37.482  31.238  28.530  1.00  0.00     0.010 A 
ATOM     37  C   UNL A   1      36.254  29.252  29.174  1.00  0.00     0.010 A 
ATOM     38  C   UNL A   1      37.453  29.980  29.156  1.00  0.00    -0.014 A 
BRANCH  38  39
ATOM     39  C   UNL A   1      38.666  29.410  29.799  1.00  0.00     0.031 A 
ATOM     40  C   UNL A   1      39.113  29.922  31.141  1.00  0.00     0.074 A 
ATOM     41  C   UNL A   1      39.397  28.486  29.143  1.00  0.00     0.049 A 
ATOM     42  N   UNL A   1      40.183  29.612  31.828  1.00  0.00    -0.248 NA
ATOM     43  C   UNL A   1      38.262  30.936  31.784  1.00  0.00     0.031 C 
ATOM     44  C   UNL A   1      39.086  27.949  27.814  1.00  0.00     0.029 A 
ATOM     45  N   UNL A   1      40.558  27.842  29.492  1.00  0.00    -0.354 N 
ATOM     46  C   UNL A   1      40.146  30.407  32.969  1.00  0.00     0.074 A 
ATOM     47  C   UNL A   1      38.972  31.246  32.859  1.00  0.00     0.031 C 
ATOM     48  C   UNL A   1      40.022  27.048  27.472  1.00  0.00     0.029 A 
ATOM     49  C   UNL A   1      41.024  26.974  28.529  1.00  0.00     0.049 A 
ATOM     50  H   UNL A   1      41.015  27.988  30.351  1.00  0.00     0.167 HD
ATOM     51  C   UNL A   1      41.004  30.422  34.018  1.00  0.00     0.034 A 
ATOM     52  C   UNL A   1      42.141  26.218  28.496  1.00  0.00     0.034 A 
ATOM     53  C   UNL A   1      42.150  29.556  34.127  1.00  0.00     0.049 A 
ATOM     54  C   UNL A   1      43.075  26.255  29.682  1.00  0.00     0.074 A 
ATOM     55  C   UNL A   1      43.034  29.430  35.184  1.00  0.00     0.029 A 
ATOM     56  N   UNL A   1      42.578  28.672  33.145  1.00  0.00    -0.354 N 
ATOM     57  N   UNL A   1      42.980  26.958  30.788  1.00  0.00    -0.248 NA
ATOM     58  C   UNL A   1      44.259  25.387  29.623  1.00  0.00     0.031 C 
ATOM     59  C   UNL A   1      44.035  28.526  34.815  1.00  0.00     0.029 A 
ATOM     60  C   UNL A   1      43.732  28.026  33.558  1.00  0.00     0.049 A 
ATOM     61  H   UNL A   1      42.129  28.527  32.281  1.00  0.00     0.167 HD
ATOM     62  C   UNL A   1      44.072  26.585  31.568  1.00  0.00     0.074 A 
ATOM     63  C   UNL A   1      44.798  25.584  30.816  1.00  0.00     0.031 C 
ATOM     64  C   UNL A   1      44.442  27.027  32.797  1.00  0.00     0.034 A 
BRANCH  51  65
ATOM     65  C   UNL A   1      40.752  31.418  35.122  1.00  0.00     0.023 A 
ATOM     66  C   UNL A   1      39.710  31.253  36.050  1.00  0.00     0.031 A 
ATOM     67  C   UNL A   1      41.586  32.542  35.260  1.00  0.00     0.131 A 
ATOM     68  C   UNL A   1      39.501  32.218  37.046  1.00  0.00     0.055 A 
ATOM     69  C   UNL A   1      41.416  33.463  36.295  1.00  0.00     0.041 A 
ATOM     70  F   UNL A   1      42.584  32.762  34.389  1.00  0.00    -0.206 F 
ATOM     71  C   UNL A   1      40.363  33.308  37.190  1.00  0.00     0.022 A 
BRANCH  68  72
ATOM     72  S   UNL A   1      38.026  32.083  38.093  1.00  0.00     0.124 S 
ATOM     73  O   UNL A   1      37.328  33.328  37.781  1.00  0.00    -0.237 OA
ATOM     74  O   UNL A   1      37.401  30.861  37.601  1.00  0.00    -0.237 OA
ATOM     75  O   UNL A   1      38.572  32.003  39.446  1.00  0.00    -0.744 OA
ENDBRANCH  68  72
ENDBRANCH  51  65
BRANCH  52  76
ATOM     76  C   UNL A   1      42.464  25.377  27.306  1.00  0.00     0.023 A 
ATOM     77  C   UNL A   1      42.014  24.050  27.214  1.00  0.00     0.031 A 
ATOM     78  C   UNL A   1      43.299  25.859  26.282  1.00  0.00     0.131 A 
ATOM     79  C   UNL A   1      42.461  23.229  26.166  1.00  0.00     0.055 A 
ATOM     80  C   UNL A   1      43.687  25.058  25.205  1.00  0.00     0.041 A 
ATOM     81  F   UNL A   1      43.756  27.120  26.315  1.00  0.00    -0.206 F 
ATOM     82  C   UNL A   1      43.283  23.728  25.154  1.00  0.00     0.022 A 
BRANCH  79  83
ATOM     83  S   UNL A   1      42.059  21.459  26.219  1.00  0.00     0.124 S 
ATOM     84  O   UNL A   1      43.026  20.907  25.279  1.00  0.00    -0.237 OA
ATOM     85  O   UNL A   1      42.279  21.144  27.626  1.00  0.00    -0.237 OA
ATOM     86  O   UNL A   1      40.666  21.416  25.781  1.00  0.00    -0.744 OA
ENDBRANCH  79  83
ENDBRANCH  52  76
BRANCH  64  87
ATOM     87  C   UNL A   1      45.655  26.384  33.422  1.00  0.00     0.023 A 
ATOM     88  C   UNL A   1      45.562  25.202  34.177  1.00  0.00     0.031 A 
ATOM     89  C   UNL A   1      46.924  26.970  33.263  1.00  0.00     0.131 A 
ATOM     90  C   UNL A   1      46.707  24.677  34.795  1.00  0.00     0.055 A 
ATOM     91  C   UNL A   1      48.069  26.407  33.827  1.00  0.00     0.041 A 
ATOM     92  F   UNL A   1      47.071  28.100  32.552  1.00  0.00    -0.206 F 
ATOM     93  C   UNL A   1      47.962  25.261  34.609  1.00  0.00     0.022 A 
BRANCH  90  94
ATOM     94  S   UNL A   1      46.519  23.268  35.922  1.00  0.00     0.124 S 
ATOM     95  O   UNL A   1      47.122  23.778  37.148  1.00  0.00    -0.237 OA
ATOM     96  O   UNL A   1      45.071  23.086  35.953  1.00  0.00    -0.237 OA
ATOM     97  O   UNL A   1      47.263  22.198  35.262  1.00  0.00    -0.744 OA
ENDBRANCH  90  94
ENDBRANCH  64  87
ENDBRANCH  38  39
ENDBRANCH  30  33
ENDBRANCH  28  29
ENDBRANCH   1  28
TORSDOF 17
ENDMDL
MODEL 2
REMARK VINA RESULT:     -11.2      6.244     12.443
REMARK SMILES [NH3+][C@]1(C(=O)NCCCCNC(=O)c2ccc(-c3c4nc(c(-c5cc(S(=O)(=O)[O-])ccc5F)c5ccc([nH]5)c(-c5cc(S(=O)(=O)[O-])ccc5F)c5nc(c(-c6cc(S(=O)(=O)[O-])ccc6F)c6ccc3[nH]6)C=C5)C=C4)cc2)CC[C@@H](Sc2cc3ccccc3[nH]2)C1
REMARK SMILES IDX 8 1 7 2 6 3 5 4 3 5 4 6 2 8 76 9 89 10 77 11 78 12 1 13
REMARK SMILES IDX 79 17 80 18 81 19 88 20 82 21 87 22 83 24 86 25 84 26 85 27
REMARK SMILES IDX 9 28 10 29 11 30 12 32 13 33 14 34 75 35 15 36 74 37 16 38
REMARK SMILES IDX 17 39 18 40 68 41 19 42 73 43 67 44 69 45 20 46 72 47 66 48
REMARK SMILES IDX 65 49 21 51 53 52 33 53 52 54 34 55 37 56 51 57 70 58 35 59
REMARK SMILES IDX 36 60 50 62 71 63 38 64 22 65 23 66 31 67 24 68 30 69 32 70
REMARK SMILES IDX 29 71 25 72 26 73 27 74 28 75 54 76 55 77 63 78 56 79 62 80
REMARK SMILES IDX 64 81 61 82 57 83 58 84 59 85 60 86 39 87 40 88 48 89 41 90
REMARK SMILES IDX 47 91 49 92 46 93 42 94 43 95 44 96 45 97
REMARK H PARENT 5 7 1 14 1 15 1 16 88 23 10 31 69 50 37 61
REMARK Flexibility Score: inf
ROOT
ATOM      1  C   UNL A   1      36.851  22.126  23.842  1.00  0.00     0.023 C 
ENDROOT
BRANCH   1   2
ATOM      2  C   UNL A   1      36.176  23.459  23.515  1.00  0.00     0.023 C 
BRANCH   2   3
ATOM      3  C   UNL A   1      34.654  23.380  23.361  1.00  0.00     0.116 C 
BRANCH   3   4
ATOM      4  N   UNL A   1      34.064  24.698  23.240  1.00  0.00    -0.351 N 
ATOM      5  C   UNL A   1      33.176  25.358  24.033  1.00  0.00     0.281 C 
ATOM      6  O   UNL A   1      32.870  26.506  23.684  1.00  0.00    -0.268 OA
ATOM      7  H   UNL A   1      34.356  25.204  22.448  1.00  0.00     0.163 HD
BRANCH   5   8
ATOM      8  C   UNL A   1      32.644  24.783  25.379  1.00  0.00     0.175 C 
ATOM      9  C   UNL A   1      31.495  23.795  25.073  1.00  0.00     0.080 C 
ATOM     10  C   UNL A   1      33.604  23.900  26.169  1.00  0.00     0.094 C 
ATOM     11  C   UNL A   1      31.365  22.901  26.299  1.00  0.00     0.022 C 
ATOM     12  C   UNL A   1      32.752  22.891  26.925  1.00  0.00     0.060 C 
BRANCH   8  13
ATOM     13  N   UNL A   1      32.168  25.906  26.217  1.00  0.00    -0.345 N 
ATOM     14  H   UNL A   1      32.925  26.576  26.350  1.00  0.00     0.345 HD
ATOM     15  H   UNL A   1      31.866  25.550  27.125  1.00  0.00     0.345 HD
ATOM     16  H   UNL A   1      31.383  26.367  25.756  1.00  0.00     0.345 HD
ENDBRANCH   8  13
BRANCH  12  17
ATOM     17  S   UNL A   1      33.617  21.324  27.055  1.00  0.00    -0.105 SA
BRANCH  17  18
ATOM     18  C   UNL A   1      33.328  20.426  25.598  1.00  0.00     0.073 A 
ATOM     19  C   UNL A   1      34.176  19.989  24.599  1.00  0.00     0.043 A 
ATOM     20  N   UNL A   1      32.310  19.513  25.671  1.00  0.00    -0.350 N 
ATOM     21  C   UNL A   1      33.993  18.561  24.587  1.00  0.00     0.001 A 
ATOM     22  C   UNL A   1      32.866  18.290  25.364  1.00  0.00     0.046 A 
ATOM     23  H   UNL A   1      31.369  19.694  25.899  1.00  0.00     0.167 HD
ATOM     24  C   UNL A   1      34.778  17.476  24.149  1.00  0.00     0.010 A 
ATOM     25  C   UNL A   1      32.517  17.014  25.807  1.00  0.00     0.027 A 
ATOM     26  C   UNL A   1      34.481  16.194  24.637  1.00  0.00     0.001 A 
ATOM     27  C   UNL A   1      33.385  15.975  25.471  1.00  0.00     0.002 A 
ENDBRANCH  17  18
ENDBRANCH  12  17
ENDBRANCH   5   8
ENDBRANCH   3   4
ENDBRANCH   2   3
ENDBRANCH   1   2
BRANCH   1  28
ATOM     28  C   UNL A   1      37.054  21.855  25.326  1.00  0.00     0.116 C 
BRANCH  28  29
ATOM     29  N   UNL A   1      38.040  20.819  25.591  1.00  0.00    -0.352 N 
ATOM     30  C   UNL A   1      39.290  20.962  26.145  1.00  0.00     0.251 C 
ATOM     31  H   UNL A   1      37.780  19.902  25.344  1.00  0.00     0.163 HD
ATOM     32  O   UNL A   1      40.054  20.002  26.199  1.00  0.00    -0.269 OA
BRANCH  30  33
ATOM     33  C   UNL A   1      39.714  22.293  26.626  1.00  0.00     0.039 A 
ATOM     34  C   UNL A   1      40.816  22.382  27.480  1.00  0.00     0.014 A 
ATOM     35  C   UNL A   1      39.061  23.449  26.189  1.00  0.00     0.014 A 
ATOM     36  C   UNL A   1      41.306  23.638  27.840  1.00  0.00     0.010 A 
ATOM     37  C   UNL A   1      39.597  24.698  26.489  1.00  0.00     0.010 A 
ATOM     38  C   UNL A   1      40.726  24.806  27.315  1.00  0.00    -0.014 A 
BRANCH  38  39
ATOM     39  C   UNL A   1      41.287  26.149  27.619  1.00  0.00     0.031 A 
ATOM     40  C   UNL A   1      42.682  26.496  27.176  1.00  0.00     0.074 A 
ATOM     41  C   UNL A   1      40.565  27.023  28.349  1.00  0.00     0.049 A 
ATOM     42  N   UNL A   1      43.378  27.578  27.412  1.00  0.00    -0.248 NA
ATOM     43  C   UNL A   1      43.403  25.480  26.392  1.00  0.00     0.031 C 
ATOM     44  C   UNL A   1      39.217  26.778  28.873  1.00  0.00     0.029 A 
ATOM     45  N   UNL A   1      40.862  28.289  28.791  1.00  0.00    -0.354 N 
ATOM     46  C   UNL A   1      44.621  27.367  26.825  1.00  0.00     0.074 A 
ATOM     47  C   UNL A   1      44.601  26.034  26.264  1.00  0.00     0.031 C 
ATOM     48  C   UNL A   1      38.802  27.863  29.547  1.00  0.00     0.029 A 
ATOM     49  C   UNL A   1      39.865  28.863  29.547  1.00  0.00     0.049 A 
ATOM     50  H   UNL A   1      41.711  28.743  28.586  1.00  0.00     0.167 HD
ATOM     51  C   UNL A   1      45.676  28.215  26.750  1.00  0.00     0.034 A 
ATOM     52  C   UNL A   1      39.819  30.052  30.182  1.00  0.00     0.034 A 
ATOM     53  C   UNL A   1      45.668  29.552  27.286  1.00  0.00     0.049 A 
ATOM     54  C   UNL A   1      41.010  30.975  30.075  1.00  0.00     0.074 A 
ATOM     55  C   UNL A   1      46.650  30.522  27.188  1.00  0.00     0.029 A 
ATOM     56  N   UNL A   1      44.632  30.109  28.024  1.00  0.00    -0.354 N 
ATOM     57  N   UNL A   1      42.149  30.787  29.449  1.00  0.00    -0.248 NA
ATOM     58  C   UNL A   1      40.903  32.277  30.749  1.00  0.00     0.031 C 
ATOM     59  C   UNL A   1      46.241  31.637  27.927  1.00  0.00     0.029 A 
ATOM     60  C   UNL A   1      44.968  31.395  28.418  1.00  0.00     0.049 A 
ATOM     61  H   UNL A   1      43.784  29.657  28.238  1.00  0.00     0.167 HD
ATOM     62  C   UNL A   1      42.875  31.962  29.623  1.00  0.00     0.074 A 
ATOM     63  C   UNL A   1      42.040  32.857  30.394  1.00  0.00     0.031 C 
ATOM     64  C   UNL A   1      44.121  32.275  29.185  1.00  0.00     0.034 A 
BRANCH  51  65
ATOM     65  C   UNL A   1      46.935  27.718  26.083  1.00  0.00     0.023 A 
ATOM     66  C   UNL A   1      47.196  27.947  24.722  1.00  0.00     0.031 A 
ATOM     67  C   UNL A   1      47.901  27.022  26.833  1.00  0.00     0.131 A 
ATOM     68  C   UNL A   1      48.370  27.446  24.142  1.00  0.00     0.055 A 
ATOM     69  C   UNL A   1      49.098  26.586  26.266  1.00  0.00     0.041 A 
ATOM     70  F   UNL A   1      47.694  26.757  28.132  1.00  0.00    -0.206 F 
ATOM     71  C   UNL A   1      49.335  26.790  24.910  1.00  0.00     0.022 A 
BRANCH  68  72
ATOM     72  S   UNL A   1      48.576  27.577  22.344  1.00  0.00     0.124 S 
ATOM     73  O   UNL A   1      47.374  28.313  21.962  1.00  0.00    -0.237 OA
ATOM     74  O   UNL A   1      49.835  28.301  22.222  1.00  0.00    -0.237 OA
ATOM     75  O   UNL A   1      48.614  26.184  21.902  1.00  0.00    -0.744 OA
ENDBRANCH  68  72
ENDBRANCH  51  65
BRANCH  52  76
ATOM     76  C   UNL A   1      38.629  30.444  30.994  1.00  0.00     0.023 A 
ATOM     77  C   UNL A   1      37.519  31.064  30.397  1.00  0.00     0.031 A 
ATOM     78  C   UNL A   1      38.620  30.285  32.391  1.00  0.00     0.131 A 
ATOM     79  C   UNL A   1      36.482  31.568  31.199  1.00  0.00     0.055 A 
ATOM     80  C   UNL A   1      37.554  30.728  33.178  1.00  0.00     0.041 A 
ATOM     81  F   UNL A   1      39.651  29.697  33.015  1.00  0.00    -0.206 F 
ATOM     82  C   UNL A   1      36.486  31.392  32.584  1.00  0.00     0.022 A 
BRANCH  79  83
ATOM     83  S   UNL A   1      35.192  32.576  30.415  1.00  0.00     0.124 S 
ATOM     84  O   UNL A   1      35.941  33.764  30.025  1.00  0.00    -0.237 OA
ATOM     85  O   UNL A   1      34.752  31.708  29.328  1.00  0.00    -0.237 OA
ATOM     86  O   UNL A   1      34.219  32.773  31.486  1.00  0.00    -0.744 OA
ENDBRANCH  79  83
ENDBRANCH  52  76
BRANCH  64  87
ATOM     87  C   UNL A   1      44.624  33.667  29.482  1.00  0.00     0.023 A 
ATOM     88  C   UNL A   1      44.365  34.749  28.622  1.00  0.00     0.031 A 
ATOM     89  C   UNL A   1      45.381  33.909  30.642  1.00  0.00     0.131 A 
ATOM     90  C   UNL A   1      44.909  36.010  28.906  1.00  0.00     0.055 A 
ATOM     91  C   UNL A   1      45.865  35.181  30.952  1.00  0.00     0.041 A 
ATOM     92  F   UNL A   1      45.658  32.912  31.498  1.00  0.00    -0.206 F 
ATOM     93  C   UNL A   1      45.642  36.237  30.074  1.00  0.00     0.022 A 
BRANCH  90  94
ATOM     94  S   UNL A   1      44.724  37.333  27.679  1.00  0.00     0.124 S 
ATOM     95  O   UNL A   1      44.732  38.528  28.517  1.00  0.00    -0.237 OA
ATOM     96  O   UNL A   1      45.899  37.141  26.834  1.00  0.00    -0.237 OA
ATOM     97  O   UNL A   1      43.446  37.032  27.039  1.00  0.00    -0.744 OA
ENDBRANCH  90  94
ENDBRANCH  64  87
ENDBRANCH  38  39
ENDBRANCH  30  33
ENDBRANCH  28  29
ENDBRANCH   1  28
TORSDOF 17
ENDMDL
MODEL 3
REMARK VINA RESULT:     -11.1      4.515      7.733
REMARK SMILES [NH3+][C@]1(C(=O)NCCCCNC(=O)c2ccc(-c3c4nc(c(-c5cc(S(=O)(=O)[O-])ccc5F)c5ccc([nH]5)c(-c5cc(S(=O)(=O)[O-])ccc5F)c5nc(c(-c6cc(S(=O)(=O)[O-])ccc6F)c6ccc3[nH]6)C=C5)C=C4)cc2)CC[C@@H](Sc2cc3ccccc3[nH]2)C1
REMARK SMILES IDX 8 1 7 2 6 3 5 4 3 5 4 6 2 8 76 9 89 10 77 11 78 12 1 13
REMARK SMILES IDX 79 17 80 18 81 19 88 20 82 21 87 22 83 24 86 25 84 26 85 27
REMARK SMILES IDX 9 28 10 29 11 30 12 32 13 33 14 34 75 35 15 36 74 37 16 38
REMARK SMILES IDX 17 39 18 40 68 41 19 42 73 43 67 44 69 45 20 46 72 47 66 48
REMARK SMILES IDX 65 49 21 51 53 52 33 53 52 54 34 55 37 56 51 57 70 58 35 59
REMARK SMILES IDX 36 60 50 62 71 63 38 64 22 65 23 66 31 67 24 68 30 69 32 70
REMARK SMILES IDX 29 71 25 72 26 73 27 74 28 75 54 76 55 77 63 78 56 79 62 80
REMARK SMILES IDX 64 81 61 82 57 83 58 84 59 85 60 86 39 87 40 88 48 89 41 90
REMARK SMILES IDX 47 91 49 92 46 93 42 94 43 95 44 96 45 97
REMARK H PARENT 5 7 1 14 1 15 1 16 88 23 10 31 69 50 37 61
REMARK Flexibility Score: inf
ROOT
ATOM      1  C   UNL A   1      31.508  29.163  25.762  1.00  0.00     0.023 C 
ENDROOT
BRANCH   1   2
ATOM      2  C   UNL A   1      31.215  28.547  24.393  1.00  0.00     0.023 C 
BRANCH   2   3
ATOM      3  C   UNL A   1      30.821  27.066  24.432  1.00  0.00     0.116 C 
BRANCH   3   4
ATOM      4  N   UNL A   1      31.647  26.274  23.544  1.00  0.00    -0.351 N 
ATOM      5  C   UNL A   1      32.648  25.389  23.803  1.00  0.00     0.281 C 
ATOM      6  O   UNL A   1      33.162  24.833  22.824  1.00  0.00    -0.268 OA
ATOM      7  H   UNL A   1      31.450  26.397  22.587  1.00  0.00     0.163 HD
BRANCH   5   8
ATOM      8  C   UNL A   1      33.072  24.979  25.245  1.00  0.00     0.175 C 
ATOM      9  C   UNL A   1      31.894  24.234  25.912  1.00  0.00     0.080 C 
ATOM     10  C   UNL A   1      34.189  23.947  25.356  1.00  0.00     0.094 C 
ATOM     11  C   UNL A   1      32.494  23.425  27.055  1.00  0.00     0.022 C 
ATOM     12  C   UNL A   1      33.931  23.157  26.631  1.00  0.00     0.060 C 
BRANCH   8  13
ATOM     13  N   UNL A   1      33.421  26.202  26.000  1.00  0.00    -0.345 N 
ATOM     14  H   UNL A   1      33.418  25.997  27.000  1.00  0.00     0.345 HD
ATOM     15  H   UNL A   1      32.737  26.933  25.802  1.00  0.00     0.345 HD
ATOM     16  H   UNL A   1      34.349  26.522  25.721  1.00  0.00     0.345 HD
ENDBRANCH   8  13
BRANCH  12  17
ATOM     17  S   UNL A   1      34.453  21.453  26.419  1.00  0.00    -0.105 SA
BRANCH  17  18
ATOM     18  C   UNL A   1      33.091  20.540  25.848  1.00  0.00     0.073 A 
ATOM     19  C   UNL A   1      32.386  20.578  24.660  1.00  0.00     0.043 A 
ATOM     20  N   UNL A   1      33.030  19.247  26.295  1.00  0.00    -0.350 N 
ATOM     21  C   UNL A   1      32.507  19.240  24.141  1.00  0.00     0.001 A 
ATOM     22  C   UNL A   1      33.019  18.450  25.172  1.00  0.00     0.046 A 
ATOM     23  H   UNL A   1      33.001  18.947  27.233  1.00  0.00     0.167 HD
ATOM     24  C   UNL A   1      32.409  18.675  22.854  1.00  0.00     0.010 A 
ATOM     25  C   UNL A   1      33.520  17.161  24.986  1.00  0.00     0.027 A 
ATOM     26  C   UNL A   1      32.966  17.406  22.634  1.00  0.00     0.001 A 
ATOM     27  C   UNL A   1      33.533  16.676  23.679  1.00  0.00     0.002 A 
ENDBRANCH  17  18
ENDBRANCH  12  17
ENDBRANCH   5   8
ENDBRANCH   3   4
ENDBRANCH   2   3
ENDBRANCH   1   2
BRANCH   1  28
ATOM     28  C   UNL A   1      32.753  30.037  25.821  1.00  0.00     0.116 C 
BRANCH  28  29
ATOM     29  N   UNL A   1      32.487  31.381  26.310  1.00  0.00    -0.352 N 
ATOM     30  C   UNL A   1      33.205  32.104  27.233  1.00  0.00     0.251 C 
ATOM     31  H   UNL A   1      31.696  31.829  25.933  1.00  0.00     0.163 HD
ATOM     32  O   UNL A   1      32.787  33.188  27.628  1.00  0.00    -0.269 OA
BRANCH  30  33
ATOM     33  C   UNL A   1      34.457  31.535  27.773  1.00  0.00     0.039 A 
ATOM     34  C   UNL A   1      35.547  32.382  27.984  1.00  0.00     0.014 A 
ATOM     35  C   UNL A   1      34.533  30.183  28.121  1.00  0.00     0.014 A 
ATOM     36  C   UNL A   1      36.691  31.886  28.612  1.00  0.00     0.010 A 
ATOM     37  C   UNL A   1      35.644  29.711  28.813  1.00  0.00     0.010 A 
ATOM     38  C   UNL A   1      36.734  30.558  29.068  1.00  0.00    -0.014 A 
BRANCH  38  39
ATOM     39  C   UNL A   1      37.909  30.035  29.814  1.00  0.00     0.031 A 
ATOM     40  C   UNL A   1      38.128  30.442  31.246  1.00  0.00     0.074 A 
ATOM     41  C   UNL A   1      38.808  29.256  29.180  1.00  0.00     0.049 A 
ATOM     42  N   UNL A   1      39.129  30.160  32.040  1.00  0.00    -0.248 NA
ATOM     43  C   UNL A   1      37.102  31.302  31.858  1.00  0.00     0.031 C 
ATOM     44  C   UNL A   1      38.724  28.836  27.778  1.00  0.00     0.029 A 
ATOM     45  N   UNL A   1      39.976  28.686  29.623  1.00  0.00    -0.354 N 
ATOM     46  C   UNL A   1      38.866  30.824  33.233  1.00  0.00     0.074 A 
ATOM     47  C   UNL A   1      37.635  31.560  33.044  1.00  0.00     0.031 C 
ATOM     48  C   UNL A   1      39.784  28.064  27.484  1.00  0.00     0.029 A 
ATOM     49  C   UNL A   1      40.647  27.970  28.656  1.00  0.00     0.049 A 
ATOM     50  H   UNL A   1      40.305  28.782  30.546  1.00  0.00     0.167 HD
ATOM     51  C   UNL A   1      39.579  30.807  34.386  1.00  0.00     0.034 A 
ATOM     52  C   UNL A   1      41.832  27.326  28.705  1.00  0.00     0.034 A 
ATOM     53  C   UNL A   1      40.787  30.041  34.569  1.00  0.00     0.049 A 
ATOM     54  C   UNL A   1      42.600  27.323  30.005  1.00  0.00     0.074 A 
ATOM     55  C   UNL A   1      41.538  29.886  35.720  1.00  0.00     0.029 A 
ATOM     56  N   UNL A   1      41.424  29.308  33.576  1.00  0.00    -0.354 N 
ATOM     57  N   UNL A   1      42.295  27.894  31.148  1.00  0.00    -0.248 NA
ATOM     58  C   UNL A   1      43.866  26.577  30.027  1.00  0.00     0.031 C 
ATOM     59  C   UNL A   1      42.666  29.120  35.408  1.00  0.00     0.029 A 
ATOM     60  C   UNL A   1      42.577  28.729  34.081  1.00  0.00     0.049 A 
ATOM     61  H   UNL A   1      41.104  29.215  32.650  1.00  0.00     0.167 HD
ATOM     62  C   UNL A   1      43.312  27.542  32.031  1.00  0.00     0.074 A 
ATOM     63  C   UNL A   1      44.227  26.696  31.296  1.00  0.00     0.031 C 
ATOM     64  C   UNL A   1      43.477  27.885  33.334  1.00  0.00     0.034 A 
BRANCH  51  65
ATOM     65  C   UNL A   1      39.089  31.655  35.533  1.00  0.00     0.023 A 
ATOM     66  C   UNL A   1      38.399  31.101  36.625  1.00  0.00     0.031 A 
ATOM     67  C   UNL A   1      39.337  33.039  35.542  1.00  0.00     0.131 A 
ATOM     68  C   UNL A   1      37.943  31.934  37.658  1.00  0.00     0.055 A 
ATOM     69  C   UNL A   1      38.941  33.852  36.604  1.00  0.00     0.041 A 
ATOM     70  F   UNL A   1      39.972  33.625  34.514  1.00  0.00    -0.206 F 
ATOM     71  C   UNL A   1      38.231  33.301  37.667  1.00  0.00     0.022 A 
BRANCH  68  72
ATOM     72  S   UNL A   1      36.879  31.222  38.943  1.00  0.00     0.124 S 
ATOM     73  O   UNL A   1      37.739  31.312  40.120  1.00  0.00    -0.237 OA
ATOM     74  O   UNL A   1      35.724  32.112  38.925  1.00  0.00    -0.237 OA
ATOM     75  O   UNL A   1      36.626  29.864  38.465  1.00  0.00    -0.744 OA
ENDBRANCH  68  72
ENDBRANCH  51  65
BRANCH  52  76
ATOM     76  C   UNL A   1      42.387  26.648  27.497  1.00  0.00     0.023 A 
ATOM     77  C   UNL A   1      42.102  25.299  27.230  1.00  0.00     0.031 A 
ATOM     78  C   UNL A   1      43.282  27.312  26.639  1.00  0.00     0.131 A 
ATOM     79  C   UNL A   1      42.761  24.638  26.180  1.00  0.00     0.055 A 
ATOM     80  C   UNL A   1      43.883  26.668  25.555  1.00  0.00     0.041 A 
ATOM     81  F   UNL A   1      43.589  28.602  26.844  1.00  0.00    -0.206 F 
ATOM     82  C   UNL A   1      43.639  25.317  25.333  1.00  0.00     0.022 A 
BRANCH  79  83
ATOM     83  S   UNL A   1      42.554  22.842  26.022  1.00  0.00     0.124 S 
ATOM     84  O   UNL A   1      41.121  22.688  26.239  1.00  0.00    -0.237 OA
ATOM     85  O   UNL A   1      43.026  22.603  24.663  1.00  0.00    -0.237 OA
ATOM     86  O   UNL A   1      43.408  22.308  27.080  1.00  0.00    -0.744 OA
ENDBRANCH  79  83
ENDBRANCH  52  76
BRANCH  64  87
ATOM     87  C   UNL A   1      44.662  27.292  34.056  1.00  0.00     0.023 A 
ATOM     88  C   UNL A   1      44.582  26.059  34.725  1.00  0.00     0.031 A 
ATOM     89  C   UNL A   1      45.889  27.979  34.079  1.00  0.00     0.131 A 
ATOM     90  C   UNL A   1      45.691  25.579  35.439  1.00  0.00     0.055 A 
ATOM     91  C   UNL A   1      47.007  27.465  34.736  1.00  0.00     0.041 A 
ATOM     92  F   UNL A   1      46.021  29.162  33.456  1.00  0.00    -0.206 F 
ATOM     93  C   UNL A   1      46.907  26.265  35.433  1.00  0.00     0.022 A 
BRANCH  90  94
ATOM     94  S   UNL A   1      45.494  24.088  36.453  1.00  0.00     0.124 S 
ATOM     95  O   UNL A   1      45.219  24.651  37.770  1.00  0.00    -0.237 OA
ATOM     96  O   UNL A   1      44.374  23.414  35.802  1.00  0.00    -0.237 OA
ATOM     97  O   UNL A   1      46.783  23.412  36.323  1.00  0.00    -0.744 OA
ENDBRANCH  90  94
ENDBRANCH  64  87
ENDBRANCH  38  39
ENDBRANCH  30  33
ENDBRANCH  28  29
ENDBRANCH   1  28
TORSDOF 17
ENDMDL
