MODEL 1
REMARK VINA RESULT:     -10.5      0.000      0.000
REMARK SMILES COCCNS(=O)(=O)Cc1ccc(C(=O)NCCCCNC(=O)c2ccc(-c3c4nc(c(-c5cc(S(=O)(=O)[O-])ccc5F)c5ccc([nH]5)c(-c5cc(S(=O)(=O)[O-])ccc5F)c5nc(c(-c6cc(S(=O)(=O)[O-])ccc6F)c6ccc3[nH]6)C=C5)C=C4)cc2)cc1
REMARK SMILES IDX 17 1 16 2 14 3 15 4 13 6 10 7 11 8 88 9 12 10 87 11 9 12
REMARK SMILES IDX 6 13 7 14 8 15 5 16 4 18 3 19 2 20 1 21 18 22 19 23 20 24
REMARK SMILES IDX 21 25 22 26 23 28 24 29 25 30 86 31 26 32 85 33 27 34 28 35
REMARK SMILES IDX 29 36 79 37 30 38 84 39 78 40 80 41 31 42 83 43 77 44 76 45
REMARK SMILES IDX 32 47 64 48 44 49 63 50 45 51 48 52 62 53 81 54 46 55 47 56
REMARK SMILES IDX 61 58 82 59 49 60 33 61 34 62 42 63 35 64 41 65 43 66 40 67
REMARK SMILES IDX 36 68 37 69 38 70 39 71 65 72 66 73 74 74 67 75 73 76 75 77
REMARK SMILES IDX 72 78 68 79 69 80 70 81 71 82 50 83 51 84 59 85 52 86 58 87
REMARK SMILES IDX 60 88 57 89 53 90 54 91 55 92 56 93
REMARK H PARENT 16 5 5 17 21 27 80 46 48 57
REMARK Flexibility Score: inf
ROOT
ATOM      1  C   UNL A   1      33.101  28.903  22.810  1.00  0.00     0.116 C 
ENDROOT
BRANCH   1   2
ATOM      2  N   UNL A   1      31.725  29.024  22.370  1.00  0.00    -0.352 N 
ATOM      3  C   UNL A   1      30.659  28.173  22.498  1.00  0.00     0.251 C 
ATOM      4  O   UNL A   1      29.576  28.516  22.026  1.00  0.00    -0.269 OA
ATOM      5  H   UNL A   1      31.521  29.865  21.900  1.00  0.00     0.163 HD
BRANCH   3   6
ATOM      6  C   UNL A   1      30.745  26.893  23.250  1.00  0.00     0.039 A 
ATOM      7  C   UNL A   1      30.860  24.356  24.480  1.00  0.00    -0.032 A 
ATOM      8  C   UNL A   1      31.258  24.522  23.147  1.00  0.00     0.005 A 
ATOM      9  C   UNL A   1      30.446  25.481  25.203  1.00  0.00     0.005 A 
ATOM     10  C   UNL A   1      31.207  25.777  22.542  1.00  0.00     0.014 A 
ATOM     11  C   UNL A   1      30.414  26.740  24.599  1.00  0.00     0.014 A 
BRANCH   7  12
ATOM     12  C   UNL A   1      30.876  23.006  25.139  1.00  0.00     0.189 C 
BRANCH  12  13
ATOM     13  S   UNL A   1      32.324  22.061  24.645  1.00  0.00     0.215 S 
ATOM     14  O   UNL A   1      33.495  22.672  25.242  1.00  0.00    -0.212 OA
ATOM     15  O   UNL A   1      32.279  21.791  23.227  1.00  0.00    -0.212 OA
BRANCH  13  16
ATOM     16  N   UNL A   1      32.111  20.574  25.405  1.00  0.00    -0.213 NA
ATOM     17  H   UNL A   1      32.657  20.592  26.266  1.00  0.00     0.141 HD
BRANCH  16  18
ATOM     18  C   UNL A   1      32.499  19.361  24.660  1.00  0.00     0.127 C 
BRANCH  18  19
ATOM     19  C   UNL A   1      32.636  18.155  25.599  1.00  0.00     0.176 C 
BRANCH  19  20
ATOM     20  O   UNL A   1      32.964  16.943  24.917  1.00  0.00    -0.383 OA
ATOM     21  C   UNL A   1      33.265  17.112  23.540  1.00  0.00     0.194 C 
ENDBRANCH  19  20
ENDBRANCH  18  19
ENDBRANCH  16  18
ENDBRANCH  13  16
ENDBRANCH  12  13
ENDBRANCH   7  12
ENDBRANCH   3   6
ENDBRANCH   1   2
BRANCH   1  22
ATOM     22  C   UNL A   1      33.218  29.314  24.279  1.00  0.00     0.023 C 
BRANCH  22  23
ATOM     23  C   UNL A   1      33.749  28.205  25.187  1.00  0.00     0.023 C 
BRANCH  23  24
ATOM     24  C   UNL A   1      34.083  28.655  26.603  1.00  0.00     0.116 C 
BRANCH  24  25
ATOM     25  N   UNL A   1      33.697  30.033  26.864  1.00  0.00    -0.352 N 
ATOM     26  C   UNL A   1      34.321  30.948  27.679  1.00  0.00     0.251 C 
ATOM     27  H   UNL A   1      32.889  30.350  26.400  1.00  0.00     0.163 HD
ATOM     28  O   UNL A   1      33.793  32.030  27.910  1.00  0.00    -0.269 OA
BRANCH  26  29
ATOM     29  C   UNL A   1      35.609  30.580  28.297  1.00  0.00     0.039 A 
ATOM     30  C   UNL A   1      35.607  29.789  29.446  1.00  0.00     0.014 A 
ATOM     31  C   UNL A   1      36.812  30.962  27.697  1.00  0.00     0.014 A 
ATOM     32  C   UNL A   1      36.818  29.324  29.958  1.00  0.00     0.010 A 
ATOM     33  C   UNL A   1      38.010  30.430  28.160  1.00  0.00     0.010 A 
ATOM     34  C   UNL A   1      38.027  29.608  29.297  1.00  0.00    -0.014 A 
BRANCH  34  35
ATOM     35  C   UNL A   1      39.315  29.055  29.784  1.00  0.00     0.031 A 
ATOM     36  C   UNL A   1      40.016  29.700  30.948  1.00  0.00     0.074 A 
ATOM     37  C   UNL A   1      39.877  28.009  29.145  1.00  0.00     0.049 A 
ATOM     38  N   UNL A   1      41.172  29.405  31.484  1.00  0.00    -0.248 NA
ATOM     39  C   UNL A   1      39.341  30.849  31.571  1.00  0.00     0.031 C 
ATOM     40  C   UNL A   1      39.309  27.325  27.981  1.00  0.00     0.029 A 
ATOM     41  N   UNL A   1      41.051  27.337  29.381  1.00  0.00    -0.354 N 
ATOM     42  C   UNL A   1      41.366  30.334  32.501  1.00  0.00     0.074 A 
ATOM     43  C   UNL A   1      40.242  31.244  32.458  1.00  0.00     0.031 C 
ATOM     44  C   UNL A   1      40.114  26.312  27.628  1.00  0.00     0.029 A 
ATOM     45  C   UNL A   1      41.285  26.304  28.501  1.00  0.00     0.049 A 
ATOM     46  H   UNL A   1      41.668  27.572  30.110  1.00  0.00     0.167 HD
ATOM     47  C   UNL A   1      42.378  30.406  33.401  1.00  0.00     0.034 A 
ATOM     48  C   UNL A   1      42.328  25.456  28.402  1.00  0.00     0.034 A 
ATOM     49  C   UNL A   1      43.487  29.485  33.431  1.00  0.00     0.049 A 
ATOM     50  C   UNL A   1      43.461  25.584  29.390  1.00  0.00     0.074 A 
ATOM     51  C   UNL A   1      44.537  29.432  34.331  1.00  0.00     0.029 A 
ATOM     52  N   UNL A   1      43.699  28.462  32.514  1.00  0.00    -0.354 N 
ATOM     53  N   UNL A   1      43.603  26.435  30.381  1.00  0.00    -0.248 NA
ATOM     54  C   UNL A   1      44.570  24.632  29.251  1.00  0.00     0.031 C 
ATOM     55  C   UNL A   1      45.424  28.436  33.912  1.00  0.00     0.029 A 
ATOM     56  C   UNL A   1      44.883  27.801  32.805  1.00  0.00     0.049 A 
ATOM     57  H   UNL A   1      43.097  28.239  31.768  1.00  0.00     0.167 HD
ATOM     58  C   UNL A   1      44.801  26.093  31.005  1.00  0.00     0.074 A 
ATOM     59  C   UNL A   1      45.330  24.953  30.288  1.00  0.00     0.031 C 
ATOM     60  C   UNL A   1      45.405  26.667  32.077  1.00  0.00     0.034 A 
BRANCH  47  61
ATOM     61  C   UNL A   1      42.341  31.536  34.403  1.00  0.00     0.023 A 
ATOM     62  C   UNL A   1      41.476  31.516  35.512  1.00  0.00     0.031 A 
ATOM     63  C   UNL A   1      43.170  32.660  34.239  1.00  0.00     0.131 A 
ATOM     64  C   UNL A   1      41.406  32.625  36.368  1.00  0.00     0.055 A 
ATOM     65  C   UNL A   1      43.160  33.723  35.144  1.00  0.00     0.041 A 
ATOM     66  F   UNL A   1      43.999  32.749  33.187  1.00  0.00    -0.206 F 
ATOM     67  C   UNL A   1      42.263  33.716  36.208  1.00  0.00     0.022 A 
BRANCH  64  68
ATOM     68  S   UNL A   1      40.075  32.687  37.599  1.00  0.00     0.124 S 
ATOM     69  O   UNL A   1      39.150  31.681  37.083  1.00  0.00    -0.237 OA
ATOM     70  O   UNL A   1      40.771  32.343  38.833  1.00  0.00    -0.237 OA
ATOM     71  O   UNL A   1      39.595  34.065  37.514  1.00  0.00    -0.744 OA
ENDBRANCH  64  68
ENDBRANCH  47  61
BRANCH  48  72
ATOM     72  C   UNL A   1      42.366  24.420  27.329  1.00  0.00     0.023 A 
ATOM     73  C   UNL A   1      41.635  23.227  27.449  1.00  0.00     0.031 A 
ATOM     74  C   UNL A   1      43.181  24.579  26.193  1.00  0.00     0.131 A 
ATOM     75  C   UNL A   1      41.774  22.218  26.482  1.00  0.00     0.055 A 
ATOM     76  C   UNL A   1      43.266  23.600  25.201  1.00  0.00     0.041 A 
ATOM     77  F   UNL A   1      43.902  25.699  26.025  1.00  0.00    -0.206 F 
ATOM     78  C   UNL A   1      42.572  22.404  25.351  1.00  0.00     0.022 A 
BRANCH  75  79
ATOM     79  S   UNL A   1      40.980  20.616  26.781  1.00  0.00     0.124 S 
ATOM     80  O   UNL A   1      41.956  19.692  26.216  1.00  0.00    -0.237 OA
ATOM     81  O   UNL A   1      40.851  20.608  28.234  1.00  0.00    -0.237 OA
ATOM     82  O   UNL A   1      39.720  20.719  26.046  1.00  0.00    -0.744 OA
ENDBRANCH  75  79
ENDBRANCH  48  72
BRANCH  60  83
ATOM     83  C   UNL A   1      46.684  26.032  32.570  1.00  0.00     0.023 A 
ATOM     84  C   UNL A   1      46.683  25.008  33.532  1.00  0.00     0.031 A 
ATOM     85  C   UNL A   1      47.925  26.468  32.071  1.00  0.00     0.131 A 
ATOM     86  C   UNL A   1      47.900  24.496  34.008  1.00  0.00     0.055 A 
ATOM     87  C   UNL A   1      49.128  25.905  32.496  1.00  0.00     0.041 A 
ATOM     88  F   UNL A   1      47.988  27.447  31.153  1.00  0.00    -0.206 F 
ATOM     89  C   UNL A   1      49.122  24.923  33.482  1.00  0.00     0.022 A 
BRANCH  86  90
ATOM     90  S   UNL A   1      47.871  23.337  35.404  1.00  0.00     0.124 S 
ATOM     91  O   UNL A   1      49.291  23.195  35.710  1.00  0.00    -0.237 OA
ATOM     92  O   UNL A   1      47.075  24.059  36.392  1.00  0.00    -0.237 OA
ATOM     93  O   UNL A   1      47.234  22.146  34.847  1.00  0.00    -0.744 OA
ENDBRANCH  86  90
ENDBRANCH  60  83
ENDBRANCH  34  35
ENDBRANCH  26  29
ENDBRANCH  24  25
ENDBRANCH  23  24
ENDBRANCH  22  23
ENDBRANCH   1  22
TORSDOF 20
ENDMDL
MODEL 2
REMARK VINA RESULT:     -10.4      2.931      3.926
REMARK SMILES COCCNS(=O)(=O)Cc1ccc(C(=O)NCCCCNC(=O)c2ccc(-c3c4nc(c(-c5cc(S(=O)(=O)[O-])ccc5F)c5ccc([nH]5)c(-c5cc(S(=O)(=O)[O-])ccc5F)c5nc(c(-c6cc(S(=O)(=O)[O-])ccc6F)c6ccc3[nH]6)C=C5)C=C4)cc2)cc1
REMARK SMILES IDX 17 1 16 2 14 3 15 4 13 6 10 7 11 8 88 9 12 10 87 11 9 12
REMARK SMILES IDX 6 13 7 14 8 15 5 16 4 18 3 19 2 20 1 21 18 22 19 23 20 24
REMARK SMILES IDX 21 25 22 26 23 28 24 29 25 30 86 31 26 32 85 33 27 34 28 35
REMARK SMILES IDX 29 36 79 37 30 38 84 39 78 40 80 41 31 42 83 43 77 44 76 45
REMARK SMILES IDX 32 47 64 48 44 49 63 50 45 51 48 52 62 53 81 54 46 55 47 56
REMARK SMILES IDX 61 58 82 59 49 60 33 61 34 62 42 63 35 64 41 65 43 66 40 67
REMARK SMILES IDX 36 68 37 69 38 70 39 71 65 72 66 73 74 74 67 75 73 76 75 77
REMARK SMILES IDX 72 78 68 79 69 80 70 81 71 82 50 83 51 84 59 85 52 86 58 87
REMARK SMILES IDX 60 88 57 89 53 90 54 91 55 92 56 93
REMARK H PARENT 16 5 5 17 21 27 80 46 48 57
REMARK Flexibility Score: inf
ROOT
ATOM      1  C   UNL A   1      34.509  29.773  27.291  1.00  0.00     0.116 C 
ENDROOT
BRANCH   1   2
ATOM      2  N   UNL A   1      33.622  29.994  26.166  1.00  0.00    -0.352 N 
ATOM      3  C   UNL A   1      32.851  29.123  25.441  1.00  0.00     0.251 C 
ATOM      4  O   UNL A   1      32.177  29.571  24.515  1.00  0.00    -0.269 OA
ATOM      5  H   UNL A   1      33.562  30.932  25.874  1.00  0.00     0.163 HD
BRANCH   3   6
ATOM      6  C   UNL A   1      32.742  27.679  25.781  1.00  0.00     0.039 A 
ATOM      7  C   UNL A   1      32.654  24.897  26.236  1.00  0.00    -0.032 A 
ATOM      8  C   UNL A   1      33.764  25.483  25.614  1.00  0.00     0.005 A 
ATOM      9  C   UNL A   1      31.610  25.723  26.667  1.00  0.00     0.005 A 
ATOM     10  C   UNL A   1      33.810  26.860  25.396  1.00  0.00     0.014 A 
ATOM     11  C   UNL A   1      31.668  27.103  26.463  1.00  0.00     0.014 A 
BRANCH   7  12
ATOM     12  C   UNL A   1      32.572  23.411  26.449  1.00  0.00     0.189 C 
BRANCH  12  13
ATOM     13  S   UNL A   1      32.043  22.569  24.951  1.00  0.00     0.215 S 
ATOM     14  O   UNL A   1      33.152  22.556  24.017  1.00  0.00    -0.212 OA
ATOM     15  O   UNL A   1      30.746  23.054  24.543  1.00  0.00    -0.212 OA
BRANCH  13  16
ATOM     16  N   UNL A   1      31.806  20.978  25.447  1.00  0.00    -0.213 NA
ATOM     17  H   UNL A   1      31.592  21.000  26.444  1.00  0.00     0.141 HD
BRANCH  16  18
ATOM     18  C   UNL A   1      32.917  20.026  25.255  1.00  0.00     0.127 C 
BRANCH  18  19
ATOM     19  C   UNL A   1      32.570  18.982  24.185  1.00  0.00     0.176 C 
BRANCH  19  20
ATOM     20  O   UNL A   1      31.920  17.825  24.716  1.00  0.00    -0.383 OA
ATOM     21  C   UNL A   1      32.661  17.151  25.723  1.00  0.00     0.194 C 
ENDBRANCH  19  20
ENDBRANCH  18  19
ENDBRANCH  16  18
ENDBRANCH  13  16
ENDBRANCH  12  13
ENDBRANCH   7  12
ENDBRANCH   3   6
ENDBRANCH   1   2
BRANCH   1  22
ATOM     22  C   UNL A   1      34.694  31.075  28.074  1.00  0.00     0.023 C 
BRANCH  22  23
ATOM     23  C   UNL A   1      33.567  32.085  27.860  1.00  0.00     0.023 C 
BRANCH  23  24
ATOM     24  C   UNL A   1      34.021  33.538  27.818  1.00  0.00     0.116 C 
BRANCH  24  25
ATOM     25  N   UNL A   1      33.269  34.392  28.725  1.00  0.00    -0.352 N 
ATOM     26  C   UNL A   1      33.465  34.578  30.072  1.00  0.00     0.251 C 
ATOM     27  H   UNL A   1      32.527  34.900  28.323  1.00  0.00     0.163 HD
ATOM     28  O   UNL A   1      32.655  35.222  30.731  1.00  0.00    -0.269 OA
BRANCH  26  29
ATOM     29  C   UNL A   1      34.639  33.952  30.709  1.00  0.00     0.039 A 
ATOM     30  C   UNL A   1      34.459  32.809  31.487  1.00  0.00     0.014 A 
ATOM     31  C   UNL A   1      35.921  34.459  30.474  1.00  0.00     0.014 A 
ATOM     32  C   UNL A   1      35.576  32.134  31.979  1.00  0.00     0.010 A 
ATOM     33  C   UNL A   1      37.032  33.739  30.894  1.00  0.00     0.010 A 
ATOM     34  C   UNL A   1      36.873  32.570  31.654  1.00  0.00    -0.014 A 
BRANCH  34  35
ATOM     35  C   UNL A   1      38.070  31.817  32.103  1.00  0.00     0.031 A 
ATOM     36  C   UNL A   1      38.739  32.177  33.402  1.00  0.00     0.074 A 
ATOM     37  C   UNL A   1      38.584  30.849  31.317  1.00  0.00     0.049 A 
ATOM     38  N   UNL A   1      39.824  31.680  33.938  1.00  0.00    -0.248 NA
ATOM     39  C   UNL A   1      38.123  33.259  34.184  1.00  0.00     0.031 C 
ATOM     40  C   UNL A   1      38.043  30.438  30.019  1.00  0.00     0.029 A 
ATOM     41  N   UNL A   1      39.675  30.034  31.492  1.00  0.00    -0.354 N 
ATOM     42  C   UNL A   1      40.024  32.394  35.115  1.00  0.00     0.074 A 
ATOM     43  C   UNL A   1      38.989  33.402  35.176  1.00  0.00     0.031 C 
ATOM     44  C   UNL A   1      38.781  29.428  29.534  1.00  0.00     0.029 A 
ATOM     45  C   UNL A   1      39.881  29.153  30.455  1.00  0.00     0.049 A 
ATOM     46  H   UNL A   1      40.256  30.076  32.284  1.00  0.00     0.167 HD
ATOM     47  C   UNL A   1      40.971  32.207  36.068  1.00  0.00     0.034 A 
ATOM     48  C   UNL A   1      40.851  28.237  30.261  1.00  0.00     0.034 A 
ATOM     49  C   UNL A   1      41.991  31.191  35.992  1.00  0.00     0.049 A 
ATOM     50  C   UNL A   1      41.918  28.079  31.316  1.00  0.00     0.074 A 
ATOM     51  C   UNL A   1      42.965  30.879  36.924  1.00  0.00     0.029 A 
ATOM     52  N   UNL A   1      42.179  30.328  34.919  1.00  0.00    -0.354 N 
ATOM     53  N   UNL A   1      42.061  28.725  32.452  1.00  0.00    -0.248 NA
ATOM     54  C   UNL A   1      42.947  27.062  31.069  1.00  0.00     0.031 C 
ATOM     55  C   UNL A   1      43.790  29.889  36.381  1.00  0.00     0.029 A 
ATOM     56  C   UNL A   1      43.278  29.514  35.150  1.00  0.00     0.049 A 
ATOM     57  H   UNL A   1      41.615  30.300  34.112  1.00  0.00     0.167 HD
ATOM     58  C   UNL A   1      43.177  28.164  33.069  1.00  0.00     0.074 A 
ATOM     59  C   UNL A   1      43.656  27.120  32.187  1.00  0.00     0.031 C 
ATOM     60  C   UNL A   1      43.750  28.479  34.258  1.00  0.00     0.034 A 
BRANCH  47  61
ATOM     61  C   UNL A   1      40.960  33.142  37.255  1.00  0.00     0.023 A 
ATOM     62  C   UNL A   1      40.358  32.786  38.474  1.00  0.00     0.031 A 
ATOM     63  C   UNL A   1      41.545  34.418  37.160  1.00  0.00     0.131 A 
ATOM     64  C   UNL A   1      40.288  33.718  39.521  1.00  0.00     0.055 A 
ATOM     65  C   UNL A   1      41.551  35.308  38.235  1.00  0.00     0.041 A 
ATOM     66  F   UNL A   1      42.113  34.826  36.014  1.00  0.00    -0.206 F 
ATOM     67  C   UNL A   1      40.906  34.966  39.421  1.00  0.00     0.022 A 
BRANCH  64  68
ATOM     68  S   UNL A   1      39.248  33.331  40.956  1.00  0.00     0.124 S 
ATOM     69  O   UNL A   1      39.931  34.062  42.020  1.00  0.00    -0.237 OA
ATOM     70  O   UNL A   1      37.948  33.854  40.554  1.00  0.00    -0.237 OA
ATOM     71  O   UNL A   1      39.333  31.875  41.058  1.00  0.00    -0.744 OA
ENDBRANCH  64  68
ENDBRANCH  47  61
BRANCH  48  72
ATOM     72  C   UNL A   1      40.877  27.406  29.022  1.00  0.00     0.023 A 
ATOM     73  C   UNL A   1      41.801  27.663  27.997  1.00  0.00     0.031 A 
ATOM     74  C   UNL A   1      39.940  26.377  28.818  1.00  0.00     0.131 A 
ATOM     75  C   UNL A   1      41.735  26.943  26.794  1.00  0.00     0.055 A 
ATOM     76  C   UNL A   1      39.918  25.618  27.645  1.00  0.00     0.041 A 
ATOM     77  F   UNL A   1      39.033  26.085  29.763  1.00  0.00    -0.206 F 
ATOM     78  C   UNL A   1      40.809  25.911  26.618  1.00  0.00     0.022 A 
BRANCH  75  79
ATOM     79  S   UNL A   1      42.805  27.447  25.420  1.00  0.00     0.124 S 
ATOM     80  O   UNL A   1      42.059  28.568  24.860  1.00  0.00    -0.237 OA
ATOM     81  O   UNL A   1      44.047  27.781  26.110  1.00  0.00    -0.237 OA
ATOM     82  O   UNL A   1      42.864  26.253  24.579  1.00  0.00    -0.744 OA
ENDBRANCH  75  79
ENDBRANCH  48  72
BRANCH  60  83
ATOM     83  C   UNL A   1      44.930  27.645  34.698  1.00  0.00     0.023 A 
ATOM     84  C   UNL A   1      44.775  26.493  35.488  1.00  0.00     0.031 A 
ATOM     85  C   UNL A   1      46.235  28.019  34.324  1.00  0.00     0.131 A 
ATOM     86  C   UNL A   1      45.907  25.790  35.927  1.00  0.00     0.055 A 
ATOM     87  C   UNL A   1      47.351  27.274  34.705  1.00  0.00     0.041 A 
ATOM     88  F   UNL A   1      46.445  29.113  33.575  1.00  0.00    -0.206 F 
ATOM     89  C   UNL A   1      47.192  26.161  35.524  1.00  0.00     0.022 A 
BRANCH  86  90
ATOM     90  S   UNL A   1      45.685  24.443  37.123  1.00  0.00     0.124 S 
ATOM     91  O   UNL A   1      46.849  24.610  37.987  1.00  0.00    -0.237 OA
ATOM     92  O   UNL A   1      44.395  24.767  37.722  1.00  0.00    -0.237 OA
ATOM     93  O   UNL A   1      45.697  23.242  36.290  1.00  0.00    -0.744 OA
ENDBRANCH  86  90
ENDBRANCH  60  83
ENDBRANCH  34  35
ENDBRANCH  26  29
ENDBRANCH  24  25
ENDBRANCH  23  24
ENDBRANCH  22  23
ENDBRANCH   1  22
TORSDOF 20
ENDMDL
MODEL 3
REMARK VINA RESULT:     -10.2      1.936      2.298
REMARK SMILES COCCNS(=O)(=O)Cc1ccc(C(=O)NCCCCNC(=O)c2ccc(-c3c4nc(c(-c5cc(S(=O)(=O)[O-])ccc5F)c5ccc([nH]5)c(-c5cc(S(=O)(=O)[O-])ccc5F)c5nc(c(-c6cc(S(=O)(=O)[O-])ccc6F)c6ccc3[nH]6)C=C5)C=C4)cc2)cc1
REMARK SMILES IDX 17 1 16 2 14 3 15 4 13 6 10 7 11 8 88 9 12 10 87 11 9 12
REMARK SMILES IDX 6 13 7 14 8 15 5 16 4 18 3 19 2 20 1 21 18 22 19 23 20 24
REMARK SMILES IDX 21 25 22 26 23 28 24 29 25 30 86 31 26 32 85 33 27 34 28 35
REMARK SMILES IDX 29 36 79 37 30 38 84 39 78 40 80 41 31 42 83 43 77 44 76 45
REMARK SMILES IDX 32 47 64 48 44 49 63 50 45 51 48 52 62 53 81 54 46 55 47 56
REMARK SMILES IDX 61 58 82 59 49 60 33 61 34 62 42 63 35 64 41 65 43 66 40 67
REMARK SMILES IDX 36 68 37 69 38 70 39 71 65 72 66 73 74 74 67 75 73 76 75 77
REMARK SMILES IDX 72 78 68 79 69 80 70 81 71 82 50 83 51 84 59 85 52 86 58 87
REMARK SMILES IDX 60 88 57 89 53 90 54 91 55 92 56 93
REMARK H PARENT 16 5 5 17 21 27 80 46 48 57
REMARK Flexibility Score: inf
ROOT
ATOM      1  C   UNL A   1      32.214  29.552  24.464  1.00  0.00     0.116 C 
ENDROOT
BRANCH   1   2
ATOM      2  N   UNL A   1      31.265  29.681  23.375  1.00  0.00    -0.352 N 
ATOM      3  C   UNL A   1      30.623  28.734  22.622  1.00  0.00     0.251 C 
ATOM      4  O   UNL A   1      29.854  29.111  21.739  1.00  0.00    -0.269 OA
ATOM      5  H   UNL A   1      31.044  30.610  23.137  1.00  0.00     0.163 HD
BRANCH   3   6
ATOM      6  C   UNL A   1      30.761  27.276  22.884  1.00  0.00     0.039 A 
ATOM      7  C   UNL A   1      31.087  24.488  23.161  1.00  0.00    -0.032 A 
ATOM      8  C   UNL A   1      31.909  25.219  22.294  1.00  0.00     0.005 A 
ATOM      9  C   UNL A   1      30.132  25.173  23.920  1.00  0.00     0.005 A 
ATOM     10  C   UNL A   1      31.752  26.599  22.163  1.00  0.00     0.014 A 
ATOM     11  C   UNL A   1      29.989  26.557  23.799  1.00  0.00     0.014 A 
BRANCH   7  12
ATOM     12  C   UNL A   1      31.220  22.996  23.291  1.00  0.00     0.189 C 
BRANCH  12  13
ATOM     13  S   UNL A   1      32.054  22.550  24.820  1.00  0.00     0.215 S 
ATOM     14  O   UNL A   1      31.065  22.039  25.750  1.00  0.00    -0.212 OA
ATOM     15  O   UNL A   1      32.956  23.605  25.217  1.00  0.00    -0.212 OA
BRANCH  13  16
ATOM     16  N   UNL A   1      33.028  21.250  24.382  1.00  0.00    -0.213 NA
ATOM     17  H   UNL A   1      32.591  20.801  23.577  1.00  0.00     0.141 HD
BRANCH  16  18
ATOM     18  C   UNL A   1      33.273  20.204  25.393  1.00  0.00     0.127 C 
BRANCH  18  19
ATOM     19  C   UNL A   1      32.931  18.813  24.843  1.00  0.00     0.176 C 
BRANCH  19  20
ATOM     20  O   UNL A   1      32.366  17.941  25.826  1.00  0.00    -0.383 OA
ATOM     21  C   UNL A   1      32.589  16.561  25.577  1.00  0.00     0.194 C 
ENDBRANCH  19  20
ENDBRANCH  18  19
ENDBRANCH  16  18
ENDBRANCH  13  16
ENDBRANCH  12  13
ENDBRANCH   7  12
ENDBRANCH   3   6
ENDBRANCH   1   2
BRANCH   1  22
ATOM     22  C   UNL A   1      31.476  29.570  25.804  1.00  0.00     0.023 C 
BRANCH  22  23
ATOM     23  C   UNL A   1      32.354  29.185  26.994  1.00  0.00     0.023 C 
BRANCH  23  24
ATOM     24  C   UNL A   1      33.721  29.857  27.013  1.00  0.00     0.116 C 
BRANCH  24  25
ATOM     25  N   UNL A   1      33.691  31.183  27.612  1.00  0.00    -0.352 N 
ATOM     26  C   UNL A   1      34.606  31.746  28.468  1.00  0.00     0.251 C 
ATOM     27  H   UNL A   1      32.918  31.746  27.375  1.00  0.00     0.163 HD
ATOM     28  O   UNL A   1      34.369  32.823  29.004  1.00  0.00    -0.269 OA
BRANCH  26  29
ATOM     29  C   UNL A   1      35.851  31.009  28.757  1.00  0.00     0.039 A 
ATOM     30  C   UNL A   1      37.067  31.536  28.321  1.00  0.00     0.014 A 
ATOM     31  C   UNL A   1      35.814  29.836  29.517  1.00  0.00     0.014 A 
ATOM     32  C   UNL A   1      38.257  30.919  28.706  1.00  0.00     0.010 A 
ATOM     33  C   UNL A   1      37.003  29.272  29.967  1.00  0.00     0.010 A 
ATOM     34  C   UNL A   1      38.236  29.805  29.565  1.00  0.00    -0.014 A 
BRANCH  34  35
ATOM     35  C   UNL A   1      39.496  29.186  30.047  1.00  0.00     0.031 A 
ATOM     36  C   UNL A   1      40.174  29.724  31.278  1.00  0.00     0.074 A 
ATOM     37  C   UNL A   1      40.054  28.177  29.348  1.00  0.00     0.049 A 
ATOM     38  N   UNL A   1      41.305  29.361  31.825  1.00  0.00    -0.248 NA
ATOM     39  C   UNL A   1      39.505  30.839  31.966  1.00  0.00     0.031 C 
ATOM     40  C   UNL A   1      39.509  27.597  28.118  1.00  0.00     0.029 A 
ATOM     41  N   UNL A   1      41.205  27.461  29.567  1.00  0.00    -0.354 N 
ATOM     42  C   UNL A   1      41.487  30.206  32.914  1.00  0.00     0.074 A 
ATOM     43  C   UNL A   1      40.385  31.143  32.907  1.00  0.00     0.031 C 
ATOM     44  C   UNL A   1      40.302  26.594  27.715  1.00  0.00     0.029 A 
ATOM     45  C   UNL A   1      41.443  26.492  28.620  1.00  0.00     0.049 A 
ATOM     46  H   UNL A   1      41.803  27.625  30.330  1.00  0.00     0.167 HD
ATOM     47  C   UNL A   1      42.471  30.184  33.848  1.00  0.00     0.034 A 
ATOM     48  C   UNL A   1      42.470  25.627  28.487  1.00  0.00     0.034 A 
ATOM     49  C   UNL A   1      43.558  29.237  33.841  1.00  0.00     0.049 A 
ATOM     50  C   UNL A   1      43.574  25.653  29.516  1.00  0.00     0.074 A 
ATOM     51  C   UNL A   1      44.576  29.090  34.766  1.00  0.00     0.029 A 
ATOM     52  N   UNL A   1      43.775  28.280  32.856  1.00  0.00    -0.354 N 
ATOM     53  N   UNL A   1      43.703  26.423  30.573  1.00  0.00    -0.248 NA
ATOM     54  C   UNL A   1      44.665  24.687  29.339  1.00  0.00     0.031 C 
ATOM     55  C   UNL A   1      45.454  28.107  34.299  1.00  0.00     0.029 A 
ATOM     56  C   UNL A   1      44.935  27.570  33.132  1.00  0.00     0.049 A 
ATOM     57  H   UNL A   1      43.193  28.130  32.077  1.00  0.00     0.167 HD
ATOM     58  C   UNL A   1      44.872  26.006  31.205  1.00  0.00     0.074 A 
ATOM     59  C   UNL A   1      45.399  24.910  30.420  1.00  0.00     0.031 C 
ATOM     60  C   UNL A   1      45.454  26.482  32.335  1.00  0.00     0.034 A 
BRANCH  47  61
ATOM     61  C   UNL A   1      42.427  31.236  34.931  1.00  0.00     0.023 A 
ATOM     62  C   UNL A   1      42.908  32.540  34.720  1.00  0.00     0.031 A 
ATOM     63  C   UNL A   1      41.912  30.926  36.204  1.00  0.00     0.131 A 
ATOM     64  C   UNL A   1      42.934  33.459  35.779  1.00  0.00     0.055 A 
ATOM     65  C   UNL A   1      41.858  31.872  37.228  1.00  0.00     0.041 A 
ATOM     66  F   UNL A   1      41.460  29.691  36.476  1.00  0.00    -0.206 F 
ATOM     67  C   UNL A   1      42.386  33.144  37.023  1.00  0.00     0.022 A 
BRANCH  64  68
ATOM     68  S   UNL A   1      43.832  35.019  35.549  1.00  0.00     0.124 S 
ATOM     69  O   UNL A   1      44.710  34.691  34.429  1.00  0.00    -0.237 OA
ATOM     70  O   UNL A   1      42.758  35.963  35.266  1.00  0.00    -0.237 OA
ATOM     71  O   UNL A   1      44.513  35.212  36.828  1.00  0.00    -0.744 OA
ENDBRANCH  64  68
ENDBRANCH  47  61
BRANCH  48  72
ATOM     72  C   UNL A   1      42.520  24.674  27.341  1.00  0.00     0.023 A 
ATOM     73  C   UNL A   1      41.857  23.438  27.398  1.00  0.00     0.031 A 
ATOM     74  C   UNL A   1      43.279  24.959  26.191  1.00  0.00     0.131 A 
ATOM     75  C   UNL A   1      42.009  22.510  26.356  1.00  0.00     0.055 A 
ATOM     76  C   UNL A   1      43.376  24.060  25.127  1.00  0.00     0.041 A 
ATOM     77  F   UNL A   1      43.934  26.126  26.080  1.00  0.00    -0.206 F 
ATOM     78  C   UNL A   1      42.752  22.819  25.213  1.00  0.00     0.022 A 
BRANCH  75  79
ATOM     79  S   UNL A   1      41.312  20.849  26.564  1.00  0.00     0.124 S 
ATOM     80  O   UNL A   1      41.671  20.549  27.945  1.00  0.00    -0.237 OA
ATOM     81  O   UNL A   1      39.896  21.080  26.302  1.00  0.00    -0.237 OA
ATOM     82  O   UNL A   1      42.011  20.059  25.551  1.00  0.00    -0.744 OA
ENDBRANCH  75  79
ENDBRANCH  48  72
BRANCH  60  83
ATOM     83  C   UNL A   1      46.702  25.780  32.817  1.00  0.00     0.023 A 
ATOM     84  C   UNL A   1      47.969  26.057  32.274  1.00  0.00     0.031 A 
ATOM     85  C   UNL A   1      46.617  24.810  33.833  1.00  0.00     0.131 A 
ATOM     86  C   UNL A   1      49.088  25.330  32.708  1.00  0.00     0.055 A 
ATOM     87  C   UNL A   1      47.745  24.143  34.310  1.00  0.00     0.041 A 
ATOM     88  F   UNL A   1      45.433  24.501  34.386  1.00  0.00    -0.206 F 
ATOM     89  C   UNL A   1      48.988  24.390  33.736  1.00  0.00     0.022 A 
BRANCH  86  90
ATOM     90  S   UNL A   1      50.663  25.555  31.834  1.00  0.00     0.124 S 
ATOM     91  O   UNL A   1      50.526  26.909  31.307  1.00  0.00    -0.237 OA
ATOM     92  O   UNL A   1      51.640  25.383  32.903  1.00  0.00    -0.237 OA
ATOM     93  O   UNL A   1      50.651  24.494  30.829  1.00  0.00    -0.744 OA
ENDBRANCH  86  90
ENDBRANCH  60  83
ENDBRANCH  34  35
ENDBRANCH  26  29
ENDBRANCH  24  25
ENDBRANCH  23  24
ENDBRANCH  22  23
ENDBRANCH   1  22
TORSDOF 20
ENDMDL
