MODEL 1
REMARK VINA RESULT:     -11.6      0.000      0.000
REMARK SMILES Cc1cc(C)c2c(OCCCC(=O)NCCCCNC(=O)c3ccc(-c4c5nc(c(-c6cc(S(=O)(=O)[O-])ccc6F)c6ccc([nH]6)c(-c6cc(S(=O)(=O)[O-])ccc6F)c6nc(c(-c7cc(S(=O)(=O)[O-])ccc7F)c7ccc4[nH]7)C=C6)C=C5)cc3)nsc2n1
REMARK SMILES IDX 16 1 15 2 14 3 12 4 13 5 11 7 10 8 9 9 8 10 7 11 1 12 2 13
REMARK SMILES IDX 3 14 88 15 4 16 87 17 5 18 6 19 86 20 85 21 17 22 18 23
REMARK SMILES IDX 19 24 20 25 21 27 22 28 23 29 84 30 24 31 83 32 25 33 26 34
REMARK SMILES IDX 27 35 77 36 28 37 82 38 76 39 78 40 29 41 81 42 75 43 74 44
REMARK SMILES IDX 30 46 62 47 42 48 61 49 43 50 46 51 60 52 79 53 44 54 45 55
REMARK SMILES IDX 59 57 80 58 47 59 31 60 32 61 40 62 33 63 39 64 41 65 38 66
REMARK SMILES IDX 34 67 35 68 36 69 37 70 63 71 64 72 72 73 65 74 71 75 73 76
REMARK SMILES IDX 70 77 66 78 67 79 68 80 69 81 48 82 49 83 57 84 50 85 56 86
REMARK SMILES IDX 58 87 55 88 51 89 52 90 53 91 54 92
REMARK H PARENT 14 6 19 26 78 45 46 56
REMARK Flexibility Score: inf
ROOT
ATOM      1  C   UNL A   1      35.848  22.501  25.346  1.00  0.00     0.023 C 
ENDROOT
BRANCH   1   2
ATOM      2  C   UNL A   1      36.177  20.973  25.356  1.00  0.00     0.116 C 
BRANCH   2   3
ATOM      3  N   UNL A   1      34.970  20.080  25.095  1.00  0.00    -0.356 N 
ATOM      4  C   UNL A   1      33.697  19.858  24.669  1.00  0.00     0.220 C 
ATOM      5  O   UNL A   1      33.426  18.647  24.848  1.00  0.00    -0.275 OA
ATOM      6  H   UNL A   1      35.272  19.192  25.394  1.00  0.00     0.163 HD
BRANCH   4   7
ATOM      7  C   UNL A   1      32.564  20.676  23.871  1.00  0.00     0.103 C 
BRANCH   7   8
ATOM      8  C   UNL A   1      32.537  22.021  23.016  1.00  0.00     0.051 C 
BRANCH   8   9
ATOM      9  C   UNL A   1      32.311  23.533  23.420  1.00  0.00     0.232 C 
BRANCH   9  10
ATOM     10  O   UNL A   1      33.362  24.474  23.680  1.00  0.00    -0.477 OA
BRANCH  10  11
ATOM     11  C   UNL A   1      33.191  25.819  23.597  1.00  0.00     0.235 A 
ATOM     12  C   UNL A   1      34.727  29.439  27.352  1.00  0.00     0.067 C 
ATOM     13  C   UNL A   1      33.911  28.649  26.366  1.00  0.00     0.039 A 
ATOM     14  C   UNL A   1      33.054  27.646  26.814  1.00  0.00     0.027 A 
ATOM     15  N   UNL A   1      34.082  28.932  25.056  1.00  0.00    -0.240 NA
ATOM     16  C   UNL A   1      32.493  26.737  25.900  1.00  0.00    -0.034 A 
ATOM     17  C   UNL A   1      33.631  27.960  24.240  1.00  0.00     0.147 A 
ATOM     18  C   UNL A   1      31.418  25.757  26.163  1.00  0.00     0.045 C 
ATOM     19  C   UNL A   1      33.022  26.779  24.623  1.00  0.00     0.078 A 
ATOM     20  S   UNL A   1      33.685  27.963  22.539  1.00  0.00    -0.012 S 
ATOM     21  N   UNL A   1      33.392  26.317  22.375  1.00  0.00    -0.153 NA
ENDBRANCH  10  11
ENDBRANCH   9  10
ENDBRANCH   8   9
ENDBRANCH   7   8
ENDBRANCH   4   7
ENDBRANCH   2   3
ENDBRANCH   1   2
BRANCH   1  22
ATOM     22  C   UNL A   1      37.004  23.460  24.990  1.00  0.00     0.023 C 
BRANCH  22  23
ATOM     23  C   UNL A   1      37.793  24.038  26.171  1.00  0.00     0.116 C 
BRANCH  23  24
ATOM     24  N   UNL A   1      39.221  23.699  26.159  1.00  0.00    -0.352 N 
ATOM     25  C   UNL A   1      40.265  24.543  26.507  1.00  0.00     0.251 C 
ATOM     26  H   UNL A   1      39.460  22.787  25.876  1.00  0.00     0.163 HD
ATOM     27  O   UNL A   1      41.423  24.297  26.174  1.00  0.00    -0.269 OA
BRANCH  25  28
ATOM     28  C   UNL A   1      39.944  25.739  27.306  1.00  0.00     0.039 A 
ATOM     29  C   UNL A   1      39.338  25.641  28.561  1.00  0.00     0.014 A 
ATOM     30  C   UNL A   1      40.368  26.969  26.801  1.00  0.00     0.014 A 
ATOM     31  C   UNL A   1      39.262  26.782  29.360  1.00  0.00     0.010 A 
ATOM     32  C   UNL A   1      40.353  28.080  27.617  1.00  0.00     0.010 A 
ATOM     33  C   UNL A   1      39.803  27.993  28.898  1.00  0.00    -0.014 A 
BRANCH  33  34
ATOM     34  C   UNL A   1      39.984  29.117  29.822  1.00  0.00     0.031 A 
ATOM     35  C   UNL A   1      38.763  29.958  30.032  1.00  0.00     0.074 A 
ATOM     36  C   UNL A   1      41.058  29.233  30.636  1.00  0.00     0.049 A 
ATOM     37  N   UNL A   1      38.611  31.226  29.820  1.00  0.00    -0.248 NA
ATOM     38  C   UNL A   1      37.514  29.280  30.429  1.00  0.00     0.031 C 
ATOM     39  C   UNL A   1      42.183  28.303  30.774  1.00  0.00     0.029 A 
ATOM     40  N   UNL A   1      41.309  30.149  31.614  1.00  0.00    -0.354 N 
ATOM     41  C   UNL A   1      37.322  31.546  30.245  1.00  0.00     0.074 A 
ATOM     42  C   UNL A   1      36.645  30.292  30.447  1.00  0.00     0.031 C 
ATOM     43  C   UNL A   1      42.854  28.571  31.916  1.00  0.00     0.029 A 
ATOM     44  C   UNL A   1      42.311  29.779  32.511  1.00  0.00     0.049 A 
ATOM     45  H   UNL A   1      40.822  31.002  31.682  1.00  0.00     0.167 HD
ATOM     46  C   UNL A   1      36.972  32.816  30.596  1.00  0.00     0.034 A 
ATOM     47  C   UNL A   1      42.645  30.401  33.675  1.00  0.00     0.034 A 
ATOM     48  C   UNL A   1      37.923  33.777  30.096  1.00  0.00     0.049 A 
ATOM     49  C   UNL A   1      42.141  31.791  33.563  1.00  0.00     0.074 A 
ATOM     50  C   UNL A   1      38.366  34.128  28.835  1.00  0.00     0.029 A 
ATOM     51  N   UNL A   1      38.871  34.259  30.968  1.00  0.00    -0.354 N 
ATOM     52  N   UNL A   1      42.567  32.646  32.672  1.00  0.00    -0.248 NA
ATOM     53  C   UNL A   1      40.833  32.083  34.129  1.00  0.00     0.031 C 
ATOM     54  C   UNL A   1      39.771  34.317  28.985  1.00  0.00     0.029 A 
ATOM     55  C   UNL A   1      40.088  34.159  30.336  1.00  0.00     0.049 A 
ATOM     56  H   UNL A   1      38.709  34.610  31.872  1.00  0.00     0.167 HD
ATOM     57  C   UNL A   1      41.431  33.324  32.256  1.00  0.00     0.074 A 
ATOM     58  C   UNL A   1      40.411  32.998  33.252  1.00  0.00     0.031 C 
ATOM     59  C   UNL A   1      41.339  33.859  31.005  1.00  0.00     0.034 A 
BRANCH  46  60
ATOM     60  C   UNL A   1      35.948  33.176  31.650  1.00  0.00     0.023 A 
ATOM     61  C   UNL A   1      34.832  33.949  31.267  1.00  0.00     0.031 A 
ATOM     62  C   UNL A   1      36.147  33.031  33.041  1.00  0.00     0.131 A 
ATOM     63  C   UNL A   1      34.016  34.569  32.233  1.00  0.00     0.055 A 
ATOM     64  C   UNL A   1      35.298  33.597  33.996  1.00  0.00     0.041 A 
ATOM     65  F   UNL A   1      37.222  32.419  33.553  1.00  0.00    -0.206 F 
ATOM     66  C   UNL A   1      34.238  34.391  33.596  1.00  0.00     0.022 A 
BRANCH  63  67
ATOM     67  S   UNL A   1      32.733  35.726  31.684  1.00  0.00     0.124 S 
ATOM     68  O   UNL A   1      32.600  35.376  30.275  1.00  0.00    -0.237 OA
ATOM     69  O   UNL A   1      31.612  35.369  32.548  1.00  0.00    -0.237 OA
ATOM     70  O   UNL A   1      33.324  37.037  31.948  1.00  0.00    -0.744 OA
ENDBRANCH  63  67
ENDBRANCH  46  60
BRANCH  47  71
ATOM     71  C   UNL A   1      43.093  29.794  34.965  1.00  0.00     0.023 A 
ATOM     72  C   UNL A   1      42.470  28.648  35.514  1.00  0.00     0.031 A 
ATOM     73  C   UNL A   1      44.319  30.178  35.554  1.00  0.00     0.131 A 
ATOM     74  C   UNL A   1      43.073  27.943  36.584  1.00  0.00     0.055 A 
ATOM     75  C   UNL A   1      44.906  29.482  36.615  1.00  0.00     0.041 A 
ATOM     76  F   UNL A   1      45.044  31.193  35.057  1.00  0.00    -0.206 F 
ATOM     77  C   UNL A   1      44.291  28.352  37.127  1.00  0.00     0.022 A 
BRANCH  74  78
ATOM     78  S   UNL A   1      42.344  26.389  37.202  1.00  0.00     0.124 S 
ATOM     79  O   UNL A   1      43.140  26.132  38.397  1.00  0.00    -0.237 OA
ATOM     80  O   UNL A   1      40.949  26.755  37.417  1.00  0.00    -0.237 OA
ATOM     81  O   UNL A   1      42.566  25.451  36.100  1.00  0.00    -0.744 OA
ENDBRANCH  74  78
ENDBRANCH  47  71
BRANCH  59  82
ATOM     82  C   UNL A   1      42.589  33.974  30.158  1.00  0.00     0.023 A 
ATOM     83  C   UNL A   1      43.084  32.970  29.292  1.00  0.00     0.031 A 
ATOM     84  C   UNL A   1      43.188  35.246  30.097  1.00  0.00     0.131 A 
ATOM     85  C   UNL A   1      44.137  33.271  28.401  1.00  0.00     0.055 A 
ATOM     86  C   UNL A   1      44.211  35.543  29.201  1.00  0.00     0.041 A 
ATOM     87  F   UNL A   1      42.737  36.244  30.876  1.00  0.00    -0.206 F 
ATOM     88  C   UNL A   1      44.688  34.557  28.347  1.00  0.00     0.022 A 
BRANCH  85  89
ATOM     89  S   UNL A   1      44.783  32.006  27.256  1.00  0.00     0.124 S 
ATOM     90  O   UNL A   1      45.872  31.399  28.013  1.00  0.00    -0.237 OA
ATOM     91  O   UNL A   1      43.617  31.161  27.015  1.00  0.00    -0.237 OA
ATOM     92  O   UNL A   1      45.213  32.785  26.092  1.00  0.00    -0.744 OA
ENDBRANCH  85  89
ENDBRANCH  59  82
ENDBRANCH  33  34
ENDBRANCH  25  28
ENDBRANCH  23  24
ENDBRANCH  22  23
ENDBRANCH   1  22
TORSDOF 18
ENDMDL
MODEL 2
REMARK VINA RESULT:     -11.6      3.643      8.712
REMARK SMILES Cc1cc(C)c2c(OCCCC(=O)NCCCCNC(=O)c3ccc(-c4c5nc(c(-c6cc(S(=O)(=O)[O-])ccc6F)c6ccc([nH]6)c(-c6cc(S(=O)(=O)[O-])ccc6F)c6nc(c(-c7cc(S(=O)(=O)[O-])ccc7F)c7ccc4[nH]7)C=C6)C=C5)cc3)nsc2n1
REMARK SMILES IDX 16 1 15 2 14 3 12 4 13 5 11 7 10 8 9 9 8 10 7 11 1 12 2 13
REMARK SMILES IDX 3 14 88 15 4 16 87 17 5 18 6 19 86 20 85 21 17 22 18 23
REMARK SMILES IDX 19 24 20 25 21 27 22 28 23 29 84 30 24 31 83 32 25 33 26 34
REMARK SMILES IDX 27 35 77 36 28 37 82 38 76 39 78 40 29 41 81 42 75 43 74 44
REMARK SMILES IDX 30 46 62 47 42 48 61 49 43 50 46 51 60 52 79 53 44 54 45 55
REMARK SMILES IDX 59 57 80 58 47 59 31 60 32 61 40 62 33 63 39 64 41 65 38 66
REMARK SMILES IDX 34 67 35 68 36 69 37 70 63 71 64 72 72 73 65 74 71 75 73 76
REMARK SMILES IDX 70 77 66 78 67 79 68 80 69 81 48 82 49 83 57 84 50 85 56 86
REMARK SMILES IDX 58 87 55 88 51 89 52 90 53 91 54 92
REMARK H PARENT 14 6 19 26 78 45 46 56
REMARK Flexibility Score: inf
ROOT
ATOM      1  C   UNL A   1      32.297  30.491  26.722  1.00  0.00     0.023 C 
ENDROOT
BRANCH   1   2
ATOM      2  C   UNL A   1      31.871  29.516  25.576  1.00  0.00     0.116 C 
BRANCH   2   3
ATOM      3  N   UNL A   1      31.616  28.088  26.043  1.00  0.00    -0.356 N 
ATOM      4  C   UNL A   1      31.003  26.877  25.955  1.00  0.00     0.220 C 
ATOM      5  O   UNL A   1      31.418  26.155  26.893  1.00  0.00    -0.275 OA
ATOM      6  H   UNL A   1      32.211  27.991  26.821  1.00  0.00     0.163 HD
BRANCH   4   7
ATOM      7  C   UNL A   1      30.057  26.110  24.904  1.00  0.00     0.103 C 
BRANCH   7   8
ATOM      8  C   UNL A   1      30.295  25.039  23.747  1.00  0.00     0.051 C 
BRANCH   8   9
ATOM      9  C   UNL A   1      30.800  23.540  23.773  1.00  0.00     0.232 C 
BRANCH   9  10
ATOM     10  O   UNL A   1      31.609  22.970  24.812  1.00  0.00    -0.477 OA
BRANCH  10  11
ATOM     11  C   UNL A   1      32.415  21.894  24.619  1.00  0.00     0.235 A 
ATOM     12  C   UNL A   1      37.811  21.826  25.278  1.00  0.00     0.067 C 
ATOM     13  C   UNL A   1      36.432  21.680  24.695  1.00  0.00     0.039 A 
ATOM     14  C   UNL A   1      35.949  22.631  23.800  1.00  0.00     0.027 A 
ATOM     15  N   UNL A   1      35.696  20.625  25.109  1.00  0.00    -0.240 NA
ATOM     16  C   UNL A   1      34.586  22.649  23.456  1.00  0.00    -0.034 A 
ATOM     17  C   UNL A   1      34.380  20.766  24.857  1.00  0.00     0.147 A 
ATOM     18  C   UNL A   1      33.946  23.437  22.382  1.00  0.00     0.045 C 
ATOM     19  C   UNL A   1      33.772  21.834  24.222  1.00  0.00     0.078 A 
ATOM     20  S   UNL A   1      33.153  19.651  25.242  1.00  0.00    -0.012 S 
ATOM     21  N   UNL A   1      31.890  20.741  25.038  1.00  0.00    -0.153 NA
ENDBRANCH  10  11
ENDBRANCH   9  10
ENDBRANCH   8   9
ENDBRANCH   7   8
ENDBRANCH   4   7
ENDBRANCH   2   3
ENDBRANCH   1   2
BRANCH   1  22
ATOM     22  C   UNL A   1      33.627  30.180  27.441  1.00  0.00     0.023 C 
BRANCH  22  23
ATOM     23  C   UNL A   1      34.610  31.349  27.581  1.00  0.00     0.116 C 
BRANCH  23  24
ATOM     24  N   UNL A   1      34.596  31.986  28.903  1.00  0.00    -0.352 N 
ATOM     25  C   UNL A   1      35.468  31.721  29.948  1.00  0.00     0.251 C 
ATOM     26  H   UNL A   1      33.901  32.664  29.063  1.00  0.00     0.163 HD
ATOM     27  O   UNL A   1      35.202  32.054  31.102  1.00  0.00    -0.269 OA
BRANCH  25  28
ATOM     28  C   UNL A   1      36.735  31.040  29.630  1.00  0.00     0.039 A 
ATOM     29  C   UNL A   1      37.947  31.734  29.580  1.00  0.00     0.014 A 
ATOM     30  C   UNL A   1      36.690  29.653  29.485  1.00  0.00     0.014 A 
ATOM     31  C   UNL A   1      39.134  31.005  29.494  1.00  0.00     0.010 A 
ATOM     32  C   UNL A   1      37.864  28.932  29.467  1.00  0.00     0.010 A 
ATOM     33  C   UNL A   1      39.090  29.602  29.474  1.00  0.00    -0.014 A 
BRANCH  33  34
ATOM     34  C   UNL A   1      40.319  28.825  29.667  1.00  0.00     0.031 A 
ATOM     35  C   UNL A   1      40.736  28.660  31.096  1.00  0.00     0.074 A 
ATOM     36  C   UNL A   1      40.880  28.081  28.688  1.00  0.00     0.049 A 
ATOM     37  N   UNL A   1      41.847  29.012  31.658  1.00  0.00    -0.248 NA
ATOM     38  C   UNL A   1      39.745  28.128  32.051  1.00  0.00     0.031 C 
ATOM     39  C   UNL A   1      40.392  27.887  27.319  1.00  0.00     0.029 A 
ATOM     40  N   UNL A   1      41.944  27.231  28.747  1.00  0.00    -0.354 N 
ATOM     41  C   UNL A   1      41.782  28.569  32.978  1.00  0.00     0.074 A 
ATOM     42  C   UNL A   1      40.412  28.189  33.204  1.00  0.00     0.031 C 
ATOM     43  C   UNL A   1      41.006  26.818  26.767  1.00  0.00     0.029 A 
ATOM     44  C   UNL A   1      42.037  26.345  27.674  1.00  0.00     0.049 A 
ATOM     45  H   UNL A   1      42.593  27.242  29.486  1.00  0.00     0.167 HD
ATOM     46  C   UNL A   1      42.903  28.354  33.724  1.00  0.00     0.034 A 
ATOM     47  C   UNL A   1      42.875  25.278  27.557  1.00  0.00     0.034 A 
ATOM     48  C   UNL A   1      44.050  29.008  33.144  1.00  0.00     0.049 A 
ATOM     49  C   UNL A   1      44.000  25.530  28.491  1.00  0.00     0.074 A 
ATOM     50  C   UNL A   1      44.362  30.320  32.847  1.00  0.00     0.029 A 
ATOM     51  N   UNL A   1      44.920  28.244  32.403  1.00  0.00    -0.354 N 
ATOM     52  N   UNL A   1      44.826  26.534  28.374  1.00  0.00    -0.248 NA
ATOM     53  C   UNL A   1      43.919  24.942  29.819  1.00  0.00     0.031 C 
ATOM     54  C   UNL A   1      45.016  30.259  31.582  1.00  0.00     0.029 A 
ATOM     55  C   UNL A   1      45.143  28.915  31.224  1.00  0.00     0.049 A 
ATOM     56  H   UNL A   1      45.310  27.380  32.666  1.00  0.00     0.167 HD
ATOM     57  C   UNL A   1      45.039  26.974  29.671  1.00  0.00     0.074 A 
ATOM     58  C   UNL A   1      44.528  25.900  30.523  1.00  0.00     0.031 C 
ATOM     59  C   UNL A   1      45.353  28.274  29.941  1.00  0.00     0.034 A 
BRANCH  46  60
ATOM     60  C   UNL A   1      43.040  27.304  34.804  1.00  0.00     0.023 A 
ATOM     61  C   UNL A   1      43.718  26.106  34.496  1.00  0.00     0.031 A 
ATOM     62  C   UNL A   1      42.316  27.306  36.018  1.00  0.00     0.131 A 
ATOM     63  C   UNL A   1      43.618  24.981  35.338  1.00  0.00     0.055 A 
ATOM     64  C   UNL A   1      42.271  26.207  36.880  1.00  0.00     0.041 A 
ATOM     65  F   UNL A   1      41.539  28.330  36.389  1.00  0.00    -0.206 F 
ATOM     66  C   UNL A   1      42.904  25.027  36.533  1.00  0.00     0.022 A 
BRANCH  63  67
ATOM     67  S   UNL A   1      44.324  23.406  34.783  1.00  0.00     0.124 S 
ATOM     68  O   UNL A   1      45.425  23.855  33.939  1.00  0.00    -0.237 OA
ATOM     69  O   UNL A   1      44.694  22.778  36.047  1.00  0.00    -0.237 OA
ATOM     70  O   UNL A   1      43.216  22.768  34.076  1.00  0.00    -0.744 OA
ENDBRANCH  63  67
ENDBRANCH  46  60
BRANCH  47  71
ATOM     71  C   UNL A   1      42.616  23.948  26.927  1.00  0.00     0.023 A 
ATOM     72  C   UNL A   1      43.602  23.267  26.174  1.00  0.00     0.031 A 
ATOM     73  C   UNL A   1      41.471  23.197  27.276  1.00  0.00     0.131 A 
ATOM     74  C   UNL A   1      43.426  21.908  25.818  1.00  0.00     0.055 A 
ATOM     75  C   UNL A   1      41.298  21.858  26.915  1.00  0.00     0.041 A 
ATOM     76  F   UNL A   1      40.515  23.710  28.066  1.00  0.00    -0.206 F 
ATOM     77  C   UNL A   1      42.283  21.202  26.195  1.00  0.00     0.022 A 
BRANCH  74  78
ATOM     78  S   UNL A   1      44.752  20.989  24.968  1.00  0.00     0.124 S 
ATOM     79  O   UNL A   1      44.617  21.458  23.593  1.00  0.00    -0.237 OA
ATOM     80  O   UNL A   1      45.948  21.417  25.686  1.00  0.00    -0.237 OA
ATOM     81  O   UNL A   1      44.382  19.588  25.181  1.00  0.00    -0.744 OA
ENDBRANCH  74  78
ENDBRANCH  47  71
BRANCH  59  82
ATOM     82  C   UNL A   1      45.761  29.186  28.802  1.00  0.00     0.023 A 
ATOM     83  C   UNL A   1      44.936  30.173  28.212  1.00  0.00     0.031 A 
ATOM     84  C   UNL A   1      47.120  29.165  28.441  1.00  0.00     0.131 A 
ATOM     85  C   UNL A   1      45.494  31.098  27.302  1.00  0.00     0.055 A 
ATOM     86  C   UNL A   1      47.669  30.093  27.561  1.00  0.00     0.041 A 
ATOM     87  F   UNL A   1      47.953  28.267  28.994  1.00  0.00    -0.206 F 
ATOM     88  C   UNL A   1      46.859  31.066  26.990  1.00  0.00     0.022 A 
BRANCH  85  89
ATOM     89  S   UNL A   1      44.464  32.397  26.540  1.00  0.00     0.124 S 
ATOM     90  O   UNL A   1      43.907  33.097  27.692  1.00  0.00    -0.237 OA
ATOM     91  O   UNL A   1      45.428  33.145  25.737  1.00  0.00    -0.237 OA
ATOM     92  O   UNL A   1      43.484  31.642  25.757  1.00  0.00    -0.744 OA
ENDBRANCH  85  89
ENDBRANCH  59  82
ENDBRANCH  33  34
ENDBRANCH  25  28
ENDBRANCH  23  24
ENDBRANCH  22  23
ENDBRANCH   1  22
TORSDOF 18
ENDMDL
MODEL 3
REMARK VINA RESULT:     -11.5      1.323      2.186
REMARK SMILES Cc1cc(C)c2c(OCCCC(=O)NCCCCNC(=O)c3ccc(-c4c5nc(c(-c6cc(S(=O)(=O)[O-])ccc6F)c6ccc([nH]6)c(-c6cc(S(=O)(=O)[O-])ccc6F)c6nc(c(-c7cc(S(=O)(=O)[O-])ccc7F)c7ccc4[nH]7)C=C6)C=C5)cc3)nsc2n1
REMARK SMILES IDX 16 1 15 2 14 3 12 4 13 5 11 7 10 8 9 9 8 10 7 11 1 12 2 13
REMARK SMILES IDX 3 14 88 15 4 16 87 17 5 18 6 19 86 20 85 21 17 22 18 23
REMARK SMILES IDX 19 24 20 25 21 27 22 28 23 29 84 30 24 31 83 32 25 33 26 34
REMARK SMILES IDX 27 35 77 36 28 37 82 38 76 39 78 40 29 41 81 42 75 43 74 44
REMARK SMILES IDX 30 46 62 47 42 48 61 49 43 50 46 51 60 52 79 53 44 54 45 55
REMARK SMILES IDX 59 57 80 58 47 59 31 60 32 61 40 62 33 63 39 64 41 65 38 66
REMARK SMILES IDX 34 67 35 68 36 69 37 70 63 71 64 72 72 73 65 74 71 75 73 76
REMARK SMILES IDX 70 77 66 78 67 79 68 80 69 81 48 82 49 83 57 84 50 85 56 86
REMARK SMILES IDX 58 87 55 88 51 89 52 90 53 91 54 92
REMARK H PARENT 14 6 19 26 78 45 46 56
REMARK Flexibility Score: inf
ROOT
ATOM      1  C   UNL A   1      35.467  23.483  24.896  1.00  0.00     0.023 C 
ENDROOT
BRANCH   1   2
ATOM      2  C   UNL A   1      34.785  22.681  23.741  1.00  0.00     0.116 C 
BRANCH   2   3
ATOM      3  N   UNL A   1      33.373  23.151  23.414  1.00  0.00    -0.356 N 
ATOM      4  C   UNL A   1      32.475  24.076  22.977  1.00  0.00     0.220 C 
ATOM      5  O   UNL A   1      31.326  23.579  23.058  1.00  0.00    -0.275 OA
ATOM      6  H   UNL A   1      32.813  22.373  23.638  1.00  0.00     0.163 HD
BRANCH   4   7
ATOM      7  C   UNL A   1      32.521  25.512  22.253  1.00  0.00     0.103 C 
BRANCH   7   8
ATOM      8  C   UNL A   1      33.644  26.620  22.022  1.00  0.00     0.051 C 
BRANCH   8   9
ATOM      9  C   UNL A   1      33.754  28.132  22.472  1.00  0.00     0.232 C 
BRANCH   9  10
ATOM     10  O   UNL A   1      32.660  28.918  22.966  1.00  0.00    -0.477 OA
BRANCH  10  11
ATOM     11  C   UNL A   1      32.172  28.801  24.229  1.00  0.00     0.235 A 
ATOM     12  C   UNL A   1      30.245  24.234  26.462  1.00  0.00     0.067 C 
ATOM     13  C   UNL A   1      30.381  25.652  25.980  1.00  0.00     0.039 A 
ATOM     14  C   UNL A   1      29.763  26.048  24.796  1.00  0.00     0.027 A 
ATOM     15  N   UNL A   1      31.147  26.485  26.718  1.00  0.00    -0.240 NA
ATOM     16  C   UNL A   1      30.093  27.280  24.205  1.00  0.00    -0.034 A 
ATOM     17  C   UNL A   1      31.529  27.588  26.047  1.00  0.00     0.147 A 
ATOM     18  C   UNL A   1      29.399  27.947  23.084  1.00  0.00     0.045 C 
ATOM     19  C   UNL A   1      31.193  27.920  24.747  1.00  0.00     0.078 A 
ATOM     20  S   UNL A   1      32.501  28.850  26.648  1.00  0.00    -0.012 S 
ATOM     21  N   UNL A   1      32.850  29.502  25.139  1.00  0.00    -0.153 NA
ENDBRANCH  10  11
ENDBRANCH   9  10
ENDBRANCH   8   9
ENDBRANCH   7   8
ENDBRANCH   4   7
ENDBRANCH   2   3
ENDBRANCH   1   2
BRANCH   1  22
ATOM     22  C   UNL A   1      37.001  23.642  24.821  1.00  0.00     0.023 C 
BRANCH  22  23
ATOM     23  C   UNL A   1      37.711  23.985  26.137  1.00  0.00     0.116 C 
BRANCH  23  24
ATOM     24  N   UNL A   1      39.126  23.599  26.171  1.00  0.00    -0.352 N 
ATOM     25  C   UNL A   1      40.184  24.404  26.565  1.00  0.00     0.251 C 
ATOM     26  H   UNL A   1      39.345  22.683  25.885  1.00  0.00     0.163 HD
ATOM     27  O   UNL A   1      41.345  24.123  26.270  1.00  0.00    -0.269 OA
BRANCH  25  28
ATOM     28  C   UNL A   1      39.875  25.602  27.366  1.00  0.00     0.039 A 
ATOM     29  C   UNL A   1      39.341  25.504  28.653  1.00  0.00     0.014 A 
ATOM     30  C   UNL A   1      40.238  26.836  26.826  1.00  0.00     0.014 A 
ATOM     31  C   UNL A   1      39.278  26.653  29.442  1.00  0.00     0.010 A 
ATOM     32  C   UNL A   1      40.237  27.957  27.628  1.00  0.00     0.010 A 
ATOM     33  C   UNL A   1      39.760  27.872  28.937  1.00  0.00    -0.014 A 
BRANCH  33  34
ATOM     34  C   UNL A   1      39.961  29.012  29.838  1.00  0.00     0.031 A 
ATOM     35  C   UNL A   1      38.747  29.864  30.049  1.00  0.00     0.074 A 
ATOM     36  C   UNL A   1      41.046  29.138  30.634  1.00  0.00     0.049 A 
ATOM     37  N   UNL A   1      38.598  31.128  29.816  1.00  0.00    -0.248 NA
ATOM     38  C   UNL A   1      37.501  29.200  30.477  1.00  0.00     0.031 C 
ATOM     39  C   UNL A   1      42.168  28.204  30.773  1.00  0.00     0.029 A 
ATOM     40  N   UNL A   1      41.316  30.071  31.590  1.00  0.00    -0.354 N 
ATOM     41  C   UNL A   1      37.317  31.463  30.253  1.00  0.00     0.074 A 
ATOM     42  C   UNL A   1      36.637  30.217  30.488  1.00  0.00     0.031 C 
ATOM     43  C   UNL A   1      42.858  28.490  31.899  1.00  0.00     0.029 A 
ATOM     44  C   UNL A   1      42.330  29.712  32.479  1.00  0.00     0.049 A 
ATOM     45  H   UNL A   1      40.835  30.927  31.649  1.00  0.00     0.167 HD
ATOM     46  C   UNL A   1      36.980  32.742  30.585  1.00  0.00     0.034 A 
ATOM     47  C   UNL A   1      42.684  30.354  33.627  1.00  0.00     0.034 A 
ATOM     48  C   UNL A   1      37.928  33.688  30.053  1.00  0.00     0.049 A 
ATOM     49  C   UNL A   1      42.185  31.745  33.495  1.00  0.00     0.074 A 
ATOM     50  C   UNL A   1      38.355  34.012  28.780  1.00  0.00     0.029 A 
ATOM     51  N   UNL A   1      38.891  34.181  30.901  1.00  0.00    -0.354 N 
ATOM     52  N   UNL A   1      42.603  32.580  32.582  1.00  0.00    -0.248 NA
ATOM     53  C   UNL A   1      40.888  32.054  34.075  1.00  0.00     0.031 C 
ATOM     54  C   UNL A   1      39.763  34.196  28.905  1.00  0.00     0.029 A 
ATOM     55  C   UNL A   1      40.098  34.063  30.254  1.00  0.00     0.049 A 
ATOM     56  H   UNL A   1      38.745  34.550  31.802  1.00  0.00     0.167 HD
ATOM     57  C   UNL A   1      41.465  33.256  32.170  1.00  0.00     0.074 A 
ATOM     58  C   UNL A   1      40.457  32.955  33.187  1.00  0.00     0.031 C 
ATOM     59  C   UNL A   1      41.357  33.768  30.910  1.00  0.00     0.034 A 
BRANCH  46  60
ATOM     60  C   UNL A   1      35.973  33.127  31.646  1.00  0.00     0.023 A 
ATOM     61  C   UNL A   1      34.855  33.898  31.265  1.00  0.00     0.031 A 
ATOM     62  C   UNL A   1      36.192  33.008  33.037  1.00  0.00     0.131 A 
ATOM     63  C   UNL A   1      34.056  34.541  32.231  1.00  0.00     0.055 A 
ATOM     64  C   UNL A   1      35.360  33.597  33.993  1.00  0.00     0.041 A 
ATOM     65  F   UNL A   1      37.271  32.401  33.545  1.00  0.00    -0.206 F 
ATOM     66  C   UNL A   1      34.298  34.388  33.594  1.00  0.00     0.022 A 
BRANCH  63  67
ATOM     67  S   UNL A   1      32.771  35.694  31.678  1.00  0.00     0.124 S 
ATOM     68  O   UNL A   1      31.657  35.337  32.549  1.00  0.00    -0.237 OA
ATOM     69  O   UNL A   1      33.397  36.988  31.927  1.00  0.00    -0.237 OA
ATOM     70  O   UNL A   1      32.593  35.353  30.268  1.00  0.00    -0.744 OA
ENDBRANCH  63  67
ENDBRANCH  46  60
BRANCH  47  71
ATOM     71  C   UNL A   1      43.148  29.769  34.921  1.00  0.00     0.023 A 
ATOM     72  C   UNL A   1      42.530  28.634  35.498  1.00  0.00     0.031 A 
ATOM     73  C   UNL A   1      44.381  30.162  35.488  1.00  0.00     0.131 A 
ATOM     74  C   UNL A   1      43.146  27.946  36.572  1.00  0.00     0.055 A 
ATOM     75  C   UNL A   1      44.981  29.484  36.554  1.00  0.00     0.041 A 
ATOM     76  F   UNL A   1      45.101  31.167  34.964  1.00  0.00    -0.206 F 
ATOM     77  C   UNL A   1      44.372  28.363  37.093  1.00  0.00     0.022 A 
BRANCH  74  78
ATOM     78  S   UNL A   1      42.424  26.405  37.226  1.00  0.00     0.124 S 
ATOM     79  O   UNL A   1      41.028  26.781  37.425  1.00  0.00    -0.237 OA
ATOM     80  O   UNL A   1      42.693  25.448  36.160  1.00  0.00    -0.237 OA
ATOM     81  O   UNL A   1      43.181  26.174  38.458  1.00  0.00    -0.744 OA
ENDBRANCH  74  78
ENDBRANCH  47  71
BRANCH  59  82
ATOM     82  C   UNL A   1      42.596  33.861  30.043  1.00  0.00     0.023 A 
ATOM     83  C   UNL A   1      43.049  32.854  29.158  1.00  0.00     0.031 A 
ATOM     84  C   UNL A   1      43.226  35.116  29.986  1.00  0.00     0.131 A 
ATOM     85  C   UNL A   1      44.095  33.137  28.253  1.00  0.00     0.055 A 
ATOM     86  C   UNL A   1      44.241  35.397  29.075  1.00  0.00     0.041 A 
ATOM     87  F   UNL A   1      42.815  36.117  30.783  1.00  0.00    -0.206 F 
ATOM     88  C   UNL A   1      44.678  34.409  28.202  1.00  0.00     0.022 A 
BRANCH  85  89
ATOM     89  S   UNL A   1      44.688  31.869  27.083  1.00  0.00     0.124 S 
ATOM     90  O   UNL A   1      43.490  31.084  26.810  1.00  0.00    -0.237 OA
ATOM     91  O   UNL A   1      45.203  32.666  25.974  1.00  0.00    -0.237 OA
ATOM     92  O   UNL A   1      45.719  31.158  27.843  1.00  0.00    -0.744 OA
ENDBRANCH  85  89
ENDBRANCH  59  82
ENDBRANCH  33  34
ENDBRANCH  25  28
ENDBRANCH  23  24
ENDBRANCH  22  23
ENDBRANCH   1  22
TORSDOF 18
ENDMDL
