MODEL 1
REMARK VINA RESULT:     -12.8      0.000      0.000
REMARK SMILES Cc1cc2c(c(C)c1Cl)C=C(C(=O)NCCCCNC(=O)c1ccc(-c3c4nc(c(-c5cc(S(=O)(=O)[O-])ccc5F)c5ccc([nH]5)c(-c5cc(S(=O)(=O)[O-])ccc5F)c5nc(c(-c6cc(S(=O)(=O)[O-])ccc6F)c6ccc3[nH]6)C=C5)C=C4)cc1)[C@@H](C(F)(F)F)O2
REMARK SMILES IDX 17 1 16 2 15 3 14 4 12 5 13 6 11 8 1 9 2 10 3 11 8 12 4 13
REMARK SMILES IDX 6 14 9 15 5 16 90 17 7 18 10 19 85 20 86 21 87 22 88 23
REMARK SMILES IDX 89 24 18 25 19 26 20 27 21 29 22 30 23 31 84 32 24 33 83 34
REMARK SMILES IDX 25 35 26 36 27 37 77 38 28 39 82 40 76 41 78 42 29 43 81 44
REMARK SMILES IDX 75 45 74 46 30 48 62 49 42 50 61 51 43 52 46 53 60 54 79 55
REMARK SMILES IDX 44 56 45 57 59 59 80 60 47 61 31 62 32 63 40 64 33 65 39 66
REMARK SMILES IDX 41 67 38 68 34 69 35 70 36 71 37 72 63 73 64 74 72 75 65 76
REMARK SMILES IDX 71 77 73 78 70 79 66 80 67 81 68 82 69 83 48 84 49 85 57 86
REMARK SMILES IDX 50 87 56 88 58 89 55 90 51 91 52 92 53 93 54 94
REMARK H PARENT 14 7 19 28 78 47 46 58
REMARK Flexibility Score: inf
ROOT
ATOM      1  C   UNL A   1      35.562  21.380  24.623  1.00  0.00     0.023 C 
ENDROOT
BRANCH   1   2
ATOM      2  C   UNL A   1      34.817  20.090  24.978  1.00  0.00     0.023 C 
BRANCH   2   3
ATOM      3  C   UNL A   1      33.422  20.313  25.556  1.00  0.00     0.116 C 
BRANCH   3   4
ATOM      4  N   UNL A   1      33.464  21.057  26.803  1.00  0.00    -0.352 N 
ATOM      5  C   UNL A   1      32.977  22.229  27.270  1.00  0.00     0.251 C 
ATOM      6  O   UNL A   1      33.275  22.495  28.439  1.00  0.00    -0.270 OA
ATOM      7  H   UNL A   1      33.986  20.583  27.490  1.00  0.00     0.163 HD
BRANCH   5   8
ATOM      8  C   UNL A   1      32.129  23.185  26.495  1.00  0.00     0.067 C 
ATOM      9  C   UNL A   1      29.522  28.201  23.256  1.00  0.00     0.046 C 
ATOM     10  C   UNL A   1      30.344  27.291  24.128  1.00  0.00    -0.028 A 
ATOM     11  C   UNL A   1      30.007  25.933  24.160  1.00  0.00     0.052 A 
ATOM     12  C   UNL A   1      31.471  27.727  24.855  1.00  0.00     0.047 A 
ATOM     13  C   UNL A   1      30.753  25.035  24.916  1.00  0.00     0.128 A 
ATOM     14  C   UNL A   1      32.228  26.826  25.645  1.00  0.00    -0.021 A 
ATOM     15  Cl  UNL A   1      31.940  29.398  24.737  1.00  0.00    -0.084 Cl
ATOM     16  C   UNL A   1      31.864  25.457  25.651  1.00  0.00     0.022 A 
ATOM     17  O   UNL A   1      30.354  23.731  24.844  1.00  0.00    -0.475 OA
ATOM     18  C   UNL A   1      33.422  27.283  26.449  1.00  0.00     0.047 C 
ATOM     19  C   UNL A   1      32.634  24.426  26.356  1.00  0.00     0.026 C 
ATOM     20  C   UNL A   1      30.780  22.861  25.927  1.00  0.00     0.314 C 
BRANCH  20  21
ATOM     21  C   UNL A   1      29.677  22.807  27.000  1.00  0.00     0.429 C 
ATOM     22  F   UNL A   1      30.214  22.550  28.219  1.00  0.00    -0.167 F 
ATOM     23  F   UNL A   1      29.007  23.977  27.115  1.00  0.00    -0.167 F 
ATOM     24  F   UNL A   1      28.757  21.847  26.753  1.00  0.00    -0.167 F 
ENDBRANCH  20  21
ENDBRANCH   5   8
ENDBRANCH   3   4
ENDBRANCH   2   3
ENDBRANCH   1   2
BRANCH   1  25
ATOM     25  C   UNL A   1      36.754  21.720  25.517  1.00  0.00     0.116 C 
BRANCH  25  26
ATOM     26  N   UNL A   1      37.772  20.681  25.562  1.00  0.00    -0.352 N 
ATOM     27  C   UNL A   1      39.074  20.792  25.991  1.00  0.00     0.251 C 
ATOM     28  H   UNL A   1      37.496  19.790  25.246  1.00  0.00     0.163 HD
ATOM     29  O   UNL A   1      39.841  19.838  25.910  1.00  0.00    -0.269 OA
BRANCH  27  30
ATOM     30  C   UNL A   1      39.535  22.096  26.500  1.00  0.00     0.039 A 
ATOM     31  C   UNL A   1      40.595  22.125  27.406  1.00  0.00     0.014 A 
ATOM     32  C   UNL A   1      38.983  23.280  26.000  1.00  0.00     0.014 A 
ATOM     33  C   UNL A   1      41.162  23.351  27.752  1.00  0.00     0.010 A 
ATOM     34  C   UNL A   1      39.586  24.496  26.304  1.00  0.00     0.010 A 
ATOM     35  C   UNL A   1      40.689  24.539  27.170  1.00  0.00    -0.014 A 
BRANCH  35  36
ATOM     36  C   UNL A   1      41.353  25.834  27.450  1.00  0.00     0.031 A 
ATOM     37  C   UNL A   1      40.647  26.878  28.265  1.00  0.00     0.074 A 
ATOM     38  C   UNL A   1      42.574  26.078  26.936  1.00  0.00     0.049 A 
ATOM     39  N   UNL A   1      41.046  28.080  28.589  1.00  0.00    -0.248 NA
ATOM     40  C   UNL A   1      39.307  26.531  28.761  1.00  0.00     0.031 C 
ATOM     41  C   UNL A   1      43.340  25.152  26.097  1.00  0.00     0.029 A 
ATOM     42  N   UNL A   1      43.390  27.175  27.049  1.00  0.00    -0.354 N 
ATOM     43  C   UNL A   1      40.007  28.635  29.323  1.00  0.00     0.074 A 
ATOM     44  C   UNL A   1      38.937  27.660  29.347  1.00  0.00     0.031 C 
ATOM     45  C   UNL A   1      44.531  25.703  25.808  1.00  0.00     0.029 A 
ATOM     46  C   UNL A   1      44.600  27.030  26.412  1.00  0.00     0.049 A 
ATOM     47  H   UNL A   1      43.133  27.988  27.540  1.00  0.00     0.167 HD
ATOM     48  C   UNL A   1      39.959  29.838  29.946  1.00  0.00     0.034 A 
ATOM     49  C   UNL A   1      45.648  27.871  26.331  1.00  0.00     0.034 A 
ATOM     50  C   UNL A   1      41.035  30.793  29.933  1.00  0.00     0.049 A 
ATOM     51  C   UNL A   1      45.565  29.210  27.011  1.00  0.00     0.074 A 
ATOM     52  C   UNL A   1      41.108  32.021  30.564  1.00  0.00     0.029 A 
ATOM     53  N   UNL A   1      42.234  30.624  29.252  1.00  0.00    -0.354 N 
ATOM     54  N   UNL A   1      44.578  29.716  27.711  1.00  0.00    -0.248 NA
ATOM     55  C   UNL A   1      46.735  30.091  26.888  1.00  0.00     0.031 C 
ATOM     56  C   UNL A   1      42.334  32.612  30.234  1.00  0.00     0.029 A 
ATOM     57  C   UNL A   1      43.043  31.731  29.432  1.00  0.00     0.049 A 
ATOM     58  H   UNL A   1      42.472  29.831  28.718  1.00  0.00     0.167 HD
ATOM     59  C   UNL A   1      45.012  30.970  28.125  1.00  0.00     0.074 A 
ATOM     60  C   UNL A   1      46.351  31.144  27.597  1.00  0.00     0.031 C 
ATOM     61  C   UNL A   1      44.365  31.891  28.880  1.00  0.00     0.034 A 
BRANCH  48  62
ATOM     62  C   UNL A   1      38.691  30.177  30.683  1.00  0.00     0.023 A 
ATOM     63  C   UNL A   1      37.661  30.902  30.061  1.00  0.00     0.031 A 
ATOM     64  C   UNL A   1      38.524  29.804  32.027  1.00  0.00     0.131 A 
ATOM     65  C   UNL A   1      36.538  31.292  30.803  1.00  0.00     0.055 A 
ATOM     66  C   UNL A   1      37.371  30.135  32.741  1.00  0.00     0.041 A 
ATOM     67  F   UNL A   1      39.487  29.127  32.673  1.00  0.00    -0.206 F 
ATOM     68  C   UNL A   1      36.374  30.895  32.132  1.00  0.00     0.022 A 
BRANCH  65  69
ATOM     69  S   UNL A   1      35.340  32.416  30.036  1.00  0.00     0.124 S 
ATOM     70  O   UNL A   1      34.843  31.603  28.929  1.00  0.00    -0.237 OA
ATOM     71  O   UNL A   1      34.397  32.664  31.120  1.00  0.00    -0.237 OA
ATOM     72  O   UNL A   1      36.153  33.566  29.642  1.00  0.00    -0.744 OA
ENDBRANCH  65  69
ENDBRANCH  48  62
BRANCH  49  73
ATOM     73  C   UNL A   1      46.869  27.469  25.585  1.00  0.00     0.023 A 
ATOM     74  C   UNL A   1      47.012  27.783  24.225  1.00  0.00     0.031 A 
ATOM     75  C   UNL A   1      47.909  26.771  26.221  1.00  0.00     0.131 A 
ATOM     76  C   UNL A   1      48.165  27.379  23.534  1.00  0.00     0.055 A 
ATOM     77  C   UNL A   1      49.065  26.394  25.537  1.00  0.00     0.041 A 
ATOM     78  F   UNL A   1      47.820  26.463  27.525  1.00  0.00    -0.206 F 
ATOM     79  C   UNL A   1      49.196  26.694  24.183  1.00  0.00     0.022 A 
BRANCH  76  80
ATOM     80  S   UNL A   1      48.298  27.752  21.764  1.00  0.00     0.124 S 
ATOM     81  O   UNL A   1      49.501  28.576  21.725  1.00  0.00    -0.237 OA
ATOM     82  O   UNL A   1      48.412  26.419  21.179  1.00  0.00    -0.237 OA
ATOM     83  O   UNL A   1      47.050  28.451  21.470  1.00  0.00    -0.744 OA
ENDBRANCH  76  80
ENDBRANCH  49  73
BRANCH  61  84
ATOM     84  C   UNL A   1      45.104  33.159  29.195  1.00  0.00     0.023 A 
ATOM     85  C   UNL A   1      44.928  34.316  28.420  1.00  0.00     0.031 A 
ATOM     86  C   UNL A   1      45.958  33.220  30.310  1.00  0.00     0.131 A 
ATOM     87  C   UNL A   1      45.618  35.489  28.758  1.00  0.00     0.055 A 
ATOM     88  C   UNL A   1      46.613  34.398  30.663  1.00  0.00     0.041 A 
ATOM     89  F   UNL A   1      46.150  32.138  31.080  1.00  0.00    -0.206 F 
ATOM     90  C   UNL A   1      46.447  35.541  29.884  1.00  0.00     0.022 A 
BRANCH  87  91
ATOM     91  S   UNL A   1      45.420  36.956  27.712  1.00  0.00     0.124 S 
ATOM     92  O   UNL A   1      46.660  36.944  26.942  1.00  0.00    -0.237 OA
ATOM     93  O   UNL A   1      44.203  36.655  26.965  1.00  0.00    -0.237 OA
ATOM     94  O   UNL A   1      45.298  38.049  28.674  1.00  0.00    -0.744 OA
ENDBRANCH  87  91
ENDBRANCH  61  84
ENDBRANCH  35  36
ENDBRANCH  27  30
ENDBRANCH  25  26
ENDBRANCH   1  25
TORSDOF 15
ENDMDL
MODEL 2
REMARK VINA RESULT:     -12.7      5.925     10.851
REMARK SMILES Cc1cc2c(c(C)c1Cl)C=C(C(=O)NCCCCNC(=O)c1ccc(-c3c4nc(c(-c5cc(S(=O)(=O)[O-])ccc5F)c5ccc([nH]5)c(-c5cc(S(=O)(=O)[O-])ccc5F)c5nc(c(-c6cc(S(=O)(=O)[O-])ccc6F)c6ccc3[nH]6)C=C5)C=C4)cc1)[C@@H](C(F)(F)F)O2
REMARK SMILES IDX 17 1 16 2 15 3 14 4 12 5 13 6 11 8 1 9 2 10 3 11 8 12 4 13
REMARK SMILES IDX 6 14 9 15 5 16 90 17 7 18 10 19 85 20 86 21 87 22 88 23
REMARK SMILES IDX 89 24 18 25 19 26 20 27 21 29 22 30 23 31 84 32 24 33 83 34
REMARK SMILES IDX 25 35 26 36 27 37 77 38 28 39 82 40 76 41 78 42 29 43 81 44
REMARK SMILES IDX 75 45 74 46 30 48 62 49 42 50 61 51 43 52 46 53 60 54 79 55
REMARK SMILES IDX 44 56 45 57 59 59 80 60 47 61 31 62 32 63 40 64 33 65 39 66
REMARK SMILES IDX 41 67 38 68 34 69 35 70 36 71 37 72 63 73 64 74 72 75 65 76
REMARK SMILES IDX 71 77 73 78 70 79 66 80 67 81 68 82 69 83 48 84 49 85 57 86
REMARK SMILES IDX 50 87 56 88 58 89 55 90 51 91 52 92 53 93 54 94
REMARK H PARENT 14 7 19 28 78 47 46 58
REMARK Flexibility Score: inf
ROOT
ATOM      1  C   UNL A   1      32.217  30.824  26.733  1.00  0.00     0.023 C 
ENDROOT
BRANCH   1   2
ATOM      2  C   UNL A   1      32.255  29.377  27.234  1.00  0.00     0.023 C 
BRANCH   2   3
ATOM      3  C   UNL A   1      33.529  28.622  26.866  1.00  0.00     0.116 C 
BRANCH   3   4
ATOM      4  N   UNL A   1      33.867  28.779  25.462  1.00  0.00    -0.352 N 
ATOM      5  C   UNL A   1      33.845  28.010  24.350  1.00  0.00     0.251 C 
ATOM      6  O   UNL A   1      34.248  28.562  23.321  1.00  0.00    -0.270 OA
ATOM      7  H   UNL A   1      34.200  29.685  25.270  1.00  0.00     0.163 HD
BRANCH   5   8
ATOM      8  C   UNL A   1      33.379  26.592  24.286  1.00  0.00     0.067 C 
ATOM      9  C   UNL A   1      32.600  20.129  24.533  1.00  0.00     0.046 C 
ATOM     10  C   UNL A   1      33.124  21.539  24.503  1.00  0.00    -0.028 A 
ATOM     11  C   UNL A   1      32.196  22.580  24.389  1.00  0.00     0.052 A 
ATOM     12  C   UNL A   1      34.488  21.860  24.651  1.00  0.00     0.047 A 
ATOM     13  C   UNL A   1      32.614  23.907  24.395  1.00  0.00     0.128 A 
ATOM     14  C   UNL A   1      34.930  23.207  24.639  1.00  0.00    -0.021 A 
ATOM     15  Cl  UNL A   1      35.626  20.566  24.886  1.00  0.00    -0.084 Cl
ATOM     16  C   UNL A   1      33.965  24.238  24.529  1.00  0.00     0.022 A 
ATOM     17  O   UNL A   1      31.619  24.838  24.314  1.00  0.00    -0.475 OA
ATOM     18  C   UNL A   1      36.391  23.566  24.772  1.00  0.00     0.047 C 
ATOM     19  C   UNL A   1      34.303  25.664  24.601  1.00  0.00     0.026 C 
ATOM     20  C   UNL A   1      32.006  26.165  23.862  1.00  0.00     0.314 C 
BRANCH  20  21
ATOM     21  C   UNL A   1      31.792  26.266  22.341  1.00  0.00     0.429 C 
ATOM     22  F   UNL A   1      31.277  27.478  22.015  1.00  0.00    -0.167 F 
ATOM     23  F   UNL A   1      32.945  26.138  21.644  1.00  0.00    -0.167 F 
ATOM     24  F   UNL A   1      30.940  25.326  21.872  1.00  0.00    -0.167 F 
ENDBRANCH  20  21
ENDBRANCH   5   8
ENDBRANCH   3   4
ENDBRANCH   2   3
ENDBRANCH   1   2
BRANCH   1  25
ATOM     25  C   UNL A   1      33.244  31.766  27.360  1.00  0.00     0.116 C 
BRANCH  25  26
ATOM     26  N   UNL A   1      32.768  33.132  27.522  1.00  0.00    -0.352 N 
ATOM     27  C   UNL A   1      33.226  34.088  28.398  1.00  0.00     0.251 C 
ATOM     28  H   UNL A   1      32.028  33.406  26.933  1.00  0.00     0.163 HD
ATOM     29  O   UNL A   1      32.681  35.185  28.465  1.00  0.00    -0.269 OA
BRANCH  27  30
ATOM     30  C   UNL A   1      34.351  33.743  29.285  1.00  0.00     0.039 A 
ATOM     31  C   UNL A   1      34.098  32.968  30.418  1.00  0.00     0.014 A 
ATOM     32  C   UNL A   1      35.657  34.102  28.936  1.00  0.00     0.014 A 
ATOM     33  C   UNL A   1      35.171  32.479  31.162  1.00  0.00     0.010 A 
ATOM     34  C   UNL A   1      36.726  33.567  29.648  1.00  0.00     0.010 A 
ATOM     35  C   UNL A   1      36.491  32.740  30.757  1.00  0.00    -0.014 A 
BRANCH  35  36
ATOM     36  C   UNL A   1      37.635  32.138  31.480  1.00  0.00     0.031 A 
ATOM     37  C   UNL A   1      38.434  31.040  30.839  1.00  0.00     0.074 A 
ATOM     38  C   UNL A   1      37.927  32.556  32.727  1.00  0.00     0.049 A 
ATOM     39  N   UNL A   1      39.445  30.367  31.321  1.00  0.00    -0.248 NA
ATOM     40  C   UNL A   1      38.024  30.632  29.487  1.00  0.00     0.031 C 
ATOM     41  C   UNL A   1      37.197  33.590  33.465  1.00  0.00     0.029 A 
ATOM     42  N   UNL A   1      38.919  32.171  33.592  1.00  0.00    -0.354 N 
ATOM     43  C   UNL A   1      39.792  29.453  30.335  1.00  0.00     0.074 A 
ATOM     44  C   UNL A   1      38.846  29.619  29.252  1.00  0.00     0.031 C 
ATOM     45  C   UNL A   1      37.791  33.785  34.654  1.00  0.00     0.029 A 
ATOM     46  C   UNL A   1      38.923  32.871  34.774  1.00  0.00     0.049 A 
ATOM     47  H   UNL A   1      39.566  31.459  33.385  1.00  0.00     0.167 HD
ATOM     48  C   UNL A   1      40.824  28.574  30.321  1.00  0.00     0.034 A 
ATOM     49  C   UNL A   1      39.751  32.790  35.833  1.00  0.00     0.034 A 
ATOM     50  C   UNL A   1      41.771  28.430  31.395  1.00  0.00     0.049 A 
ATOM     51  C   UNL A   1      40.876  31.792  35.806  1.00  0.00     0.074 A 
ATOM     52  C   UNL A   1      42.876  27.601  31.466  1.00  0.00     0.029 A 
ATOM     53  N   UNL A   1      41.725  29.136  32.590  1.00  0.00    -0.354 N 
ATOM     54  N   UNL A   1      41.197  30.942  34.860  1.00  0.00    -0.248 NA
ATOM     55  C   UNL A   1      41.748  31.741  36.988  1.00  0.00     0.031 C 
ATOM     56  C   UNL A   1      43.476  27.778  32.719  1.00  0.00     0.029 A 
ATOM     57  C   UNL A   1      42.770  28.750  33.410  1.00  0.00     0.049 A 
ATOM     58  H   UNL A   1      41.047  29.813  32.819  1.00  0.00     0.167 HD
ATOM     59  C   UNL A   1      42.317  30.263  35.326  1.00  0.00     0.074 A 
ATOM     60  C   UNL A   1      42.617  30.803  36.637  1.00  0.00     0.031 C 
ATOM     61  C   UNL A   1      43.037  29.287  34.721  1.00  0.00     0.034 A 
BRANCH  48  62
ATOM     62  C   UNL A   1      40.963  27.702  29.102  1.00  0.00     0.023 A 
ATOM     63  C   UNL A   1      41.942  27.965  28.129  1.00  0.00     0.031 A 
ATOM     64  C   UNL A   1      40.090  26.622  28.892  1.00  0.00     0.131 A 
ATOM     65  C   UNL A   1      41.982  27.200  26.956  1.00  0.00     0.055 A 
ATOM     66  C   UNL A   1      40.179  25.820  27.753  1.00  0.00     0.041 A 
ATOM     67  F   UNL A   1      39.125  26.341  29.781  1.00  0.00    -0.206 F 
ATOM     68  C   UNL A   1      41.121  26.115  26.770  1.00  0.00     0.022 A 
BRANCH  65  69
ATOM     69  S   UNL A   1      43.104  27.709  25.626  1.00  0.00     0.124 S 
ATOM     70  O   UNL A   1      42.191  28.406  24.725  1.00  0.00    -0.237 OA
ATOM     71  O   UNL A   1      44.071  28.545  26.328  1.00  0.00    -0.237 OA
ATOM     72  O   UNL A   1      43.628  26.442  25.118  1.00  0.00    -0.744 OA
ENDBRANCH  65  69
ENDBRANCH  48  62
BRANCH  49  73
ATOM     73  C   UNL A   1      39.553  33.684  37.004  1.00  0.00     0.023 A 
ATOM     74  C   UNL A   1      38.880  33.227  38.147  1.00  0.00     0.031 A 
ATOM     75  C   UNL A   1      40.035  35.003  36.997  1.00  0.00     0.131 A 
ATOM     76  C   UNL A   1      38.688  34.092  39.235  1.00  0.00     0.055 A 
ATOM     77  C   UNL A   1      39.865  35.852  38.091  1.00  0.00     0.041 A 
ATOM     78  F   UNL A   1      40.697  35.477  35.929  1.00  0.00    -0.206 F 
ATOM     79  C   UNL A   1      39.183  35.399  39.218  1.00  0.00     0.022 A 
BRANCH  76  80
ATOM     80  S   UNL A   1      37.769  33.490  40.678  1.00  0.00     0.124 S 
ATOM     81  O   UNL A   1      36.527  33.029  40.066  1.00  0.00    -0.237 OA
ATOM     82  O   UNL A   1      38.656  32.451  41.193  1.00  0.00    -0.237 OA
ATOM     83  O   UNL A   1      37.649  34.675  41.523  1.00  0.00    -0.744 OA
ENDBRANCH  76  80
ENDBRANCH  49  73
BRANCH  61  84
ATOM     84  C   UNL A   1      44.229  28.756  35.463  1.00  0.00     0.023 A 
ATOM     85  C   UNL A   1      44.093  27.751  36.434  1.00  0.00     0.031 A 
ATOM     86  C   UNL A   1      45.517  29.229  35.161  1.00  0.00     0.131 A 
ATOM     87  C   UNL A   1      45.232  27.263  37.090  1.00  0.00     0.055 A 
ATOM     88  C   UNL A   1      46.649  28.716  35.791  1.00  0.00     0.041 A 
ATOM     89  F   UNL A   1      45.691  30.187  34.237  1.00  0.00    -0.206 F 
ATOM     90  C   UNL A   1      46.510  27.729  36.763  1.00  0.00     0.022 A 
BRANCH  87  91
ATOM     91  S   UNL A   1      45.029  26.005  38.380  1.00  0.00     0.124 S 
ATOM     92  O   UNL A   1      46.415  25.685  38.706  1.00  0.00    -0.237 OA
ATOM     93  O   UNL A   1      44.282  26.719  39.410  1.00  0.00    -0.237 OA
ATOM     94  O   UNL A   1      44.288  24.940  37.707  1.00  0.00    -0.744 OA
ENDBRANCH  87  91
ENDBRANCH  61  84
ENDBRANCH  35  36
ENDBRANCH  27  30
ENDBRANCH  25  26
ENDBRANCH   1  25
TORSDOF 15
ENDMDL
MODEL 3
REMARK VINA RESULT:     -12.7      5.205     10.232
REMARK SMILES Cc1cc2c(c(C)c1Cl)C=C(C(=O)NCCCCNC(=O)c1ccc(-c3c4nc(c(-c5cc(S(=O)(=O)[O-])ccc5F)c5ccc([nH]5)c(-c5cc(S(=O)(=O)[O-])ccc5F)c5nc(c(-c6cc(S(=O)(=O)[O-])ccc6F)c6ccc3[nH]6)C=C5)C=C4)cc1)[C@@H](C(F)(F)F)O2
REMARK SMILES IDX 17 1 16 2 15 3 14 4 12 5 13 6 11 8 1 9 2 10 3 11 8 12 4 13
REMARK SMILES IDX 6 14 9 15 5 16 90 17 7 18 10 19 85 20 86 21 87 22 88 23
REMARK SMILES IDX 89 24 18 25 19 26 20 27 21 29 22 30 23 31 84 32 24 33 83 34
REMARK SMILES IDX 25 35 26 36 27 37 77 38 28 39 82 40 76 41 78 42 29 43 81 44
REMARK SMILES IDX 75 45 74 46 30 48 62 49 42 50 61 51 43 52 46 53 60 54 79 55
REMARK SMILES IDX 44 56 45 57 59 59 80 60 47 61 31 62 32 63 40 64 33 65 39 66
REMARK SMILES IDX 41 67 38 68 34 69 35 70 36 71 37 72 63 73 64 74 72 75 65 76
REMARK SMILES IDX 71 77 73 78 70 79 66 80 67 81 68 82 69 83 48 84 49 85 57 86
REMARK SMILES IDX 50 87 56 88 58 89 55 90 51 91 52 92 53 93 54 94
REMARK H PARENT 14 7 19 28 78 47 46 58
REMARK Flexibility Score: inf
ROOT
ATOM      1  C   UNL A   1      33.010  29.331  24.607  1.00  0.00     0.023 C 
ENDROOT
BRANCH   1   2
ATOM      2  C   UNL A   1      32.167  28.346  23.793  1.00  0.00     0.023 C 
BRANCH   2   3
ATOM      3  C   UNL A   1      32.474  26.878  24.076  1.00  0.00     0.116 C 
BRANCH   3   4
ATOM      4  N   UNL A   1      31.753  26.387  25.238  1.00  0.00    -0.352 N 
ATOM      5  C   UNL A   1      31.641  25.219  25.909  1.00  0.00     0.251 C 
ATOM      6  O   UNL A   1      30.876  25.239  26.879  1.00  0.00    -0.270 OA
ATOM      7  H   UNL A   1      31.199  27.093  25.644  1.00  0.00     0.163 HD
BRANCH   5   8
ATOM      8  C   UNL A   1      32.359  23.953  25.571  1.00  0.00     0.067 C 
ATOM      9  C   UNL A   1      36.555  19.038  24.748  1.00  0.00     0.046 C 
ATOM     10  C   UNL A   1      35.882  20.359  25.000  1.00  0.00    -0.028 A 
ATOM     11  C   UNL A   1      34.486  20.410  24.913  1.00  0.00     0.052 A 
ATOM     12  C   UNL A   1      36.579  21.522  25.385  1.00  0.00     0.047 A 
ATOM     13  C   UNL A   1      33.801  21.593  25.173  1.00  0.00     0.128 A 
ATOM     14  C   UNL A   1      35.896  22.739  25.634  1.00  0.00    -0.021 A 
ATOM     15  Cl  UNL A   1      38.305  21.428  25.583  1.00  0.00    -0.084 Cl
ATOM     16  C   UNL A   1      34.483  22.756  25.542  1.00  0.00     0.022 A 
ATOM     17  O   UNL A   1      32.440  21.516  25.091  1.00  0.00    -0.475 OA
ATOM     18  C   UNL A   1      36.632  23.999  26.022  1.00  0.00     0.047 C 
ATOM     19  C   UNL A   1      33.672  23.933  25.872  1.00  0.00     0.026 C 
ATOM     20  C   UNL A   1      31.729  22.769  24.900  1.00  0.00     0.314 C 
BRANCH  20  21
ATOM     21  C   UNL A   1      31.490  22.993  23.396  1.00  0.00     0.429 C 
ATOM     22  F   UNL A   1      31.501  21.810  22.733  1.00  0.00    -0.167 F 
ATOM     23  F   UNL A   1      30.290  23.566  23.140  1.00  0.00    -0.167 F 
ATOM     24  F   UNL A   1      32.432  23.781  22.830  1.00  0.00    -0.167 F 
ENDBRANCH  20  21
ENDBRANCH   5   8
ENDBRANCH   3   4
ENDBRANCH   2   3
ENDBRANCH   1   2
BRANCH   1  25
ATOM     25  C   UNL A   1      32.571  29.533  26.057  1.00  0.00     0.116 C 
BRANCH  25  26
ATOM     26  N   UNL A   1      32.231  30.910  26.382  1.00  0.00    -0.352 N 
ATOM     27  C   UNL A   1      32.961  31.808  27.125  1.00  0.00     0.251 C 
ATOM     28  H   UNL A   1      31.374  31.241  26.027  1.00  0.00     0.163 HD
ATOM     29  O   UNL A   1      32.514  32.924  27.371  1.00  0.00    -0.269 OA
BRANCH  27  30
ATOM     30  C   UNL A   1      34.266  31.378  27.659  1.00  0.00     0.039 A 
ATOM     31  C   UNL A   1      35.230  32.348  27.937  1.00  0.00     0.014 A 
ATOM     32  C   UNL A   1      34.487  30.033  27.974  1.00  0.00     0.014 A 
ATOM     33  C   UNL A   1      36.392  31.979  28.612  1.00  0.00     0.010 A 
ATOM     34  C   UNL A   1      35.621  29.678  28.697  1.00  0.00     0.010 A 
ATOM     35  C   UNL A   1      36.575  30.651  29.034  1.00  0.00    -0.014 A 
BRANCH  35  36
ATOM     36  C   UNL A   1      37.756  30.272  29.843  1.00  0.00     0.031 A 
ATOM     37  C   UNL A   1      38.832  29.413  29.244  1.00  0.00     0.074 A 
ATOM     38  C   UNL A   1      37.837  30.671  31.128  1.00  0.00     0.049 A 
ATOM     39  N   UNL A   1      39.921  28.949  29.799  1.00  0.00    -0.248 NA
ATOM     40  C   UNL A   1      38.643  29.004  27.844  1.00  0.00     0.031 C 
ATOM     41  C   UNL A   1      36.833  31.477  31.828  1.00  0.00     0.029 A 
ATOM     42  N   UNL A   1      38.810  30.461  32.071  1.00  0.00    -0.354 N 
ATOM     43  C   UNL A   1      40.548  28.191  28.819  1.00  0.00     0.074 A 
ATOM     44  C   UNL A   1      39.687  28.210  27.654  1.00  0.00     0.031 C 
ATOM     45  C   UNL A   1      37.263  31.728  33.076  1.00  0.00     0.029 A 
ATOM     46  C   UNL A   1      38.554  31.076  33.274  1.00  0.00     0.049 A 
ATOM     47  H   UNL A   1      39.615  29.921  31.903  1.00  0.00     0.167 HD
ATOM     48  C   UNL A   1      41.745  27.560  28.874  1.00  0.00     0.034 A 
ATOM     49  C   UNL A   1      39.283  31.116  34.405  1.00  0.00     0.034 A 
ATOM     50  C   UNL A   1      42.603  27.563  30.030  1.00  0.00     0.049 A 
ATOM     51  C   UNL A   1      40.600  30.391  34.452  1.00  0.00     0.074 A 
ATOM     52  C   UNL A   1      43.854  26.992  30.179  1.00  0.00     0.029 A 
ATOM     53  N   UNL A   1      42.296  28.172  31.239  1.00  0.00    -0.354 N 
ATOM     54  N   UNL A   1      41.183  29.686  33.511  1.00  0.00    -0.248 NA
ATOM     55  C   UNL A   1      41.353  30.462  35.711  1.00  0.00     0.031 C 
ATOM     56  C   UNL A   1      44.287  27.223  31.490  1.00  0.00     0.029 A 
ATOM     57  C   UNL A   1      43.324  27.976  32.144  1.00  0.00     0.049 A 
ATOM     58  H   UNL A   1      41.468  28.671  31.426  1.00  0.00     0.167 HD
ATOM     59  C   UNL A   1      42.380  29.241  34.060  1.00  0.00     0.074 A 
ATOM     60  C   UNL A   1      42.437  29.758  35.414  1.00  0.00     0.031 C 
ATOM     61  C   UNL A   1      43.349  28.482  33.493  1.00  0.00     0.034 A 
BRANCH  48  62
ATOM     62  C   UNL A   1      42.181  26.811  27.643  1.00  0.00     0.023 A 
ATOM     63  C   UNL A   1      41.967  25.427  27.521  1.00  0.00     0.031 A 
ATOM     64  C   UNL A   1      42.848  27.475  26.600  1.00  0.00     0.131 A 
ATOM     65  C   UNL A   1      42.475  24.739  26.411  1.00  0.00     0.055 A 
ATOM     66  C   UNL A   1      43.290  26.796  25.464  1.00  0.00     0.041 A 
ATOM     67  F   UNL A   1      43.094  28.793  26.677  1.00  0.00    -0.206 F 
ATOM     68  C   UNL A   1      43.116  25.417  25.370  1.00  0.00     0.022 A 
BRANCH  65  69
ATOM     69  S   UNL A   1      42.381  22.929  26.396  1.00  0.00     0.124 S 
ATOM     70  O   UNL A   1      43.440  22.573  27.337  1.00  0.00    -0.237 OA
ATOM     71  O   UNL A   1      41.017  22.677  26.845  1.00  0.00    -0.237 OA
ATOM     72  O   UNL A   1      42.652  22.584  25.001  1.00  0.00    -0.744 OA
ENDBRANCH  65  69
ENDBRANCH  48  62
BRANCH  49  73
ATOM     73  C   UNL A   1      38.789  31.877  35.583  1.00  0.00     0.023 A 
ATOM     74  C   UNL A   1      38.156  31.216  36.647  1.00  0.00     0.031 A 
ATOM     75  C   UNL A   1      38.946  33.270  35.662  1.00  0.00     0.131 A 
ATOM     76  C   UNL A   1      37.682  31.955  37.741  1.00  0.00     0.055 A 
ATOM     77  C   UNL A   1      38.496  33.998  36.764  1.00  0.00     0.041 A 
ATOM     78  F   UNL A   1      39.559  33.940  34.673  1.00  0.00    -0.206 F 
ATOM     79  C   UNL A   1      37.855  33.340  37.811  1.00  0.00     0.022 A 
BRANCH  76  80
ATOM     80  S   UNL A   1      36.821  31.080  39.077  1.00  0.00     0.124 S 
ATOM     81  O   UNL A   1      35.611  31.882  39.225  1.00  0.00    -0.237 OA
ATOM     82  O   UNL A   1      36.644  29.749  38.505  1.00  0.00    -0.237 OA
ATOM     83  O   UNL A   1      37.761  31.154  40.192  1.00  0.00    -0.744 OA
ENDBRANCH  76  80
ENDBRANCH  49  73
BRANCH  61  84
ATOM     84  C   UNL A   1      44.559  28.181  34.329  1.00  0.00     0.023 A 
ATOM     85  C   UNL A   1      44.631  27.019  35.114  1.00  0.00     0.031 A 
ATOM     86  C   UNL A   1      45.669  29.044  34.303  1.00  0.00     0.131 A 
ATOM     87  C   UNL A   1      45.787  26.759  35.864  1.00  0.00     0.055 A 
ATOM     88  C   UNL A   1      46.828  28.763  35.022  1.00  0.00     0.041 A 
ATOM     89  F   UNL A   1      45.643  30.163  33.562  1.00  0.00    -0.206 F 
ATOM     90  C   UNL A   1      46.892  27.616  35.810  1.00  0.00     0.022 A 
BRANCH  87  91
ATOM     91  S   UNL A   1      45.838  25.283  36.914  1.00  0.00     0.124 S 
ATOM     92  O   UNL A   1      46.474  24.310  36.032  1.00  0.00    -0.237 OA
ATOM     93  O   UNL A   1      46.635  25.726  38.053  1.00  0.00    -0.237 OA
ATOM     94  O   UNL A   1      44.430  25.025  37.211  1.00  0.00    -0.744 OA
ENDBRANCH  87  91
ENDBRANCH  61  84
ENDBRANCH  35  36
ENDBRANCH  27  30
ENDBRANCH  25  26
ENDBRANCH   1  25
TORSDOF 15
ENDMDL
