MODEL 1
REMARK VINA RESULT:     -11.9      0.000      0.000
REMARK SMILES COCC[C@@]1(C(=O)NCCCCNC(=O)c2ccc(-c3c4nc(c(-c5cc(S(=O)(=O)[O-])ccc5F)c5ccc([nH]5)c(-c5cc(S(=O)(=O)[O-])ccc5F)c5nc(c(-c6cc(S(=O)(=O)[O-])ccc6F)c6ccc3[nH]6)C=C5)C=C4)cc2)CCC[N@@H+](Cc2cccc3c2OC(C)(C)C3)C1
REMARK SMILES IDX 10 1 9 2 8 3 6 4 7 5 5 7 79 8 95 9 80 10 82 11 81 12 4 14
REMARK SMILES IDX 3 15 2 16 1 17 83 18 84 19 85 20 89 21 86 22 88 23 90 24
REMARK SMILES IDX 87 25 94 26 91 27 92 28 93 29 11 30 12 31 13 32 14 33 15 35
REMARK SMILES IDX 16 36 17 37 78 38 18 39 77 40 19 41 20 42 21 43 71 44 22 45
REMARK SMILES IDX 76 46 70 47 72 48 23 49 75 50 69 51 68 52 24 54 56 55 36 56
REMARK SMILES IDX 55 57 37 58 40 59 54 60 73 61 38 62 39 63 53 65 74 66 41 67
REMARK SMILES IDX 25 68 26 69 34 70 27 71 33 72 35 73 32 74 28 75 29 76 30 77
REMARK SMILES IDX 31 78 57 79 58 80 66 81 59 82 65 83 67 84 64 85 60 86 61 87
REMARK SMILES IDX 62 88 63 89 42 90 43 91 51 92 44 93 50 94 52 95 49 96 45 97
REMARK SMILES IDX 46 98 47 99 48 100
REMARK H PARENT 8 6 82 13 13 34 72 53 40 64
REMARK Flexibility Score: inf
ROOT
ATOM      1  C   UNL A   1      36.710  23.306  23.642  1.00  0.00     0.023 C 
ENDROOT
BRANCH   1   2
ATOM      2  C   UNL A   1      35.256  23.725  23.735  1.00  0.00     0.116 C 
BRANCH   2   3
ATOM      3  N   UNL A   1      34.337  22.698  23.323  1.00  0.00    -0.355 N 
ATOM      4  C   UNL A   1      33.164  22.324  23.885  1.00  0.00     0.232 C 
ATOM      5  O   UNL A   1      32.319  21.933  23.064  1.00  0.00    -0.274 OA
ATOM      6  H   UNL A   1      34.598  22.195  22.518  1.00  0.00     0.163 HD
BRANCH   4   7
ATOM      7  C   UNL A   1      32.875  22.209  25.408  1.00  0.00     0.100 C 
ATOM      8  C   UNL A   1      31.350  21.956  25.543  1.00  0.00     0.029 C 
ATOM      9  C   UNL A   1      33.204  23.416  26.342  1.00  0.00     0.279 C 
ATOM     10  C   UNL A   1      30.574  23.229  25.183  1.00  0.00     0.063 C 
ATOM     11  N   UNL A   1      32.432  24.637  26.063  1.00  0.00    -0.330 N 
ATOM     12  C   UNL A   1      30.988  24.410  26.066  1.00  0.00     0.262 C 
ATOM     13  H   UNL A   1      32.638  24.883  25.094  1.00  0.00     0.348 HD
BRANCH   7  14
ATOM     14  C   UNL A   1      33.689  20.992  25.975  1.00  0.00     0.051 C 
BRANCH  14  15
ATOM     15  C   UNL A   1      33.900  19.753  25.089  1.00  0.00     0.161 C 
BRANCH  15  16
ATOM     16  O   UNL A   1      32.718  18.945  25.029  1.00  0.00    -0.385 OA
ATOM     17  C   UNL A   1      32.489  18.368  23.748  1.00  0.00     0.194 C 
ENDBRANCH  15  16
ENDBRANCH  14  15
ENDBRANCH   7  14
BRANCH  11  18
ATOM     18  C   UNL A   1      32.906  25.849  26.799  1.00  0.00     0.303 C 
BRANCH  18  19
ATOM     19  C   UNL A   1      32.223  27.134  26.395  1.00  0.00     0.049 A 
ATOM     20  C   UNL A   1      31.858  28.068  27.373  1.00  0.00     0.013 A 
ATOM     21  C   UNL A   1      32.289  27.587  25.097  1.00  0.00     0.132 A 
ATOM     22  C   UNL A   1      31.872  29.436  27.071  1.00  0.00     0.001 A 
ATOM     23  C   UNL A   1      32.529  28.920  24.839  1.00  0.00    -0.001 A 
ATOM     24  O   UNL A   1      32.221  26.826  23.961  1.00  0.00    -0.487 OA
ATOM     25  C   UNL A   1      32.319  29.871  25.818  1.00  0.00     0.008 A 
ATOM     26  C   UNL A   1      33.104  28.996  23.468  1.00  0.00     0.087 C 
ATOM     27  C   UNL A   1      32.356  27.791  22.870  1.00  0.00     0.108 C 
ATOM     28  C   UNL A   1      31.009  28.298  22.309  1.00  0.00     0.057 C 
ATOM     29  C   UNL A   1      33.100  27.036  21.771  1.00  0.00     0.057 C 
ENDBRANCH  18  19
ENDBRANCH  11  18
ENDBRANCH   4   7
ENDBRANCH   2   3
ENDBRANCH   1   2
BRANCH   1  30
ATOM     30  C   UNL A   1      36.944  21.830  23.931  1.00  0.00     0.023 C 
BRANCH  30  31
ATOM     31  C   UNL A   1      37.271  21.500  25.383  1.00  0.00     0.116 C 
BRANCH  31  32
ATOM     32  N   UNL A   1      38.287  20.467  25.547  1.00  0.00    -0.352 N 
ATOM     33  C   UNL A   1      39.526  20.574  26.144  1.00  0.00     0.251 C 
ATOM     34  H   UNL A   1      38.060  19.580  25.185  1.00  0.00     0.163 HD
ATOM     35  O   UNL A   1      40.297  19.632  26.158  1.00  0.00    -0.269 OA
BRANCH  33  36
ATOM     36  C   UNL A   1      39.905  21.884  26.710  1.00  0.00     0.039 A 
ATOM     37  C   UNL A   1      40.896  21.930  27.690  1.00  0.00     0.014 A 
ATOM     38  C   UNL A   1      39.375  23.057  26.169  1.00  0.00     0.014 A 
ATOM     39  C   UNL A   1      41.425  23.164  28.067  1.00  0.00     0.010 A 
ATOM     40  C   UNL A   1      39.968  24.274  26.476  1.00  0.00     0.010 A 
ATOM     41  C   UNL A   1      41.002  24.341  27.423  1.00  0.00    -0.014 A 
BRANCH  41  42
ATOM     42  C   UNL A   1      41.628  25.653  27.721  1.00  0.00     0.031 A 
ATOM     43  C   UNL A   1      40.859  26.686  28.495  1.00  0.00     0.074 A 
ATOM     44  C   UNL A   1      42.848  25.942  27.227  1.00  0.00     0.049 A 
ATOM     45  N   UNL A   1      41.188  27.918  28.790  1.00  0.00    -0.248 NA
ATOM     46  C   UNL A   1      39.522  26.292  28.962  1.00  0.00     0.031 C 
ATOM     47  C   UNL A   1      43.672  25.038  26.418  1.00  0.00     0.029 A 
ATOM     48  N   UNL A   1      43.610  27.078  27.329  1.00  0.00    -0.354 N 
ATOM     49  C   UNL A   1      40.089  28.452  29.454  1.00  0.00     0.074 A 
ATOM     50  C   UNL A   1      39.062  27.432  29.448  1.00  0.00     0.031 C 
ATOM     51  C   UNL A   1      44.838  25.642  26.136  1.00  0.00     0.029 A 
ATOM     52  C   UNL A   1      44.829  26.987  26.700  1.00  0.00     0.049 A 
ATOM     53  H   UNL A   1      43.310  27.885  27.808  1.00  0.00     0.167 HD
ATOM     54  C   UNL A   1      39.960  29.668  30.041  1.00  0.00     0.034 A 
ATOM     55  C   UNL A   1      45.825  27.888  26.590  1.00  0.00     0.034 A 
ATOM     56  C   UNL A   1      41.006  30.661  30.051  1.00  0.00     0.049 A 
ATOM     57  C   UNL A   1      45.653  29.242  27.227  1.00  0.00     0.074 A 
ATOM     58  C   UNL A   1      41.019  31.894  30.679  1.00  0.00     0.029 A 
ATOM     59  N   UNL A   1      42.225  30.540  29.393  1.00  0.00    -0.354 N 
ATOM     60  N   UNL A   1      44.634  29.713  27.909  1.00  0.00    -0.248 NA
ATOM     61  C   UNL A   1      46.770  30.184  27.083  1.00  0.00     0.031 C 
ATOM     62  C   UNL A   1      42.212  32.545  30.343  1.00  0.00     0.029 A 
ATOM     63  C   UNL A   1      42.979  31.689  29.568  1.00  0.00     0.049 A 
ATOM     64  H   UNL A   1      42.509  29.751  28.877  1.00  0.00     0.167 HD
ATOM     65  C   UNL A   1      45.004  30.996  28.305  1.00  0.00     0.074 A 
ATOM     66  C   UNL A   1      46.340  31.219  27.790  1.00  0.00     0.031 C 
ATOM     67  C   UNL A   1      44.306  31.903  29.034  1.00  0.00     0.034 A 
BRANCH  54  68
ATOM     68  C   UNL A   1      38.629  29.984  30.683  1.00  0.00     0.023 A 
ATOM     69  C   UNL A   1      37.605  30.641  29.978  1.00  0.00     0.031 A 
ATOM     70  C   UNL A   1      38.404  29.690  32.040  1.00  0.00     0.131 A 
ATOM     71  C   UNL A   1      36.457  31.080  30.652  1.00  0.00     0.055 A 
ATOM     72  C   UNL A   1      37.215  30.041  32.682  1.00  0.00     0.041 A 
ATOM     73  F   UNL A   1      39.348  29.081  32.774  1.00  0.00    -0.206 F 
ATOM     74  C   UNL A   1      36.242  30.762  31.995  1.00  0.00     0.022 A 
BRANCH  71  75
ATOM     75  S   UNL A   1      35.346  32.236  29.803  1.00  0.00     0.124 S 
ATOM     76  O   UNL A   1      36.271  33.293  29.401  1.00  0.00    -0.237 OA
ATOM     77  O   UNL A   1      34.805  31.417  28.725  1.00  0.00    -0.237 OA
ATOM     78  O   UNL A   1      34.389  32.617  30.840  1.00  0.00    -0.744 OA
ENDBRANCH  71  75
ENDBRANCH  54  68
BRANCH  55  79
ATOM     79  C   UNL A   1      47.080  27.541  25.865  1.00  0.00     0.023 A 
ATOM     80  C   UNL A   1      47.207  27.799  24.492  1.00  0.00     0.031 A 
ATOM     81  C   UNL A   1      48.158  26.925  26.525  1.00  0.00     0.131 A 
ATOM     82  C   UNL A   1      48.370  27.409  23.810  1.00  0.00     0.055 A 
ATOM     83  C   UNL A   1      49.332  26.581  25.852  1.00  0.00     0.041 A 
ATOM     84  F   UNL A   1      48.090  26.665  27.840  1.00  0.00    -0.206 F 
ATOM     85  C   UNL A   1      49.439  26.813  24.484  1.00  0.00     0.022 A 
BRANCH  82  86
ATOM     86  S   UNL A   1      48.443  27.641  22.013  1.00  0.00     0.124 S 
ATOM     87  O   UNL A   1      49.578  28.547  21.876  1.00  0.00    -0.237 OA
ATOM     88  O   UNL A   1      48.649  26.276  21.539  1.00  0.00    -0.237 OA
ATOM     89  O   UNL A   1      47.140  28.218  21.692  1.00  0.00    -0.744 OA
ENDBRANCH  82  86
ENDBRANCH  55  79
BRANCH  67  90
ATOM     90  C   UNL A   1      45.002  33.203  29.354  1.00  0.00     0.023 A 
ATOM     91  C   UNL A   1      44.785  34.367  28.598  1.00  0.00     0.031 A 
ATOM     92  C   UNL A   1      45.911  33.271  30.426  1.00  0.00     0.131 A 
ATOM     93  C   UNL A   1      45.507  35.535  28.889  1.00  0.00     0.055 A 
ATOM     94  C   UNL A   1      46.580  34.452  30.749  1.00  0.00     0.041 A 
ATOM     95  F   UNL A   1      46.159  32.188  31.180  1.00  0.00    -0.206 F 
ATOM     96  C   UNL A   1      46.389  35.589  29.970  1.00  0.00     0.022 A 
BRANCH  93  97
ATOM     97  S   UNL A   1      45.345  36.960  27.777  1.00  0.00     0.124 S 
ATOM     98  O   UNL A   1      46.731  37.198  27.387  1.00  0.00    -0.237 OA
ATOM     99  O   UNL A   1      44.469  36.443  26.732  1.00  0.00    -0.237 OA
ATOM    100  O   UNL A   1      44.754  37.992  28.627  1.00  0.00    -0.744 OA
ENDBRANCH  93  97
ENDBRANCH  67  90
ENDBRANCH  41  42
ENDBRANCH  33  36
ENDBRANCH  31  32
ENDBRANCH  30  31
ENDBRANCH   1  30
TORSDOF 19
ENDMDL
MODEL 2
REMARK VINA RESULT:     -11.9      5.174     10.685
REMARK SMILES COCC[C@@]1(C(=O)NCCCCNC(=O)c2ccc(-c3c4nc(c(-c5cc(S(=O)(=O)[O-])ccc5F)c5ccc([nH]5)c(-c5cc(S(=O)(=O)[O-])ccc5F)c5nc(c(-c6cc(S(=O)(=O)[O-])ccc6F)c6ccc3[nH]6)C=C5)C=C4)cc2)CCC[N@@H+](Cc2cccc3c2OC(C)(C)C3)C1
REMARK SMILES IDX 10 1 9 2 8 3 6 4 7 5 5 7 79 8 95 9 80 10 82 11 81 12 4 14
REMARK SMILES IDX 3 15 2 16 1 17 83 18 84 19 85 20 89 21 86 22 88 23 90 24
REMARK SMILES IDX 87 25 94 26 91 27 92 28 93 29 11 30 12 31 13 32 14 33 15 35
REMARK SMILES IDX 16 36 17 37 78 38 18 39 77 40 19 41 20 42 21 43 71 44 22 45
REMARK SMILES IDX 76 46 70 47 72 48 23 49 75 50 69 51 68 52 24 54 56 55 36 56
REMARK SMILES IDX 55 57 37 58 40 59 54 60 73 61 38 62 39 63 53 65 74 66 41 67
REMARK SMILES IDX 25 68 26 69 34 70 27 71 33 72 35 73 32 74 28 75 29 76 30 77
REMARK SMILES IDX 31 78 57 79 58 80 66 81 59 82 65 83 67 84 64 85 60 86 61 87
REMARK SMILES IDX 62 88 63 89 42 90 43 91 51 92 44 93 50 94 52 95 49 96 45 97
REMARK SMILES IDX 46 98 47 99 48 100
REMARK H PARENT 8 6 82 13 13 34 72 53 40 64
REMARK Flexibility Score: inf
ROOT
ATOM      1  C   UNL A   1      32.234  30.225  26.886  1.00  0.00     0.023 C 
ENDROOT
BRANCH   1   2
ATOM      2  C   UNL A   1      31.734  29.331  25.769  1.00  0.00     0.116 C 
BRANCH   2   3
ATOM      3  N   UNL A   1      32.496  28.120  25.619  1.00  0.00    -0.355 N 
ATOM      4  C   UNL A   1      32.435  27.186  24.641  1.00  0.00     0.232 C 
ATOM      5  O   UNL A   1      33.528  26.653  24.391  1.00  0.00    -0.274 OA
ATOM      6  H   UNL A   1      33.156  27.946  26.328  1.00  0.00     0.163 HD
BRANCH   4   7
ATOM      7  C   UNL A   1      31.142  26.657  23.961  1.00  0.00     0.100 C 
ATOM      8  C   UNL A   1      30.120  26.410  25.103  1.00  0.00     0.029 C 
ATOM      9  C   UNL A   1      31.199  25.337  23.130  1.00  0.00     0.279 C 
ATOM     10  C   UNL A   1      30.546  25.191  25.931  1.00  0.00     0.063 C 
ATOM     11  N   UNL A   1      31.545  24.137  23.907  1.00  0.00    -0.330 N 
ATOM     12  C   UNL A   1      30.673  23.936  25.063  1.00  0.00     0.262 C 
ATOM     13  H   UNL A   1      32.459  24.324  24.321  1.00  0.00     0.348 HD
BRANCH   7  14
ATOM     14  C   UNL A   1      30.614  27.762  22.978  1.00  0.00     0.051 C 
BRANCH  14  15
ATOM     15  C   UNL A   1      29.162  28.250  23.108  1.00  0.00     0.161 C 
BRANCH  15  16
ATOM     16  O   UNL A   1      28.798  29.108  22.019  1.00  0.00    -0.385 OA
ATOM     17  C   UNL A   1      29.566  30.305  21.958  1.00  0.00     0.194 C 
ENDBRANCH  15  16
ENDBRANCH  14  15
ENDBRANCH   7  14
BRANCH  11  18
ATOM     18  C   UNL A   1      31.823  22.924  23.078  1.00  0.00     0.303 C 
BRANCH  18  19
ATOM     19  C   UNL A   1      33.248  22.428  23.152  1.00  0.00     0.049 A 
ATOM     20  C   UNL A   1      34.303  23.276  22.791  1.00  0.00     0.013 A 
ATOM     21  C   UNL A   1      33.569  21.324  23.910  1.00  0.00     0.132 A 
ATOM     22  C   UNL A   1      35.542  23.161  23.434  1.00  0.00     0.001 A 
ATOM     23  C   UNL A   1      34.693  21.337  24.710  1.00  0.00    -0.001 A 
ATOM     24  O   UNL A   1      32.832  20.178  24.039  1.00  0.00    -0.487 OA
ATOM     25  C   UNL A   1      35.704  22.250  24.484  1.00  0.00     0.008 A 
ATOM     26  C   UNL A   1      34.468  20.328  25.782  1.00  0.00     0.087 C 
ATOM     27  C   UNL A   1      33.611  19.349  24.959  1.00  0.00     0.108 C 
ATOM     28  C   UNL A   1      34.565  18.357  24.257  1.00  0.00     0.057 C 
ATOM     29  C   UNL A   1      32.569  18.562  25.751  1.00  0.00     0.057 C 
ENDBRANCH  18  19
ENDBRANCH  11  18
ENDBRANCH   4   7
ENDBRANCH   2   3
ENDBRANCH   1   2
BRANCH   1  30
ATOM     30  C   UNL A   1      31.629  31.621  26.872  1.00  0.00     0.023 C 
BRANCH  30  31
ATOM     31  C   UNL A   1      32.625  32.754  26.651  1.00  0.00     0.116 C 
BRANCH  31  32
ATOM     32  N   UNL A   1      32.393  33.926  27.488  1.00  0.00    -0.352 N 
ATOM     33  C   UNL A   1      33.148  34.381  28.549  1.00  0.00     0.251 C 
ATOM     34  H   UNL A   1      31.596  34.461  27.268  1.00  0.00     0.163 HD
ATOM     35  O   UNL A   1      32.797  35.351  29.196  1.00  0.00    -0.269 OA
BRANCH  33  36
ATOM     36  C   UNL A   1      34.358  33.615  28.909  1.00  0.00     0.039 A 
ATOM     37  C   UNL A   1      35.605  34.219  28.749  1.00  0.00     0.014 A 
ATOM     38  C   UNL A   1      34.237  32.368  29.525  1.00  0.00     0.014 A 
ATOM     39  C   UNL A   1      36.733  33.605  29.293  1.00  0.00     0.010 A 
ATOM     40  C   UNL A   1      35.345  31.809  30.147  1.00  0.00     0.010 A 
ATOM     41  C   UNL A   1      36.603  32.423  30.043  1.00  0.00    -0.014 A 
BRANCH  41  42
ATOM     42  C   UNL A   1      37.767  31.811  30.729  1.00  0.00     0.031 A 
ATOM     43  C   UNL A   1      38.587  30.769  30.021  1.00  0.00     0.074 A 
ATOM     44  C   UNL A   1      38.035  32.130  32.011  1.00  0.00     0.049 A 
ATOM     45  N   UNL A   1      39.588  30.054  30.468  1.00  0.00    -0.248 NA
ATOM     46  C   UNL A   1      38.198  30.461  28.638  1.00  0.00     0.031 C 
ATOM     47  C   UNL A   1      37.279  33.090  32.822  1.00  0.00     0.029 A 
ATOM     48  N   UNL A   1      39.013  31.681  32.861  1.00  0.00    -0.354 N 
ATOM     49  C   UNL A   1      39.930  29.196  29.429  1.00  0.00     0.074 A 
ATOM     50  C   UNL A   1      38.980  29.431  28.363  1.00  0.00     0.031 C 
ATOM     51  C   UNL A   1      37.850  33.187  34.033  1.00  0.00     0.029 A 
ATOM     52  C   UNL A   1      38.979  32.265  34.105  1.00  0.00     0.049 A 
ATOM     53  H   UNL A   1      39.679  31.002  32.604  1.00  0.00     0.167 HD
ATOM     54  C   UNL A   1      40.960  28.317  29.359  1.00  0.00     0.034 A 
ATOM     55  C   UNL A   1      39.767  32.077  35.182  1.00  0.00     0.034 A 
ATOM     56  C   UNL A   1      41.908  28.114  30.427  1.00  0.00     0.049 A 
ATOM     57  C   UNL A   1      40.890  31.077  35.093  1.00  0.00     0.074 A 
ATOM     58  C   UNL A   1      43.035  27.311  30.441  1.00  0.00     0.029 A 
ATOM     59  N   UNL A   1      41.835  28.715  31.679  1.00  0.00    -0.354 N 
ATOM     60  N   UNL A   1      41.245  30.318  34.082  1.00  0.00    -0.248 NA
ATOM     61  C   UNL A   1      41.723  30.915  36.291  1.00  0.00     0.031 C 
ATOM     62  C   UNL A   1      43.600  27.370  31.721  1.00  0.00     0.029 A 
ATOM     63  C   UNL A   1      42.872  28.271  32.484  1.00  0.00     0.049 A 
ATOM     64  H   UNL A   1      41.146  29.362  31.953  1.00  0.00     0.167 HD
ATOM     65  C   UNL A   1      42.365  29.612  34.513  1.00  0.00     0.074 A 
ATOM     66  C   UNL A   1      42.628  30.043  35.871  1.00  0.00     0.031 C 
ATOM     67  C   UNL A   1      43.113  28.698  33.844  1.00  0.00     0.034 A 
BRANCH  54  68
ATOM     68  C   UNL A   1      41.080  27.496  28.095  1.00  0.00     0.023 A 
ATOM     69  C   UNL A   1      40.733  26.133  28.063  1.00  0.00     0.031 A 
ATOM     70  C   UNL A   1      41.613  28.063  26.924  1.00  0.00     0.131 A 
ATOM     71  C   UNL A   1      41.026  25.360  26.930  1.00  0.00     0.055 A 
ATOM     72  C   UNL A   1      41.809  27.309  25.765  1.00  0.00     0.041 A 
ATOM     73  F   UNL A   1      41.981  29.353  26.894  1.00  0.00    -0.206 F 
ATOM     74  C   UNL A   1      41.538  25.944  25.770  1.00  0.00     0.022 A 
BRANCH  71  75
ATOM     75  S   UNL A   1      40.910  23.554  27.065  1.00  0.00     0.124 S 
ATOM     76  O   UNL A   1      41.585  23.310  28.338  1.00  0.00    -0.237 OA
ATOM     77  O   UNL A   1      39.470  23.330  27.052  1.00  0.00    -0.237 OA
ATOM     78  O   UNL A   1      41.629  23.076  25.886  1.00  0.00    -0.744 OA
ENDBRANCH  71  75
ENDBRANCH  54  68
BRANCH  55  79
ATOM     79  C   UNL A   1      39.540  32.858  36.430  1.00  0.00     0.023 A 
ATOM     80  C   UNL A   1      38.658  32.389  37.416  1.00  0.00     0.031 A 
ATOM     81  C   UNL A   1      40.177  34.093  36.645  1.00  0.00     0.131 A 
ATOM     82  C   UNL A   1      38.407  33.167  38.558  1.00  0.00     0.055 A 
ATOM     83  C   UNL A   1      39.958  34.841  37.804  1.00  0.00     0.041 A 
ATOM     84  F   UNL A   1      41.036  34.581  35.736  1.00  0.00    -0.206 F 
ATOM     85  C   UNL A   1      39.061  34.385  38.763  1.00  0.00     0.022 A 
BRANCH  82  86
ATOM     86  S   UNL A   1      37.164  32.589  39.745  1.00  0.00     0.124 S 
ATOM     87  O   UNL A   1      37.186  33.656  40.740  1.00  0.00    -0.237 OA
ATOM     88  O   UNL A   1      35.966  32.508  38.915  1.00  0.00    -0.237 OA
ATOM     89  O   UNL A   1      37.695  31.304  40.194  1.00  0.00    -0.744 OA
ENDBRANCH  82  86
ENDBRANCH  55  79
BRANCH  67  90
ATOM     90  C   UNL A   1      44.315  28.140  34.565  1.00  0.00     0.023 A 
ATOM     91  C   UNL A   1      44.223  27.015  35.401  1.00  0.00     0.031 A 
ATOM     92  C   UNL A   1      45.571  28.758  34.423  1.00  0.00     0.131 A 
ATOM     93  C   UNL A   1      45.353  26.572  36.106  1.00  0.00     0.055 A 
ATOM     94  C   UNL A   1      46.705  28.276  35.078  1.00  0.00     0.041 A 
ATOM     95  F   UNL A   1      45.717  29.838  33.639  1.00  0.00    -0.206 F 
ATOM     96  C   UNL A   1      46.597  27.186  35.936  1.00  0.00     0.022 A 
BRANCH  93  97
ATOM     97  S   UNL A   1      45.157  25.239  37.320  1.00  0.00     0.124 S 
ATOM     98  O   UNL A   1      45.931  24.160  36.714  1.00  0.00    -0.237 OA
ATOM     99  O   UNL A   1      45.725  25.830  38.527  1.00  0.00    -0.237 OA
ATOM    100  O   UNL A   1      43.712  25.020  37.359  1.00  0.00    -0.744 OA
ENDBRANCH  93  97
ENDBRANCH  67  90
ENDBRANCH  41  42
ENDBRANCH  33  36
ENDBRANCH  31  32
ENDBRANCH  30  31
ENDBRANCH   1  30
TORSDOF 19
ENDMDL
MODEL 3
REMARK VINA RESULT:     -11.8      4.852     10.308
REMARK SMILES COCC[C@@]1(C(=O)NCCCCNC(=O)c2ccc(-c3c4nc(c(-c5cc(S(=O)(=O)[O-])ccc5F)c5ccc([nH]5)c(-c5cc(S(=O)(=O)[O-])ccc5F)c5nc(c(-c6cc(S(=O)(=O)[O-])ccc6F)c6ccc3[nH]6)C=C5)C=C4)cc2)CCC[N@@H+](Cc2cccc3c2OC(C)(C)C3)C1
REMARK SMILES IDX 10 1 9 2 8 3 6 4 7 5 5 7 79 8 95 9 80 10 82 11 81 12 4 14
REMARK SMILES IDX 3 15 2 16 1 17 83 18 84 19 85 20 89 21 86 22 88 23 90 24
REMARK SMILES IDX 87 25 94 26 91 27 92 28 93 29 11 30 12 31 13 32 14 33 15 35
REMARK SMILES IDX 16 36 17 37 78 38 18 39 77 40 19 41 20 42 21 43 71 44 22 45
REMARK SMILES IDX 76 46 70 47 72 48 23 49 75 50 69 51 68 52 24 54 56 55 36 56
REMARK SMILES IDX 55 57 37 58 40 59 54 60 73 61 38 62 39 63 53 65 74 66 41 67
REMARK SMILES IDX 25 68 26 69 34 70 27 71 33 72 35 73 32 74 28 75 29 76 30 77
REMARK SMILES IDX 31 78 57 79 58 80 66 81 59 82 65 83 67 84 64 85 60 86 61 87
REMARK SMILES IDX 62 88 63 89 42 90 43 91 51 92 44 93 50 94 52 95 49 96 45 97
REMARK SMILES IDX 46 98 47 99 48 100
REMARK H PARENT 8 6 82 13 13 34 72 53 40 64
REMARK Flexibility Score: inf
ROOT
ATOM      1  C   UNL A   1      31.182  28.547  25.184  1.00  0.00     0.023 C 
ENDROOT
BRANCH   1   2
ATOM      2  C   UNL A   1      31.650  27.793  26.412  1.00  0.00     0.116 C 
BRANCH   2   3
ATOM      3  N   UNL A   1      31.039  26.499  26.558  1.00  0.00    -0.355 N 
ATOM      4  C   UNL A   1      31.602  25.271  26.471  1.00  0.00     0.232 C 
ATOM      5  O   UNL A   1      31.084  24.430  27.221  1.00  0.00    -0.274 OA
ATOM      6  H   UNL A   1      30.073  26.507  26.747  1.00  0.00     0.163 HD
BRANCH   4   7
ATOM      7  C   UNL A   1      32.686  24.833  25.447  1.00  0.00     0.100 C 
ATOM      8  C   UNL A   1      31.940  24.573  24.110  1.00  0.00     0.029 C 
ATOM      9  C   UNL A   1      33.536  23.555  25.731  1.00  0.00     0.279 C 
ATOM     10  C   UNL A   1      31.097  23.297  24.222  1.00  0.00     0.063 C 
ATOM     11  N   UNL A   1      32.765  22.304  25.784  1.00  0.00    -0.330 N 
ATOM     12  C   UNL A   1      31.956  22.083  24.586  1.00  0.00     0.262 C 
ATOM     13  H   UNL A   1      32.074  22.431  26.525  1.00  0.00     0.348 HD
BRANCH   7  14
ATOM     14  C   UNL A   1      33.715  26.008  25.284  1.00  0.00     0.051 C 
BRANCH  14  15
ATOM     15  C   UNL A   1      34.086  26.491  23.872  1.00  0.00     0.161 C 
BRANCH  15  16
ATOM     16  O   UNL A   1      33.871  27.900  23.728  1.00  0.00    -0.385 OA
ATOM     17  C   UNL A   1      34.199  28.395  22.434  1.00  0.00     0.194 C 
ENDBRANCH  15  16
ENDBRANCH  14  15
ENDBRANCH   7  14
BRANCH  11  18
ATOM     18  C   UNL A   1      33.537  21.124  26.280  1.00  0.00     0.303 C 
BRANCH  18  19
ATOM     19  C   UNL A   1      34.527  20.561  25.288  1.00  0.00     0.049 A 
ATOM     20  C   UNL A   1      35.727  21.238  25.038  1.00  0.00     0.013 A 
ATOM     21  C   UNL A   1      34.470  19.238  24.912  1.00  0.00     0.132 A 
ATOM     22  C   UNL A   1      36.883  20.515  24.717  1.00  0.00     0.001 A 
ATOM     23  C   UNL A   1      35.627  18.493  24.822  1.00  0.00    -0.001 A 
ATOM     24  O   UNL A   1      33.339  18.503  24.677  1.00  0.00    -0.487 OA
ATOM     25  C   UNL A   1      36.855  19.115  24.716  1.00  0.00     0.008 A 
ATOM     26  C   UNL A   1      35.231  17.065  24.976  1.00  0.00     0.087 C 
ATOM     27  C   UNL A   1      33.839  17.173  24.328  1.00  0.00     0.108 C 
ATOM     28  C   UNL A   1      34.002  16.940  22.809  1.00  0.00     0.057 C 
ATOM     29  C   UNL A   1      32.787  16.207  24.869  1.00  0.00     0.057 C 
ENDBRANCH  18  19
ENDBRANCH  11  18
ENDBRANCH   4   7
ENDBRANCH   2   3
ENDBRANCH   1   2
BRANCH   1  30
ATOM     30  C   UNL A   1      31.368  30.054  25.280  1.00  0.00     0.023 C 
BRANCH  30  31
ATOM     31  C   UNL A   1      32.199  30.527  26.468  1.00  0.00     0.116 C 
BRANCH  31  32
ATOM     32  N   UNL A   1      32.015  31.934  26.804  1.00  0.00    -0.352 N 
ATOM     33  C   UNL A   1      32.887  32.778  27.460  1.00  0.00     0.251 C 
ATOM     34  H   UNL A   1      31.158  32.334  26.527  1.00  0.00     0.163 HD
ATOM     35  O   UNL A   1      32.571  33.924  27.722  1.00  0.00    -0.269 OA
BRANCH  33  36
ATOM     36  C   UNL A   1      34.188  32.224  27.885  1.00  0.00     0.039 A 
ATOM     37  C   UNL A   1      35.292  33.075  27.944  1.00  0.00     0.014 A 
ATOM     38  C   UNL A   1      34.269  30.909  28.348  1.00  0.00     0.014 A 
ATOM     39  C   UNL A   1      36.463  32.629  28.557  1.00  0.00     0.010 A 
ATOM     40  C   UNL A   1      35.401  30.503  29.040  1.00  0.00     0.010 A 
ATOM     41  C   UNL A   1      36.508  31.359  29.157  1.00  0.00    -0.014 A 
BRANCH  41  42
ATOM     42  C   UNL A   1      37.700  30.904  29.915  1.00  0.00     0.031 A 
ATOM     43  C   UNL A   1      38.646  29.916  29.293  1.00  0.00     0.074 A 
ATOM     44  C   UNL A   1      37.883  31.313  31.186  1.00  0.00     0.049 A 
ATOM     45  N   UNL A   1      39.695  29.330  29.811  1.00  0.00    -0.248 NA
ATOM     46  C   UNL A   1      38.344  29.501  27.916  1.00  0.00     0.031 C 
ATOM     47  C   UNL A   1      37.004  32.231  31.917  1.00  0.00     0.029 A 
ATOM     48  N   UNL A   1      38.867  31.009  32.092  1.00  0.00    -0.354 N 
ATOM     49  C   UNL A   1      40.162  28.460  28.833  1.00  0.00     0.074 A 
ATOM     50  C   UNL A   1      39.235  28.543  27.724  1.00  0.00     0.031 C 
ATOM     51  C   UNL A   1      37.514  32.447  33.141  1.00  0.00     0.029 A 
ATOM     52  C   UNL A   1      38.726  31.649  33.301  1.00  0.00     0.049 A 
ATOM     53  H   UNL A   1      39.607  30.389  31.895  1.00  0.00     0.167 HD
ATOM     54  C   UNL A   1      41.276  27.687  28.845  1.00  0.00     0.034 A 
ATOM     55  C   UNL A   1      39.486  31.596  34.412  1.00  0.00     0.034 A 
ATOM     56  C   UNL A   1      42.197  27.637  29.955  1.00  0.00     0.049 A 
ATOM     57  C   UNL A   1      40.706  30.713  34.416  1.00  0.00     0.074 A 
ATOM     58  C   UNL A   1      43.396  26.953  30.051  1.00  0.00     0.029 A 
ATOM     59  N   UNL A   1      42.015  28.289  31.169  1.00  0.00    -0.354 N 
ATOM     60  N   UNL A   1      41.174  29.943  33.460  1.00  0.00    -0.248 NA
ATOM     61  C   UNL A   1      41.503  30.697  35.649  1.00  0.00     0.031 C 
ATOM     62  C   UNL A   1      43.902  27.134  31.344  1.00  0.00     0.029 A 
ATOM     63  C   UNL A   1      43.059  27.994  32.032  1.00  0.00     0.049 A 
ATOM     64  H   UNL A   1      41.254  28.876  31.384  1.00  0.00     0.167 HD
ATOM     65  C   UNL A   1      42.341  29.377  33.967  1.00  0.00     0.074 A 
ATOM     66  C   UNL A   1      42.506  29.901  35.308  1.00  0.00     0.031 C 
ATOM     67  C   UNL A   1      43.202  28.511  33.374  1.00  0.00     0.034 A 
BRANCH  54  68
ATOM     68  C   UNL A   1      41.526  26.820  27.633  1.00  0.00     0.023 A 
ATOM     69  C   UNL A   1      41.226  25.446  27.632  1.00  0.00     0.031 A 
ATOM     70  C   UNL A   1      42.138  27.356  26.486  1.00  0.00     0.131 A 
ATOM     71  C   UNL A   1      41.636  24.638  26.562  1.00  0.00     0.055 A 
ATOM     72  C   UNL A   1      42.454  26.563  25.381  1.00  0.00     0.041 A 
ATOM     73  F   UNL A   1      42.467  28.656  26.430  1.00  0.00    -0.206 F 
ATOM     74  C   UNL A   1      42.226  25.191  25.424  1.00  0.00     0.022 A 
BRANCH  71  75
ATOM     75  S   UNL A   1      41.565  22.836  26.765  1.00  0.00     0.124 S 
ATOM     76  O   UNL A   1      40.186  22.643  27.207  1.00  0.00    -0.237 OA
ATOM     77  O   UNL A   1      41.880  22.356  25.425  1.00  0.00    -0.237 OA
ATOM     78  O   UNL A   1      42.580  22.566  27.781  1.00  0.00    -0.744 OA
ENDBRANCH  71  75
ENDBRANCH  54  68
BRANCH  55  79
ATOM     79  C   UNL A   1      39.133  32.413  35.608  1.00  0.00     0.023 A 
ATOM     80  C   UNL A   1      39.605  33.728  35.739  1.00  0.00     0.031 A 
ATOM     81  C   UNL A   1      38.344  31.886  36.646  1.00  0.00     0.131 A 
ATOM     82  C   UNL A   1      39.317  34.463  36.900  1.00  0.00     0.055 A 
ATOM     83  C   UNL A   1      38.022  32.637  37.778  1.00  0.00     0.041 A 
ATOM     84  F   UNL A   1      37.861  30.636  36.564  1.00  0.00    -0.206 F 
ATOM     85  C   UNL A   1      38.519  33.930  37.915  1.00  0.00     0.022 A 
BRANCH  82  86
ATOM     86  S   UNL A   1      40.054  36.109  37.090  1.00  0.00     0.124 S 
ATOM     87  O   UNL A   1      39.261  36.664  38.181  1.00  0.00    -0.237 OA
ATOM     88  O   UNL A   1      41.442  35.785  37.404  1.00  0.00    -0.237 OA
ATOM     89  O   UNL A   1      39.841  36.729  35.785  1.00  0.00    -0.744 OA
ENDBRANCH  82  86
ENDBRANCH  55  79
BRANCH  67  90
ATOM     90  C   UNL A   1      44.425  28.116  34.165  1.00  0.00     0.023 A 
ATOM     91  C   UNL A   1      44.433  26.988  35.003  1.00  0.00     0.031 A 
ATOM     92  C   UNL A   1      45.595  28.892  34.088  1.00  0.00     0.131 A 
ATOM     93  C   UNL A   1      45.571  26.697  35.773  1.00  0.00     0.055 A 
ATOM     94  C   UNL A   1      46.744  28.563  34.809  1.00  0.00     0.041 A 
ATOM     95  F   UNL A   1      45.642  29.983  33.306  1.00  0.00    -0.206 F 
ATOM     96  C   UNL A   1      46.731  27.468  35.668  1.00  0.00     0.022 A 
BRANCH  93  97
ATOM     97  S   UNL A   1      45.483  25.350  36.984  1.00  0.00     0.124 S 
ATOM     98  O   UNL A   1      44.833  26.003  38.116  1.00  0.00    -0.237 OA
ATOM     99  O   UNL A   1      44.686  24.350  36.282  1.00  0.00    -0.237 OA
ATOM    100  O   UNL A   1      46.883  24.989  37.197  1.00  0.00    -0.744 OA
ENDBRANCH  93  97
ENDBRANCH  67  90
ENDBRANCH  41  42
ENDBRANCH  33  36
ENDBRANCH  31  32
ENDBRANCH  30  31
ENDBRANCH   1  30
TORSDOF 19
ENDMDL
