MODEL 1
REMARK VINA RESULT:     -11.8      0.000      0.000
REMARK SMILES C[NH2+][C@]1(C(=O)NCCCCNC(=O)c2ccc(-c3c4nc(c(-c5cc(S(=O)(=O)[O-])ccc5F)c5ccc([nH]5)c(-c5cc(S(=O)(=O)[O-])ccc5F)c5nc(c(-c6cc(S(=O)(=O)[O-])ccc6F)c6ccc3[nH]6)C=C5)C=C4)cc2)CC[C@@H]([N@@H+](C)C[C@@H]2CCCCO2)C1
REMARK SMILES IDX 8 1 7 2 6 3 4 4 5 5 3 7 77 8 89 9 78 10 79 11 2 12 1 13
REMARK SMILES IDX 80 16 81 17 82 19 83 20 84 21 88 22 85 23 87 24 86 25 9 26
REMARK SMILES IDX 10 27 11 28 12 29 13 31 14 32 15 33 76 34 16 35 75 36 17 37
REMARK SMILES IDX 18 38 19 39 69 40 20 41 74 42 68 43 70 44 21 45 73 46 67 47
REMARK SMILES IDX 66 48 22 50 54 51 34 52 53 53 35 54 38 55 52 56 71 57 36 58
REMARK SMILES IDX 37 59 51 61 72 62 39 63 23 64 24 65 32 66 25 67 31 68 33 69
REMARK SMILES IDX 30 70 26 71 27 72 28 73 29 74 55 75 56 76 64 77 57 78 63 79
REMARK SMILES IDX 65 80 62 81 58 82 59 83 60 84 61 85 40 86 41 87 49 88 42 89
REMARK SMILES IDX 48 90 50 91 47 92 43 93 44 94 45 95 46 96
REMARK H PARENT 6 6 2 14 2 15 80 18 11 30 70 49 38 60
REMARK Flexibility Score: inf
ROOT
ATOM      1  C   UNL A   1      34.651  20.151  24.973  1.00  0.00     0.023 C 
ENDROOT
BRANCH   1   2
ATOM      2  C   UNL A   1      33.216  20.321  25.470  1.00  0.00     0.116 C 
BRANCH   2   3
ATOM      3  N   UNL A   1      33.149  21.059  26.712  1.00  0.00    -0.351 N 
ATOM      4  C   UNL A   1      32.550  22.227  27.060  1.00  0.00     0.281 C 
ATOM      5  O   UNL A   1      32.807  22.594  28.218  1.00  0.00    -0.268 OA
ATOM      6  H   UNL A   1      33.636  20.628  27.452  1.00  0.00     0.163 HD
BRANCH   4   7
ATOM      7  C   UNL A   1      31.647  23.124  26.106  1.00  0.00     0.181 C 
ATOM      8  C   UNL A   1      31.580  24.576  26.614  1.00  0.00     0.085 C 
ATOM      9  C   UNL A   1      32.182  23.298  24.664  1.00  0.00     0.144 C 
ATOM     10  C   UNL A   1      31.172  25.426  25.410  1.00  0.00     0.072 C 
ATOM     11  C   UNL A   1      31.613  24.646  24.157  1.00  0.00     0.191 C 
BRANCH   7  12
ATOM     12  N   UNL A   1      30.290  22.533  26.202  1.00  0.00    -0.336 N 
ATOM     13  C   UNL A   1      29.462  22.625  27.370  1.00  0.00     0.331 C 
ATOM     14  H   UNL A   1      29.750  22.952  25.445  1.00  0.00     0.346 HD
ATOM     15  H   UNL A   1      30.509  21.536  26.195  1.00  0.00     0.346 HD
ENDBRANCH   7  12
BRANCH  11  16
ATOM     16  N   UNL A   1      32.375  25.383  23.139  1.00  0.00    -0.333 N 
ATOM     17  C   UNL A   1      33.534  24.665  22.632  1.00  0.00     0.333 C 
ATOM     18  H   UNL A   1      32.707  26.146  23.727  1.00  0.00     0.348 HD
BRANCH  16  19
ATOM     19  C   UNL A   1      31.678  26.183  22.123  1.00  0.00     0.294 C 
BRANCH  19  20
ATOM     20  C   UNL A   1      31.536  27.723  22.255  1.00  0.00     0.173 C 
ATOM     21  C   UNL A   1      32.145  28.368  23.516  1.00  0.00     0.038 C 
ATOM     22  O   UNL A   1      30.176  28.066  21.956  1.00  0.00    -0.372 OA
ATOM     23  C   UNL A   1      31.240  29.274  24.359  1.00  0.00     0.005 C 
ATOM     24  C   UNL A   1      29.367  28.330  23.089  1.00  0.00     0.161 C 
ATOM     25  C   UNL A   1      29.902  29.595  23.718  1.00  0.00     0.029 C 
ENDBRANCH  19  20
ENDBRANCH  16  19
ENDBRANCH  11  16
ENDBRANCH   4   7
ENDBRANCH   2   3
ENDBRANCH   1   2
BRANCH   1  26
ATOM     26  C   UNL A   1      35.378  21.452  24.631  1.00  0.00     0.023 C 
BRANCH  26  27
ATOM     27  C   UNL A   1      36.576  21.808  25.511  1.00  0.00     0.116 C 
BRANCH  27  28
ATOM     28  N   UNL A   1      37.699  20.890  25.405  1.00  0.00    -0.352 N 
ATOM     29  C   UNL A   1      38.999  21.033  25.853  1.00  0.00     0.251 C 
ATOM     30  H   UNL A   1      37.504  20.040  24.948  1.00  0.00     0.163 HD
ATOM     31  O   UNL A   1      39.820  20.156  25.643  1.00  0.00    -0.269 OA
BRANCH  29  32
ATOM     32  C   UNL A   1      39.409  22.295  26.519  1.00  0.00     0.039 A 
ATOM     33  C   UNL A   1      40.423  22.239  27.481  1.00  0.00     0.014 A 
ATOM     34  C   UNL A   1      38.867  23.526  26.146  1.00  0.00     0.014 A 
ATOM     35  C   UNL A   1      40.989  23.422  27.958  1.00  0.00     0.010 A 
ATOM     36  C   UNL A   1      39.488  24.701  26.556  1.00  0.00     0.010 A 
ATOM     37  C   UNL A   1      40.578  24.659  27.437  1.00  0.00    -0.014 A 
BRANCH  37  38
ATOM     38  C   UNL A   1      41.321  25.910  27.745  1.00  0.00     0.031 A 
ATOM     39  C   UNL A   1      40.662  27.010  28.528  1.00  0.00     0.074 A 
ATOM     40  C   UNL A   1      42.554  26.087  27.226  1.00  0.00     0.049 A 
ATOM     41  N   UNL A   1      41.103  28.209  28.802  1.00  0.00    -0.248 NA
ATOM     42  C   UNL A   1      39.310  26.733  29.035  1.00  0.00     0.031 C 
ATOM     43  C   UNL A   1      43.268  25.116  26.393  1.00  0.00     0.029 A 
ATOM     44  N   UNL A   1      43.420  27.148  27.307  1.00  0.00    -0.354 N 
ATOM     45  C   UNL A   1      40.076  28.841  29.495  1.00  0.00     0.074 A 
ATOM     46  C   UNL A   1      38.971  27.906  29.545  1.00  0.00     0.031 C 
ATOM     47  C   UNL A   1      44.470  25.615  26.063  1.00  0.00     0.029 A 
ATOM     48  C   UNL A   1      44.599  26.956  26.621  1.00  0.00     0.049 A 
ATOM     49  H   UNL A   1      43.219  27.970  27.810  1.00  0.00     0.167 HD
ATOM     50  C   UNL A   1      40.067  30.075  30.056  1.00  0.00     0.034 A 
ATOM     51  C   UNL A   1      45.657  27.772  26.451  1.00  0.00     0.034 A 
ATOM     52  C   UNL A   1      41.187  30.984  30.009  1.00  0.00     0.049 A 
ATOM     53  C   UNL A   1      45.631  29.132  27.097  1.00  0.00     0.074 A 
ATOM     54  C   UNL A   1      41.312  32.234  30.590  1.00  0.00     0.029 A 
ATOM     55  N   UNL A   1      42.379  30.741  29.335  1.00  0.00    -0.354 N 
ATOM     56  N   UNL A   1      44.674  29.694  27.800  1.00  0.00    -0.248 NA
ATOM     57  C   UNL A   1      46.831  29.963  26.939  1.00  0.00     0.031 C 
ATOM     58  C   UNL A   1      42.554  32.767  30.224  1.00  0.00     0.029 A 
ATOM     59  C   UNL A   1      43.233  31.825  29.469  1.00  0.00     0.049 A 
ATOM     60  H   UNL A   1      42.586  29.919  28.836  1.00  0.00     0.167 HD
ATOM     61  C   UNL A   1      45.168  30.934  28.189  1.00  0.00     0.074 A 
ATOM     62  C   UNL A   1      46.513  31.030  27.656  1.00  0.00     0.031 C 
ATOM     63  C   UNL A   1      44.567  31.905  28.922  1.00  0.00     0.034 A 
BRANCH  50  64
ATOM     64  C   UNL A   1      38.794  30.512  30.742  1.00  0.00     0.023 A 
ATOM     65  C   UNL A   1      37.760  31.152  30.035  1.00  0.00     0.031 A 
ATOM     66  C   UNL A   1      38.629  30.332  32.126  1.00  0.00     0.131 A 
ATOM     67  C   UNL A   1      36.653  31.668  30.726  1.00  0.00     0.055 A 
ATOM     68  C   UNL A   1      37.484  30.772  32.795  1.00  0.00     0.041 A 
ATOM     69  F   UNL A   1      39.589  29.744  32.859  1.00  0.00    -0.206 F 
ATOM     70  C   UNL A   1      36.496  31.461  32.097  1.00  0.00     0.022 A 
BRANCH  67  71
ATOM     71  S   UNL A   1      35.503  32.748  29.831  1.00  0.00     0.124 S 
ATOM     72  O   UNL A   1      36.306  33.958  29.663  1.00  0.00    -0.237 OA
ATOM     73  O   UNL A   1      35.235  31.986  28.617  1.00  0.00    -0.237 OA
ATOM     74  O   UNL A   1      34.374  32.881  30.748  1.00  0.00    -0.744 OA
ENDBRANCH  67  71
ENDBRANCH  50  64
BRANCH  51  75
ATOM     75  C   UNL A   1      46.828  27.334  25.638  1.00  0.00     0.023 A 
ATOM     76  C   UNL A   1      47.003  27.787  24.321  1.00  0.00     0.031 A 
ATOM     77  C   UNL A   1      47.773  26.431  26.156  1.00  0.00     0.131 A 
ATOM     78  C   UNL A   1      48.073  27.305  23.551  1.00  0.00     0.055 A 
ATOM     79  C   UNL A   1      48.862  25.989  25.402  1.00  0.00     0.041 A 
ATOM     80  F   UNL A   1      47.658  25.975  27.414  1.00  0.00    -0.206 F 
ATOM     81  C   UNL A   1      49.010  26.417  24.086  1.00  0.00     0.022 A 
BRANCH  78  82
ATOM     82  S   UNL A   1      48.185  27.802  21.810  1.00  0.00     0.124 S 
ATOM     83  O   UNL A   1      49.324  28.712  21.833  1.00  0.00    -0.237 OA
ATOM     84  O   UNL A   1      48.398  26.522  21.143  1.00  0.00    -0.237 OA
ATOM     85  O   UNL A   1      46.889  28.428  21.551  1.00  0.00    -0.744 OA
ENDBRANCH  78  82
ENDBRANCH  51  75
BRANCH  63  86
ATOM     86  C   UNL A   1      45.386  33.135  29.223  1.00  0.00     0.023 A 
ATOM     87  C   UNL A   1      45.346  34.270  28.394  1.00  0.00     0.031 A 
ATOM     88  C   UNL A   1      46.227  33.164  30.348  1.00  0.00     0.131 A 
ATOM     89  C   UNL A   1      46.173  35.368  28.675  1.00  0.00     0.055 A 
ATOM     90  C   UNL A   1      47.006  34.280  30.654  1.00  0.00     0.041 A 
ATOM     91  F   UNL A   1      46.304  32.104  31.170  1.00  0.00    -0.206 F 
ATOM     92  C   UNL A   1      46.991  35.386  29.809  1.00  0.00     0.022 A 
BRANCH  89  93
ATOM     93  S   UNL A   1      46.227  36.743  27.495  1.00  0.00     0.124 S 
ATOM     94  O   UNL A   1      46.864  37.794  28.282  1.00  0.00    -0.237 OA
ATOM     95  O   UNL A   1      47.026  36.189  26.406  1.00  0.00    -0.237 OA
ATOM     96  O   UNL A   1      44.820  36.975  27.173  1.00  0.00    -0.744 OA
ENDBRANCH  89  93
ENDBRANCH  63  86
ENDBRANCH  37  38
ENDBRANCH  29  32
ENDBRANCH  27  28
ENDBRANCH  26  27
ENDBRANCH   1  26
TORSDOF 18
ENDMDL
MODEL 2
REMARK VINA RESULT:     -11.7      4.943      8.137
REMARK SMILES C[NH2+][C@]1(C(=O)NCCCCNC(=O)c2ccc(-c3c4nc(c(-c5cc(S(=O)(=O)[O-])ccc5F)c5ccc([nH]5)c(-c5cc(S(=O)(=O)[O-])ccc5F)c5nc(c(-c6cc(S(=O)(=O)[O-])ccc6F)c6ccc3[nH]6)C=C5)C=C4)cc2)CC[C@@H]([N@@H+](C)C[C@@H]2CCCCO2)C1
REMARK SMILES IDX 8 1 7 2 6 3 4 4 5 5 3 7 77 8 89 9 78 10 79 11 2 12 1 13
REMARK SMILES IDX 80 16 81 17 82 19 83 20 84 21 88 22 85 23 87 24 86 25 9 26
REMARK SMILES IDX 10 27 11 28 12 29 13 31 14 32 15 33 76 34 16 35 75 36 17 37
REMARK SMILES IDX 18 38 19 39 69 40 20 41 74 42 68 43 70 44 21 45 73 46 67 47
REMARK SMILES IDX 66 48 22 50 54 51 34 52 53 53 35 54 38 55 52 56 71 57 36 58
REMARK SMILES IDX 37 59 51 61 72 62 39 63 23 64 24 65 32 66 25 67 31 68 33 69
REMARK SMILES IDX 30 70 26 71 27 72 28 73 29 74 55 75 56 76 64 77 57 78 63 79
REMARK SMILES IDX 65 80 62 81 58 82 59 83 60 84 61 85 40 86 41 87 49 88 42 89
REMARK SMILES IDX 48 90 50 91 47 92 43 93 44 94 45 95 46 96
REMARK H PARENT 6 6 2 14 2 15 80 18 11 30 70 49 38 60
REMARK Flexibility Score: inf
ROOT
ATOM      1  C   UNL A   1      31.273  29.424  24.577  1.00  0.00     0.023 C 
ENDROOT
BRANCH   1   2
ATOM      2  C   UNL A   1      31.997  28.300  25.316  1.00  0.00     0.116 C 
BRANCH   2   3
ATOM      3  N   UNL A   1      31.078  27.364  25.926  1.00  0.00    -0.351 N 
ATOM      4  C   UNL A   1      31.018  26.007  25.942  1.00  0.00     0.281 C 
ATOM      5  O   UNL A   1      30.004  25.559  26.500  1.00  0.00    -0.268 OA
ATOM      6  H   UNL A   1      30.352  27.798  26.429  1.00  0.00     0.163 HD
BRANCH   4   7
ATOM      7  C   UNL A   1      32.077  25.027  25.272  1.00  0.00     0.181 C 
ATOM      8  C   UNL A   1      33.516  25.440  25.630  1.00  0.00     0.085 C 
ATOM      9  C   UNL A   1      32.018  23.559  25.760  1.00  0.00     0.144 C 
ATOM     10  C   UNL A   1      34.379  24.197  25.411  1.00  0.00     0.072 C 
ATOM     11  C   UNL A   1      33.441  22.984  25.556  1.00  0.00     0.191 C 
BRANCH   7  12
ATOM     12  N   UNL A   1      31.890  25.208  23.811  1.00  0.00    -0.336 N 
ATOM     13  C   UNL A   1      30.995  24.415  23.018  1.00  0.00     0.331 C 
ATOM     14  H   UNL A   1      31.590  26.175  23.687  1.00  0.00     0.346 HD
ATOM     15  H   UNL A   1      32.795  24.895  23.457  1.00  0.00     0.346 HD
ENDBRANCH   7  12
BRANCH  11  16
ATOM     16  N   UNL A   1      33.882  21.894  26.439  1.00  0.00    -0.333 N 
ATOM     17  C   UNL A   1      33.690  22.164  27.856  1.00  0.00     0.333 C 
ATOM     18  H   UNL A   1      34.881  21.938  26.240  1.00  0.00     0.348 HD
BRANCH  16  19
ATOM     19  C   UNL A   1      33.651  20.493  26.062  1.00  0.00     0.294 C 
BRANCH  19  20
ATOM     20  C   UNL A   1      33.807  20.007  24.596  1.00  0.00     0.173 C 
ATOM     21  C   UNL A   1      32.510  19.853  23.777  1.00  0.00     0.038 C 
ATOM     22  O   UNL A   1      34.696  18.882  24.599  1.00  0.00    -0.372 OA
ATOM     23  C   UNL A   1      32.262  18.511  23.082  1.00  0.00     0.005 C 
ATOM     24  C   UNL A   1      34.060  17.620  24.492  1.00  0.00     0.161 C 
ATOM     25  C   UNL A   1      33.446  17.561  23.113  1.00  0.00     0.029 C 
ENDBRANCH  19  20
ENDBRANCH  16  19
ENDBRANCH  11  16
ENDBRANCH   4   7
ENDBRANCH   2   3
ENDBRANCH   1   2
BRANCH   1  26
ATOM     26  C   UNL A   1      31.031  30.691  25.397  1.00  0.00     0.023 C 
BRANCH  26  27
ATOM     27  C   UNL A   1      32.035  30.976  26.515  1.00  0.00     0.116 C 
BRANCH  27  28
ATOM     28  N   UNL A   1      32.019  32.344  27.008  1.00  0.00    -0.352 N 
ATOM     29  C   UNL A   1      33.013  33.061  27.647  1.00  0.00     0.251 C 
ATOM     30  H   UNL A   1      31.176  32.832  26.864  1.00  0.00     0.163 HD
ATOM     31  O   UNL A   1      32.803  34.204  28.019  1.00  0.00    -0.269 OA
BRANCH  29  32
ATOM     32  C   UNL A   1      34.309  32.404  27.951  1.00  0.00     0.039 A 
ATOM     33  C   UNL A   1      35.416  33.215  28.221  1.00  0.00     0.014 A 
ATOM     34  C   UNL A   1      34.418  31.017  28.052  1.00  0.00     0.014 A 
ATOM     35  C   UNL A   1      36.583  32.644  28.730  1.00  0.00     0.010 A 
ATOM     36  C   UNL A   1      35.548  30.458  28.640  1.00  0.00     0.010 A 
ATOM     37  C   UNL A   1      36.627  31.270  29.018  1.00  0.00    -0.014 A 
BRANCH  37  38
ATOM     38  C   UNL A   1      37.760  30.677  29.778  1.00  0.00     0.031 A 
ATOM     39  C   UNL A   1      38.028  31.102  31.194  1.00  0.00     0.074 A 
ATOM     40  C   UNL A   1      38.604  29.834  29.147  1.00  0.00     0.049 A 
ATOM     41  N   UNL A   1      39.024  30.783  31.978  1.00  0.00    -0.248 NA
ATOM     42  C   UNL A   1      37.066  32.040  31.789  1.00  0.00     0.031 C 
ATOM     43  C   UNL A   1      38.482  29.402  27.752  1.00  0.00     0.029 A 
ATOM     44  N   UNL A   1      39.737  29.199  29.588  1.00  0.00    -0.354 N 
ATOM     45  C   UNL A   1      38.823  31.498  33.154  1.00  0.00     0.074 A 
ATOM     46  C   UNL A   1      37.640  32.310  32.951  1.00  0.00     0.031 C 
ATOM     47  C   UNL A   1      39.483  28.556  27.462  1.00  0.00     0.029 A 
ATOM     48  C   UNL A   1      40.343  28.416  28.631  1.00  0.00     0.049 A 
ATOM     49  H   UNL A   1      40.084  29.292  30.505  1.00  0.00     0.167 HD
ATOM     50  C   UNL A   1      39.545  31.462  34.301  1.00  0.00     0.034 A 
ATOM     51  C   UNL A   1      41.469  27.679  28.686  1.00  0.00     0.034 A 
ATOM     52  C   UNL A   1      40.711  30.633  34.488  1.00  0.00     0.049 A 
ATOM     53  C   UNL A   1      42.246  27.642  29.975  1.00  0.00     0.074 A 
ATOM     54  C   UNL A   1      41.485  30.472  35.623  1.00  0.00     0.029 A 
ATOM     55  N   UNL A   1      41.275  29.825  33.507  1.00  0.00    -0.354 N 
ATOM     56  N   UNL A   1      42.010  28.279  31.100  1.00  0.00    -0.248 NA
ATOM     57  C   UNL A   1      43.431  26.776  30.010  1.00  0.00     0.031 C 
ATOM     58  C   UNL A   1      42.545  29.611  35.314  1.00  0.00     0.029 A 
ATOM     59  C   UNL A   1      42.397  29.182  34.005  1.00  0.00     0.049 A 
ATOM     60  H   UNL A   1      40.928  29.724  32.591  1.00  0.00     0.167 HD
ATOM     61  C   UNL A   1      43.004  27.872  31.982  1.00  0.00     0.074 A 
ATOM     62  C   UNL A   1      43.831  26.922  31.264  1.00  0.00     0.031 C 
ATOM     63  C   UNL A   1      43.215  28.245  33.270  1.00  0.00     0.034 A 
BRANCH  50  64
ATOM     64  C   UNL A   1      39.099  32.368  35.424  1.00  0.00     0.023 A 
ATOM     65  C   UNL A   1      39.560  33.693  35.529  1.00  0.00     0.031 A 
ATOM     66  C   UNL A   1      38.242  31.891  36.432  1.00  0.00     0.131 A 
ATOM     67  C   UNL A   1      39.238  34.461  36.658  1.00  0.00     0.055 A 
ATOM     68  C   UNL A   1      37.856  32.691  37.510  1.00  0.00     0.041 A 
ATOM     69  F   UNL A   1      37.783  30.630  36.398  1.00  0.00    -0.206 F 
ATOM     70  C   UNL A   1      38.368  33.978  37.637  1.00  0.00     0.022 A 
BRANCH  67  71
ATOM     71  S   UNL A   1      40.097  36.040  36.902  1.00  0.00     0.124 S 
ATOM     72  O   UNL A   1      39.401  36.575  38.070  1.00  0.00    -0.237 OA
ATOM     73  O   UNL A   1      41.476  35.620  37.117  1.00  0.00    -0.237 OA
ATOM     74  O   UNL A   1      39.850  36.761  35.655  1.00  0.00    -0.744 OA
ENDBRANCH  67  71
ENDBRANCH  50  64
BRANCH  51  75
ATOM     75  C   UNL A   1      41.936  26.919  27.491  1.00  0.00     0.023 A 
ATOM     76  C   UNL A   1      41.740  25.532  27.395  1.00  0.00     0.031 A 
ATOM     77  C   UNL A   1      42.611  27.564  26.440  1.00  0.00     0.131 A 
ATOM     78  C   UNL A   1      42.252  24.828  26.294  1.00  0.00     0.055 A 
ATOM     79  C   UNL A   1      43.078  26.866  25.325  1.00  0.00     0.041 A 
ATOM     80  F   UNL A   1      42.815  28.891  26.477  1.00  0.00    -0.206 F 
ATOM     81  C   UNL A   1      42.910  25.487  25.253  1.00  0.00     0.022 A 
BRANCH  78  82
ATOM     82  S   UNL A   1      42.106  23.019  26.275  1.00  0.00     0.124 S 
ATOM     83  O   UNL A   1      42.868  22.647  27.462  1.00  0.00    -0.237 OA
ATOM     84  O   UNL A   1      40.662  22.831  26.353  1.00  0.00    -0.237 OA
ATOM     85  O   UNL A   1      42.713  22.642  25.000  1.00  0.00    -0.744 OA
ENDBRANCH  78  82
ENDBRANCH  51  75
BRANCH  63  86
ATOM     86  C   UNL A   1      44.362  27.585  33.991  1.00  0.00     0.023 A 
ATOM     87  C   UNL A   1      44.180  26.425  34.764  1.00  0.00     0.031 A 
ATOM     88  C   UNL A   1      45.654  28.134  33.912  1.00  0.00     0.131 A 
ATOM     89  C   UNL A   1      45.262  25.880  35.470  1.00  0.00     0.055 A 
ATOM     90  C   UNL A   1      46.738  27.556  34.572  1.00  0.00     0.041 A 
ATOM     91  F   UNL A   1      45.881  29.243  33.189  1.00  0.00    -0.206 F 
ATOM     92  C   UNL A   1      46.544  26.429  35.366  1.00  0.00     0.022 A 
BRANCH  89  93
ATOM     93  S   UNL A   1      44.959  24.489  36.593  1.00  0.00     0.124 S 
ATOM     94  O   UNL A   1      43.780  24.941  37.324  1.00  0.00    -0.237 OA
ATOM     95  O   UNL A   1      44.749  23.380  35.668  1.00  0.00    -0.237 OA
ATOM     96  O   UNL A   1      46.187  24.412  37.383  1.00  0.00    -0.744 OA
ENDBRANCH  89  93
ENDBRANCH  63  86
ENDBRANCH  37  38
ENDBRANCH  29  32
ENDBRANCH  27  28
ENDBRANCH  26  27
ENDBRANCH   1  26
TORSDOF 18
ENDMDL
MODEL 3
REMARK VINA RESULT:     -11.6      1.975      7.760
REMARK SMILES C[NH2+][C@]1(C(=O)NCCCCNC(=O)c2ccc(-c3c4nc(c(-c5cc(S(=O)(=O)[O-])ccc5F)c5ccc([nH]5)c(-c5cc(S(=O)(=O)[O-])ccc5F)c5nc(c(-c6cc(S(=O)(=O)[O-])ccc6F)c6ccc3[nH]6)C=C5)C=C4)cc2)CC[C@@H]([N@@H+](C)C[C@@H]2CCCCO2)C1
REMARK SMILES IDX 8 1 7 2 6 3 4 4 5 5 3 7 77 8 89 9 78 10 79 11 2 12 1 13
REMARK SMILES IDX 80 16 81 17 82 19 83 20 84 21 88 22 85 23 87 24 86 25 9 26
REMARK SMILES IDX 10 27 11 28 12 29 13 31 14 32 15 33 76 34 16 35 75 36 17 37
REMARK SMILES IDX 18 38 19 39 69 40 20 41 74 42 68 43 70 44 21 45 73 46 67 47
REMARK SMILES IDX 66 48 22 50 54 51 34 52 53 53 35 54 38 55 52 56 71 57 36 58
REMARK SMILES IDX 37 59 51 61 72 62 39 63 23 64 24 65 32 66 25 67 31 68 33 69
REMARK SMILES IDX 30 70 26 71 27 72 28 73 29 74 55 75 56 76 64 77 57 78 63 79
REMARK SMILES IDX 65 80 62 81 58 82 59 83 60 84 61 85 40 86 41 87 49 88 42 89
REMARK SMILES IDX 48 90 50 91 47 92 43 93 44 94 45 95 46 96
REMARK H PARENT 6 6 2 14 2 15 80 18 11 30 70 49 38 60
REMARK Flexibility Score: inf
ROOT
ATOM      1  C   UNL A   1      34.685  20.018  25.021  1.00  0.00     0.023 C 
ENDROOT
BRANCH   1   2
ATOM      2  C   UNL A   1      33.267  20.169  25.568  1.00  0.00     0.116 C 
BRANCH   2   3
ATOM      3  N   UNL A   1      33.226  20.970  26.772  1.00  0.00    -0.351 N 
ATOM      4  C   UNL A   1      32.609  22.141  27.081  1.00  0.00     0.281 C 
ATOM      5  O   UNL A   1      32.899  22.575  28.208  1.00  0.00    -0.268 OA
ATOM      6  H   UNL A   1      33.750  20.592  27.514  1.00  0.00     0.163 HD
BRANCH   4   7
ATOM      7  C   UNL A   1      31.648  22.963  26.116  1.00  0.00     0.181 C 
ATOM      8  C   UNL A   1      31.548  24.434  26.559  1.00  0.00     0.085 C 
ATOM      9  C   UNL A   1      32.132  23.085  24.651  1.00  0.00     0.144 C 
ATOM     10  C   UNL A   1      31.076  25.213  25.330  1.00  0.00     0.072 C 
ATOM     11  C   UNL A   1      31.502  24.389  24.101  1.00  0.00     0.191 C 
BRANCH   7  12
ATOM     12  N   UNL A   1      30.314  22.334  26.284  1.00  0.00    -0.336 N 
ATOM     13  C   UNL A   1      29.392  22.688  27.324  1.00  0.00     0.331 C 
ATOM     14  H   UNL A   1      29.819  22.494  25.406  1.00  0.00     0.346 HD
ATOM     15  H   UNL A   1      30.577  21.389  26.567  1.00  0.00     0.346 HD
ENDBRANCH   7  12
BRANCH  11  16
ATOM     16  N   UNL A   1      32.208  25.100  23.026  1.00  0.00    -0.333 N 
ATOM     17  C   UNL A   1      33.227  24.304  22.358  1.00  0.00     0.333 C 
ATOM     18  H   UNL A   1      32.677  25.802  23.597  1.00  0.00     0.348 HD
BRANCH  16  19
ATOM     19  C   UNL A   1      31.477  26.007  22.130  1.00  0.00     0.294 C 
BRANCH  19  20
ATOM     20  C   UNL A   1      31.556  27.549  22.289  1.00  0.00     0.173 C 
ATOM     21  C   UNL A   1      32.237  28.078  23.568  1.00  0.00     0.038 C 
ATOM     22  O   UNL A   1      30.263  28.089  21.985  1.00  0.00    -0.372 OA
ATOM     23  C   UNL A   1      31.462  29.090  24.419  1.00  0.00     0.005 C 
ATOM     24  C   UNL A   1      29.487  28.448  23.115  1.00  0.00     0.161 C 
ATOM     25  C   UNL A   1      30.192  29.611  23.772  1.00  0.00     0.029 C 
ENDBRANCH  19  20
ENDBRANCH  16  19
ENDBRANCH  11  16
ENDBRANCH   4   7
ENDBRANCH   2   3
ENDBRANCH   1   2
BRANCH   1  26
ATOM     26  C   UNL A   1      35.382  21.328  24.652  1.00  0.00     0.023 C 
BRANCH  26  27
ATOM     27  C   UNL A   1      36.551  21.746  25.544  1.00  0.00     0.116 C 
BRANCH  27  28
ATOM     28  N   UNL A   1      37.706  20.865  25.480  1.00  0.00    -0.352 N 
ATOM     29  C   UNL A   1      38.992  21.062  25.948  1.00  0.00     0.251 C 
ATOM     30  H   UNL A   1      37.549  19.998  25.040  1.00  0.00     0.163 HD
ATOM     31  O   UNL A   1      39.846  20.208  25.773  1.00  0.00    -0.269 OA
BRANCH  29  32
ATOM     32  C   UNL A   1      39.346  22.351  26.591  1.00  0.00     0.039 A 
ATOM     33  C   UNL A   1      40.388  22.364  27.524  1.00  0.00     0.014 A 
ATOM     34  C   UNL A   1      38.724  23.545  26.223  1.00  0.00     0.014 A 
ATOM     35  C   UNL A   1      40.898  23.582  27.975  1.00  0.00     0.010 A 
ATOM     36  C   UNL A   1      39.288  24.759  26.605  1.00  0.00     0.010 A 
ATOM     37  C   UNL A   1      40.403  24.789  27.455  1.00  0.00    -0.014 A 
BRANCH  37  38
ATOM     38  C   UNL A   1      41.080  26.083  27.732  1.00  0.00     0.031 A 
ATOM     39  C   UNL A   1      42.494  26.311  27.278  1.00  0.00     0.074 A 
ATOM     40  C   UNL A   1      40.448  27.008  28.483  1.00  0.00     0.049 A 
ATOM     41  N   UNL A   1      43.287  27.323  27.517  1.00  0.00    -0.248 NA
ATOM     42  C   UNL A   1      43.108  25.238  26.483  1.00  0.00     0.031 C 
ATOM     43  C   UNL A   1      39.097  26.869  29.037  1.00  0.00     0.029 A 
ATOM     44  N   UNL A   1      40.856  28.241  28.924  1.00  0.00    -0.354 N 
ATOM     45  C   UNL A   1      44.501  27.001  26.921  1.00  0.00     0.074 A 
ATOM     46  C   UNL A   1      44.352  25.673  26.361  1.00  0.00     0.031 C 
ATOM     47  C   UNL A   1      38.782  27.981  29.719  1.00  0.00     0.029 A 
ATOM     48  C   UNL A   1      39.918  28.895  29.692  1.00  0.00     0.049 A 
ATOM     49  H   UNL A   1      41.738  28.625  28.711  1.00  0.00     0.167 HD
ATOM     50  C   UNL A   1      45.626  27.753  26.830  1.00  0.00     0.034 A 
ATOM     51  C   UNL A   1      39.972  30.089  30.313  1.00  0.00     0.034 A 
ATOM     52  C   UNL A   1      45.747  29.081  27.380  1.00  0.00     0.049 A 
ATOM     53  C   UNL A   1      41.225  30.914  30.185  1.00  0.00     0.074 A 
ATOM     54  C   UNL A   1      46.815  29.957  27.299  1.00  0.00     0.029 A 
ATOM     55  N   UNL A   1      44.762  29.727  28.122  1.00  0.00    -0.354 N 
ATOM     56  N   UNL A   1      42.347  30.620  29.567  1.00  0.00    -0.248 NA
ATOM     57  C   UNL A   1      41.217  32.236  30.824  1.00  0.00     0.031 C 
ATOM     58  C   UNL A   1      46.499  31.106  28.035  1.00  0.00     0.029 A 
ATOM     59  C   UNL A   1      45.207  30.977  28.520  1.00  0.00     0.049 A 
ATOM     60  H   UNL A   1      43.878  29.349  28.333  1.00  0.00     0.167 HD
ATOM     61  C   UNL A   1      43.168  31.732  29.723  1.00  0.00     0.074 A 
ATOM     62  C   UNL A   1      42.406  32.707  30.479  1.00  0.00     0.031 C 
ATOM     63  C   UNL A   1      44.435  31.932  29.281  1.00  0.00     0.034 A 
BRANCH  50  64
ATOM     64  C   UNL A   1      46.813  27.135  26.131  1.00  0.00     0.023 A 
ATOM     65  C   UNL A   1      47.802  26.430  26.843  1.00  0.00     0.031 A 
ATOM     66  C   UNL A   1      46.989  27.292  24.745  1.00  0.00     0.131 A 
ATOM     67  C   UNL A   1      48.960  25.991  26.185  1.00  0.00     0.055 A 
ATOM     68  C   UNL A   1      48.105  26.776  24.082  1.00  0.00     0.041 A 
ATOM     69  F   UNL A   1      46.090  27.970  24.014  1.00  0.00    -0.206 F 
ATOM     70  C   UNL A   1      49.107  26.136  24.805  1.00  0.00     0.022 A 
BRANCH  67  71
ATOM     71  S   UNL A   1      50.337  25.366  27.187  1.00  0.00     0.124 S 
ATOM     72  O   UNL A   1      50.647  26.528  28.018  1.00  0.00    -0.237 OA
ATOM     73  O   UNL A   1      49.736  24.231  27.877  1.00  0.00    -0.237 OA
ATOM     74  O   UNL A   1      51.356  25.028  26.196  1.00  0.00    -0.744 OA
ENDBRANCH  67  71
ENDBRANCH  50  64
BRANCH  51  75
ATOM     75  C   UNL A   1      38.812  30.580  31.111  1.00  0.00     0.023 A 
ATOM     76  C   UNL A   1      37.723  31.212  30.491  1.00  0.00     0.031 A 
ATOM     77  C   UNL A   1      38.790  30.452  32.512  1.00  0.00     0.131 A 
ATOM     78  C   UNL A   1      36.677  31.730  31.270  1.00  0.00     0.055 A 
ATOM     79  C   UNL A   1      37.726  30.928  33.279  1.00  0.00     0.041 A 
ATOM     80  F   UNL A   1      39.802  29.846  33.153  1.00  0.00    -0.206 F 
ATOM     81  C   UNL A   1      36.666  31.583  32.660  1.00  0.00     0.022 A 
BRANCH  78  82
ATOM     82  S   UNL A   1      35.359  32.666  30.446  1.00  0.00     0.124 S 
ATOM     83  O   UNL A   1      34.371  32.789  31.511  1.00  0.00    -0.237 OA
ATOM     84  O   UNL A   1      36.052  33.893  30.066  1.00  0.00    -0.237 OA
ATOM     85  O   UNL A   1      34.974  31.801  29.332  1.00  0.00    -0.744 OA
ENDBRANCH  78  82
ENDBRANCH  51  75
BRANCH  63  86
ATOM     86  C   UNL A   1      45.053  33.276  29.571  1.00  0.00     0.023 A 
ATOM     87  C   UNL A   1      45.756  33.526  30.762  1.00  0.00     0.031 A 
ATOM     88  C   UNL A   1      44.922  34.326  28.645  1.00  0.00     0.131 A 
ATOM     89  C   UNL A   1      46.258  34.810  31.019  1.00  0.00     0.055 A 
ATOM     90  C   UNL A   1      45.472  35.585  28.881  1.00  0.00     0.041 A 
ATOM     91  F   UNL A   1      44.257  34.140  27.492  1.00  0.00    -0.206 F 
ATOM     92  C   UNL A   1      46.135  35.837  30.079  1.00  0.00     0.022 A 
BRANCH  89  93
ATOM     93  S   UNL A   1      47.008  35.144  32.636  1.00  0.00     0.124 S 
ATOM     94  O   UNL A   1      45.885  34.925  33.542  1.00  0.00    -0.237 OA
ATOM     95  O   UNL A   1      48.078  34.154  32.696  1.00  0.00    -0.237 OA
ATOM     96  O   UNL A   1      47.454  36.532  32.527  1.00  0.00    -0.744 OA
ENDBRANCH  89  93
ENDBRANCH  63  86
ENDBRANCH  37  38
ENDBRANCH  29  32
ENDBRANCH  27  28
ENDBRANCH  26  27
ENDBRANCH   1  26
TORSDOF 18
ENDMDL
