MODEL 1
REMARK VINA RESULT:     -12.7      0.000      0.000
REMARK SMILES Cc1cc(C)c2c(c1)C=C(C(=O)NCCCCNC(=O)c1ccc(-c3c4nc(c(-c5cc(S(=O)(=O)[O-])ccc5F)c5ccc([nH]5)c(-c5cc(S(=O)(=O)[O-])ccc5F)c5nc(c(-c6cc(S(=O)(=O)[O-])ccc6F)c6ccc3[nH]6)C=C5)C=C4)cc1)[C@@H](C(F)(F)F)O2
REMARK SMILES IDX 16 1 15 2 14 3 13 4 11 5 12 6 10 8 1 9 2 10 3 11 8 12 4 13
REMARK SMILES IDX 7 14 5 15 6 16 9 17 89 18 84 19 85 20 86 21 87 22 88 23
REMARK SMILES IDX 17 24 18 25 19 26 20 28 21 29 22 30 83 31 23 32 82 33 24 34
REMARK SMILES IDX 25 35 26 36 76 37 27 38 81 39 75 40 77 41 28 42 80 43 74 44
REMARK SMILES IDX 73 45 29 47 61 48 41 49 60 50 42 51 45 52 59 53 78 54 43 55
REMARK SMILES IDX 44 56 58 58 79 59 46 60 30 61 31 62 39 63 32 64 38 65 40 66
REMARK SMILES IDX 37 67 33 68 34 69 35 70 36 71 62 72 63 73 71 74 64 75 70 76
REMARK SMILES IDX 72 77 69 78 65 79 66 80 67 81 68 82 47 83 48 84 56 85 49 86
REMARK SMILES IDX 55 87 57 88 54 89 50 90 51 91 52 92 53 93
REMARK H PARENT 13 7 18 27 77 46 45 57
REMARK Flexibility Score: inf
ROOT
ATOM      1  C   UNL A   1      32.112  28.693  24.221  1.00  0.00     0.023 C 
ENDROOT
BRANCH   1   2
ATOM      2  C   UNL A   1      31.093  27.710  24.802  1.00  0.00     0.023 C 
BRANCH   2   3
ATOM      3  C   UNL A   1      31.039  26.370  24.074  1.00  0.00     0.116 C 
BRANCH   3   4
ATOM      4  N   UNL A   1      31.878  26.363  22.890  1.00  0.00    -0.352 N 
ATOM      5  C   UNL A   1      32.896  25.615  22.406  1.00  0.00     0.251 C 
ATOM      6  O   UNL A   1      33.346  25.978  21.314  1.00  0.00    -0.270 OA
ATOM      7  H   UNL A   1      31.645  27.096  22.275  1.00  0.00     0.163 HD
BRANCH   5   8
ATOM      8  C   UNL A   1      33.488  24.423  23.084  1.00  0.00     0.067 C 
ATOM      9  C   UNL A   1      32.260  18.453  24.123  1.00  0.00     0.044 C 
ATOM     10  C   UNL A   1      33.080  19.709  24.128  1.00  0.00    -0.050 A 
ATOM     11  C   UNL A   1      34.341  19.739  24.739  1.00  0.00     0.010 A 
ATOM     12  C   UNL A   1      32.574  20.877  23.541  1.00  0.00     0.015 A 
ATOM     13  C   UNL A   1      35.105  20.913  24.751  1.00  0.00    -0.008 A 
ATOM     14  C   UNL A   1      33.324  22.057  23.549  1.00  0.00     0.018 A 
ATOM     15  C   UNL A   1      36.460  20.933  25.397  1.00  0.00     0.048 C 
ATOM     16  C   UNL A   1      34.581  22.068  24.155  1.00  0.00     0.130 A 
ATOM     17  C   UNL A   1      32.828  23.264  22.899  1.00  0.00     0.025 C 
ATOM     18  O   UNL A   1      35.374  23.182  24.151  1.00  0.00    -0.475 OA
ATOM     19  C   UNL A   1      34.708  24.459  23.960  1.00  0.00     0.314 C 
BRANCH  19  20
ATOM     20  C   UNL A   1      34.433  25.092  25.337  1.00  0.00     0.429 C 
ATOM     21  F   UNL A   1      35.428  24.781  26.207  1.00  0.00    -0.167 F 
ATOM     22  F   UNL A   1      34.378  26.443  25.287  1.00  0.00    -0.167 F 
ATOM     23  F   UNL A   1      33.272  24.669  25.885  1.00  0.00    -0.167 F 
ENDBRANCH  19  20
ENDBRANCH   5   8
ENDBRANCH   3   4
ENDBRANCH   2   3
ENDBRANCH   1   2
BRANCH   1  24
ATOM     24  C   UNL A   1      32.985  29.415  25.246  1.00  0.00     0.116 C 
BRANCH  24  25
ATOM     25  N   UNL A   1      32.372  30.622  25.782  1.00  0.00    -0.352 N 
ATOM     26  C   UNL A   1      32.798  31.401  26.829  1.00  0.00     0.251 C 
ATOM     27  H   UNL A   1      31.545  30.917  25.336  1.00  0.00     0.163 HD
ATOM     28  O   UNL A   1      32.109  32.336  27.225  1.00  0.00    -0.269 OA
BRANCH  26  29
ATOM     29  C   UNL A   1      34.075  31.069  27.490  1.00  0.00     0.039 A 
ATOM     30  C   UNL A   1      34.993  32.092  27.733  1.00  0.00     0.014 A 
ATOM     31  C   UNL A   1      34.335  29.761  27.908  1.00  0.00     0.014 A 
ATOM     32  C   UNL A   1      36.153  31.813  28.455  1.00  0.00     0.010 A 
ATOM     33  C   UNL A   1      35.462  29.498  28.678  1.00  0.00     0.010 A 
ATOM     34  C   UNL A   1      36.381  30.522  28.957  1.00  0.00    -0.014 A 
BRANCH  34  35
ATOM     35  C   UNL A   1      37.596  30.210  29.746  1.00  0.00     0.031 A 
ATOM     36  C   UNL A   1      38.666  29.347  29.141  1.00  0.00     0.074 A 
ATOM     37  C   UNL A   1      37.714  30.664  31.008  1.00  0.00     0.049 A 
ATOM     38  N   UNL A   1      39.754  28.872  29.689  1.00  0.00    -0.248 NA
ATOM     39  C   UNL A   1      38.470  28.943  27.739  1.00  0.00     0.031 C 
ATOM     40  C   UNL A   1      36.731  31.498  31.704  1.00  0.00     0.029 A 
ATOM     41  N   UNL A   1      38.713  30.489  31.931  1.00  0.00    -0.354 N 
ATOM     42  C   UNL A   1      40.367  28.106  28.704  1.00  0.00     0.074 A 
ATOM     43  C   UNL A   1      39.502  28.136  27.545  1.00  0.00     0.031 C 
ATOM     44  C   UNL A   1      37.193  31.787  32.932  1.00  0.00     0.029 A 
ATOM     45  C   UNL A   1      38.481  31.127  33.125  1.00  0.00     0.049 A 
ATOM     46  H   UNL A   1      39.521  29.955  31.753  1.00  0.00     0.167 HD
ATOM     47  C   UNL A   1      41.555  27.458  28.756  1.00  0.00     0.034 A 
ATOM     48  C   UNL A   1      39.221  31.168  34.250  1.00  0.00     0.034 A 
ATOM     49  C   UNL A   1      42.419  27.455  29.909  1.00  0.00     0.049 A 
ATOM     50  C   UNL A   1      40.522  30.413  34.294  1.00  0.00     0.074 A 
ATOM     51  C   UNL A   1      43.657  26.856  30.058  1.00  0.00     0.029 A 
ATOM     52  N   UNL A   1      42.134  28.086  31.112  1.00  0.00    -0.354 N 
ATOM     53  N   UNL A   1      41.082  29.681  33.359  1.00  0.00    -0.248 NA
ATOM     54  C   UNL A   1      41.285  30.485  35.546  1.00  0.00     0.031 C 
ATOM     55  C   UNL A   1      44.100  27.087  31.365  1.00  0.00     0.029 A 
ATOM     56  C   UNL A   1      43.163  27.875  32.015  1.00  0.00     0.049 A 
ATOM     57  H   UNL A   1      41.319  28.607  31.297  1.00  0.00     0.167 HD
ATOM     58  C   UNL A   1      42.271  29.211  33.910  1.00  0.00     0.074 A 
ATOM     59  C   UNL A   1      42.353  29.755  35.250  1.00  0.00     0.031 C 
ATOM     60  C   UNL A   1      43.210  28.402  33.356  1.00  0.00     0.034 A 
BRANCH  47  61
ATOM     61  C   UNL A   1      41.973  26.689  27.529  1.00  0.00     0.023 A 
ATOM     62  C   UNL A   1      41.745  25.306  27.421  1.00  0.00     0.031 A 
ATOM     63  C   UNL A   1      42.629  27.339  26.471  1.00  0.00     0.131 A 
ATOM     64  C   UNL A   1      42.226  24.606  26.305  1.00  0.00     0.055 A 
ATOM     65  C   UNL A   1      43.044  26.648  25.331  1.00  0.00     0.041 A 
ATOM     66  F   UNL A   1      42.890  28.655  26.533  1.00  0.00    -0.206 F 
ATOM     67  C   UNL A   1      42.853  25.271  25.249  1.00  0.00     0.022 A 
BRANCH  64  68
ATOM     68  S   UNL A   1      42.110  22.797  26.299  1.00  0.00     0.124 S 
ATOM     69  O   UNL A   1      42.657  22.474  24.984  1.00  0.00    -0.237 OA
ATOM     70  O   UNL A   1      42.935  22.423  27.442  1.00  0.00    -0.237 OA
ATOM     71  O   UNL A   1      40.680  22.545  26.454  1.00  0.00    -0.744 OA
ENDBRANCH  64  68
ENDBRANCH  47  61
BRANCH  48  72
ATOM     72  C   UNL A   1      38.748  31.941  35.429  1.00  0.00     0.023 A 
ATOM     73  C   UNL A   1      38.164  31.289  36.527  1.00  0.00     0.031 A 
ATOM     74  C   UNL A   1      38.862  33.341  35.471  1.00  0.00     0.131 A 
ATOM     75  C   UNL A   1      37.693  32.042  37.614  1.00  0.00     0.055 A 
ATOM     76  C   UNL A   1      38.422  34.082  36.569  1.00  0.00     0.041 A 
ATOM     77  F   UNL A   1      39.422  34.005  34.448  1.00  0.00    -0.206 F 
ATOM     78  C   UNL A   1      37.827  33.432  37.647  1.00  0.00     0.022 A 
BRANCH  75  79
ATOM     79  S   UNL A   1      36.878  31.177  38.985  1.00  0.00     0.124 S 
ATOM     80  O   UNL A   1      35.655  31.955  39.141  1.00  0.00    -0.237 OA
ATOM     81  O   UNL A   1      36.719  29.830  38.445  1.00  0.00    -0.237 OA
ATOM     82  O   UNL A   1      37.839  31.294  40.079  1.00  0.00    -0.744 OA
ENDBRANCH  75  79
ENDBRANCH  48  72
BRANCH  60  83
ATOM     83  C   UNL A   1      44.405  28.067  34.206  1.00  0.00     0.023 A 
ATOM     84  C   UNL A   1      44.412  26.937  35.040  1.00  0.00     0.031 A 
ATOM     85  C   UNL A   1      45.553  28.878  34.170  1.00  0.00     0.131 A 
ATOM     86  C   UNL A   1      45.534  26.667  35.837  1.00  0.00     0.055 A 
ATOM     87  C   UNL A   1      46.684  28.578  34.930  1.00  0.00     0.041 A 
ATOM     88  F   UNL A   1      45.593  29.967  33.388  1.00  0.00    -0.206 F 
ATOM     89  C   UNL A   1      46.676  27.472  35.775  1.00  0.00     0.022 A 
BRANCH  86  90
ATOM     90  S   UNL A   1      45.464  25.275  36.996  1.00  0.00     0.124 S 
ATOM     91  O   UNL A   1      46.795  25.310  37.593  1.00  0.00    -0.237 OA
ATOM     92  O   UNL A   1      44.361  25.650  37.875  1.00  0.00    -0.237 OA
ATOM     93  O   UNL A   1      45.202  24.123  36.134  1.00  0.00    -0.744 OA
ENDBRANCH  86  90
ENDBRANCH  60  83
ENDBRANCH  34  35
ENDBRANCH  26  29
ENDBRANCH  24  25
ENDBRANCH   1  24
TORSDOF 15
ENDMDL
MODEL 2
REMARK VINA RESULT:     -12.7      1.349      1.762
REMARK SMILES Cc1cc(C)c2c(c1)C=C(C(=O)NCCCCNC(=O)c1ccc(-c3c4nc(c(-c5cc(S(=O)(=O)[O-])ccc5F)c5ccc([nH]5)c(-c5cc(S(=O)(=O)[O-])ccc5F)c5nc(c(-c6cc(S(=O)(=O)[O-])ccc6F)c6ccc3[nH]6)C=C5)C=C4)cc1)[C@@H](C(F)(F)F)O2
REMARK SMILES IDX 16 1 15 2 14 3 13 4 11 5 12 6 10 8 1 9 2 10 3 11 8 12 4 13
REMARK SMILES IDX 7 14 5 15 6 16 9 17 89 18 84 19 85 20 86 21 87 22 88 23
REMARK SMILES IDX 17 24 18 25 19 26 20 28 21 29 22 30 83 31 23 32 82 33 24 34
REMARK SMILES IDX 25 35 26 36 76 37 27 38 81 39 75 40 77 41 28 42 80 43 74 44
REMARK SMILES IDX 73 45 29 47 61 48 41 49 60 50 42 51 45 52 59 53 78 54 43 55
REMARK SMILES IDX 44 56 58 58 79 59 46 60 30 61 31 62 39 63 32 64 38 65 40 66
REMARK SMILES IDX 37 67 33 68 34 69 35 70 36 71 62 72 63 73 71 74 64 75 70 76
REMARK SMILES IDX 72 77 69 78 65 79 66 80 67 81 68 82 47 83 48 84 56 85 49 86
REMARK SMILES IDX 55 87 57 88 54 89 50 90 51 91 52 92 53 93
REMARK H PARENT 13 7 18 27 77 46 45 57
REMARK Flexibility Score: inf
ROOT
ATOM      1  C   UNL A   1      32.242  28.246  24.662  1.00  0.00     0.023 C 
ENDROOT
BRANCH   1   2
ATOM      2  C   UNL A   1      31.550  28.557  23.332  1.00  0.00     0.023 C 
BRANCH   2   3
ATOM      3  C   UNL A   1      30.880  27.349  22.685  1.00  0.00     0.116 C 
BRANCH   3   4
ATOM      4  N   UNL A   1      31.741  26.711  21.707  1.00  0.00    -0.352 N 
ATOM      5  C   UNL A   1      32.643  25.702  21.694  1.00  0.00     0.251 C 
ATOM      6  O   UNL A   1      33.175  25.484  20.601  1.00  0.00    -0.270 OA
ATOM      7  H   UNL A   1      31.644  27.120  20.816  1.00  0.00     0.163 HD
BRANCH   5   8
ATOM      8  C   UNL A   1      33.020  24.868  22.874  1.00  0.00     0.067 C 
ATOM      9  C   UNL A   1      37.528  21.083  24.768  1.00  0.00     0.044 C 
ATOM     10  C   UNL A   1      36.278  21.903  24.893  1.00  0.00    -0.050 A 
ATOM     11  C   UNL A   1      35.520  21.878  26.071  1.00  0.00     0.010 A 
ATOM     12  C   UNL A   1      35.843  22.684  23.813  1.00  0.00     0.015 A 
ATOM     13  C   UNL A   1      34.348  22.638  26.187  1.00  0.00    -0.008 A 
ATOM     14  C   UNL A   1      34.674  23.444  23.913  1.00  0.00     0.018 A 
ATOM     15  C   UNL A   1      33.547  22.615  27.457  1.00  0.00     0.048 C 
ATOM     16  C   UNL A   1      33.934  23.414  25.096  1.00  0.00     0.130 A 
ATOM     17  C   UNL A   1      34.238  24.297  22.814  1.00  0.00     0.025 C 
ATOM     18  O   UNL A   1      32.808  24.173  25.263  1.00  0.00    -0.475 OA
ATOM     19  C   UNL A   1      32.129  24.610  24.055  1.00  0.00     0.314 C 
BRANCH  19  20
ATOM     20  C   UNL A   1      30.989  23.624  23.737  1.00  0.00     0.429 C 
ATOM     21  F   UNL A   1      31.418  22.670  22.872  1.00  0.00    -0.167 F 
ATOM     22  F   UNL A   1      30.541  22.972  24.834  1.00  0.00    -0.167 F 
ATOM     23  F   UNL A   1      29.919  24.228  23.172  1.00  0.00    -0.167 F 
ENDBRANCH  19  20
ENDBRANCH   5   8
ENDBRANCH   3   4
ENDBRANCH   2   3
ENDBRANCH   1   2
BRANCH   1  24
ATOM     24  C   UNL A   1      33.209  29.318  25.164  1.00  0.00     0.116 C 
BRANCH  24  25
ATOM     25  N   UNL A   1      32.542  30.480  25.733  1.00  0.00    -0.352 N 
ATOM     26  C   UNL A   1      32.925  31.237  26.813  1.00  0.00     0.251 C 
ATOM     27  H   UNL A   1      31.710  30.759  25.286  1.00  0.00     0.163 HD
ATOM     28  O   UNL A   1      32.195  32.130  27.231  1.00  0.00    -0.269 OA
BRANCH  26  29
ATOM     29  C   UNL A   1      34.205  30.932  27.479  1.00  0.00     0.039 A 
ATOM     30  C   UNL A   1      35.109  31.970  27.709  1.00  0.00     0.014 A 
ATOM     31  C   UNL A   1      34.483  29.633  27.914  1.00  0.00     0.014 A 
ATOM     32  C   UNL A   1      36.272  31.717  28.437  1.00  0.00     0.010 A 
ATOM     33  C   UNL A   1      35.612  29.395  28.689  1.00  0.00     0.010 A 
ATOM     34  C   UNL A   1      36.516  30.436  28.956  1.00  0.00    -0.014 A 
BRANCH  34  35
ATOM     35  C   UNL A   1      37.735  30.151  29.750  1.00  0.00     0.031 A 
ATOM     36  C   UNL A   1      38.823  29.305  29.153  1.00  0.00     0.074 A 
ATOM     37  C   UNL A   1      37.840  30.614  31.010  1.00  0.00     0.049 A 
ATOM     38  N   UNL A   1      39.917  28.853  29.707  1.00  0.00    -0.248 NA
ATOM     39  C   UNL A   1      38.639  28.889  27.753  1.00  0.00     0.031 C 
ATOM     40  C   UNL A   1      36.840  31.433  31.698  1.00  0.00     0.029 A 
ATOM     41  N   UNL A   1      38.840  30.462  31.936  1.00  0.00    -0.354 N 
ATOM     42  C   UNL A   1      40.548  28.093  28.728  1.00  0.00     0.074 A 
ATOM     43  C   UNL A   1      39.686  28.100  27.566  1.00  0.00     0.031 C 
ATOM     44  C   UNL A   1      37.293  31.737  32.926  1.00  0.00     0.029 A 
ATOM     45  C   UNL A   1      38.591  31.102  33.126  1.00  0.00     0.049 A 
ATOM     46  H   UNL A   1      39.658  29.942  31.764  1.00  0.00     0.167 HD
ATOM     47  C   UNL A   1      41.748  27.467  28.787  1.00  0.00     0.034 A 
ATOM     48  C   UNL A   1      39.327  31.163  34.254  1.00  0.00     0.034 A 
ATOM     49  C   UNL A   1      42.607  27.487  29.943  1.00  0.00     0.049 A 
ATOM     50  C   UNL A   1      40.642  30.433  34.306  1.00  0.00     0.074 A 
ATOM     51  C   UNL A   1      43.856  26.912  30.099  1.00  0.00     0.029 A 
ATOM     52  N   UNL A   1      42.307  28.119  31.141  1.00  0.00    -0.354 N 
ATOM     53  N   UNL A   1      41.219  29.707  33.377  1.00  0.00    -0.248 NA
ATOM     54  C   UNL A   1      41.400  30.526  35.559  1.00  0.00     0.031 C 
ATOM     55  C   UNL A   1      44.291  27.158  31.406  1.00  0.00     0.029 A 
ATOM     56  C   UNL A   1      43.337  27.933  32.048  1.00  0.00     0.049 A 
ATOM     57  H   UNL A   1      41.482  28.626  31.321  1.00  0.00     0.167 HD
ATOM     58  C   UNL A   1      42.414  29.262  33.933  1.00  0.00     0.074 A 
ATOM     59  C   UNL A   1      42.482  29.815  35.271  1.00  0.00     0.031 C 
ATOM     60  C   UNL A   1      43.370  28.467  33.387  1.00  0.00     0.034 A 
BRANCH  47  61
ATOM     61  C   UNL A   1      42.183  26.700  27.566  1.00  0.00     0.023 A 
ATOM     62  C   UNL A   1      41.886  25.335  27.417  1.00  0.00     0.031 A 
ATOM     63  C   UNL A   1      42.927  27.332  26.556  1.00  0.00     0.131 A 
ATOM     64  C   UNL A   1      42.382  24.630  26.311  1.00  0.00     0.055 A 
ATOM     65  C   UNL A   1      43.360  26.641  25.423  1.00  0.00     0.041 A 
ATOM     66  F   UNL A   1      43.257  28.629  26.659  1.00  0.00    -0.206 F 
ATOM     67  C   UNL A   1      43.097  25.279  25.301  1.00  0.00     0.022 A 
BRANCH  64  68
ATOM     68  S   UNL A   1      42.167  22.831  26.260  1.00  0.00     0.124 S 
ATOM     69  O   UNL A   1      40.719  22.705  26.399  1.00  0.00    -0.237 OA
ATOM     70  O   UNL A   1      42.715  22.482  24.954  1.00  0.00    -0.237 OA
ATOM     71  O   UNL A   1      42.942  22.361  27.406  1.00  0.00    -0.744 OA
ENDBRANCH  64  68
ENDBRANCH  47  61
BRANCH  48  72
ATOM     72  C   UNL A   1      38.836  31.934  35.427  1.00  0.00     0.023 A 
ATOM     73  C   UNL A   1      38.225  31.281  36.509  1.00  0.00     0.031 A 
ATOM     74  C   UNL A   1      38.960  33.333  35.479  1.00  0.00     0.131 A 
ATOM     75  C   UNL A   1      37.737  32.031  37.590  1.00  0.00     0.055 A 
ATOM     76  C   UNL A   1      38.504  34.071  36.572  1.00  0.00     0.041 A 
ATOM     77  F   UNL A   1      39.547  33.998  34.471  1.00  0.00    -0.206 F 
ATOM     78  C   UNL A   1      37.882  33.420  37.633  1.00  0.00     0.022 A 
BRANCH  75  79
ATOM     79  S   UNL A   1      36.888  31.166  38.940  1.00  0.00     0.124 S 
ATOM     80  O   UNL A   1      36.742  29.825  38.385  1.00  0.00    -0.237 OA
ATOM     81  O   UNL A   1      37.839  31.307  40.039  1.00  0.00    -0.237 OA
ATOM     82  O   UNL A   1      35.646  31.918  39.097  1.00  0.00    -0.744 OA
ENDBRANCH  75  79
ENDBRANCH  48  72
BRANCH  60  83
ATOM     83  C   UNL A   1      44.569  28.159  34.242  1.00  0.00     0.023 A 
ATOM     84  C   UNL A   1      44.608  27.015  35.056  1.00  0.00     0.031 A 
ATOM     85  C   UNL A   1      45.687  29.011  34.233  1.00  0.00     0.131 A 
ATOM     86  C   UNL A   1      45.732  26.770  35.858  1.00  0.00     0.055 A 
ATOM     87  C   UNL A   1      46.820  28.738  34.998  1.00  0.00     0.041 A 
ATOM     88  F   UNL A   1      45.695  30.116  33.471  1.00  0.00    -0.206 F 
ATOM     89  C   UNL A   1      46.844  27.616  35.823  1.00  0.00     0.022 A 
BRANCH  86  90
ATOM     90  S   UNL A   1      45.701  25.355  36.991  1.00  0.00     0.124 S 
ATOM     91  O   UNL A   1      45.879  24.231  36.076  1.00  0.00    -0.237 OA
ATOM     92  O   UNL A   1      46.823  25.637  37.880  1.00  0.00    -0.237 OA
ATOM     93  O   UNL A   1      44.382  25.443  37.614  1.00  0.00    -0.744 OA
ENDBRANCH  86  90
ENDBRANCH  60  83
ENDBRANCH  34  35
ENDBRANCH  26  29
ENDBRANCH  24  25
ENDBRANCH   1  24
TORSDOF 15
ENDMDL
MODEL 3
REMARK VINA RESULT:     -12.5      5.097     10.263
REMARK SMILES Cc1cc(C)c2c(c1)C=C(C(=O)NCCCCNC(=O)c1ccc(-c3c4nc(c(-c5cc(S(=O)(=O)[O-])ccc5F)c5ccc([nH]5)c(-c5cc(S(=O)(=O)[O-])ccc5F)c5nc(c(-c6cc(S(=O)(=O)[O-])ccc6F)c6ccc3[nH]6)C=C5)C=C4)cc1)[C@@H](C(F)(F)F)O2
REMARK SMILES IDX 16 1 15 2 14 3 13 4 11 5 12 6 10 8 1 9 2 10 3 11 8 12 4 13
REMARK SMILES IDX 7 14 5 15 6 16 9 17 89 18 84 19 85 20 86 21 87 22 88 23
REMARK SMILES IDX 17 24 18 25 19 26 20 28 21 29 22 30 83 31 23 32 82 33 24 34
REMARK SMILES IDX 25 35 26 36 76 37 27 38 81 39 75 40 77 41 28 42 80 43 74 44
REMARK SMILES IDX 73 45 29 47 61 48 41 49 60 50 42 51 45 52 59 53 78 54 43 55
REMARK SMILES IDX 44 56 58 58 79 59 46 60 30 61 31 62 39 63 32 64 38 65 40 66
REMARK SMILES IDX 37 67 33 68 34 69 35 70 36 71 62 72 63 73 71 74 64 75 70 76
REMARK SMILES IDX 72 77 69 78 65 79 66 80 67 81 68 82 47 83 48 84 56 85 49 86
REMARK SMILES IDX 55 87 57 88 54 89 50 90 51 91 52 92 53 93
REMARK H PARENT 13 7 18 27 77 46 45 57
REMARK Flexibility Score: inf
ROOT
ATOM      1  C   UNL A   1      35.239  21.742  24.740  1.00  0.00     0.023 C 
ENDROOT
BRANCH   1   2
ATOM      2  C   UNL A   1      33.862  21.751  25.409  1.00  0.00     0.023 C 
BRANCH   2   3
ATOM      3  C   UNL A   1      32.700  21.909  24.434  1.00  0.00     0.116 C 
BRANCH   3   4
ATOM      4  N   UNL A   1      33.140  22.396  23.140  1.00  0.00    -0.352 N 
ATOM      5  C   UNL A   1      33.217  23.591  22.509  1.00  0.00     0.251 C 
ATOM      6  O   UNL A   1      33.668  23.553  21.360  1.00  0.00    -0.270 OA
ATOM      7  H   UNL A   1      33.471  21.665  22.569  1.00  0.00     0.163 HD
BRANCH   5   8
ATOM      8  C   UNL A   1      32.805  24.903  23.093  1.00  0.00     0.067 C 
ATOM      9  C   UNL A   1      34.721  29.061  27.249  1.00  0.00     0.044 C 
ATOM     10  C   UNL A   1      33.857  28.509  26.153  1.00  0.00    -0.050 A 
ATOM     11  C   UNL A   1      32.729  29.210  25.709  1.00  0.00     0.010 A 
ATOM     12  C   UNL A   1      34.163  27.266  25.581  1.00  0.00     0.015 A 
ATOM     13  C   UNL A   1      31.917  28.693  24.691  1.00  0.00    -0.008 A 
ATOM     14  C   UNL A   1      33.359  26.737  24.566  1.00  0.00     0.018 A 
ATOM     15  C   UNL A   1      30.715  29.457  24.213  1.00  0.00     0.048 C 
ATOM     16  C   UNL A   1      32.243  27.451  24.131  1.00  0.00     0.130 A 
ATOM     17  C   UNL A   1      33.695  25.468  23.931  1.00  0.00     0.025 C 
ATOM     18  O   UNL A   1      31.450  27.000  23.111  1.00  0.00    -0.475 OA
ATOM     19  C   UNL A   1      31.486  25.574  22.837  1.00  0.00     0.314 C 
BRANCH  19  20
ATOM     20  C   UNL A   1      30.318  24.891  23.573  1.00  0.00     0.429 C 
ATOM     21  F   UNL A   1      29.235  25.709  23.600  1.00  0.00    -0.167 F 
ATOM     22  F   UNL A   1      29.919  23.747  22.972  1.00  0.00    -0.167 F 
ATOM     23  F   UNL A   1      30.619  24.579  24.854  1.00  0.00    -0.167 F 
ENDBRANCH  19  20
ENDBRANCH   5   8
ENDBRANCH   3   4
ENDBRANCH   2   3
ENDBRANCH   1   2
BRANCH   1  24
ATOM     24  C   UNL A   1      36.426  21.939  25.681  1.00  0.00     0.116 C 
BRANCH  24  25
ATOM     25  N   UNL A   1      37.379  20.840  25.649  1.00  0.00    -0.352 N 
ATOM     26  C   UNL A   1      38.727  20.873  25.911  1.00  0.00     0.251 C 
ATOM     27  H   UNL A   1      37.010  19.958  25.409  1.00  0.00     0.163 HD
ATOM     28  O   UNL A   1      39.415  19.871  25.741  1.00  0.00    -0.269 OA
BRANCH  26  29
ATOM     29  C   UNL A   1      39.334  22.140  26.362  1.00  0.00     0.039 A 
ATOM     30  C   UNL A   1      40.383  22.095  27.282  1.00  0.00     0.014 A 
ATOM     31  C   UNL A   1      38.896  23.359  25.836  1.00  0.00     0.014 A 
ATOM     32  C   UNL A   1      41.039  23.275  27.630  1.00  0.00     0.010 A 
ATOM     33  C   UNL A   1      39.589  24.525  26.139  1.00  0.00     0.010 A 
ATOM     34  C   UNL A   1      40.666  24.493  27.040  1.00  0.00    -0.014 A 
BRANCH  34  35
ATOM     35  C   UNL A   1      41.364  25.755  27.379  1.00  0.00     0.031 A 
ATOM     36  C   UNL A   1      40.666  26.778  28.229  1.00  0.00     0.074 A 
ATOM     37  C   UNL A   1      42.596  25.994  26.892  1.00  0.00     0.049 A 
ATOM     38  N   UNL A   1      41.052  27.983  28.558  1.00  0.00    -0.248 NA
ATOM     39  C   UNL A   1      39.344  26.403  28.756  1.00  0.00     0.031 C 
ATOM     40  C   UNL A   1      43.365  25.080  26.045  1.00  0.00     0.029 A 
ATOM     41  N   UNL A   1      43.420  27.080  27.041  1.00  0.00    -0.354 N 
ATOM     42  C   UNL A   1      40.019  28.514  29.320  1.00  0.00     0.074 A 
ATOM     43  C   UNL A   1      38.967  27.521  29.359  1.00  0.00     0.031 C 
ATOM     44  C   UNL A   1      44.560  25.631  25.776  1.00  0.00     0.029 A 
ATOM     45  C   UNL A   1      44.626  26.951  26.395  1.00  0.00     0.049 A 
ATOM     46  H   UNL A   1      43.170  27.878  27.561  1.00  0.00     0.167 HD
ATOM     47  C   UNL A   1      39.964  29.711  29.951  1.00  0.00     0.034 A 
ATOM     48  C   UNL A   1      45.664  27.805  26.308  1.00  0.00     0.034 A 
ATOM     49  C   UNL A   1      41.027  30.683  29.925  1.00  0.00     0.049 A 
ATOM     50  C   UNL A   1      45.567  29.143  26.991  1.00  0.00     0.074 A 
ATOM     51  C   UNL A   1      41.087  31.913  30.553  1.00  0.00     0.029 A 
ATOM     52  N   UNL A   1      42.221  30.529  29.233  1.00  0.00    -0.354 N 
ATOM     53  N   UNL A   1      44.576  29.637  27.698  1.00  0.00    -0.248 NA
ATOM     54  C   UNL A   1      46.722  30.039  26.859  1.00  0.00     0.031 C 
ATOM     55  C   UNL A   1      42.297  32.524  30.206  1.00  0.00     0.029 A 
ATOM     56  C   UNL A   1      43.016  31.651  29.404  1.00  0.00     0.049 A 
ATOM     57  H   UNL A   1      42.467  29.739  28.700  1.00  0.00     0.167 HD
ATOM     58  C   UNL A   1      44.995  30.901  28.102  1.00  0.00     0.074 A 
ATOM     59  C   UNL A   1      46.331  31.086  27.573  1.00  0.00     0.031 C 
ATOM     60  C   UNL A   1      44.333  31.826  28.842  1.00  0.00     0.034 A 
BRANCH  47  61
ATOM     61  C   UNL A   1      38.701  30.032  30.708  1.00  0.00     0.023 A 
ATOM     62  C   UNL A   1      37.716  30.874  30.163  1.00  0.00     0.031 A 
ATOM     63  C   UNL A   1      38.493  29.514  31.997  1.00  0.00     0.131 A 
ATOM     64  C   UNL A   1      36.595  31.222  30.929  1.00  0.00     0.055 A 
ATOM     65  C   UNL A   1      37.341  29.810  32.729  1.00  0.00     0.041 A 
ATOM     66  F   UNL A   1      39.412  28.723  32.573  1.00  0.00    -0.206 F 
ATOM     67  C   UNL A   1      36.389  30.678  32.200  1.00  0.00     0.022 A 
BRANCH  64  68
ATOM     68  S   UNL A   1      35.459  32.478  30.284  1.00  0.00     0.124 S 
ATOM     69  O   UNL A   1      36.330  33.648  30.204  1.00  0.00    -0.237 OA
ATOM     70  O   UNL A   1      35.042  31.905  29.009  1.00  0.00    -0.237 OA
ATOM     71  O   UNL A   1      34.415  32.552  31.304  1.00  0.00    -0.744 OA
ENDBRANCH  64  68
ENDBRANCH  47  61
BRANCH  48  72
ATOM     72  C   UNL A   1      46.881  27.430  25.539  1.00  0.00     0.023 A 
ATOM     73  C   UNL A   1      47.006  27.771  24.184  1.00  0.00     0.031 A 
ATOM     74  C   UNL A   1      47.929  26.715  26.145  1.00  0.00     0.131 A 
ATOM     75  C   UNL A   1      48.147  27.376  23.468  1.00  0.00     0.055 A 
ATOM     76  C   UNL A   1      49.076  26.354  25.438  1.00  0.00     0.041 A 
ATOM     77  F   UNL A   1      47.856  26.377  27.441  1.00  0.00    -0.206 F 
ATOM     78  C   UNL A   1      49.187  26.679  24.089  1.00  0.00     0.022 A 
BRANCH  75  79
ATOM     79  S   UNL A   1      48.247  27.769  21.700  1.00  0.00     0.124 S 
ATOM     80  O   UNL A   1      49.388  28.675  21.663  1.00  0.00    -0.237 OA
ATOM     81  O   UNL A   1      48.452  26.452  21.105  1.00  0.00    -0.237 OA
ATOM     82  O   UNL A   1      46.952  28.381  21.414  1.00  0.00    -0.744 OA
ENDBRANCH  75  79
ENDBRANCH  48  72
BRANCH  60  83
ATOM     83  C   UNL A   1      45.055  33.116  29.124  1.00  0.00     0.023 A 
ATOM     84  C   UNL A   1      44.912  34.230  28.282  1.00  0.00     0.031 A 
ATOM     85  C   UNL A   1      45.884  33.234  30.253  1.00  0.00     0.131 A 
ATOM     86  C   UNL A   1      45.618  35.409  28.561  1.00  0.00     0.055 A 
ATOM     87  C   UNL A   1      46.548  34.424  30.551  1.00  0.00     0.041 A 
ATOM     88  F   UNL A   1      46.052  32.196  31.088  1.00  0.00    -0.206 F 
ATOM     89  C   UNL A   1      46.423  35.518  29.699  1.00  0.00     0.022 A 
BRANCH  86  90
ATOM     90  S   UNL A   1      45.511  36.787  27.388  1.00  0.00     0.124 S 
ATOM     91  O   UNL A   1      46.469  36.386  26.362  1.00  0.00    -0.237 OA
ATOM     92  O   UNL A   1      44.106  36.757  26.993  1.00  0.00    -0.237 OA
ATOM     93  O   UNL A   1      45.904  37.947  28.185  1.00  0.00    -0.744 OA
ENDBRANCH  86  90
ENDBRANCH  60  83
ENDBRANCH  34  35
ENDBRANCH  26  29
ENDBRANCH  24  25
ENDBRANCH   1  24
TORSDOF 15
ENDMDL
