MODEL 1
REMARK VINA RESULT:     -12.7      0.000      0.000
REMARK SMILES O=C(Cc1ccccc1)Nc1cccc(C(=O)Nc2ccccc2C(=O)NCCCCNC(=O)c2ccc(-c3c4nc(c(-c5cc(S(=O)(=O)[O-])ccc5F)c5ccc([nH]5)c(-c5cc(S(=O)(=O)[O-])ccc5F)c5nc(c(-c6cc(S(=O)(=O)[O-])ccc6F)c6ccc3[nH]6)C=C5)C=C4)cc2)c1
REMARK SMILES IDX 28 1 27 2 25 3 26 4 24 6 19 7 20 8 21 9 23 10 22 11 18 12
REMARK SMILES IDX 16 13 17 14 15 16 11 17 12 18 98 19 13 20 14 21 10 22 1 23
REMARK SMILES IDX 2 24 3 26 4 27 5 28 9 29 6 30 8 31 7 32 29 33 30 34 31 35
REMARK SMILES IDX 32 36 33 37 34 39 35 40 36 41 97 42 37 43 96 44 38 45 39 46
REMARK SMILES IDX 40 47 90 48 41 49 95 50 89 51 91 52 42 53 94 54 88 55 87 56
REMARK SMILES IDX 43 58 75 59 55 60 74 61 56 62 59 63 73 64 92 65 57 66 58 67
REMARK SMILES IDX 72 69 93 70 60 71 44 72 45 73 53 74 46 75 52 76 54 77 51 78
REMARK SMILES IDX 47 79 48 80 49 81 50 82 76 83 77 84 85 85 78 86 84 87 86 88
REMARK SMILES IDX 83 89 79 90 80 91 81 92 82 93 61 94 62 95 70 96 63 97 69 98
REMARK SMILES IDX 71 99 68 100 64 101 65 102 66 103 67 104
REMARK H PARENT 27 5 18 15 10 25 32 38 91 57 59 68
REMARK Flexibility Score: inf
ROOT
ATOM      1  C   UNL A   1      32.369  26.471  26.154  1.00  0.00     0.116 C 
ENDROOT
BRANCH   1   2
ATOM      2  N   UNL A   1      31.718  25.304  25.599  1.00  0.00    -0.352 N 
ATOM      3  C   UNL A   1      32.264  24.181  25.030  1.00  0.00     0.253 C 
ATOM      4  O   UNL A   1      31.494  23.322  24.594  1.00  0.00    -0.269 OA
ATOM      5  H   UNL A   1      30.733  25.319  25.636  1.00  0.00     0.163 HD
BRANCH   3   6
ATOM      6  C   UNL A   1      33.731  24.011  24.811  1.00  0.00     0.063 A 
ATOM      7  C   UNL A   1      34.415  23.789  23.598  1.00  0.00     0.054 A 
ATOM      8  C   UNL A   1      35.787  23.467  23.653  1.00  0.00     0.027 A 
ATOM      9  C   UNL A   1      36.501  23.507  24.852  1.00  0.00     0.002 A 
ATOM     10  C   UNL A   1      34.477  24.066  26.012  1.00  0.00     0.016 A 
ATOM     11  C   UNL A   1      35.851  23.837  26.031  1.00  0.00     0.001 A 
BRANCH   7  12
ATOM     12  N   UNL A   1      33.923  23.910  22.277  1.00  0.00    -0.321 N 
ATOM     13  C   UNL A   1      33.157  24.875  21.653  1.00  0.00     0.255 C 
ATOM     14  O   UNL A   1      32.690  24.641  20.541  1.00  0.00    -0.269 OA
ATOM     15  H   UNL A   1      34.176  23.161  21.689  1.00  0.00     0.170 HD
BRANCH  13  16
ATOM     16  C   UNL A   1      32.925  26.193  22.274  1.00  0.00     0.042 A 
ATOM     17  C   UNL A   1      31.389  27.950  22.859  1.00  0.00     0.041 A 
ATOM     18  C   UNL A   1      32.478  28.806  23.073  1.00  0.00     0.026 A 
ATOM     19  C   UNL A   1      31.625  26.621  22.540  1.00  0.00     0.040 A 
ATOM     20  C   UNL A   1      33.789  28.335  22.949  1.00  0.00     0.003 A 
ATOM     21  C   UNL A   1      34.015  27.025  22.541  1.00  0.00     0.014 A 
BRANCH  17  22
ATOM     22  N   UNL A   1      30.100  28.509  22.854  1.00  0.00    -0.326 N 
ATOM     23  O   UNL A   1      28.817  26.902  23.970  1.00  0.00    -0.274 OA
ATOM     24  C   UNL A   1      28.923  27.929  23.302  1.00  0.00     0.228 C 
ATOM     25  H   UNL A   1      30.024  29.421  22.490  1.00  0.00     0.169 HD
BRANCH  24  26
ATOM     26  C   UNL A   1      27.679  28.666  22.828  1.00  0.00     0.135 C 
BRANCH  26  27
ATOM     27  C   UNL A   1      27.963  30.105  22.482  1.00  0.00    -0.039 A 
ATOM     28  C   UNL A   1      27.995  30.509  21.142  1.00  0.00     0.004 A 
ATOM     29  C   UNL A   1      28.101  31.066  23.494  1.00  0.00     0.004 A 
ATOM     30  C   UNL A   1      28.146  31.856  20.819  1.00  0.00     0.000 A 
ATOM     31  C   UNL A   1      28.233  32.414  23.168  1.00  0.00     0.000 A 
ATOM     32  C   UNL A   1      28.253  32.809  21.831  1.00  0.00     0.000 A 
ENDBRANCH  26  27
ENDBRANCH  24  26
ENDBRANCH  17  22
ENDBRANCH  13  16
ENDBRANCH   7  12
ENDBRANCH   3   6
ENDBRANCH   1   2
BRANCH   1  33
ATOM     33  C   UNL A   1      31.424  27.458  26.828  1.00  0.00     0.023 C 
BRANCH  33  34
ATOM     34  C   UNL A   1      31.778  28.942  26.690  1.00  0.00     0.023 C 
BRANCH  34  35
ATOM     35  C   UNL A   1      33.258  29.315  26.751  1.00  0.00     0.116 C 
BRANCH  35  36
ATOM     36  N   UNL A   1      33.514  30.702  27.108  1.00  0.00    -0.352 N 
ATOM     37  C   UNL A   1      34.597  31.252  27.757  1.00  0.00     0.251 C 
ATOM     38  H   UNL A   1      32.812  31.341  26.846  1.00  0.00     0.163 HD
ATOM     39  O   UNL A   1      34.603  32.442  28.061  1.00  0.00    -0.269 OA
BRANCH  37  40
ATOM     40  C   UNL A   1      35.736  30.386  28.132  1.00  0.00     0.039 A 
ATOM     41  C   UNL A   1      36.861  30.350  27.305  1.00  0.00     0.014 A 
ATOM     42  C   UNL A   1      35.717  29.665  29.329  1.00  0.00     0.014 A 
ATOM     43  C   UNL A   1      38.013  29.687  27.734  1.00  0.00     0.010 A 
ATOM     44  C   UNL A   1      36.887  29.063  29.784  1.00  0.00     0.010 A 
ATOM     45  C   UNL A   1      38.057  29.091  29.006  1.00  0.00    -0.014 A 
BRANCH  45  46
ATOM     46  C   UNL A   1      39.319  28.534  29.566  1.00  0.00     0.031 A 
ATOM     47  C   UNL A   1      40.028  29.248  30.684  1.00  0.00     0.074 A 
ATOM     48  C   UNL A   1      39.881  27.447  28.995  1.00  0.00     0.049 A 
ATOM     49  N   UNL A   1      41.206  29.011  31.200  1.00  0.00    -0.248 NA
ATOM     50  C   UNL A   1      39.331  30.399  31.278  1.00  0.00     0.031 C 
ATOM     51  C   UNL A   1      39.314  26.687  27.876  1.00  0.00     0.029 A 
ATOM     52  N   UNL A   1      41.067  26.803  29.256  1.00  0.00    -0.354 N 
ATOM     53  C   UNL A   1      41.408  30.001  32.156  1.00  0.00     0.074 A 
ATOM     54  C   UNL A   1      40.243  30.859  32.123  1.00  0.00     0.031 C 
ATOM     55  C   UNL A   1      40.145  25.683  27.557  1.00  0.00     0.029 A 
ATOM     56  C   UNL A   1      41.330  25.751  28.406  1.00  0.00     0.049 A 
ATOM     57  H   UNL A   1      41.674  27.070  29.985  1.00  0.00     0.167 HD
ATOM     58  C   UNL A   1      42.464  30.171  32.989  1.00  0.00     0.034 A 
ATOM     59  C   UNL A   1      42.411  24.949  28.304  1.00  0.00     0.034 A 
ATOM     60  C   UNL A   1      43.600  29.285  33.041  1.00  0.00     0.049 A 
ATOM     61  C   UNL A   1      43.568  25.161  29.249  1.00  0.00     0.074 A 
ATOM     62  C   UNL A   1      44.677  29.321  33.910  1.00  0.00     0.029 A 
ATOM     63  N   UNL A   1      43.811  28.209  32.191  1.00  0.00    -0.354 N 
ATOM     64  N   UNL A   1      43.711  26.065  30.190  1.00  0.00    -0.248 NA
ATOM     65  C   UNL A   1      44.708  24.240  29.125  1.00  0.00     0.031 C 
ATOM     66  C   UNL A   1      45.568  28.307  33.547  1.00  0.00     0.029 A 
ATOM     67  C   UNL A   1      45.015  27.593  32.496  1.00  0.00     0.049 A 
ATOM     68  H   UNL A   1      43.197  27.925  31.476  1.00  0.00     0.167 HD
ATOM     69  C   UNL A   1      44.935  25.791  30.796  1.00  0.00     0.074 A 
ATOM     70  C   UNL A   1      45.488  24.637  30.121  1.00  0.00     0.031 C 
ATOM     71  C   UNL A   1      45.545  26.433  31.823  1.00  0.00     0.034 A 
BRANCH  58  72
ATOM     72  C   UNL A   1      42.455  31.373  33.898  1.00  0.00     0.023 A 
ATOM     73  C   UNL A   1      41.728  31.390  35.099  1.00  0.00     0.031 A 
ATOM     74  C   UNL A   1      43.205  32.515  33.562  1.00  0.00     0.131 A 
ATOM     75  C   UNL A   1      41.724  32.544  35.897  1.00  0.00     0.055 A 
ATOM     76  C   UNL A   1      43.251  33.635  34.394  1.00  0.00     0.041 A 
ATOM     77  F   UNL A   1      43.905  32.560  32.418  1.00  0.00    -0.206 F 
ATOM     78  C   UNL A   1      42.500  33.657  35.565  1.00  0.00     0.022 A 
BRANCH  75  79
ATOM     79  S   UNL A   1      40.612  32.606  37.328  1.00  0.00     0.124 S 
ATOM     80  O   UNL A   1      39.633  31.578  36.984  1.00  0.00    -0.237 OA
ATOM     81  O   UNL A   1      41.504  32.292  38.437  1.00  0.00    -0.237 OA
ATOM     82  O   UNL A   1      40.102  33.976  37.306  1.00  0.00    -0.744 OA
ENDBRANCH  75  79
ENDBRANCH  58  72
BRANCH  59  83
ATOM     83  C   UNL A   1      42.482  23.888  27.257  1.00  0.00     0.023 A 
ATOM     84  C   UNL A   1      41.877  22.636  27.455  1.00  0.00     0.031 A 
ATOM     85  C   UNL A   1      43.228  24.076  26.079  1.00  0.00     0.131 A 
ATOM     86  C   UNL A   1      42.085  21.602  26.530  1.00  0.00     0.055 A 
ATOM     87  C   UNL A   1      43.381  23.063  25.130  1.00  0.00     0.041 A 
ATOM     88  F   UNL A   1      43.827  25.254  25.834  1.00  0.00    -0.206 F 
ATOM     89  C   UNL A   1      42.824  21.810  25.363  1.00  0.00     0.022 A 
BRANCH  86  90
ATOM     90  S   UNL A   1      41.485  19.938  26.939  1.00  0.00     0.124 S 
ATOM     91  O   UNL A   1      40.801  20.174  28.206  1.00  0.00    -0.237 OA
ATOM     92  O   UNL A   1      40.632  19.636  25.796  1.00  0.00    -0.237 OA
ATOM     93  O   UNL A   1      42.710  19.148  27.029  1.00  0.00    -0.744 OA
ENDBRANCH  86  90
ENDBRANCH  59  83
BRANCH  71  94
ATOM     94  C   UNL A   1      46.843  25.855  32.327  1.00  0.00     0.023 A 
ATOM     95  C   UNL A   1      48.073  26.139  31.710  1.00  0.00     0.031 A 
ATOM     96  C   UNL A   1      46.844  25.009  33.451  1.00  0.00     0.131 A 
ATOM     97  C   UNL A   1      49.250  25.550  32.197  1.00  0.00     0.055 A 
ATOM     98  C   UNL A   1      48.023  24.468  33.962  1.00  0.00     0.041 A 
ATOM     99  F   UNL A   1      45.695  24.706  34.078  1.00  0.00    -0.206 F 
ATOM    100  C   UNL A   1      49.234  24.730  33.329  1.00  0.00     0.022 A 
BRANCH  97 101
ATOM    101  S   UNL A   1      50.799  25.818  31.294  1.00  0.00     0.124 S 
ATOM    102  O   UNL A   1      51.779  25.194  32.177  1.00  0.00    -0.237 OA
ATOM    103  O   UNL A   1      50.549  25.130  30.032  1.00  0.00    -0.237 OA
ATOM    104  O   UNL A   1      50.891  27.274  31.194  1.00  0.00    -0.744 OA
ENDBRANCH  97 101
ENDBRANCH  71  94
ENDBRANCH  45  46
ENDBRANCH  37  40
ENDBRANCH  35  36
ENDBRANCH  34  35
ENDBRANCH  33  34
ENDBRANCH   1  33
TORSDOF 19
ENDMDL
MODEL 2
REMARK VINA RESULT:     -11.8      2.713      8.081
REMARK SMILES O=C(Cc1ccccc1)Nc1cccc(C(=O)Nc2ccccc2C(=O)NCCCCNC(=O)c2ccc(-c3c4nc(c(-c5cc(S(=O)(=O)[O-])ccc5F)c5ccc([nH]5)c(-c5cc(S(=O)(=O)[O-])ccc5F)c5nc(c(-c6cc(S(=O)(=O)[O-])ccc6F)c6ccc3[nH]6)C=C5)C=C4)cc2)c1
REMARK SMILES IDX 28 1 27 2 25 3 26 4 24 6 19 7 20 8 21 9 23 10 22 11 18 12
REMARK SMILES IDX 16 13 17 14 15 16 11 17 12 18 98 19 13 20 14 21 10 22 1 23
REMARK SMILES IDX 2 24 3 26 4 27 5 28 9 29 6 30 8 31 7 32 29 33 30 34 31 35
REMARK SMILES IDX 32 36 33 37 34 39 35 40 36 41 97 42 37 43 96 44 38 45 39 46
REMARK SMILES IDX 40 47 90 48 41 49 95 50 89 51 91 52 42 53 94 54 88 55 87 56
REMARK SMILES IDX 43 58 75 59 55 60 74 61 56 62 59 63 73 64 92 65 57 66 58 67
REMARK SMILES IDX 72 69 93 70 60 71 44 72 45 73 53 74 46 75 52 76 54 77 51 78
REMARK SMILES IDX 47 79 48 80 49 81 50 82 76 83 77 84 85 85 78 86 84 87 86 88
REMARK SMILES IDX 83 89 79 90 80 91 81 92 82 93 61 94 62 95 70 96 63 97 69 98
REMARK SMILES IDX 71 99 68 100 64 101 65 102 66 103 67 104
REMARK H PARENT 27 5 18 15 10 25 32 38 91 57 59 68
REMARK Flexibility Score: inf
ROOT
ATOM      1  C   UNL A   1      33.957  26.137  25.425  1.00  0.00     0.116 C 
ENDROOT
BRANCH   1   2
ATOM      2  N   UNL A   1      35.157  25.332  25.337  1.00  0.00    -0.352 N 
ATOM      3  C   UNL A   1      35.350  24.102  24.757  1.00  0.00     0.253 C 
ATOM      4  O   UNL A   1      36.471  23.595  24.838  1.00  0.00    -0.269 OA
ATOM      5  H   UNL A   1      35.956  25.726  25.758  1.00  0.00     0.163 HD
BRANCH   3   6
ATOM      6  C   UNL A   1      34.244  23.311  24.143  1.00  0.00     0.063 A 
ATOM      7  C   UNL A   1      33.414  22.348  24.753  1.00  0.00     0.054 A 
ATOM      8  C   UNL A   1      32.558  21.585  23.931  1.00  0.00     0.027 A 
ATOM      9  C   UNL A   1      32.413  21.859  22.570  1.00  0.00     0.002 A 
ATOM     10  C   UNL A   1      34.066  23.587  22.766  1.00  0.00     0.016 A 
ATOM     11  C   UNL A   1      33.147  22.883  21.991  1.00  0.00     0.001 A 
BRANCH   7  12
ATOM     12  N   UNL A   1      33.259  22.067  26.131  1.00  0.00    -0.321 N 
ATOM     13  C   UNL A   1      32.394  22.557  27.089  1.00  0.00     0.255 C 
ATOM     14  O   UNL A   1      32.601  22.296  28.272  1.00  0.00    -0.269 OA
ATOM     15  H   UNL A   1      33.890  21.393  26.473  1.00  0.00     0.170 HD
BRANCH  13  16
ATOM     16  C   UNL A   1      31.204  23.348  26.720  1.00  0.00     0.042 A 
ATOM     17  C   UNL A   1      30.282  25.329  25.714  1.00  0.00     0.041 A 
ATOM     18  C   UNL A   1      29.057  25.054  26.337  1.00  0.00     0.026 A 
ATOM     19  C   UNL A   1      31.326  24.426  25.844  1.00  0.00     0.040 A 
ATOM     20  C   UNL A   1      28.890  23.892  27.098  1.00  0.00     0.003 A 
ATOM     21  C   UNL A   1      29.970  23.038  27.297  1.00  0.00     0.014 A 
BRANCH  17  22
ATOM     22  N   UNL A   1      30.437  26.576  25.085  1.00  0.00    -0.326 N 
ATOM     23  O   UNL A   1      28.719  26.591  23.497  1.00  0.00    -0.274 OA
ATOM     24  C   UNL A   1      29.738  27.067  23.992  1.00  0.00     0.228 C 
ATOM     25  H   UNL A   1      31.123  27.171  25.465  1.00  0.00     0.169 HD
BRANCH  24  26
ATOM     26  C   UNL A   1      30.397  28.286  23.365  1.00  0.00     0.135 C 
BRANCH  26  27
ATOM     27  C   UNL A   1      29.456  29.459  23.267  1.00  0.00    -0.039 A 
ATOM     28  C   UNL A   1      29.716  30.628  23.992  1.00  0.00     0.004 A 
ATOM     29  C   UNL A   1      28.370  29.427  22.380  1.00  0.00     0.004 A 
ATOM     30  C   UNL A   1      28.913  31.754  23.820  1.00  0.00     0.000 A 
ATOM     31  C   UNL A   1      27.580  30.561  22.197  1.00  0.00     0.000 A 
ATOM     32  C   UNL A   1      27.853  31.723  22.915  1.00  0.00     0.000 A 
ENDBRANCH  26  27
ENDBRANCH  24  26
ENDBRANCH  17  22
ENDBRANCH  13  16
ENDBRANCH   7  12
ENDBRANCH   3   6
ENDBRANCH   1   2
BRANCH   1  33
ATOM     33  C   UNL A   1      33.847  27.220  24.359  1.00  0.00     0.023 C 
BRANCH  33  34
ATOM     34  C   UNL A   1      33.656  28.653  24.863  1.00  0.00     0.023 C 
BRANCH  34  35
ATOM     35  C   UNL A   1      32.962  28.832  26.211  1.00  0.00     0.116 C 
BRANCH  35  36
ATOM     36  N   UNL A   1      32.587  30.205  26.517  1.00  0.00    -0.352 N 
ATOM     37  C   UNL A   1      33.294  31.172  27.197  1.00  0.00     0.251 C 
ATOM     38  H   UNL A   1      31.702  30.483  26.190  1.00  0.00     0.163 HD
ATOM     39  O   UNL A   1      32.780  32.260  27.445  1.00  0.00    -0.269 OA
BRANCH  37  40
ATOM     40  C   UNL A   1      34.663  30.874  27.671  1.00  0.00     0.039 A 
ATOM     41  C   UNL A   1      35.571  31.924  27.823  1.00  0.00     0.014 A 
ATOM     42  C   UNL A   1      35.024  29.572  28.027  1.00  0.00     0.014 A 
ATOM     43  C   UNL A   1      36.801  31.690  28.443  1.00  0.00     0.010 A 
ATOM     44  C   UNL A   1      36.221  29.354  28.704  1.00  0.00     0.010 A 
ATOM     45  C   UNL A   1      37.111  30.415  28.946  1.00  0.00    -0.014 A 
BRANCH  45  46
ATOM     46  C   UNL A   1      38.330  30.173  29.766  1.00  0.00     0.031 A 
ATOM     47  C   UNL A   1      39.375  29.199  29.295  1.00  0.00     0.074 A 
ATOM     48  C   UNL A   1      38.441  30.747  30.983  1.00  0.00     0.049 A 
ATOM     49  N   UNL A   1      40.422  28.739  29.929  1.00  0.00    -0.248 NA
ATOM     50  C   UNL A   1      39.200  28.647  27.942  1.00  0.00     0.031 C 
ATOM     51  C   UNL A   1      37.475  31.679  31.573  1.00  0.00     0.029 A 
ATOM     52  N   UNL A   1      39.403  30.616  31.957  1.00  0.00    -0.354 N 
ATOM     53  C   UNL A   1      41.014  27.820  29.069  1.00  0.00     0.074 A 
ATOM     54  C   UNL A   1      40.188  27.766  27.882  1.00  0.00     0.031 C 
ATOM     55  C   UNL A   1      37.896  32.037  32.796  1.00  0.00     0.029 A 
ATOM     56  C   UNL A   1      39.131  31.326  33.106  1.00  0.00     0.049 A 
ATOM     57  H   UNL A   1      40.210  30.064  31.844  1.00  0.00     0.167 HD
ATOM     58  C   UNL A   1      42.146  27.097  29.252  1.00  0.00     0.034 A 
ATOM     59  C   UNL A   1      39.789  31.379  34.284  1.00  0.00     0.034 A 
ATOM     60  C   UNL A   1      42.982  27.191  30.423  1.00  0.00     0.049 A 
ATOM     61  C   UNL A   1      41.049  30.566  34.455  1.00  0.00     0.074 A 
ATOM     62  C   UNL A   1      44.195  26.567  30.663  1.00  0.00     0.029 A 
ATOM     63  N   UNL A   1      42.695  27.950  31.548  1.00  0.00    -0.354 N 
ATOM     64  N   UNL A   1      41.627  29.751  33.603  1.00  0.00    -0.248 NA
ATOM     65  C   UNL A   1      41.751  30.685  35.742  1.00  0.00     0.031 C 
ATOM     66  C   UNL A   1      44.609  26.900  31.957  1.00  0.00     0.029 A 
ATOM     67  C   UNL A   1      43.692  27.786  32.497  1.00  0.00     0.049 A 
ATOM     68  H   UNL A   1      41.900  28.520  31.657  1.00  0.00     0.167 HD
ATOM     69  C   UNL A   1      42.781  29.298  34.237  1.00  0.00     0.074 A 
ATOM     70  C   UNL A   1      42.822  29.931  35.537  1.00  0.00     0.031 C 
ATOM     71  C   UNL A   1      43.727  28.438  33.783  1.00  0.00     0.034 A 
BRANCH  58  72
ATOM     72  C   UNL A   1      42.538  26.121  28.173  1.00  0.00     0.023 A 
ATOM     73  C   UNL A   1      41.933  24.858  28.059  1.00  0.00     0.031 A 
ATOM     74  C   UNL A   1      43.521  26.472  27.230  1.00  0.00     0.131 A 
ATOM     75  C   UNL A   1      42.354  23.971  27.056  1.00  0.00     0.055 A 
ATOM     76  C   UNL A   1      43.887  25.611  26.194  1.00  0.00     0.041 A 
ATOM     77  F   UNL A   1      44.143  27.658  27.302  1.00  0.00    -0.206 F 
ATOM     78  C   UNL A   1      43.309  24.348  26.109  1.00  0.00     0.022 A 
BRANCH  75  79
ATOM     79  S   UNL A   1      41.705  22.278  27.067  1.00  0.00     0.124 S 
ATOM     80  O   UNL A   1      40.364  22.481  27.611  1.00  0.00    -0.237 OA
ATOM     81  O   UNL A   1      41.772  21.903  25.660  1.00  0.00    -0.237 OA
ATOM     82  O   UNL A   1      42.626  21.563  27.949  1.00  0.00    -0.744 OA
ENDBRANCH  75  79
ENDBRANCH  58  72
BRANCH  59  83
ATOM     83  C   UNL A   1      39.269  32.202  35.416  1.00  0.00     0.023 A 
ATOM     84  C   UNL A   1      39.667  33.539  35.579  1.00  0.00     0.031 A 
ATOM     85  C   UNL A   1      38.434  31.642  36.400  1.00  0.00     0.131 A 
ATOM     86  C   UNL A   1      39.291  34.247  36.731  1.00  0.00     0.055 A 
ATOM     87  C   UNL A   1      38.011  32.371  37.513  1.00  0.00     0.041 A 
ATOM     88  F   UNL A   1      38.018  30.369  36.295  1.00  0.00    -0.206 F 
ATOM     89  C   UNL A   1      38.456  33.676  37.694  1.00  0.00     0.022 A 
BRANCH  86  90
ATOM     90  S   UNL A   1      40.018  35.886  37.017  1.00  0.00     0.124 S 
ATOM     91  O   UNL A   1      39.262  36.347  38.176  1.00  0.00    -0.237 OA
ATOM     92  O   UNL A   1      41.419  35.555  37.255  1.00  0.00    -0.237 OA
ATOM     93  O   UNL A   1      39.749  36.599  35.771  1.00  0.00    -0.744 OA
ENDBRANCH  86  90
ENDBRANCH  59  83
BRANCH  71  94
ATOM     94  C   UNL A   1      44.922  28.192  34.669  1.00  0.00     0.023 A 
ATOM     95  C   UNL A   1      45.033  27.039  35.465  1.00  0.00     0.031 A 
ATOM     96  C   UNL A   1      45.968  29.131  34.708  1.00  0.00     0.131 A 
ATOM     97  C   UNL A   1      46.150  26.873  36.297  1.00  0.00     0.055 A 
ATOM     98  C   UNL A   1      47.101  28.935  35.498  1.00  0.00     0.041 A 
ATOM     99  F   UNL A   1      45.911  30.249  33.967  1.00  0.00    -0.206 F 
ATOM    100  C   UNL A   1      47.192  27.806  36.306  1.00  0.00     0.022 A 
BRANCH  97 101
ATOM    101  S   UNL A   1      46.199  25.450  37.420  1.00  0.00     0.124 S 
ATOM    102  O   UNL A   1      47.630  25.303  37.665  1.00  0.00    -0.237 OA
ATOM    103  O   UNL A   1      45.403  25.916  38.551  1.00  0.00    -0.237 OA
ATOM    104  O   UNL A   1      45.589  24.375  36.638  1.00  0.00    -0.744 OA
ENDBRANCH  97 101
ENDBRANCH  71  94
ENDBRANCH  45  46
ENDBRANCH  37  40
ENDBRANCH  35  36
ENDBRANCH  34  35
ENDBRANCH  33  34
ENDBRANCH   1  33
TORSDOF 19
ENDMDL
MODEL 3
REMARK VINA RESULT:     -11.7      3.837      8.790
REMARK SMILES O=C(Cc1ccccc1)Nc1cccc(C(=O)Nc2ccccc2C(=O)NCCCCNC(=O)c2ccc(-c3c4nc(c(-c5cc(S(=O)(=O)[O-])ccc5F)c5ccc([nH]5)c(-c5cc(S(=O)(=O)[O-])ccc5F)c5nc(c(-c6cc(S(=O)(=O)[O-])ccc6F)c6ccc3[nH]6)C=C5)C=C4)cc2)c1
REMARK SMILES IDX 28 1 27 2 25 3 26 4 24 6 19 7 20 8 21 9 23 10 22 11 18 12
REMARK SMILES IDX 16 13 17 14 15 16 11 17 12 18 98 19 13 20 14 21 10 22 1 23
REMARK SMILES IDX 2 24 3 26 4 27 5 28 9 29 6 30 8 31 7 32 29 33 30 34 31 35
REMARK SMILES IDX 32 36 33 37 34 39 35 40 36 41 97 42 37 43 96 44 38 45 39 46
REMARK SMILES IDX 40 47 90 48 41 49 95 50 89 51 91 52 42 53 94 54 88 55 87 56
REMARK SMILES IDX 43 58 75 59 55 60 74 61 56 62 59 63 73 64 92 65 57 66 58 67
REMARK SMILES IDX 72 69 93 70 60 71 44 72 45 73 53 74 46 75 52 76 54 77 51 78
REMARK SMILES IDX 47 79 48 80 49 81 50 82 76 83 77 84 85 85 78 86 84 87 86 88
REMARK SMILES IDX 83 89 79 90 80 91 81 92 82 93 61 94 62 95 70 96 63 97 69 98
REMARK SMILES IDX 71 99 68 100 64 101 65 102 66 103 67 104
REMARK H PARENT 27 5 18 15 10 25 32 38 91 57 59 68
REMARK Flexibility Score: inf
ROOT
ATOM      1  C   UNL A   1      36.536  22.156  25.748  1.00  0.00     0.116 C 
ENDROOT
BRANCH   1   2
ATOM      2  N   UNL A   1      35.522  21.460  26.511  1.00  0.00    -0.352 N 
ATOM      3  C   UNL A   1      34.184  21.297  26.252  1.00  0.00     0.253 C 
ATOM      4  O   UNL A   1      33.507  20.681  27.078  1.00  0.00    -0.269 OA
ATOM      5  H   UNL A   1      35.842  21.039  27.343  1.00  0.00     0.163 HD
BRANCH   3   6
ATOM      6  C   UNL A   1      33.499  21.928  25.086  1.00  0.00     0.063 A 
ATOM      7  C   UNL A   1      32.138  22.269  24.950  1.00  0.00     0.054 A 
ATOM      8  C   UNL A   1      31.674  22.681  23.683  1.00  0.00     0.027 A 
ATOM      9  C   UNL A   1      32.549  22.894  22.617  1.00  0.00     0.002 A 
ATOM     10  C   UNL A   1      34.372  22.171  23.998  1.00  0.00     0.016 A 
ATOM     11  C   UNL A   1      33.906  22.668  22.783  1.00  0.00     0.001 A 
BRANCH   7  12
ATOM     12  N   UNL A   1      31.140  22.323  25.953  1.00  0.00    -0.321 N 
ATOM     13  C   UNL A   1      30.561  23.375  26.634  1.00  0.00     0.255 C 
ATOM     14  O   UNL A   1      29.856  23.138  27.612  1.00  0.00    -0.269 OA
ATOM     15  H   UNL A   1      30.794  21.440  26.216  1.00  0.00     0.170 HD
BRANCH  13  16
ATOM     16  C   UNL A   1      30.735  24.770  26.186  1.00  0.00     0.042 A 
ATOM     17  C   UNL A   1      29.911  26.642  24.921  1.00  0.00     0.041 A 
ATOM     18  C   UNL A   1      31.177  27.235  25.007  1.00  0.00     0.026 A 
ATOM     19  C   UNL A   1      29.675  25.448  25.585  1.00  0.00     0.040 A 
ATOM     20  C   UNL A   1      32.202  26.624  25.736  1.00  0.00     0.003 A 
ATOM     21  C   UNL A   1      31.983  25.382  26.323  1.00  0.00     0.014 A 
BRANCH  17  22
ATOM     22  N   UNL A   1      28.966  27.224  24.058  1.00  0.00    -0.326 N 
ATOM     23  O   UNL A   1      30.276  28.025  22.293  1.00  0.00    -0.274 OA
ATOM     24  C   UNL A   1      29.208  27.940  22.895  1.00  0.00     0.228 C 
ATOM     25  H   UNL A   1      28.021  27.110  24.310  1.00  0.00     0.169 HD
BRANCH  24  26
ATOM     26  C   UNL A   1      27.991  28.714  22.410  1.00  0.00     0.135 C 
BRANCH  26  27
ATOM     27  C   UNL A   1      28.250  30.197  22.332  1.00  0.00    -0.039 A 
ATOM     28  C   UNL A   1      28.037  30.882  21.129  1.00  0.00     0.004 A 
ATOM     29  C   UNL A   1      28.611  30.917  23.479  1.00  0.00     0.004 A 
ATOM     30  C   UNL A   1      28.167  32.268  21.079  1.00  0.00     0.000 A 
ATOM     31  C   UNL A   1      28.721  32.306  23.430  1.00  0.00     0.000 A 
ATOM     32  C   UNL A   1      28.498  32.980  22.231  1.00  0.00     0.000 A 
ENDBRANCH  26  27
ENDBRANCH  24  26
ENDBRANCH  17  22
ENDBRANCH  13  16
ENDBRANCH   7  12
ENDBRANCH   3   6
ENDBRANCH   1   2
BRANCH   1  33
ATOM     33  C   UNL A   1      37.716  21.288  25.329  1.00  0.00     0.023 C 
BRANCH  33  34
ATOM     34  C   UNL A   1      39.106  21.798  25.716  1.00  0.00     0.023 C 
BRANCH  34  35
ATOM     35  C   UNL A   1      39.891  20.979  26.739  1.00  0.00     0.116 C 
BRANCH  35  36
ATOM     36  N   UNL A   1      40.935  20.143  26.167  1.00  0.00    -0.352 N 
ATOM     37  C   UNL A   1      42.243  20.458  25.871  1.00  0.00     0.251 C 
ATOM     38  H   UNL A   1      40.669  19.217  25.963  1.00  0.00     0.163 HD
ATOM     39  O   UNL A   1      42.965  19.645  25.300  1.00  0.00    -0.269 OA
BRANCH  37  40
ATOM     40  C   UNL A   1      42.758  21.804  26.202  1.00  0.00     0.039 A 
ATOM     41  C   UNL A   1      42.823  22.770  25.195  1.00  0.00     0.014 A 
ATOM     42  C   UNL A   1      43.112  22.127  27.514  1.00  0.00     0.014 A 
ATOM     43  C   UNL A   1      43.129  24.093  25.526  1.00  0.00     0.010 A 
ATOM     44  C   UNL A   1      43.351  23.458  27.851  1.00  0.00     0.010 A 
ATOM     45  C   UNL A   1      43.334  24.461  26.867  1.00  0.00    -0.014 A 
BRANCH  45  46
ATOM     46  C   UNL A   1      43.484  25.885  27.273  1.00  0.00     0.031 A 
ATOM     47  C   UNL A   1      44.844  26.527  27.282  1.00  0.00     0.074 A 
ATOM     48  C   UNL A   1      42.413  26.564  27.736  1.00  0.00     0.049 A 
ATOM     49  N   UNL A   1      45.203  27.697  27.744  1.00  0.00    -0.248 NA
ATOM     50  C   UNL A   1      45.951  25.735  26.725  1.00  0.00     0.031 C 
ATOM     51  C   UNL A   1      41.046  26.039  27.817  1.00  0.00     0.029 A 
ATOM     52  N   UNL A   1      42.305  27.834  28.251  1.00  0.00    -0.354 N 
ATOM     53  C   UNL A   1      46.580  27.770  27.566  1.00  0.00     0.074 A 
ATOM     54  C   UNL A   1      46.994  26.512  26.982  1.00  0.00     0.031 C 
ATOM     55  C   UNL A   1      40.242  26.979  28.340  1.00  0.00     0.029 A 
ATOM     56  C   UNL A   1      41.036  28.154  28.683  1.00  0.00     0.049 A 
ATOM     57  H   UNL A   1      43.065  28.457  28.306  1.00  0.00     0.167 HD
ATOM     58  C   UNL A   1      47.418  28.796  27.854  1.00  0.00     0.034 A 
ATOM     59  C   UNL A   1      40.570  29.257  29.306  1.00  0.00     0.034 A 
ATOM     60  C   UNL A   1      46.987  30.061  28.396  1.00  0.00     0.049 A 
ATOM     61  C   UNL A   1      41.527  30.384  29.609  1.00  0.00     0.074 A 
ATOM     62  C   UNL A   1      47.745  31.193  28.640  1.00  0.00     0.029 A 
ATOM     63  N   UNL A   1      45.689  30.360  28.784  1.00  0.00    -0.354 N 
ATOM     64  N   UNL A   1      42.816  30.458  29.373  1.00  0.00    -0.248 NA
ATOM     65  C   UNL A   1      40.966  31.580  30.255  1.00  0.00     0.031 C 
ATOM     66  C   UNL A   1      46.919  32.155  29.231  1.00  0.00     0.029 A 
ATOM     67  C   UNL A   1      45.631  31.648  29.292  1.00  0.00     0.049 A 
ATOM     68  H   UNL A   1      44.921  29.748  28.710  1.00  0.00     0.167 HD
ATOM     69  C   UNL A   1      43.207  31.725  29.801  1.00  0.00     0.074 A 
ATOM     70  C   UNL A   1      42.020  32.382  30.304  1.00  0.00     0.031 C 
ATOM     71  C   UNL A   1      44.437  32.296  29.776  1.00  0.00     0.034 A 
BRANCH  58  72
ATOM     72  C   UNL A   1      48.891  28.590  27.611  1.00  0.00     0.023 A 
ATOM     73  C   UNL A   1      49.449  28.671  26.325  1.00  0.00     0.031 A 
ATOM     74  C   UNL A   1      49.752  28.326  28.691  1.00  0.00     0.131 A 
ATOM     75  C   UNL A   1      50.821  28.440  26.144  1.00  0.00     0.055 A 
ATOM     76  C   UNL A   1      51.127  28.164  28.513  1.00  0.00     0.041 A 
ATOM     77  F   UNL A   1      49.270  28.220  29.939  1.00  0.00    -0.206 F 
ATOM     78  C   UNL A   1      51.668  28.211  27.232  1.00  0.00     0.022 A 
BRANCH  75  79
ATOM     79  S   UNL A   1      51.470  28.345  24.453  1.00  0.00     0.124 S 
ATOM     80  O   UNL A   1      50.238  28.319  23.667  1.00  0.00    -0.237 OA
ATOM     81  O   UNL A   1      52.266  29.562  24.351  1.00  0.00    -0.237 OA
ATOM     82  O   UNL A   1      52.232  27.098  24.448  1.00  0.00    -0.744 OA
ENDBRANCH  75  79
ENDBRANCH  58  72
BRANCH  59  83
ATOM     83  C   UNL A   1      39.139  29.356  29.721  1.00  0.00     0.023 A 
ATOM     84  C   UNL A   1      38.223  30.117  28.977  1.00  0.00     0.031 A 
ATOM     85  C   UNL A   1      38.683  28.763  30.913  1.00  0.00     0.131 A 
ATOM     86  C   UNL A   1      36.923  30.324  29.465  1.00  0.00     0.055 A 
ATOM     87  C   UNL A   1      37.371  28.921  31.362  1.00  0.00     0.041 A 
ATOM     88  F   UNL A   1      39.515  28.021  31.664  1.00  0.00    -0.206 F 
ATOM     89  C   UNL A   1      36.488  29.722  30.647  1.00  0.00     0.022 A 
BRANCH  86  90
ATOM     90  S   UNL A   1      35.849  31.503  28.597  1.00  0.00     0.124 S 
ATOM     91  O   UNL A   1      36.811  32.499  28.141  1.00  0.00    -0.237 OA
ATOM     92  O   UNL A   1      35.255  30.663  27.563  1.00  0.00    -0.237 OA
ATOM     93  O   UNL A   1      34.929  31.954  29.639  1.00  0.00    -0.744 OA
ENDBRANCH  86  90
ENDBRANCH  59  83
BRANCH  71  94
ATOM     94  C   UNL A   1      44.544  33.727  30.238  1.00  0.00     0.023 A 
ATOM     95  C   UNL A   1      44.841  34.058  31.571  1.00  0.00     0.031 A 
ATOM     96  C   UNL A   1      44.354  34.775  29.320  1.00  0.00     0.131 A 
ATOM     97  C   UNL A   1      44.898  35.405  31.959  1.00  0.00     0.055 A 
ATOM     98  C   UNL A   1      44.463  36.112  29.699  1.00  0.00     0.041 A 
ATOM     99  F   UNL A   1      44.069  34.513  28.034  1.00  0.00    -0.206 F 
ATOM    100  C   UNL A   1      44.727  36.434  31.027  1.00  0.00     0.022 A 
BRANCH  97 101
ATOM    101  S   UNL A   1      45.137  35.800  33.712  1.00  0.00     0.124 S 
ATOM    102  O   UNL A   1      46.440  36.455  33.702  1.00  0.00    -0.237 OA
ATOM    103  O   UNL A   1      43.993  36.661  33.997  1.00  0.00    -0.237 OA
ATOM    104  O   UNL A   1      45.103  34.494  34.366  1.00  0.00    -0.744 OA
ENDBRANCH  97 101
ENDBRANCH  71  94
ENDBRANCH  45  46
ENDBRANCH  37  40
ENDBRANCH  35  36
ENDBRANCH  34  35
ENDBRANCH  33  34
ENDBRANCH   1  33
TORSDOF 19
ENDMDL
