MODEL 1
REMARK VINA RESULT:     -12.3      0.000      0.000
REMARK SMILES Cc1cc(Nc2ccc(C(=O)NCCCCNC(=O)c3ccc(-c4c5nc(c(-c6cc(S(=O)(=O)[O-])ccc6F)c6ccc([nH]6)c(-c6cc(S(=O)(=O)[O-])ccc6F)c6nc(c(-c7cc(S(=O)(=O)[O-])ccc7F)c7ccc4[nH]7)C=C6)C=C5)cc3)cc2)nc(-n2nc(C)cc2C)n1
REMARK SMILES IDX 14 1 13 2 12 3 10 4 11 5 9 7 6 8 7 9 84 10 8 11 83 12 5 13
REMARK SMILES IDX 4 15 1 16 2 17 3 18 94 19 86 20 85 21 87 22 88 23 92 24
REMARK SMILES IDX 89 25 91 26 93 27 90 28 15 29 16 30 17 31 18 32 19 34 20 35
REMARK SMILES IDX 21 36 82 37 22 38 81 39 23 40 24 41 25 42 75 43 26 44 80 45
REMARK SMILES IDX 74 46 76 47 27 48 79 49 73 50 72 51 28 53 60 54 40 55 59 56
REMARK SMILES IDX 41 57 44 58 58 59 77 60 42 61 43 62 57 64 78 65 45 66 29 67
REMARK SMILES IDX 30 68 38 69 31 70 37 71 39 72 36 73 32 74 33 75 34 76 35 77
REMARK SMILES IDX 61 78 62 79 70 80 63 81 69 82 71 83 68 84 64 85 65 86 66 87
REMARK SMILES IDX 67 88 46 89 47 90 55 91 48 92 54 93 56 94 53 95 49 96 50 97
REMARK SMILES IDX 51 98 52 99
REMARK H PARENT 12 6 5 14 17 33 76 52 44 63
REMARK Flexibility Score: inf
ROOT
ATOM      1  C   UNL A   1      35.456  21.851  26.163  1.00  0.00     0.023 C 
ENDROOT
BRANCH   1   2
ATOM      2  C   UNL A   1      35.251  21.066  24.864  1.00  0.00     0.116 C 
BRANCH   2   3
ATOM      3  N   UNL A   1      34.190  20.088  25.023  1.00  0.00    -0.352 N 
ATOM      4  C   UNL A   1      32.823  20.200  24.989  1.00  0.00     0.251 C 
ATOM      5  O   UNL A   1      32.157  19.175  25.139  1.00  0.00    -0.269 OA
ATOM      6  H   UNL A   1      34.513  19.172  25.185  1.00  0.00     0.163 HD
BRANCH   4   7
ATOM      7  C   UNL A   1      32.114  21.483  24.728  1.00  0.00     0.039 A 
ATOM      8  C   UNL A   1      30.624  23.857  24.379  1.00  0.00     0.040 A 
ATOM      9  C   UNL A   1      30.721  23.267  25.641  1.00  0.00     0.027 A 
ATOM     10  C   UNL A   1      31.318  23.280  23.312  1.00  0.00     0.027 A 
ATOM     11  C   UNL A   1      31.452  22.083  25.810  1.00  0.00     0.016 A 
ATOM     12  C   UNL A   1      32.090  22.131  23.493  1.00  0.00     0.016 A 
BRANCH   8  13
ATOM     13  N   UNL A   1      29.826  24.989  24.169  1.00  0.00    -0.340 N 
ATOM     14  H   UNL A   1      28.853  24.850  24.114  1.00  0.00     0.168 HD
BRANCH  13  15
ATOM     15  C   UNL A   1      30.292  26.308  24.029  1.00  0.00     0.136 A 
ATOM     16  C   UNL A   1      29.405  29.480  22.241  1.00  0.00     0.067 C 
ATOM     17  C   UNL A   1      30.006  28.494  23.196  1.00  0.00     0.045 A 
ATOM     18  C   UNL A   1      29.627  27.167  23.178  1.00  0.00     0.070 A 
ATOM     19  N   UNL A   1      30.968  28.957  24.017  1.00  0.00    -0.216 NA
ATOM     20  C   UNL A   1      31.627  28.040  24.761  1.00  0.00     0.252 A 
ATOM     21  N   UNL A   1      31.321  26.728  24.781  1.00  0.00    -0.194 NA
BRANCH  20  22
ATOM     22  N   UNL A   1      32.745  28.489  25.549  1.00  0.00    -0.203 N 
ATOM     23  N   UNL A   1      32.865  29.795  25.935  1.00  0.00    -0.170 NA
ATOM     24  C   UNL A   1      33.780  27.719  26.068  1.00  0.00     0.045 A 
ATOM     25  C   UNL A   1      33.861  29.801  26.824  1.00  0.00     0.060 A 
ATOM     26  C   UNL A   1      34.486  28.543  26.919  1.00  0.00     0.049 A 
ATOM     27  C   UNL A   1      34.043  26.318  25.659  1.00  0.00     0.067 C 
ATOM     28  C   UNL A   1      34.193  31.041  27.566  1.00  0.00     0.069 C 
ENDBRANCH  20  22
ENDBRANCH  13  15
ENDBRANCH   8  13
ENDBRANCH   4   7
ENDBRANCH   2   3
ENDBRANCH   1   2
BRANCH   1  29
ATOM     29  C   UNL A   1      35.821  23.325  25.953  1.00  0.00     0.023 C 
BRANCH  29  30
ATOM     30  C   UNL A   1      37.162  23.564  25.267  1.00  0.00     0.116 C 
BRANCH  30  31
ATOM     31  N   UNL A   1      38.195  22.635  25.698  1.00  0.00    -0.352 N 
ATOM     32  C   UNL A   1      39.354  22.898  26.392  1.00  0.00     0.251 C 
ATOM     33  H   UNL A   1      38.045  21.691  25.461  1.00  0.00     0.163 HD
ATOM     34  O   UNL A   1      40.175  22.009  26.567  1.00  0.00    -0.269 OA
BRANCH  32  35
ATOM     35  C   UNL A   1      39.611  24.271  26.879  1.00  0.00     0.039 A 
ATOM     36  C   UNL A   1      39.263  24.594  28.193  1.00  0.00     0.014 A 
ATOM     37  C   UNL A   1      40.213  25.226  26.054  1.00  0.00     0.014 A 
ATOM     38  C   UNL A   1      39.583  25.854  28.702  1.00  0.00     0.010 A 
ATOM     39  C   UNL A   1      40.586  26.458  26.583  1.00  0.00     0.010 A 
ATOM     40  C   UNL A   1      40.280  26.783  27.914  1.00  0.00    -0.014 A 
BRANCH  40  41
ATOM     41  C   UNL A   1      40.698  28.098  28.463  1.00  0.00     0.031 A 
ATOM     42  C   UNL A   1      42.156  28.387  28.695  1.00  0.00     0.074 A 
ATOM     43  C   UNL A   1      39.762  29.001  28.814  1.00  0.00     0.049 A 
ATOM     44  N   UNL A   1      42.715  29.434  29.246  1.00  0.00    -0.248 NA
ATOM     45  C   UNL A   1      43.105  27.344  28.278  1.00  0.00     0.031 C 
ATOM     46  C   UNL A   1      38.315  28.815  28.678  1.00  0.00     0.029 A 
ATOM     47  N   UNL A   1      39.883  30.250  29.372  1.00  0.00    -0.354 N 
ATOM     48  C   UNL A   1      44.081  29.174  29.251  1.00  0.00     0.074 A 
ATOM     49  C   UNL A   1      44.255  27.843  28.706  1.00  0.00     0.031 C 
ATOM     50  C   UNL A   1      37.687  29.913  29.127  1.00  0.00     0.029 A 
ATOM     51  C   UNL A   1      38.678  30.863  29.621  1.00  0.00     0.049 A 
ATOM     52  H   UNL A   1      40.752  30.666  29.575  1.00  0.00     0.167 HD
ATOM     53  C   UNL A   1      45.097  29.980  29.648  1.00  0.00     0.034 A 
ATOM     54  C   UNL A   1      38.402  32.051  30.196  1.00  0.00     0.034 A 
ATOM     55  C   UNL A   1      44.906  31.306  30.185  1.00  0.00     0.049 A 
ATOM     56  C   UNL A   1      39.545  32.925  30.645  1.00  0.00     0.074 A 
ATOM     57  C   UNL A   1      45.863  32.223  30.584  1.00  0.00     0.029 A 
ATOM     58  N   UNL A   1      43.671  31.904  30.405  1.00  0.00    -0.354 N 
ATOM     59  N   UNL A   1      40.836  32.683  30.602  1.00  0.00    -0.248 NA
ATOM     60  C   UNL A   1      39.196  34.235  31.208  1.00  0.00     0.031 C 
ATOM     61  C   UNL A   1      45.208  33.348  31.096  1.00  0.00     0.029 A 
ATOM     62  C   UNL A   1      43.841  33.166  30.953  1.00  0.00     0.049 A 
ATOM     63  H   UNL A   1      42.801  31.491  30.200  1.00  0.00     0.167 HD
ATOM     64  C   UNL A   1      41.452  33.825  31.106  1.00  0.00     0.074 A 
ATOM     65  C   UNL A   1      40.393  34.758  31.431  1.00  0.00     0.031 C 
ATOM     66  C   UNL A   1      42.774  34.081  31.281  1.00  0.00     0.034 A 
BRANCH  53  67
ATOM     67  C   UNL A   1      46.500  29.431  29.533  1.00  0.00     0.023 A 
ATOM     68  C   UNL A   1      47.246  29.565  28.348  1.00  0.00     0.031 A 
ATOM     69  C   UNL A   1      47.087  28.734  30.603  1.00  0.00     0.131 A 
ATOM     70  C   UNL A   1      48.497  28.943  28.233  1.00  0.00     0.055 A 
ATOM     71  C   UNL A   1      48.369  28.187  30.510  1.00  0.00     0.041 A 
ATOM     72  F   UNL A   1      46.418  28.555  31.752  1.00  0.00    -0.206 F 
ATOM     73  C   UNL A   1      49.076  28.276  29.314  1.00  0.00     0.022 A 
BRANCH  70  74
ATOM     74  S   UNL A   1      49.290  28.891  26.602  1.00  0.00     0.124 S 
ATOM     75  O   UNL A   1      50.239  27.794  26.771  1.00  0.00    -0.237 OA
ATOM     76  O   UNL A   1      48.165  28.631  25.712  1.00  0.00    -0.237 OA
ATOM     77  O   UNL A   1      49.896  30.214  26.472  1.00  0.00    -0.744 OA
ENDBRANCH  70  74
ENDBRANCH  53  67
BRANCH  54  78
ATOM     78  C   UNL A   1      36.989  32.483  30.394  1.00  0.00     0.023 A 
ATOM     79  C   UNL A   1      36.302  33.196  29.399  1.00  0.00     0.031 A 
ATOM     80  C   UNL A   1      36.318  32.222  31.602  1.00  0.00     0.131 A 
ATOM     81  C   UNL A   1      35.003  33.664  29.646  1.00  0.00     0.055 A 
ATOM     82  C   UNL A   1      35.007  32.647  31.824  1.00  0.00     0.041 A 
ATOM     83  F   UNL A   1      36.927  31.538  32.583  1.00  0.00    -0.206 F 
ATOM     84  C   UNL A   1      34.346  33.385  30.846  1.00  0.00     0.022 A 
BRANCH  81  85
ATOM     85  S   UNL A   1      34.210  34.721  28.402  1.00  0.00     0.124 S 
ATOM     86  O   UNL A   1      35.019  34.449  27.221  1.00  0.00    -0.237 OA
ATOM     87  O   UNL A   1      32.848  34.195  28.383  1.00  0.00    -0.237 OA
ATOM     88  O   UNL A   1      34.348  36.065  28.959  1.00  0.00    -0.744 OA
ENDBRANCH  81  85
ENDBRANCH  54  78
BRANCH  66  89
ATOM     89  C   UNL A   1      43.140  35.445  31.809  1.00  0.00     0.023 A 
ATOM     90  C   UNL A   1      43.521  36.493  30.951  1.00  0.00     0.031 A 
ATOM     91  C   UNL A   1      43.119  35.696  33.192  1.00  0.00     0.131 A 
ATOM     92  C   UNL A   1      43.917  37.727  31.490  1.00  0.00     0.055 A 
ATOM     93  C   UNL A   1      43.458  36.943  33.718  1.00  0.00     0.041 A 
ATOM     94  F   UNL A   1      42.764  34.731  34.056  1.00  0.00    -0.206 F 
ATOM     95  C   UNL A   1      43.873  37.963  32.866  1.00  0.00     0.022 A 
BRANCH  92  96
ATOM     96  S   UNL A   1      44.574  38.996  30.373  1.00  0.00     0.124 S 
ATOM     97  O   UNL A   1      45.365  39.820  31.281  1.00  0.00    -0.237 OA
ATOM     98  O   UNL A   1      45.330  38.203  29.409  1.00  0.00    -0.237 OA
ATOM     99  O   UNL A   1      43.374  39.638  29.839  1.00  0.00    -0.744 OA
ENDBRANCH  92  96
ENDBRANCH  66  89
ENDBRANCH  40  41
ENDBRANCH  32  35
ENDBRANCH  30  31
ENDBRANCH  29  30
ENDBRANCH   1  29
TORSDOF 17
ENDMDL
MODEL 2
REMARK VINA RESULT:     -12.1      5.195      8.818
REMARK SMILES Cc1cc(Nc2ccc(C(=O)NCCCCNC(=O)c3ccc(-c4c5nc(c(-c6cc(S(=O)(=O)[O-])ccc6F)c6ccc([nH]6)c(-c6cc(S(=O)(=O)[O-])ccc6F)c6nc(c(-c7cc(S(=O)(=O)[O-])ccc7F)c7ccc4[nH]7)C=C6)C=C5)cc3)cc2)nc(-n2nc(C)cc2C)n1
REMARK SMILES IDX 14 1 13 2 12 3 10 4 11 5 9 7 6 8 7 9 84 10 8 11 83 12 5 13
REMARK SMILES IDX 4 15 1 16 2 17 3 18 94 19 86 20 85 21 87 22 88 23 92 24
REMARK SMILES IDX 89 25 91 26 93 27 90 28 15 29 16 30 17 31 18 32 19 34 20 35
REMARK SMILES IDX 21 36 82 37 22 38 81 39 23 40 24 41 25 42 75 43 26 44 80 45
REMARK SMILES IDX 74 46 76 47 27 48 79 49 73 50 72 51 28 53 60 54 40 55 59 56
REMARK SMILES IDX 41 57 44 58 58 59 77 60 42 61 43 62 57 64 78 65 45 66 29 67
REMARK SMILES IDX 30 68 38 69 31 70 37 71 39 72 36 73 32 74 33 75 34 76 35 77
REMARK SMILES IDX 61 78 62 79 70 80 63 81 69 82 71 83 68 84 64 85 65 86 66 87
REMARK SMILES IDX 67 88 46 89 47 90 55 91 48 92 54 93 56 94 53 95 49 96 50 97
REMARK SMILES IDX 51 98 52 99
REMARK H PARENT 12 6 5 14 17 33 76 52 44 63
REMARK Flexibility Score: inf
ROOT
ATOM      1  C   UNL A   1      32.112  29.769  26.538  1.00  0.00     0.023 C 
ENDROOT
BRANCH   1   2
ATOM      2  C   UNL A   1      32.806  29.326  25.247  1.00  0.00     0.116 C 
BRANCH   2   3
ATOM      3  N   UNL A   1      31.956  29.582  24.099  1.00  0.00    -0.352 N 
ATOM      4  C   UNL A   1      31.361  28.745  23.188  1.00  0.00     0.251 C 
ATOM      5  O   UNL A   1      30.662  29.251  22.310  1.00  0.00    -0.269 OA
ATOM      6  H   UNL A   1      31.772  30.537  23.943  1.00  0.00     0.163 HD
BRANCH   4   7
ATOM      7  C   UNL A   1      31.477  27.261  23.246  1.00  0.00     0.039 A 
ATOM      8  C   UNL A   1      31.810  24.458  23.171  1.00  0.00     0.040 A 
ATOM      9  C   UNL A   1      32.828  25.299  22.719  1.00  0.00     0.027 A 
ATOM     10  C   UNL A   1      30.653  25.031  23.706  1.00  0.00     0.027 A 
ATOM     11  C   UNL A   1      32.657  26.689  22.746  1.00  0.00     0.016 A 
ATOM     12  C   UNL A   1      30.506  26.417  23.784  1.00  0.00     0.016 A 
BRANCH   8  13
ATOM     13  N   UNL A   1      31.922  23.065  23.071  1.00  0.00    -0.340 N 
ATOM     14  H   UNL A   1      31.560  22.642  22.259  1.00  0.00     0.168 HD
BRANCH  13  15
ATOM     15  C   UNL A   1      32.508  22.217  24.026  1.00  0.00     0.136 A 
ATOM     16  C   UNL A   1      33.343  22.168  27.679  1.00  0.00     0.067 C 
ATOM     17  C   UNL A   1      33.071  21.749  26.267  1.00  0.00     0.045 A 
ATOM     18  C   UNL A   1      32.651  22.665  25.323  1.00  0.00     0.070 A 
ATOM     19  N   UNL A   1      33.317  20.461  25.960  1.00  0.00    -0.216 NA
ATOM     20  C   UNL A   1      33.232  20.120  24.654  1.00  0.00     0.252 A 
ATOM     21  N   UNL A   1      32.845  20.964  23.680  1.00  0.00    -0.194 NA
BRANCH  20  22
ATOM     22  N   UNL A   1      33.616  18.782  24.283  1.00  0.00    -0.203 N 
ATOM     23  N   UNL A   1      34.567  18.094  24.982  1.00  0.00    -0.170 NA
ATOM     24  C   UNL A   1      33.079  17.998  23.268  1.00  0.00     0.045 A 
ATOM     25  C   UNL A   1      34.497  16.843  24.520  1.00  0.00     0.060 A 
ATOM     26  C   UNL A   1      33.611  16.737  23.430  1.00  0.00     0.049 A 
ATOM     27  C   UNL A   1      32.183  18.528  22.211  1.00  0.00     0.067 C 
ATOM     28  C   UNL A   1      35.302  15.768  25.147  1.00  0.00     0.069 C 
ENDBRANCH  20  22
ENDBRANCH  13  15
ENDBRANCH   8  13
ENDBRANCH   4   7
ENDBRANCH   2   3
ENDBRANCH   1   2
BRANCH   1  29
ATOM     29  C   UNL A   1      31.899  31.284  26.645  1.00  0.00     0.023 C 
BRANCH  29  30
ATOM     30  C   UNL A   1      33.047  32.051  27.293  1.00  0.00     0.116 C 
BRANCH  30  31
ATOM     31  N   UNL A   1      32.727  33.446  27.548  1.00  0.00    -0.352 N 
ATOM     32  C   UNL A   1      33.292  34.306  28.461  1.00  0.00     0.251 C 
ATOM     33  H   UNL A   1      32.008  33.827  26.992  1.00  0.00     0.163 HD
ATOM     34  O   UNL A   1      32.816  35.420  28.627  1.00  0.00    -0.269 OA
BRANCH  32  35
ATOM     35  C   UNL A   1      34.448  33.852  29.266  1.00  0.00     0.039 A 
ATOM     36  C   UNL A   1      34.219  32.977  30.332  1.00  0.00     0.014 A 
ATOM     37  C   UNL A   1      35.746  34.265  28.959  1.00  0.00     0.014 A 
ATOM     38  C   UNL A   1      35.303  32.462  31.046  1.00  0.00     0.010 A 
ATOM     39  C   UNL A   1      36.827  33.702  29.631  1.00  0.00     0.010 A 
ATOM     40  C   UNL A   1      36.618  32.791  30.678  1.00  0.00    -0.014 A 
BRANCH  40  41
ATOM     41  C   UNL A   1      37.785  32.191  31.374  1.00  0.00     0.031 A 
ATOM     42  C   UNL A   1      38.564  31.084  30.719  1.00  0.00     0.074 A 
ATOM     43  C   UNL A   1      38.098  32.597  32.619  1.00  0.00     0.049 A 
ATOM     44  N   UNL A   1      39.553  30.373  31.196  1.00  0.00    -0.248 NA
ATOM     45  C   UNL A   1      38.153  30.709  29.358  1.00  0.00     0.031 C 
ATOM     46  C   UNL A   1      37.387  33.632  33.375  1.00  0.00     0.029 A 
ATOM     47  N   UNL A   1      39.085  32.181  33.479  1.00  0.00    -0.354 N 
ATOM     48  C   UNL A   1      39.879  29.461  30.198  1.00  0.00     0.074 A 
ATOM     49  C   UNL A   1      38.937  29.669  29.118  1.00  0.00     0.031 C 
ATOM     50  C   UNL A   1      37.967  33.777  34.576  1.00  0.00     0.029 A 
ATOM     51  C   UNL A   1      39.064  32.821  34.696  1.00  0.00     0.049 A 
ATOM     52  H   UNL A   1      39.744  31.489  33.245  1.00  0.00     0.167 HD
ATOM     53  C   UNL A   1      40.885  28.552  30.174  1.00  0.00     0.034 A 
ATOM     54  C   UNL A   1      39.832  32.647  35.790  1.00  0.00     0.034 A 
ATOM     55  C   UNL A   1      41.819  28.361  31.259  1.00  0.00     0.049 A 
ATOM     56  C   UNL A   1      40.935  31.620  35.749  1.00  0.00     0.074 A 
ATOM     57  C   UNL A   1      42.898  27.496  31.328  1.00  0.00     0.029 A 
ATOM     58  N   UNL A   1      41.780  29.041  32.470  1.00  0.00    -0.354 N 
ATOM     59  N   UNL A   1      41.259  30.794  34.779  1.00  0.00    -0.248 NA
ATOM     60  C   UNL A   1      41.783  31.510  36.942  1.00  0.00     0.031 C 
ATOM     61  C   UNL A   1      43.474  27.613  32.597  1.00  0.00     0.029 A 
ATOM     62  C   UNL A   1      42.801  28.600  33.298  1.00  0.00     0.049 A 
ATOM     63  H   UNL A   1      41.124  29.736  32.705  1.00  0.00     0.167 HD
ATOM     64  C   UNL A   1      42.366  30.088  35.238  1.00  0.00     0.074 A 
ATOM     65  C   UNL A   1      42.663  30.597  36.562  1.00  0.00     0.031 C 
ATOM     66  C   UNL A   1      43.078  29.110  34.620  1.00  0.00     0.034 A 
BRANCH  53  67
ATOM     67  C   UNL A   1      41.006  27.686  28.942  1.00  0.00     0.023 A 
ATOM     68  C   UNL A   1      42.034  27.886  28.003  1.00  0.00     0.031 A 
ATOM     69  C   UNL A   1      40.065  26.675  28.681  1.00  0.00     0.131 A 
ATOM     70  C   UNL A   1      42.050  27.145  26.812  1.00  0.00     0.055 A 
ATOM     71  C   UNL A   1      40.135  25.884  27.532  1.00  0.00     0.041 A 
ATOM     72  F   UNL A   1      39.050  26.450  29.529  1.00  0.00    -0.206 F 
ATOM     73  C   UNL A   1      41.122  26.128  26.581  1.00  0.00     0.022 A 
BRANCH  70  74
ATOM     74  S   UNL A   1      43.210  27.633  25.505  1.00  0.00     0.124 S 
ATOM     75  O   UNL A   1      43.998  28.660  26.180  1.00  0.00    -0.237 OA
ATOM     76  O   UNL A   1      43.902  26.383  25.216  1.00  0.00    -0.237 OA
ATOM     77  O   UNL A   1      42.339  28.125  24.440  1.00  0.00    -0.744 OA
ENDBRANCH  70  74
ENDBRANCH  53  67
BRANCH  54  78
ATOM     78  C   UNL A   1      39.582  33.448  37.022  1.00  0.00     0.023 A 
ATOM     79  C   UNL A   1      38.876  32.908  38.108  1.00  0.00     0.031 A 
ATOM     80  C   UNL A   1      40.014  34.784  37.114  1.00  0.00     0.131 A 
ATOM     81  C   UNL A   1      38.580  33.713  39.219  1.00  0.00     0.055 A 
ATOM     82  C   UNL A   1      39.762  35.565  38.243  1.00  0.00     0.041 A 
ATOM     83  F   UNL A   1      40.700  35.346  36.106  1.00  0.00    -0.206 F 
ATOM     84  C   UNL A   1      39.028  35.032  39.300  1.00  0.00     0.022 A 
BRANCH  81  85
ATOM     85  S   UNL A   1      37.526  33.031  40.529  1.00  0.00     0.124 S 
ATOM     86  O   UNL A   1      38.213  31.785  40.846  1.00  0.00    -0.237 OA
ATOM     87  O   UNL A   1      37.591  34.077  41.545  1.00  0.00    -0.237 OA
ATOM     88  O   UNL A   1      36.227  32.880  39.876  1.00  0.00    -0.744 OA
ENDBRANCH  81  85
ENDBRANCH  54  78
BRANCH  66  89
ATOM     89  C   UNL A   1      44.273  28.565  35.360  1.00  0.00     0.023 A 
ATOM     90  C   UNL A   1      44.142  27.575  36.351  1.00  0.00     0.031 A 
ATOM     91  C   UNL A   1      45.561  29.052  35.077  1.00  0.00     0.131 A 
ATOM     92  C   UNL A   1      45.274  27.144  37.060  1.00  0.00     0.055 A 
ATOM     93  C   UNL A   1      46.690  28.578  35.745  1.00  0.00     0.041 A 
ATOM     94  F   UNL A   1      45.743  29.997  34.140  1.00  0.00    -0.206 F 
ATOM     95  C   UNL A   1      46.548  27.627  36.753  1.00  0.00     0.022 A 
BRANCH  92  96
ATOM     96  S   UNL A   1      45.048  26.003  38.452  1.00  0.00     0.124 S 
ATOM     97  O   UNL A   1      43.814  26.498  39.054  1.00  0.00    -0.237 OA
ATOM     98  O   UNL A   1      44.956  24.709  37.784  1.00  0.00    -0.237 OA
ATOM     99  O   UNL A   1      46.253  26.200  39.256  1.00  0.00    -0.744 OA
ENDBRANCH  92  96
ENDBRANCH  66  89
ENDBRANCH  40  41
ENDBRANCH  32  35
ENDBRANCH  30  31
ENDBRANCH  29  30
ENDBRANCH   1  29
TORSDOF 17
ENDMDL
MODEL 3
REMARK VINA RESULT:     -12.1      3.289      8.338
REMARK SMILES Cc1cc(Nc2ccc(C(=O)NCCCCNC(=O)c3ccc(-c4c5nc(c(-c6cc(S(=O)(=O)[O-])ccc6F)c6ccc([nH]6)c(-c6cc(S(=O)(=O)[O-])ccc6F)c6nc(c(-c7cc(S(=O)(=O)[O-])ccc7F)c7ccc4[nH]7)C=C6)C=C5)cc3)cc2)nc(-n2nc(C)cc2C)n1
REMARK SMILES IDX 14 1 13 2 12 3 10 4 11 5 9 7 6 8 7 9 84 10 8 11 83 12 5 13
REMARK SMILES IDX 4 15 1 16 2 17 3 18 94 19 86 20 85 21 87 22 88 23 92 24
REMARK SMILES IDX 89 25 91 26 93 27 90 28 15 29 16 30 17 31 18 32 19 34 20 35
REMARK SMILES IDX 21 36 82 37 22 38 81 39 23 40 24 41 25 42 75 43 26 44 80 45
REMARK SMILES IDX 74 46 76 47 27 48 79 49 73 50 72 51 28 53 60 54 40 55 59 56
REMARK SMILES IDX 41 57 44 58 58 59 77 60 42 61 43 62 57 64 78 65 45 66 29 67
REMARK SMILES IDX 30 68 38 69 31 70 37 71 39 72 36 73 32 74 33 75 34 76 35 77
REMARK SMILES IDX 61 78 62 79 70 80 63 81 69 82 71 83 68 84 64 85 65 86 66 87
REMARK SMILES IDX 67 88 46 89 47 90 55 91 48 92 54 93 56 94 53 95 49 96 50 97
REMARK SMILES IDX 51 98 52 99
REMARK H PARENT 12 6 5 14 17 33 76 52 44 63
REMARK Flexibility Score: inf
ROOT
ATOM      1  C   UNL A   1      36.944  21.700  24.783  1.00  0.00     0.023 C 
ENDROOT
BRANCH   1   2
ATOM      2  C   UNL A   1      35.716  21.735  25.698  1.00  0.00     0.116 C 
BRANCH   2   3
ATOM      3  N   UNL A   1      34.743  20.742  25.280  1.00  0.00    -0.352 N 
ATOM      4  C   UNL A   1      33.588  20.838  24.544  1.00  0.00     0.251 C 
ATOM      5  O   UNL A   1      32.958  19.804  24.323  1.00  0.00    -0.269 OA
ATOM      6  H   UNL A   1      34.950  19.828  25.582  1.00  0.00     0.163 HD
BRANCH   4   7
ATOM      7  C   UNL A   1      33.096  22.117  23.960  1.00  0.00     0.039 A 
ATOM      8  C   UNL A   1      31.960  24.463  22.873  1.00  0.00     0.040 A 
ATOM      9  C   UNL A   1      31.305  23.773  23.895  1.00  0.00     0.027 A 
ATOM     10  C   UNL A   1      33.206  24.000  22.441  1.00  0.00     0.027 A 
ATOM     11  C   UNL A   1      31.864  22.602  24.425  1.00  0.00     0.016 A 
ATOM     12  C   UNL A   1      33.788  22.864  23.008  1.00  0.00     0.016 A 
BRANCH   8  13
ATOM     13  N   UNL A   1      31.378  25.584  22.266  1.00  0.00    -0.340 N 
ATOM     14  H   UNL A   1      31.002  25.462  21.365  1.00  0.00     0.168 HD
BRANCH  13  15
ATOM     15  C   UNL A   1      31.283  26.867  22.831  1.00  0.00     0.136 A 
ATOM     16  C   UNL A   1      29.064  29.886  22.714  1.00  0.00     0.067 C 
ATOM     17  C   UNL A   1      30.093  28.880  23.132  1.00  0.00     0.045 A 
ATOM     18  C   UNL A   1      30.255  27.699  22.435  1.00  0.00     0.070 A 
ATOM     19  N   UNL A   1      30.880  29.217  24.171  1.00  0.00    -0.216 NA
ATOM     20  C   UNL A   1      31.914  28.389  24.445  1.00  0.00     0.252 A 
ATOM     21  N   UNL A   1      32.141  27.230  23.797  1.00  0.00    -0.194 NA
BRANCH  20  22
ATOM     22  N   UNL A   1      32.847  28.791  25.466  1.00  0.00    -0.203 N 
ATOM     23  N   UNL A   1      32.961  30.098  25.850  1.00  0.00    -0.170 NA
ATOM     24  C   UNL A   1      33.678  27.974  26.223  1.00  0.00     0.045 A 
ATOM     25  C   UNL A   1      33.722  30.068  26.947  1.00  0.00     0.060 A 
ATOM     26  C   UNL A   1      34.221  28.777  27.204  1.00  0.00     0.049 A 
ATOM     27  C   UNL A   1      33.934  26.547  25.907  1.00  0.00     0.067 C 
ATOM     28  C   UNL A   1      33.955  31.306  27.729  1.00  0.00     0.069 C 
ENDBRANCH  20  22
ENDBRANCH  13  15
ENDBRANCH   8  13
ENDBRANCH   4   7
ENDBRANCH   2   3
ENDBRANCH   1   2
BRANCH   1  29
ATOM     29  C   UNL A   1      37.858  20.490  25.009  1.00  0.00     0.023 C 
BRANCH  29  30
ATOM     30  C   UNL A   1      39.068  20.756  25.899  1.00  0.00     0.116 C 
BRANCH  30  31
ATOM     31  N   UNL A   1      40.003  19.642  25.935  1.00  0.00    -0.352 N 
ATOM     32  C   UNL A   1      41.367  19.668  26.117  1.00  0.00     0.251 C 
ATOM     33  H   UNL A   1      39.606  18.749  25.812  1.00  0.00     0.163 HD
ATOM     34  O   UNL A   1      42.019  18.641  25.997  1.00  0.00    -0.269 OA
BRANCH  32  35
ATOM     35  C   UNL A   1      42.034  20.956  26.412  1.00  0.00     0.039 A 
ATOM     36  C   UNL A   1      42.374  21.794  25.347  1.00  0.00     0.014 A 
ATOM     37  C   UNL A   1      42.301  21.342  27.728  1.00  0.00     0.014 A 
ATOM     38  C   UNL A   1      42.917  23.054  25.608  1.00  0.00     0.010 A 
ATOM     39  C   UNL A   1      42.785  22.622  27.986  1.00  0.00     0.010 A 
ATOM     40  C   UNL A   1      43.094  23.493  26.930  1.00  0.00    -0.014 A 
BRANCH  40  41
ATOM     41  C   UNL A   1      43.596  24.858  27.227  1.00  0.00     0.031 A 
ATOM     42  C   UNL A   1      42.655  25.910  27.746  1.00  0.00     0.074 A 
ATOM     43  C   UNL A   1      44.882  25.166  26.965  1.00  0.00     0.049 A 
ATOM     44  N   UNL A   1      42.878  27.178  27.980  1.00  0.00    -0.248 NA
ATOM     45  C   UNL A   1      41.272  25.483  28.004  1.00  0.00     0.031 C 
ATOM     46  C   UNL A   1      45.878  24.241  26.418  1.00  0.00     0.029 A 
ATOM     47  N   UNL A   1      45.570  26.345  27.109  1.00  0.00    -0.354 N 
ATOM     48  C   UNL A   1      41.663  27.703  28.407  1.00  0.00     0.074 A 
ATOM     49  C   UNL A   1      40.695  26.628  28.335  1.00  0.00     0.031 C 
ATOM     50  C   UNL A   1      47.048  24.884  26.285  1.00  0.00     0.029 A 
ATOM     51  C   UNL A   1      46.880  26.274  26.696  1.00  0.00     0.049 A 
ATOM     52  H   UNL A   1      45.163  27.164  27.472  1.00  0.00     0.167 HD
ATOM     53  C   UNL A   1      41.386  28.957  28.842  1.00  0.00     0.034 A 
ATOM     54  C   UNL A   1      47.834  27.225  26.641  1.00  0.00     0.034 A 
ATOM     55  C   UNL A   1      42.365  30.016  28.912  1.00  0.00     0.049 A 
ATOM     56  C   UNL A   1      47.501  28.617  27.115  1.00  0.00     0.074 A 
ATOM     57  C   UNL A   1      42.204  31.312  29.371  1.00  0.00     0.029 A 
ATOM     58  N   UNL A   1      43.688  29.903  28.504  1.00  0.00    -0.354 N 
ATOM     59  N   UNL A   1      46.357  29.088  27.558  1.00  0.00    -0.248 NA
ATOM     60  C   UNL A   1      48.590  29.602  27.094  1.00  0.00     0.031 C 
ATOM     61  C   UNL A   1      43.411  31.996  29.188  1.00  0.00     0.029 A 
ATOM     62  C   UNL A   1      44.348  31.110  28.681  1.00  0.00     0.049 A 
ATOM     63  H   UNL A   1      44.099  29.084  28.143  1.00  0.00     0.167 HD
ATOM     64  C   UNL A   1      46.599  30.416  27.894  1.00  0.00     0.074 A 
ATOM     65  C   UNL A   1      47.999  30.665  27.618  1.00  0.00     0.031 C 
ATOM     66  C   UNL A   1      45.742  31.346  28.391  1.00  0.00     0.034 A 
BRANCH  53  67
ATOM     67  C   UNL A   1      39.962  29.247  29.253  1.00  0.00     0.023 A 
ATOM     68  C   UNL A   1      39.591  29.332  30.607  1.00  0.00     0.031 A 
ATOM     69  C   UNL A   1      38.954  29.406  28.286  1.00  0.00     0.131 A 
ATOM     70  C   UNL A   1      38.242  29.484  30.958  1.00  0.00     0.055 A 
ATOM     71  C   UNL A   1      37.624  29.640  28.641  1.00  0.00     0.041 A 
ATOM     72  F   UNL A   1      39.242  29.316  26.979  1.00  0.00    -0.206 F 
ATOM     73  C   UNL A   1      37.258  29.665  29.984  1.00  0.00     0.022 A 
BRANCH  70  74
ATOM     74  S   UNL A   1      37.773  29.294  32.700  1.00  0.00     0.124 S 
ATOM     75  O   UNL A   1      37.602  27.847  32.802  1.00  0.00    -0.237 OA
ATOM     76  O   UNL A   1      38.925  29.851  33.399  1.00  0.00    -0.237 OA
ATOM     77  O   UNL A   1      36.540  30.070  32.811  1.00  0.00    -0.744 OA
ENDBRANCH  70  74
ENDBRANCH  53  67
BRANCH  54  78
ATOM     78  C   UNL A   1      49.189  26.905  26.108  1.00  0.00     0.023 A 
ATOM     79  C   UNL A   1      49.576  27.312  24.821  1.00  0.00     0.031 A 
ATOM     80  C   UNL A   1      50.102  26.151  26.865  1.00  0.00     0.131 A 
ATOM     81  C   UNL A   1      50.825  26.922  24.312  1.00  0.00     0.055 A 
ATOM     82  C   UNL A   1      51.364  25.809  26.373  1.00  0.00     0.041 A 
ATOM     83  F   UNL A   1      49.784  25.743  28.104  1.00  0.00    -0.206 F 
ATOM     84  C   UNL A   1      51.725  26.185  25.083  1.00  0.00     0.022 A 
BRANCH  81  85
ATOM     85  S   UNL A   1      51.223  27.326  22.588  1.00  0.00     0.124 S 
ATOM     86  O   UNL A   1      50.126  26.686  21.872  1.00  0.00    -0.237 OA
ATOM     87  O   UNL A   1      51.211  28.785  22.609  1.00  0.00    -0.237 OA
ATOM     88  O   UNL A   1      52.537  26.718  22.392  1.00  0.00    -0.744 OA
ENDBRANCH  81  85
ENDBRANCH  54  78
BRANCH  66  89
ATOM     89  C   UNL A   1      46.318  32.703  28.707  1.00  0.00     0.023 A 
ATOM     90  C   UNL A   1      46.440  33.703  27.725  1.00  0.00     0.031 A 
ATOM     91  C   UNL A   1      46.761  32.996  30.009  1.00  0.00     0.131 A 
ATOM     92  C   UNL A   1      47.042  34.929  28.048  1.00  0.00     0.055 A 
ATOM     93  C   UNL A   1      47.305  34.237  30.338  1.00  0.00     0.041 A 
ATOM     94  F   UNL A   1      46.668  32.078  30.984  1.00  0.00    -0.206 F 
ATOM     95  C   UNL A   1      47.461  35.208  29.352  1.00  0.00     0.022 A 
BRANCH  92  96
ATOM     96  S   UNL A   1      47.349  36.126  26.721  1.00  0.00     0.124 S 
ATOM     97  O   UNL A   1      48.050  37.192  27.430  1.00  0.00    -0.237 OA
ATOM     98  O   UNL A   1      48.152  35.351  25.781  1.00  0.00    -0.237 OA
ATOM     99  O   UNL A   1      46.008  36.470  26.251  1.00  0.00    -0.744 OA
ENDBRANCH  92  96
ENDBRANCH  66  89
ENDBRANCH  40  41
ENDBRANCH  32  35
ENDBRANCH  30  31
ENDBRANCH  29  30
ENDBRANCH   1  29
TORSDOF 17
ENDMDL
