MODEL 1
REMARK VINA RESULT:     -12.5      0.000      0.000
REMARK SMILES O=C(NCCCCNC(=O)c1ccc(-c2c3nc(c(-c4cc(S(=O)(=O)[O-])ccc4F)c4ccc([nH]4)c(-c4cc(S(=O)(=O)[O-])ccc4F)c4nc(c(-c5cc(S(=O)(=O)[O-])ccc5F)c5ccc2[nH]5)C=C4)C=C3)cc1)c1ccc(NC(=O)[C@H]2CCS(=O)(=O)C2)cc1
REMARK SMILES IDX 6 1 5 2 4 3 3 4 1 5 2 6 74 8 75 9 89 10 76 11 88 12 77 13
REMARK SMILES IDX 78 14 79 15 80 17 81 18 82 19 87 20 83 21 84 22 85 23 86 24
REMARK SMILES IDX 7 25 8 26 9 27 10 29 11 30 12 31 73 32 13 33 72 34 14 35
REMARK SMILES IDX 15 36 16 37 66 38 17 39 71 40 65 41 67 42 18 43 70 44 64 45
REMARK SMILES IDX 63 46 19 48 51 49 31 50 50 51 32 52 35 53 49 54 68 55 33 56
REMARK SMILES IDX 34 57 48 59 69 60 36 61 20 62 21 63 29 64 22 65 28 66 30 67
REMARK SMILES IDX 27 68 23 69 24 70 25 71 26 72 52 73 53 74 61 75 54 76 60 77
REMARK SMILES IDX 62 78 59 79 55 80 56 81 57 82 58 83 37 84 38 85 46 86 39 87
REMARK SMILES IDX 45 88 47 89 44 90 40 91 41 92 42 93 43 94
REMARK H PARENT 3 7 78 16 8 28 67 47 35 58
REMARK Flexibility Score: inf
ROOT
ATOM      1  C   UNL A   1      35.941  21.017  25.101  1.00  0.00     0.023 C 
ENDROOT
BRANCH   1   2
ATOM      2  C   UNL A   1      35.059  21.927  25.940  1.00  0.00     0.023 C 
BRANCH   2   3
ATOM      3  C   UNL A   1      33.582  21.580  25.914  1.00  0.00     0.116 C 
BRANCH   3   4
ATOM      4  N   UNL A   1      33.173  20.798  24.747  1.00  0.00    -0.352 N 
ATOM      5  O   UNL A   1      32.177  20.447  22.731  1.00  0.00    -0.269 OA
ATOM      6  C   UNL A   1      32.571  21.236  23.583  1.00  0.00     0.251 C 
ATOM      7  H   UNL A   1      33.351  19.832  24.798  1.00  0.00     0.163 HD
BRANCH   6   8
ATOM      8  C   UNL A   1      32.387  22.690  23.383  1.00  0.00     0.039 A 
ATOM      9  C   UNL A   1      31.166  23.254  23.714  1.00  0.00     0.016 A 
ATOM     10  C   UNL A   1      33.360  23.468  22.757  1.00  0.00     0.016 A 
ATOM     11  C   UNL A   1      30.833  24.499  23.205  1.00  0.00     0.027 A 
ATOM     12  C   UNL A   1      33.069  24.803  22.425  1.00  0.00     0.027 A 
ATOM     13  C   UNL A   1      31.794  25.343  22.659  1.00  0.00     0.041 A 
BRANCH  13  14
ATOM     14  N   UNL A   1      31.582  26.706  22.349  1.00  0.00    -0.326 N 
ATOM     15  C   UNL A   1      31.759  27.873  23.053  1.00  0.00     0.228 C 
ATOM     16  H   UNL A   1      31.238  26.850  21.439  1.00  0.00     0.169 HD
ATOM     17  O   UNL A   1      31.551  28.944  22.475  1.00  0.00    -0.274 OA
BRANCH  15  18
ATOM     18  C   UNL A   1      32.167  27.871  24.504  1.00  0.00     0.095 C 
ATOM     19  C   UNL A   1      33.632  28.100  24.863  1.00  0.00     0.030 C 
ATOM     20  C   UNL A   1      31.397  28.935  25.274  1.00  0.00     0.150 C 
ATOM     21  C   UNL A   1      33.633  28.049  26.401  1.00  0.00     0.138 C 
ATOM     22  S   UNL A   1      32.098  28.833  26.906  1.00  0.00     0.151 S 
ATOM     23  O   UNL A   1      31.309  27.868  27.652  1.00  0.00    -0.229 OA
ATOM     24  O   UNL A   1      32.372  30.162  27.392  1.00  0.00    -0.229 OA
ENDBRANCH  15  18
ENDBRANCH  13  14
ENDBRANCH   6   8
ENDBRANCH   3   4
ENDBRANCH   2   3
ENDBRANCH   1   2
BRANCH   1  25
ATOM     25  C   UNL A   1      37.396  21.456  24.983  1.00  0.00     0.116 C 
BRANCH  25  26
ATOM     26  N   UNL A   1      38.337  20.455  25.463  1.00  0.00    -0.352 N 
ATOM     27  C   UNL A   1      39.527  20.623  26.131  1.00  0.00     0.251 C 
ATOM     28  H   UNL A   1      38.083  19.520  25.285  1.00  0.00     0.163 HD
ATOM     29  O   UNL A   1      40.262  19.655  26.306  1.00  0.00    -0.269 OA
BRANCH  27  30
ATOM     30  C   UNL A   1      39.936  21.967  26.598  1.00  0.00     0.039 A 
ATOM     31  C   UNL A   1      40.974  22.069  27.527  1.00  0.00     0.014 A 
ATOM     32  C   UNL A   1      39.314  23.123  26.120  1.00  0.00     0.014 A 
ATOM     33  C   UNL A   1      41.433  23.329  27.917  1.00  0.00     0.010 A 
ATOM     34  C   UNL A   1      39.836  24.376  26.434  1.00  0.00     0.010 A 
ATOM     35  C   UNL A   1      40.898  24.494  27.341  1.00  0.00    -0.014 A 
BRANCH  35  36
ATOM     36  C   UNL A   1      41.453  25.833  27.678  1.00  0.00     0.031 A 
ATOM     37  C   UNL A   1      42.818  26.242  27.191  1.00  0.00     0.074 A 
ATOM     38  C   UNL A   1      40.737  26.669  28.456  1.00  0.00     0.049 A 
ATOM     39  N   UNL A   1      43.455  27.372  27.366  1.00  0.00    -0.248 NA
ATOM     40  C   UNL A   1      43.577  25.238  26.434  1.00  0.00     0.031 C 
ATOM     41  C   UNL A   1      39.425  26.369  29.033  1.00  0.00     0.029 A 
ATOM     42  N   UNL A   1      41.001  27.946  28.887  1.00  0.00    -0.354 N 
ATOM     43  C   UNL A   1      44.692  27.212  26.751  1.00  0.00     0.074 A 
ATOM     44  C   UNL A   1      44.739  25.850  26.263  1.00  0.00     0.031 C 
ATOM     45  C   UNL A   1      38.973  27.449  29.689  1.00  0.00     0.029 A 
ATOM     46  C   UNL A   1      39.982  28.502  29.624  1.00  0.00     0.049 A 
ATOM     47  H   UNL A   1      41.840  28.419  28.685  1.00  0.00     0.167 HD
ATOM     48  C   UNL A   1      45.686  28.122  26.587  1.00  0.00     0.034 A 
ATOM     49  C   UNL A   1      39.868  29.724  30.183  1.00  0.00     0.034 A 
ATOM     50  C   UNL A   1      45.619  29.478  27.080  1.00  0.00     0.049 A 
ATOM     51  C   UNL A   1      40.996  30.709  30.008  1.00  0.00     0.074 A 
ATOM     52  C   UNL A   1      46.536  30.502  26.913  1.00  0.00     0.029 A 
ATOM     53  N   UNL A   1      44.586  29.997  27.852  1.00  0.00    -0.354 N 
ATOM     54  N   UNL A   1      42.128  30.567  29.358  1.00  0.00    -0.248 NA
ATOM     55  C   UNL A   1      40.818  32.023  30.635  1.00  0.00     0.031 C 
ATOM     56  C   UNL A   1      46.102  31.607  27.656  1.00  0.00     0.029 A 
ATOM     57  C   UNL A   1      44.866  31.310  28.207  1.00  0.00     0.049 A 
ATOM     58  H   UNL A   1      43.773  29.506  28.110  1.00  0.00     0.167 HD
ATOM     59  C   UNL A   1      42.784  31.792  29.470  1.00  0.00     0.074 A 
ATOM     60  C   UNL A   1      41.904  32.660  30.227  1.00  0.00     0.031 C 
ATOM     61  C   UNL A   1      43.998  32.164  28.986  1.00  0.00     0.034 A 
BRANCH  48  62
ATOM     62  C   UNL A   1      46.942  27.659  25.879  1.00  0.00     0.023 A 
ATOM     63  C   UNL A   1      47.199  27.977  24.534  1.00  0.00     0.031 A 
ATOM     64  C   UNL A   1      47.878  26.851  26.548  1.00  0.00     0.131 A 
ATOM     65  C   UNL A   1      48.305  27.416  23.877  1.00  0.00     0.055 A 
ATOM     66  C   UNL A   1      49.029  26.375  25.917  1.00  0.00     0.041 A 
ATOM     67  F   UNL A   1      47.684  26.491  27.828  1.00  0.00    -0.206 F 
ATOM     68  C   UNL A   1      49.237  26.639  24.567  1.00  0.00     0.022 A 
BRANCH  65  69
ATOM     69  S   UNL A   1      48.407  27.567  22.071  1.00  0.00     0.124 S 
ATOM     70  O   UNL A   1      48.597  26.175  21.669  1.00  0.00    -0.237 OA
ATOM     71  O   UNL A   1      47.121  28.163  21.731  1.00  0.00    -0.237 OA
ATOM     72  O   UNL A   1      49.570  28.428  21.866  1.00  0.00    -0.744 OA
ENDBRANCH  65  69
ENDBRANCH  48  62
BRANCH  49  73
ATOM     73  C   UNL A   1      38.639  30.101  30.940  1.00  0.00     0.023 A 
ATOM     74  C   UNL A   1      37.623  30.855  30.333  1.00  0.00     0.031 A 
ATOM     75  C   UNL A   1      38.481  29.751  32.293  1.00  0.00     0.131 A 
ATOM     76  C   UNL A   1      36.517  31.275  31.086  1.00  0.00     0.055 A 
ATOM     77  C   UNL A   1      37.351  30.122  33.023  1.00  0.00     0.041 A 
ATOM     78  F   UNL A   1      39.422  29.028  32.922  1.00  0.00    -0.206 F 
ATOM     79  C   UNL A   1      36.367  30.901  32.423  1.00  0.00     0.022 A 
BRANCH  76  80
ATOM     80  S   UNL A   1      35.315  32.395  30.316  1.00  0.00     0.124 S 
ATOM     81  O   UNL A   1      34.351  32.583  31.393  1.00  0.00    -0.237 OA
ATOM     82  O   UNL A   1      36.144  33.549  29.986  1.00  0.00    -0.237 OA
ATOM     83  O   UNL A   1      34.829  31.632  29.167  1.00  0.00    -0.744 OA
ENDBRANCH  76  80
ENDBRANCH  49  73
BRANCH  61  84
ATOM     84  C   UNL A   1      44.419  33.595  29.238  1.00  0.00     0.023 A 
ATOM     85  C   UNL A   1      43.945  34.658  28.447  1.00  0.00     0.031 A 
ATOM     86  C   UNL A   1      45.351  33.894  30.248  1.00  0.00     0.131 A 
ATOM     87  C   UNL A   1      44.472  35.947  28.617  1.00  0.00     0.055 A 
ATOM     88  C   UNL A   1      45.809  35.195  30.468  1.00  0.00     0.041 A 
ATOM     89  F   UNL A   1      45.845  32.924  31.034  1.00  0.00    -0.206 F 
ATOM     90  C   UNL A   1      45.386  36.227  29.636  1.00  0.00     0.022 A 
BRANCH  87  91
ATOM     91  S   UNL A   1      44.062  37.221  27.392  1.00  0.00     0.124 S 
ATOM     92  O   UNL A   1      43.155  36.503  26.501  1.00  0.00    -0.237 OA
ATOM     93  O   UNL A   1      43.453  38.261  28.215  1.00  0.00    -0.237 OA
ATOM     94  O   UNL A   1      45.357  37.568  26.811  1.00  0.00    -0.744 OA
ENDBRANCH  87  91
ENDBRANCH  61  84
ENDBRANCH  35  36
ENDBRANCH  27  30
ENDBRANCH  25  26
ENDBRANCH   1  25
TORSDOF 16
ENDMDL
MODEL 2
REMARK VINA RESULT:     -12.3      4.963     10.333
REMARK SMILES O=C(NCCCCNC(=O)c1ccc(-c2c3nc(c(-c4cc(S(=O)(=O)[O-])ccc4F)c4ccc([nH]4)c(-c4cc(S(=O)(=O)[O-])ccc4F)c4nc(c(-c5cc(S(=O)(=O)[O-])ccc5F)c5ccc2[nH]5)C=C4)C=C3)cc1)c1ccc(NC(=O)[C@H]2CCS(=O)(=O)C2)cc1
REMARK SMILES IDX 6 1 5 2 4 3 3 4 1 5 2 6 74 8 75 9 89 10 76 11 88 12 77 13
REMARK SMILES IDX 78 14 79 15 80 17 81 18 82 19 87 20 83 21 84 22 85 23 86 24
REMARK SMILES IDX 7 25 8 26 9 27 10 29 11 30 12 31 73 32 13 33 72 34 14 35
REMARK SMILES IDX 15 36 16 37 66 38 17 39 71 40 65 41 67 42 18 43 70 44 64 45
REMARK SMILES IDX 63 46 19 48 51 49 31 50 50 51 32 52 35 53 49 54 68 55 33 56
REMARK SMILES IDX 34 57 48 59 69 60 36 61 20 62 21 63 29 64 22 65 28 66 30 67
REMARK SMILES IDX 27 68 23 69 24 70 25 71 26 72 52 73 53 74 61 75 54 76 60 77
REMARK SMILES IDX 62 78 59 79 55 80 56 81 57 82 58 83 37 84 38 85 46 86 39 87
REMARK SMILES IDX 45 88 47 89 44 90 40 91 41 92 42 93 43 94
REMARK H PARENT 3 7 78 16 8 28 67 47 35 58
REMARK Flexibility Score: inf
ROOT
ATOM      1  C   UNL A   1      32.036  29.686  25.177  1.00  0.00     0.023 C 
ENDROOT
BRANCH   1   2
ATOM      2  C   UNL A   1      32.778  28.994  24.044  1.00  0.00     0.023 C 
BRANCH   2   3
ATOM      3  C   UNL A   1      32.020  27.852  23.393  1.00  0.00     0.116 C 
BRANCH   3   4
ATOM      4  N   UNL A   1      30.566  28.022  23.396  1.00  0.00    -0.352 N 
ATOM      5  O   UNL A   1      28.399  27.342  23.530  1.00  0.00    -0.269 OA
ATOM      6  C   UNL A   1      29.588  27.088  23.679  1.00  0.00     0.251 C 
ATOM      7  H   UNL A   1      30.242  28.922  23.167  1.00  0.00     0.163 HD
BRANCH   6   8
ATOM      8  C   UNL A   1      30.003  25.749  24.154  1.00  0.00     0.039 A 
ATOM      9  C   UNL A   1      30.150  25.547  25.516  1.00  0.00     0.016 A 
ATOM     10  C   UNL A   1      30.367  24.740  23.263  1.00  0.00     0.016 A 
ATOM     11  C   UNL A   1      30.878  24.458  25.967  1.00  0.00     0.027 A 
ATOM     12  C   UNL A   1      30.926  23.550  23.759  1.00  0.00     0.027 A 
ATOM     13  C   UNL A   1      31.179  23.388  25.132  1.00  0.00     0.041 A 
BRANCH  13  14
ATOM     14  N   UNL A   1      31.695  22.147  25.571  1.00  0.00    -0.326 N 
ATOM     15  C   UNL A   1      32.966  21.638  25.681  1.00  0.00     0.228 C 
ATOM     16  H   UNL A   1      30.997  21.516  25.858  1.00  0.00     0.169 HD
ATOM     17  O   UNL A   1      33.108  20.518  26.180  1.00  0.00    -0.274 OA
BRANCH  15  18
ATOM     18  C   UNL A   1      34.171  22.397  25.186  1.00  0.00     0.095 C 
ATOM     19  C   UNL A   1      34.948  23.275  26.162  1.00  0.00     0.030 C 
ATOM     20  C   UNL A   1      35.202  21.437  24.607  1.00  0.00     0.150 C 
ATOM     21  C   UNL A   1      36.087  23.844  25.299  1.00  0.00     0.138 C 
ATOM     22  S   UNL A   1      36.557  22.511  24.189  1.00  0.00     0.151 S 
ATOM     23  O   UNL A   1      36.348  22.953  22.821  1.00  0.00    -0.229 OA
ATOM     24  O   UNL A   1      37.791  21.920  24.641  1.00  0.00    -0.229 OA
ENDBRANCH  15  18
ENDBRANCH  13  14
ENDBRANCH   6   8
ENDBRANCH   3   4
ENDBRANCH   2   3
ENDBRANCH   1   2
BRANCH   1  25
ATOM     25  C   UNL A   1      32.884  30.015  26.399  1.00  0.00     0.116 C 
BRANCH  25  26
ATOM     26  N   UNL A   1      32.802  31.414  26.792  1.00  0.00    -0.352 N 
ATOM     27  C   UNL A   1      33.643  32.148  27.595  1.00  0.00     0.251 C 
ATOM     28  H   UNL A   1      32.031  31.908  26.430  1.00  0.00     0.163 HD
ATOM     29  O   UNL A   1      33.312  33.277  27.944  1.00  0.00    -0.269 OA
BRANCH  27  30
ATOM     30  C   UNL A   1      34.920  31.564  28.067  1.00  0.00     0.039 A 
ATOM     31  C   UNL A   1      36.053  32.379  28.121  1.00  0.00     0.014 A 
ATOM     32  C   UNL A   1      35.004  30.228  28.466  1.00  0.00     0.014 A 
ATOM     33  C   UNL A   1      37.245  31.873  28.643  1.00  0.00     0.010 A 
ATOM     34  C   UNL A   1      36.164  29.754  29.076  1.00  0.00     0.010 A 
ATOM     35  C   UNL A   1      37.300  30.569  29.166  1.00  0.00    -0.014 A 
BRANCH  35  36
ATOM     36  C   UNL A   1      38.540  30.062  29.814  1.00  0.00     0.031 A 
ATOM     37  C   UNL A   1      38.921  30.512  31.199  1.00  0.00     0.074 A 
ATOM     38  C   UNL A   1      39.343  29.217  29.136  1.00  0.00     0.049 A 
ATOM     39  N   UNL A   1      39.948  30.162  31.931  1.00  0.00    -0.248 NA
ATOM     40  C   UNL A   1      38.048  31.510  31.832  1.00  0.00     0.031 C 
ATOM     41  C   UNL A   1      39.111  28.747  27.768  1.00  0.00     0.029 A 
ATOM     42  N   UNL A   1      40.509  28.593  29.504  1.00  0.00    -0.354 N 
ATOM     43  C   UNL A   1      39.852  30.903  33.104  1.00  0.00     0.074 A 
ATOM     44  C   UNL A   1      38.704  31.772  32.952  1.00  0.00     0.031 C 
ATOM     45  C   UNL A   1      40.066  27.865  27.436  1.00  0.00     0.029 A 
ATOM     46  C   UNL A   1      41.008  27.743  28.545  1.00  0.00     0.049 A 
ATOM     47  H   UNL A   1      40.946  28.739  30.375  1.00  0.00     0.167 HD
ATOM     48  C   UNL A   1      40.632  30.846  34.214  1.00  0.00     0.034 A 
ATOM     49  C   UNL A   1      42.098  26.950  28.556  1.00  0.00     0.034 A 
ATOM     50  C   UNL A   1      41.772  29.969  34.347  1.00  0.00     0.049 A 
ATOM     51  C   UNL A   1      42.963  26.923  29.790  1.00  0.00     0.074 A 
ATOM     52  C   UNL A   1      42.590  29.781  35.448  1.00  0.00     0.029 A 
ATOM     53  N   UNL A   1      42.268  29.146  33.343  1.00  0.00    -0.354 N 
ATOM     54  N   UNL A   1      42.814  27.574  30.922  1.00  0.00    -0.248 NA
ATOM     55  C   UNL A   1      44.134  26.042  29.748  1.00  0.00     0.031 C 
ATOM     56  C   UNL A   1      43.628  28.917  35.082  1.00  0.00     0.029 A 
ATOM     57  C   UNL A   1      43.407  28.486  33.783  1.00  0.00     0.049 A 
ATOM     58  H   UNL A   1      41.870  29.046  32.448  1.00  0.00     0.167 HD
ATOM     59  C   UNL A   1      43.859  27.150  31.741  1.00  0.00     0.074 A 
ATOM     60  C   UNL A   1      44.609  26.172  30.977  1.00  0.00     0.031 C 
ATOM     61  C   UNL A   1      44.167  27.531  33.008  1.00  0.00     0.034 A 
BRANCH  48  62
ATOM     62  C   UNL A   1      40.294  31.790  35.349  1.00  0.00     0.023 A 
ATOM     63  C   UNL A   1      39.378  31.443  36.359  1.00  0.00     0.031 A 
ATOM     64  C   UNL A   1      40.866  33.073  35.400  1.00  0.00     0.131 A 
ATOM     65  C   UNL A   1      38.991  32.396  37.315  1.00  0.00     0.055 A 
ATOM     66  C   UNL A   1      40.550  33.984  36.411  1.00  0.00     0.041 A 
ATOM     67  F   UNL A   1      41.731  33.477  34.456  1.00  0.00    -0.206 F 
ATOM     68  C   UNL A   1      39.591  33.655  37.364  1.00  0.00     0.022 A 
BRANCH  65  69
ATOM     69  S   UNL A   1      37.565  32.027  38.374  1.00  0.00     0.124 S 
ATOM     70  O   UNL A   1      38.133  32.212  39.708  1.00  0.00    -0.237 OA
ATOM     71  O   UNL A   1      36.590  33.024  37.949  1.00  0.00    -0.237 OA
ATOM     72  O   UNL A   1      37.235  30.644  38.035  1.00  0.00    -0.744 OA
ENDBRANCH  65  69
ENDBRANCH  48  62
BRANCH  49  73
ATOM     73  C   UNL A   1      42.429  26.099  27.376  1.00  0.00     0.023 A 
ATOM     74  C   UNL A   1      42.044  24.750  27.331  1.00  0.00     0.031 A 
ATOM     75  C   UNL A   1      43.173  26.608  26.297  1.00  0.00     0.131 A 
ATOM     76  C   UNL A   1      42.441  23.943  26.255  1.00  0.00     0.055 A 
ATOM     77  C   UNL A   1      43.517  25.816  25.200  1.00  0.00     0.041 A 
ATOM     78  F   UNL A   1      43.565  27.892  26.288  1.00  0.00    -0.206 F 
ATOM     79  C   UNL A   1      43.162  24.471  25.181  1.00  0.00     0.022 A 
BRANCH  76  80
ATOM     80  S   UNL A   1      42.075  22.167  26.318  1.00  0.00     0.124 S 
ATOM     81  O   UNL A   1      42.855  21.663  25.194  1.00  0.00    -0.237 OA
ATOM     82  O   UNL A   1      42.557  21.807  27.647  1.00  0.00    -0.237 OA
ATOM     83  O   UNL A   1      40.624  22.114  26.148  1.00  0.00    -0.744 OA
ENDBRANCH  76  80
ENDBRANCH  49  73
BRANCH  61  84
ATOM     84  C   UNL A   1      45.353  26.849  33.654  1.00  0.00     0.023 A 
ATOM     85  C   UNL A   1      45.220  25.632  34.348  1.00  0.00     0.031 A 
ATOM     86  C   UNL A   1      46.624  27.451  33.622  1.00  0.00     0.131 A 
ATOM     87  C   UNL A   1      46.312  25.107  35.057  1.00  0.00     0.055 A 
ATOM     88  C   UNL A   1      47.727  26.879  34.260  1.00  0.00     0.041 A 
ATOM     89  F   UNL A   1      46.815  28.614  32.981  1.00  0.00    -0.206 F 
ATOM     90  C   UNL A   1      47.569  25.712  35.001  1.00  0.00     0.022 A 
BRANCH  87  91
ATOM     91  S   UNL A   1      46.027  23.708  36.176  1.00  0.00     0.124 S 
ATOM     92  O   UNL A   1      45.985  24.365  37.479  1.00  0.00    -0.237 OA
ATOM     93  O   UNL A   1      44.758  23.174  35.691  1.00  0.00    -0.237 OA
ATOM     94  O   UNL A   1      47.187  22.848  35.952  1.00  0.00    -0.744 OA
ENDBRANCH  87  91
ENDBRANCH  61  84
ENDBRANCH  35  36
ENDBRANCH  27  30
ENDBRANCH  25  26
ENDBRANCH   1  25
TORSDOF 16
ENDMDL
MODEL 3
REMARK VINA RESULT:     -12.2      1.263      1.565
REMARK SMILES O=C(NCCCCNC(=O)c1ccc(-c2c3nc(c(-c4cc(S(=O)(=O)[O-])ccc4F)c4ccc([nH]4)c(-c4cc(S(=O)(=O)[O-])ccc4F)c4nc(c(-c5cc(S(=O)(=O)[O-])ccc5F)c5ccc2[nH]5)C=C4)C=C3)cc1)c1ccc(NC(=O)[C@H]2CCS(=O)(=O)C2)cc1
REMARK SMILES IDX 6 1 5 2 4 3 3 4 1 5 2 6 74 8 75 9 89 10 76 11 88 12 77 13
REMARK SMILES IDX 78 14 79 15 80 17 81 18 82 19 87 20 83 21 84 22 85 23 86 24
REMARK SMILES IDX 7 25 8 26 9 27 10 29 11 30 12 31 73 32 13 33 72 34 14 35
REMARK SMILES IDX 15 36 16 37 66 38 17 39 71 40 65 41 67 42 18 43 70 44 64 45
REMARK SMILES IDX 63 46 19 48 51 49 31 50 50 51 32 52 35 53 49 54 68 55 33 56
REMARK SMILES IDX 34 57 48 59 69 60 36 61 20 62 21 63 29 64 22 65 28 66 30 67
REMARK SMILES IDX 27 68 23 69 24 70 25 71 26 72 52 73 53 74 61 75 54 76 60 77
REMARK SMILES IDX 62 78 59 79 55 80 56 81 57 82 58 83 37 84 38 85 46 86 39 87
REMARK SMILES IDX 45 88 47 89 44 90 40 91 41 92 42 93 43 94
REMARK H PARENT 3 7 78 16 8 28 67 47 35 58
REMARK Flexibility Score: inf
ROOT
ATOM      1  C   UNL A   1      36.290  22.697  25.763  1.00  0.00     0.023 C 
ENDROOT
BRANCH   1   2
ATOM      2  C   UNL A   1      35.474  21.453  26.078  1.00  0.00     0.023 C 
BRANCH   2   3
ATOM      3  C   UNL A   1      35.271  20.513  24.905  1.00  0.00     0.116 C 
BRANCH   3   4
ATOM      4  N   UNL A   1      34.177  19.559  25.087  1.00  0.00    -0.352 N 
ATOM      5  O   UNL A   1      32.007  18.905  25.298  1.00  0.00    -0.269 OA
ATOM      6  C   UNL A   1      32.815  19.780  25.008  1.00  0.00     0.251 C 
ATOM      7  H   UNL A   1      34.447  18.635  25.291  1.00  0.00     0.163 HD
BRANCH   6   8
ATOM      8  C   UNL A   1      32.337  21.113  24.580  1.00  0.00     0.039 A 
ATOM      9  C   UNL A   1      31.734  21.932  25.520  1.00  0.00     0.016 A 
ATOM     10  C   UNL A   1      32.365  21.502  23.242  1.00  0.00     0.016 A 
ATOM     11  C   UNL A   1      30.957  22.997  25.095  1.00  0.00     0.027 A 
ATOM     12  C   UNL A   1      31.736  22.699  22.857  1.00  0.00     0.027 A 
ATOM     13  C   UNL A   1      31.028  23.474  23.791  1.00  0.00     0.041 A 
BRANCH  13  14
ATOM     14  N   UNL A   1      30.463  24.693  23.350  1.00  0.00    -0.326 N 
ATOM     15  C   UNL A   1      30.620  26.002  23.736  1.00  0.00     0.228 C 
ATOM     16  H   UNL A   1      29.823  24.580  22.611  1.00  0.00     0.169 HD
ATOM     17  O   UNL A   1      30.029  26.877  23.097  1.00  0.00    -0.274 OA
BRANCH  15  18
ATOM     18  C   UNL A   1      31.463  26.382  24.926  1.00  0.00     0.095 C 
ATOM     19  C   UNL A   1      32.983  26.321  24.808  1.00  0.00     0.030 C 
ATOM     20  C   UNL A   1      31.156  27.809  25.361  1.00  0.00     0.150 C 
ATOM     21  C   UNL A   1      33.467  26.795  26.189  1.00  0.00     0.138 C 
ATOM     22  S   UNL A   1      32.315  28.083  26.682  1.00  0.00     0.151 S 
ATOM     23  O   UNL A   1      31.664  27.675  27.915  1.00  0.00    -0.229 OA
ATOM     24  O   UNL A   1      32.934  29.374  26.515  1.00  0.00    -0.229 OA
ENDBRANCH  15  18
ENDBRANCH  13  14
ENDBRANCH   6   8
ENDBRANCH   3   4
ENDBRANCH   2   3
ENDBRANCH   1   2
BRANCH   1  25
ATOM     25  C   UNL A   1      37.564  22.449  24.963  1.00  0.00     0.116 C 
BRANCH  25  26
ATOM     26  N   UNL A   1      38.425  21.439  25.559  1.00  0.00    -0.352 N 
ATOM     27  C   UNL A   1      39.530  21.597  26.363  1.00  0.00     0.251 C 
ATOM     28  H   UNL A   1      38.182  20.507  25.358  1.00  0.00     0.163 HD
ATOM     29  O   UNL A   1      40.225  20.621  26.632  1.00  0.00    -0.269 OA
BRANCH  27  30
ATOM     30  C   UNL A   1      39.900  22.939  26.867  1.00  0.00     0.039 A 
ATOM     31  C   UNL A   1      40.870  23.038  27.866  1.00  0.00     0.014 A 
ATOM     32  C   UNL A   1      39.306  24.096  26.356  1.00  0.00     0.014 A 
ATOM     33  C   UNL A   1      41.296  24.298  28.295  1.00  0.00     0.010 A 
ATOM     34  C   UNL A   1      39.800  25.349  26.713  1.00  0.00     0.010 A 
ATOM     35  C   UNL A   1      40.796  25.465  27.692  1.00  0.00    -0.014 A 
BRANCH  35  36
ATOM     36  C   UNL A   1      41.320  26.804  28.077  1.00  0.00     0.031 A 
ATOM     37  C   UNL A   1      42.734  27.198  27.743  1.00  0.00     0.074 A 
ATOM     38  C   UNL A   1      40.527  27.654  28.759  1.00  0.00     0.049 A 
ATOM     39  N   UNL A   1      43.357  28.325  27.978  1.00  0.00    -0.248 NA
ATOM     40  C   UNL A   1      43.567  26.180  27.088  1.00  0.00     0.031 C 
ATOM     41  C   UNL A   1      39.155  27.369  29.187  1.00  0.00     0.029 A 
ATOM     42  N   UNL A   1      40.751  28.933  29.204  1.00  0.00    -0.354 N 
ATOM     43  C   UNL A   1      44.655  28.149  27.509  1.00  0.00     0.074 A 
ATOM     44  C   UNL A   1      44.745  26.782  27.043  1.00  0.00     0.031 C 
ATOM     45  C   UNL A   1      38.641  28.460  29.776  1.00  0.00     0.029 A 
ATOM     46  C   UNL A   1      39.660  29.504  29.815  1.00  0.00     0.049 A 
ATOM     47  H   UNL A   1      41.612  29.398  29.094  1.00  0.00     0.167 HD
ATOM     48  C   UNL A   1      45.668  29.051  27.449  1.00  0.00     0.034 A 
ATOM     49  C   UNL A   1      39.493  30.734  30.344  1.00  0.00     0.034 A 
ATOM     50  C   UNL A   1      45.557  30.413  27.918  1.00  0.00     0.049 A 
ATOM     51  C   UNL A   1      40.641  31.709  30.289  1.00  0.00     0.074 A 
ATOM     52  C   UNL A   1      46.495  31.428  27.845  1.00  0.00     0.029 A 
ATOM     53  N   UNL A   1      44.447  30.948  28.562  1.00  0.00    -0.354 N 
ATOM     54  N   UNL A   1      41.839  31.551  29.773  1.00  0.00    -0.248 NA
ATOM     55  C   UNL A   1      40.405  33.031  30.877  1.00  0.00     0.031 C 
ATOM     56  C   UNL A   1      45.989  32.544  28.522  1.00  0.00     0.029 A 
ATOM     57  C   UNL A   1      44.696  32.262  28.933  1.00  0.00     0.049 A 
ATOM     58  H   UNL A   1      43.607  30.465  28.730  1.00  0.00     0.167 HD
ATOM     59  C   UNL A   1      42.488  32.773  29.945  1.00  0.00     0.074 A 
ATOM     60  C   UNL A   1      41.535  33.656  30.589  1.00  0.00     0.031 C 
ATOM     61  C   UNL A   1      43.752  33.131  29.599  1.00  0.00     0.034 A 
BRANCH  48  62
ATOM     62  C   UNL A   1      46.993  28.571  26.894  1.00  0.00     0.023 A 
ATOM     63  C   UNL A   1      47.213  28.429  25.512  1.00  0.00     0.031 A 
ATOM     64  C   UNL A   1      48.039  28.211  27.761  1.00  0.00     0.131 A 
ATOM     65  C   UNL A   1      48.405  27.853  25.045  1.00  0.00     0.055 A 
ATOM     66  C   UNL A   1      49.261  27.729  27.286  1.00  0.00     0.041 A 
ATOM     67  F   UNL A   1      47.888  28.301  29.092  1.00  0.00    -0.206 F 
ATOM     68  C   UNL A   1      49.442  27.527  25.921  1.00  0.00     0.022 A 
BRANCH  65  69
ATOM     69  S   UNL A   1      48.506  27.369  23.299  1.00  0.00     0.124 S 
ATOM     70  O   UNL A   1      49.840  27.843  22.938  1.00  0.00    -0.237 OA
ATOM     71  O   UNL A   1      48.336  25.922  23.362  1.00  0.00    -0.237 OA
ATOM     72  O   UNL A   1      47.405  28.102  22.677  1.00  0.00    -0.744 OA
ENDBRANCH  65  69
ENDBRANCH  48  62
BRANCH  49  73
ATOM     73  C   UNL A   1      38.190  31.127  30.953  1.00  0.00     0.023 A 
ATOM     74  C   UNL A   1      37.194  31.748  30.183  1.00  0.00     0.031 A 
ATOM     75  C   UNL A   1      37.935  30.929  32.322  1.00  0.00     0.131 A 
ATOM     76  C   UNL A   1      36.011  32.192  30.792  1.00  0.00     0.055 A 
ATOM     77  C   UNL A   1      36.733  31.320  32.913  1.00  0.00     0.041 A 
ATOM     78  F   UNL A   1      38.852  30.337  33.105  1.00  0.00    -0.206 F 
ATOM     79  C   UNL A   1      35.767  31.968  32.149  1.00  0.00     0.022 A 
BRANCH  76  80
ATOM     80  S   UNL A   1      34.827  33.145  29.801  1.00  0.00     0.124 S 
ATOM     81  O   UNL A   1      33.963  33.709  30.832  1.00  0.00    -0.237 OA
ATOM     82  O   UNL A   1      35.701  34.087  29.110  1.00  0.00    -0.237 OA
ATOM     83  O   UNL A   1      34.207  32.134  28.948  1.00  0.00    -0.744 OA
ENDBRANCH  76  80
ENDBRANCH  49  73
BRANCH  61  84
ATOM     84  C   UNL A   1      44.154  34.562  29.882  1.00  0.00     0.023 A 
ATOM     85  C   UNL A   1      43.962  35.587  28.938  1.00  0.00     0.031 A 
ATOM     86  C   UNL A   1      44.789  34.896  31.092  1.00  0.00     0.131 A 
ATOM     87  C   UNL A   1      44.481  36.868  29.179  1.00  0.00     0.055 A 
ATOM     88  C   UNL A   1      45.228  36.194  31.361  1.00  0.00     0.041 A 
ATOM     89  F   UNL A   1      45.006  33.962  32.032  1.00  0.00    -0.206 F 
ATOM     90  C   UNL A   1      45.095  37.184  30.393  1.00  0.00     0.022 A 
BRANCH  87  91
ATOM     91  S   UNL A   1      44.477  38.075  27.823  1.00  0.00     0.124 S 
ATOM     92  O   UNL A   1      45.805  37.886  27.247  1.00  0.00    -0.237 OA
ATOM     93  O   UNL A   1      43.358  37.620  27.004  1.00  0.00    -0.237 OA
ATOM     94  O   UNL A   1      44.271  39.352  28.502  1.00  0.00    -0.744 OA
ENDBRANCH  87  91
ENDBRANCH  61  84
ENDBRANCH  35  36
ENDBRANCH  27  30
ENDBRANCH  25  26
ENDBRANCH   1  25
TORSDOF 16
ENDMDL
