MODEL 1
REMARK VINA RESULT:     -11.7      0.000      0.000
REMARK SMILES O=C(NCCCCNC(=O)[C@@]1([NH2+]C2CC2)CCC[C@H]1CCn1ccnc1)c1ccc(-c2c3nc(c(-c4cc(S(=O)(=O)[O-])ccc4F)c4ccc([nH]4)c(-c4cc(S(=O)(=O)[O-])ccc4F)c4nc(c(-c5cc(S(=O)(=O)[O-])ccc5F)c5ccc2[nH]5)C=C4)C=C3)cc1
REMARK SMILES IDX 5 1 4 2 3 3 1 4 2 5 27 7 28 8 89 9 29 10 88 11 30 12 31 13
REMARK SMILES IDX 32 14 82 15 33 16 87 17 81 18 83 19 34 20 86 21 80 22 79 23
REMARK SMILES IDX 35 25 67 26 47 27 66 28 48 29 51 30 65 31 84 32 49 33 50 34
REMARK SMILES IDX 64 36 85 37 52 38 36 39 37 40 45 41 38 42 44 43 46 44 43 45
REMARK SMILES IDX 39 46 40 47 41 48 42 49 68 50 69 51 77 52 70 53 76 54 78 55
REMARK SMILES IDX 75 56 71 57 72 58 73 59 74 60 53 61 54 62 62 63 55 64 61 65
REMARK SMILES IDX 63 66 60 67 56 68 57 69 58 70 59 71 6 72 7 73 8 74 9 75
REMARK SMILES IDX 10 77 11 78 16 79 19 80 17 81 18 82 12 83 13 86 14 87 15 88
REMARK SMILES IDX 20 89 21 90 22 91 23 92 26 93 24 94 25 95
REMARK H PARENT 3 6 83 24 51 35 8 76 12 84 12 85
REMARK Flexibility Score: inf
ROOT
ATOM      1  C   UNL A   1      32.135  29.852  26.948  1.00  0.00     0.023 C 
ENDROOT
BRANCH   1   2
ATOM      2  C   UNL A   1      33.652  30.020  26.931  1.00  0.00     0.116 C 
BRANCH   2   3
ATOM      3  N   UNL A   1      34.130  31.289  27.443  1.00  0.00    -0.352 N 
ATOM      4  O   UNL A   1      35.385  32.982  28.079  1.00  0.00    -0.269 OA
ATOM      5  C   UNL A   1      35.334  31.761  27.891  1.00  0.00     0.251 C 
ATOM      6  H   UNL A   1      33.421  31.972  27.476  1.00  0.00     0.163 HD
BRANCH   5   7
ATOM      7  C   UNL A   1      36.538  30.937  28.200  1.00  0.00     0.039 A 
ATOM      8  C   UNL A   1      36.678  29.569  27.971  1.00  0.00     0.014 A 
ATOM      9  C   UNL A   1      37.614  31.621  28.804  1.00  0.00     0.014 A 
ATOM     10  C   UNL A   1      37.826  28.892  28.391  1.00  0.00     0.010 A 
ATOM     11  C   UNL A   1      38.767  30.953  29.212  1.00  0.00     0.010 A 
ATOM     12  C   UNL A   1      38.865  29.577  29.031  1.00  0.00    -0.014 A 
BRANCH  12  13
ATOM     13  C   UNL A   1      40.092  28.842  29.356  1.00  0.00     0.031 A 
ATOM     14  C   UNL A   1      40.415  28.758  30.813  1.00  0.00     0.074 A 
ATOM     15  C   UNL A   1      40.823  28.136  28.469  1.00  0.00     0.049 A 
ATOM     16  N   UNL A   1      41.470  29.177  31.432  1.00  0.00    -0.248 NA
ATOM     17  C   UNL A   1      39.384  28.210  31.708  1.00  0.00     0.031 C 
ATOM     18  C   UNL A   1      40.506  27.849  27.068  1.00  0.00     0.029 A 
ATOM     19  N   UNL A   1      41.976  27.429  28.673  1.00  0.00    -0.354 N 
ATOM     20  C   UNL A   1      41.331  28.784  32.763  1.00  0.00     0.074 A 
ATOM     21  C   UNL A   1      39.977  28.318  32.898  1.00  0.00     0.031 C 
ATOM     22  C   UNL A   1      41.316  26.862  26.620  1.00  0.00     0.029 A 
ATOM     23  C   UNL A   1      42.295  26.544  27.648  1.00  0.00     0.049 A 
ATOM     24  H   UNL A   1      42.532  27.538  29.478  1.00  0.00     0.167 HD
ATOM     25  C   UNL A   1      42.396  28.716  33.613  1.00  0.00     0.034 A 
ATOM     26  C   UNL A   1      43.250  25.575  27.658  1.00  0.00     0.034 A 
ATOM     27  C   UNL A   1      43.509  29.489  33.121  1.00  0.00     0.049 A 
ATOM     28  C   UNL A   1      44.242  25.945  28.696  1.00  0.00     0.074 A 
ATOM     29  C   UNL A   1      43.699  30.822  32.809  1.00  0.00     0.029 A 
ATOM     30  N   UNL A   1      44.572  28.827  32.551  1.00  0.00    -0.354 N 
ATOM     31  N   UNL A   1      45.010  26.997  28.619  1.00  0.00    -0.248 NA
ATOM     32  C   UNL A   1      44.074  25.398  30.034  1.00  0.00     0.031 C 
ATOM     33  C   UNL A   1      44.538  30.810  31.656  1.00  0.00     0.029 A 
ATOM     34  C   UNL A   1      44.857  29.479  31.378  1.00  0.00     0.049 A 
ATOM     35  H   UNL A   1      45.038  28.041  32.915  1.00  0.00     0.167 HD
ATOM     36  C   UNL A   1      45.074  27.491  29.913  1.00  0.00     0.074 A 
ATOM     37  C   UNL A   1      44.562  26.412  30.753  1.00  0.00     0.031 C 
ATOM     38  C   UNL A   1      45.281  28.818  30.161  1.00  0.00     0.034 A 
BRANCH  25  39
ATOM     39  C   UNL A   1      42.560  27.709  34.734  1.00  0.00     0.023 A 
ATOM     40  C   UNL A   1      43.290  26.534  34.454  1.00  0.00     0.031 A 
ATOM     41  C   UNL A   1      41.815  27.690  35.934  1.00  0.00     0.131 A 
ATOM     42  C   UNL A   1      43.173  25.392  35.265  1.00  0.00     0.055 A 
ATOM     43  C   UNL A   1      41.758  26.575  36.776  1.00  0.00     0.041 A 
ATOM     44  F   UNL A   1      41.030  28.705  36.312  1.00  0.00    -0.206 F 
ATOM     45  C   UNL A   1      42.409  25.405  36.428  1.00  0.00     0.022 A 
BRANCH  42  46
ATOM     46  S   UNL A   1      43.876  23.831  34.668  1.00  0.00     0.124 S 
ATOM     47  O   UNL A   1      44.723  24.289  33.572  1.00  0.00    -0.237 OA
ATOM     48  O   UNL A   1      44.567  23.340  35.856  1.00  0.00    -0.237 OA
ATOM     49  O   UNL A   1      42.700  23.062  34.267  1.00  0.00    -0.744 OA
ENDBRANCH  42  46
ENDBRANCH  25  39
BRANCH  26  50
ATOM     50  C   UNL A   1      43.150  24.211  27.065  1.00  0.00     0.023 A 
ATOM     51  C   UNL A   1      43.998  23.747  26.036  1.00  0.00     0.031 A 
ATOM     52  C   UNL A   1      42.334  23.243  27.695  1.00  0.00     0.131 A 
ATOM     53  C   UNL A   1      43.996  22.377  25.673  1.00  0.00     0.055 A 
ATOM     54  C   UNL A   1      42.332  21.896  27.329  1.00  0.00     0.041 A 
ATOM     55  F   UNL A   1      41.569  23.560  28.751  1.00  0.00    -0.206 F 
ATOM     56  C   UNL A   1      43.170  21.454  26.319  1.00  0.00     0.022 A 
BRANCH  53  57
ATOM     57  S   UNL A   1      45.141  21.750  24.399  1.00  0.00     0.124 S 
ATOM     58  O   UNL A   1      46.370  21.549  25.153  1.00  0.00    -0.237 OA
ATOM     59  O   UNL A   1      44.459  20.544  23.933  1.00  0.00    -0.237 OA
ATOM     60  O   UNL A   1      45.191  22.836  23.419  1.00  0.00    -0.744 OA
ENDBRANCH  53  57
ENDBRANCH  26  50
BRANCH  38  61
ATOM     61  C   UNL A   1      45.751  29.712  29.035  1.00  0.00     0.023 A 
ATOM     62  C   UNL A   1      44.944  30.669  28.378  1.00  0.00     0.031 A 
ATOM     63  C   UNL A   1      47.123  29.693  28.733  1.00  0.00     0.131 A 
ATOM     64  C   UNL A   1      45.527  31.559  27.455  1.00  0.00     0.055 A 
ATOM     65  C   UNL A   1      47.698  30.590  27.834  1.00  0.00     0.041 A 
ATOM     66  F   UNL A   1      47.944  28.827  29.349  1.00  0.00    -0.206 F 
ATOM     67  C   UNL A   1      46.900  31.526  27.189  1.00  0.00     0.022 A 
BRANCH  64  68
ATOM     68  S   UNL A   1      44.506  32.796  26.591  1.00  0.00     0.124 S 
ATOM     69  O   UNL A   1      43.629  33.302  27.639  1.00  0.00    -0.237 OA
ATOM     70  O   UNL A   1      45.506  33.729  26.080  1.00  0.00    -0.237 OA
ATOM     71  O   UNL A   1      43.826  32.012  25.557  1.00  0.00    -0.744 OA
ENDBRANCH  64  68
ENDBRANCH  38  61
ENDBRANCH  12  13
ENDBRANCH   5   7
ENDBRANCH   2   3
ENDBRANCH   1   2
BRANCH   1  72
ATOM     72  C   UNL A   1      31.626  28.556  27.578  1.00  0.00     0.023 C 
BRANCH  72  73
ATOM     73  C   UNL A   1      32.203  27.251  27.039  1.00  0.00     0.116 C 
BRANCH  73  74
ATOM     74  N   UNL A   1      31.226  26.255  26.616  1.00  0.00    -0.351 N 
ATOM     75  C   UNL A   1      31.206  25.517  25.454  1.00  0.00     0.281 C 
ATOM     76  H   UNL A   1      30.486  26.089  27.242  1.00  0.00     0.163 HD
ATOM     77  O   UNL A   1      30.446  24.544  25.406  1.00  0.00    -0.268 OA
BRANCH  75  78
ATOM     78  C   UNL A   1      32.020  25.959  24.210  1.00  0.00     0.178 C 
ATOM     79  C   UNL A   1      31.661  25.262  22.878  1.00  0.00     0.079 C 
ATOM     80  C   UNL A   1      31.654  27.442  23.829  1.00  0.00     0.062 C 
ATOM     81  C   UNL A   1      32.222  26.188  21.791  1.00  0.00     0.008 C 
ATOM     82  C   UNL A   1      32.257  27.589  22.409  1.00  0.00     0.011 C 
BRANCH  78  83
ATOM     83  N   UNL A   1      33.482  25.779  24.432  1.00  0.00    -0.331 N 
ATOM     84  H   UNL A   1      33.763  26.484  25.115  1.00  0.00     0.347 HD
ATOM     85  H   UNL A   1      33.868  25.850  23.491  1.00  0.00     0.347 HD
BRANCH  83  86
ATOM     86  C   UNL A   1      34.008  24.496  24.912  1.00  0.00     0.183 C 
ATOM     87  C   UNL A   1      34.775  23.504  24.083  1.00  0.00     0.071 C 
ATOM     88  C   UNL A   1      35.486  24.314  25.123  1.00  0.00     0.071 C 
ENDBRANCH  83  86
ENDBRANCH  78  83
BRANCH  80  89
ATOM     89  C   UNL A   1      30.132  27.802  23.705  1.00  0.00     0.032 C 
BRANCH  89  90
ATOM     90  C   UNL A   1      29.603  28.499  22.442  1.00  0.00     0.123 C 
BRANCH  90  91
ATOM     91  N   UNL A   1      29.194  29.880  22.557  1.00  0.00    -0.337 N 
ATOM     92  C   UNL A   1      28.725  30.642  21.520  1.00  0.00     0.107 A 
ATOM     93  C   UNL A   1      29.290  30.691  23.648  1.00  0.00     0.199 A 
ATOM     94  C   UNL A   1      28.522  31.893  22.056  1.00  0.00     0.130 A 
ATOM     95  N   UNL A   1      28.861  31.902  23.385  1.00  0.00    -0.245 NA
ENDBRANCH  90  91
ENDBRANCH  89  90
ENDBRANCH  80  89
ENDBRANCH  75  78
ENDBRANCH  73  74
ENDBRANCH  72  73
ENDBRANCH   1  72
TORSDOF 19
ENDMDL
MODEL 2
REMARK VINA RESULT:     -11.7      3.743      9.600
REMARK SMILES O=C(NCCCCNC(=O)[C@@]1([NH2+]C2CC2)CCC[C@H]1CCn1ccnc1)c1ccc(-c2c3nc(c(-c4cc(S(=O)(=O)[O-])ccc4F)c4ccc([nH]4)c(-c4cc(S(=O)(=O)[O-])ccc4F)c4nc(c(-c5cc(S(=O)(=O)[O-])ccc5F)c5ccc2[nH]5)C=C4)C=C3)cc1
REMARK SMILES IDX 5 1 4 2 3 3 1 4 2 5 27 7 28 8 89 9 29 10 88 11 30 12 31 13
REMARK SMILES IDX 32 14 82 15 33 16 87 17 81 18 83 19 34 20 86 21 80 22 79 23
REMARK SMILES IDX 35 25 67 26 47 27 66 28 48 29 51 30 65 31 84 32 49 33 50 34
REMARK SMILES IDX 64 36 85 37 52 38 36 39 37 40 45 41 38 42 44 43 46 44 43 45
REMARK SMILES IDX 39 46 40 47 41 48 42 49 68 50 69 51 77 52 70 53 76 54 78 55
REMARK SMILES IDX 75 56 71 57 72 58 73 59 74 60 53 61 54 62 62 63 55 64 61 65
REMARK SMILES IDX 63 66 60 67 56 68 57 69 58 70 59 71 6 72 7 73 8 74 9 75
REMARK SMILES IDX 10 77 11 78 16 79 19 80 17 81 18 82 12 83 13 86 14 87 15 88
REMARK SMILES IDX 20 89 21 90 22 91 23 92 26 93 24 94 25 95
REMARK H PARENT 3 6 83 24 51 35 8 76 12 84 12 85
REMARK Flexibility Score: inf
ROOT
ATOM      1  C   UNL A   1      37.301  21.927  24.550  1.00  0.00     0.023 C 
ENDROOT
BRANCH   1   2
ATOM      2  C   UNL A   1      37.819  22.677  25.774  1.00  0.00     0.116 C 
BRANCH   2   3
ATOM      3  N   UNL A   1      39.113  22.237  26.257  1.00  0.00    -0.352 N 
ATOM      4  O   UNL A   1      40.974  21.981  27.404  1.00  0.00    -0.269 OA
ATOM      5  C   UNL A   1      40.065  22.757  27.090  1.00  0.00     0.251 C 
ATOM      6  H   UNL A   1      39.367  21.354  25.899  1.00  0.00     0.163 HD
BRANCH   5   7
ATOM      7  C   UNL A   1      40.112  24.159  27.600  1.00  0.00     0.039 A 
ATOM      8  C   UNL A   1      39.133  25.134  27.412  1.00  0.00     0.014 A 
ATOM      9  C   UNL A   1      41.274  24.516  28.315  1.00  0.00     0.014 A 
ATOM     10  C   UNL A   1      39.336  26.441  27.863  1.00  0.00     0.010 A 
ATOM     11  C   UNL A   1      41.475  25.814  28.780  1.00  0.00     0.010 A 
ATOM     12  C   UNL A   1      40.516  26.790  28.530  1.00  0.00    -0.014 A 
BRANCH  12  13
ATOM     13  C   UNL A   1      40.635  28.146  29.076  1.00  0.00     0.031 A 
ATOM     14  C   UNL A   1      41.728  28.976  28.484  1.00  0.00     0.074 A 
ATOM     15  C   UNL A   1      39.755  28.712  29.928  1.00  0.00     0.049 A 
ATOM     16  N   UNL A   1      42.738  29.524  29.077  1.00  0.00    -0.248 NA
ATOM     17  C   UNL A   1      41.739  29.143  27.022  1.00  0.00     0.031 C 
ATOM     18  C   UNL A   1      38.471  28.174  30.383  1.00  0.00     0.029 A 
ATOM     19  N   UNL A   1      39.784  29.957  30.494  1.00  0.00    -0.354 N 
ATOM     20  C   UNL A   1      43.415  30.263  28.105  1.00  0.00     0.074 A 
ATOM     21  C   UNL A   1      42.836  29.881  26.845  1.00  0.00     0.031 C 
ATOM     22  C   UNL A   1      37.754  29.163  30.967  1.00  0.00     0.029 A 
ATOM     23  C   UNL A   1      38.575  30.361  31.051  1.00  0.00     0.049 A 
ATOM     24  H   UNL A   1      40.592  30.519  30.504  1.00  0.00     0.167 HD
ATOM     25  C   UNL A   1      44.287  31.259  28.432  1.00  0.00     0.034 A 
ATOM     26  C   UNL A   1      38.242  31.603  31.495  1.00  0.00     0.034 A 
ATOM     27  C   UNL A   1      44.733  31.139  29.798  1.00  0.00     0.049 A 
ATOM     28  C   UNL A   1      39.506  32.319  31.789  1.00  0.00     0.074 A 
ATOM     29  C   UNL A   1      45.400  30.166  30.517  1.00  0.00     0.029 A 
ATOM     30  N   UNL A   1      44.204  31.990  30.741  1.00  0.00    -0.354 N 
ATOM     31  N   UNL A   1      40.330  31.971  32.739  1.00  0.00    -0.248 NA
ATOM     32  C   UNL A   1      40.083  33.155  30.746  1.00  0.00     0.031 C 
ATOM     33  C   UNL A   1      44.795  30.188  31.808  1.00  0.00     0.029 A 
ATOM     34  C   UNL A   1      43.846  31.212  31.814  1.00  0.00     0.049 A 
ATOM     35  H   UNL A   1      44.104  32.965  30.663  1.00  0.00     0.167 HD
ATOM     36  C   UNL A   1      41.595  32.173  32.210  1.00  0.00     0.074 A 
ATOM     37  C   UNL A   1      41.379  32.994  31.022  1.00  0.00     0.031 C 
ATOM     38  C   UNL A   1      42.668  31.438  32.626  1.00  0.00     0.034 A 
BRANCH  25  39
ATOM     39  C   UNL A   1      44.511  32.526  27.630  1.00  0.00     0.023 A 
ATOM     40  C   UNL A   1      43.871  33.702  28.076  1.00  0.00     0.031 A 
ATOM     41  C   UNL A   1      45.054  32.585  26.327  1.00  0.00     0.131 A 
ATOM     42  C   UNL A   1      43.692  34.803  27.221  1.00  0.00     0.055 A 
ATOM     43  C   UNL A   1      44.935  33.710  25.504  1.00  0.00     0.041 A 
ATOM     44  F   UNL A   1      45.644  31.537  25.742  1.00  0.00    -0.206 F 
ATOM     45  C   UNL A   1      44.221  34.815  25.934  1.00  0.00     0.022 A 
BRANCH  42  46
ATOM     46  S   UNL A   1      42.584  36.137  27.749  1.00  0.00     0.124 S 
ATOM     47  O   UNL A   1      42.503  36.951  26.540  1.00  0.00    -0.237 OA
ATOM     48  O   UNL A   1      41.378  35.398  28.111  1.00  0.00    -0.237 OA
ATOM     49  O   UNL A   1      43.299  36.749  28.866  1.00  0.00    -0.744 OA
ENDBRANCH  42  46
ENDBRANCH  25  39
BRANCH  26  50
ATOM     50  C   UNL A   1      36.925  32.287  31.343  1.00  0.00     0.023 A 
ATOM     51  C   UNL A   1      36.331  32.558  30.092  1.00  0.00     0.031 A 
ATOM     52  C   UNL A   1      36.110  32.475  32.484  1.00  0.00     0.131 A 
ATOM     53  C   UNL A   1      34.987  33.006  30.022  1.00  0.00     0.055 A 
ATOM     54  C   UNL A   1      34.790  32.922  32.409  1.00  0.00     0.041 A 
ATOM     55  F   UNL A   1      36.545  32.147  33.710  1.00  0.00    -0.206 F 
ATOM     56  C   UNL A   1      34.219  33.183  31.176  1.00  0.00     0.022 A 
BRANCH  53  57
ATOM     57  S   UNL A   1      34.182  33.287  28.410  1.00  0.00     0.124 S 
ATOM     58  O   UNL A   1      35.238  33.925  27.639  1.00  0.00    -0.237 OA
ATOM     59  O   UNL A   1      33.810  31.931  28.007  1.00  0.00    -0.237 OA
ATOM     60  O   UNL A   1      33.050  34.154  28.739  1.00  0.00    -0.744 OA
ENDBRANCH  53  57
ENDBRANCH  26  50
BRANCH  38  61
ATOM     61  C   UNL A   1      42.549  30.611  33.887  1.00  0.00     0.023 A 
ATOM     62  C   UNL A   1      42.097  29.273  33.931  1.00  0.00     0.031 A 
ATOM     63  C   UNL A   1      43.071  31.166  35.068  1.00  0.00     0.131 A 
ATOM     64  C   UNL A   1      42.180  28.546  35.135  1.00  0.00     0.055 A 
ATOM     65  C   UNL A   1      43.168  30.436  36.252  1.00  0.00     0.041 A 
ATOM     66  F   UNL A   1      43.544  32.423  35.079  1.00  0.00    -0.206 F 
ATOM     67  C   UNL A   1      42.720  29.122  36.290  1.00  0.00     0.022 A 
BRANCH  64  68
ATOM     68  S   UNL A   1      41.596  26.822  35.217  1.00  0.00     0.124 S 
ATOM     69  O   UNL A   1      41.181  26.672  36.606  1.00  0.00    -0.237 OA
ATOM     70  O   UNL A   1      40.530  26.803  34.219  1.00  0.00    -0.237 OA
ATOM     71  O   UNL A   1      42.782  26.044  34.851  1.00  0.00    -0.744 OA
ENDBRANCH  64  68
ENDBRANCH  38  61
ENDBRANCH  12  13
ENDBRANCH   5   7
ENDBRANCH   2   3
ENDBRANCH   1   2
BRANCH   1  72
ATOM     72  C   UNL A   1      36.837  22.807  23.390  1.00  0.00     0.023 C 
BRANCH  72  73
ATOM     73  C   UNL A   1      35.632  23.707  23.643  1.00  0.00     0.116 C 
BRANCH  73  74
ATOM     74  N   UNL A   1      34.336  23.140  23.292  1.00  0.00    -0.351 N 
ATOM     75  C   UNL A   1      33.203  23.048  24.070  1.00  0.00     0.281 C 
ATOM     76  H   UNL A   1      34.260  22.776  22.381  1.00  0.00     0.163 HD
ATOM     77  O   UNL A   1      32.139  22.778  23.505  1.00  0.00    -0.268 OA
BRANCH  75  78
ATOM     78  C   UNL A   1      33.282  23.163  25.615  1.00  0.00     0.178 C 
ATOM     79  C   UNL A   1      31.954  22.967  26.382  1.00  0.00     0.079 C 
ATOM     80  C   UNL A   1      34.098  21.952  26.203  1.00  0.00     0.062 C 
ATOM     81  C   UNL A   1      32.379  22.645  27.819  1.00  0.00     0.008 C 
ATOM     82  C   UNL A   1      33.776  22.026  27.717  1.00  0.00     0.011 C 
BRANCH  78  83
ATOM     83  N   UNL A   1      33.848  24.478  26.028  1.00  0.00    -0.331 N 
ATOM     84  H   UNL A   1      34.743  24.575  25.547  1.00  0.00     0.347 HD
ATOM     85  H   UNL A   1      33.862  24.413  27.046  1.00  0.00     0.347 HD
BRANCH  83  86
ATOM     86  C   UNL A   1      33.103  25.718  25.783  1.00  0.00     0.183 C 
ATOM     87  C   UNL A   1      33.550  27.096  26.184  1.00  0.00     0.071 C 
ATOM     88  C   UNL A   1      33.577  26.694  24.741  1.00  0.00     0.071 C 
ENDBRANCH  83  86
ENDBRANCH  78  83
BRANCH  80  89
ATOM     89  C   UNL A   1      33.693  20.512  25.733  1.00  0.00     0.032 C 
BRANCH  89  90
ATOM     90  C   UNL A   1      34.510  19.796  24.646  1.00  0.00     0.123 C 
BRANCH  90  91
ATOM     91  N   UNL A   1      34.054  18.496  24.209  1.00  0.00    -0.337 N 
ATOM     92  C   UNL A   1      34.660  17.311  24.529  1.00  0.00     0.107 A 
ATOM     93  C   UNL A   1      33.038  18.215  23.346  1.00  0.00     0.199 A 
ATOM     94  C   UNL A   1      33.943  16.348  23.856  1.00  0.00     0.130 A 
ATOM     95  N   UNL A   1      32.926  16.924  23.139  1.00  0.00    -0.245 NA
ENDBRANCH  90  91
ENDBRANCH  89  90
ENDBRANCH  80  89
ENDBRANCH  75  78
ENDBRANCH  73  74
ENDBRANCH  72  73
ENDBRANCH   1  72
TORSDOF 19
ENDMDL
MODEL 3
REMARK VINA RESULT:     -11.6      1.344      1.614
REMARK SMILES O=C(NCCCCNC(=O)[C@@]1([NH2+]C2CC2)CCC[C@H]1CCn1ccnc1)c1ccc(-c2c3nc(c(-c4cc(S(=O)(=O)[O-])ccc4F)c4ccc([nH]4)c(-c4cc(S(=O)(=O)[O-])ccc4F)c4nc(c(-c5cc(S(=O)(=O)[O-])ccc5F)c5ccc2[nH]5)C=C4)C=C3)cc1
REMARK SMILES IDX 5 1 4 2 3 3 1 4 2 5 27 7 28 8 89 9 29 10 88 11 30 12 31 13
REMARK SMILES IDX 32 14 82 15 33 16 87 17 81 18 83 19 34 20 86 21 80 22 79 23
REMARK SMILES IDX 35 25 67 26 47 27 66 28 48 29 51 30 65 31 84 32 49 33 50 34
REMARK SMILES IDX 64 36 85 37 52 38 36 39 37 40 45 41 38 42 44 43 46 44 43 45
REMARK SMILES IDX 39 46 40 47 41 48 42 49 68 50 69 51 77 52 70 53 76 54 78 55
REMARK SMILES IDX 75 56 71 57 72 58 73 59 74 60 53 61 54 62 62 63 55 64 61 65
REMARK SMILES IDX 63 66 60 67 56 68 57 69 58 70 59 71 6 72 7 73 8 74 9 75
REMARK SMILES IDX 10 77 11 78 16 79 19 80 17 81 18 82 12 83 13 86 14 87 15 88
REMARK SMILES IDX 20 89 21 90 22 91 23 92 26 93 24 94 25 95
REMARK H PARENT 3 6 83 24 51 35 8 76 12 84 12 85
REMARK Flexibility Score: inf
ROOT
ATOM      1  C   UNL A   1      32.146  30.471  26.686  1.00  0.00     0.023 C 
ENDROOT
BRANCH   1   2
ATOM      2  C   UNL A   1      33.603  30.847  26.941  1.00  0.00     0.116 C 
BRANCH   2   3
ATOM      3  N   UNL A   1      33.815  31.746  28.057  1.00  0.00    -0.352 N 
ATOM      4  O   UNL A   1      34.707  33.001  29.631  1.00  0.00    -0.269 OA
ATOM      5  C   UNL A   1      34.857  32.013  28.904  1.00  0.00     0.251 C 
ATOM      6  H   UNL A   1      33.020  32.295  28.254  1.00  0.00     0.163 HD
BRANCH   5   7
ATOM      7  C   UNL A   1      36.103  31.204  29.041  1.00  0.00     0.039 A 
ATOM      8  C   UNL A   1      36.203  29.820  28.900  1.00  0.00     0.014 A 
ATOM      9  C   UNL A   1      37.270  31.923  29.369  1.00  0.00     0.014 A 
ATOM     10  C   UNL A   1      37.415  29.167  29.144  1.00  0.00     0.010 A 
ATOM     11  C   UNL A   1      38.485  31.279  29.600  1.00  0.00     0.010 A 
ATOM     12  C   UNL A   1      38.553  29.891  29.515  1.00  0.00    -0.014 A 
BRANCH  12  13
ATOM     13  C   UNL A   1      39.824  29.172  29.656  1.00  0.00     0.031 A 
ATOM     14  C   UNL A   1      40.267  28.935  31.064  1.00  0.00     0.074 A 
ATOM     15  C   UNL A   1      40.502  28.602  28.638  1.00  0.00     0.049 A 
ATOM     16  N   UNL A   1      41.356  29.321  31.645  1.00  0.00    -0.248 NA
ATOM     17  C   UNL A   1      39.328  28.247  31.965  1.00  0.00     0.031 C 
ATOM     18  C   UNL A   1      40.081  28.465  27.242  1.00  0.00     0.029 A 
ATOM     19  N   UNL A   1      41.688  27.922  28.669  1.00  0.00    -0.354 N 
ATOM     20  C   UNL A   1      41.336  28.772  32.927  1.00  0.00     0.074 A 
ATOM     21  C   UNL A   1      40.012  28.241  33.110  1.00  0.00     0.031 C 
ATOM     22  C   UNL A   1      40.882  27.569  26.620  1.00  0.00     0.029 A 
ATOM     23  C   UNL A   1      41.949  27.174  27.526  1.00  0.00     0.049 A 
ATOM     24  H   UNL A   1      42.305  27.960  29.436  1.00  0.00     0.167 HD
ATOM     25  C   UNL A   1      42.468  28.648  33.678  1.00  0.00     0.034 A 
ATOM     26  C   UNL A   1      42.931  26.248  27.348  1.00  0.00     0.034 A 
ATOM     27  C   UNL A   1      43.514  29.516  33.197  1.00  0.00     0.049 A 
ATOM     28  C   UNL A   1      43.992  26.535  28.343  1.00  0.00     0.074 A 
ATOM     29  C   UNL A   1      43.639  30.883  33.030  1.00  0.00     0.029 A 
ATOM     30  N   UNL A   1      44.547  28.966  32.473  1.00  0.00    -0.354 N 
ATOM     31  N   UNL A   1      44.720  27.618  28.331  1.00  0.00    -0.248 NA
ATOM     32  C   UNL A   1      43.950  25.832  29.616  1.00  0.00     0.031 C 
ATOM     33  C   UNL A   1      44.381  31.036  31.822  1.00  0.00     0.029 A 
ATOM     34  C   UNL A   1      44.716  29.759  31.366  1.00  0.00     0.049 A 
ATOM     35  H   UNL A   1      45.064  28.162  32.704  1.00  0.00     0.167 HD
ATOM     36  C   UNL A   1      44.874  27.962  29.665  1.00  0.00     0.074 A 
ATOM     37  C   UNL A   1      44.464  26.774  30.410  1.00  0.00     0.031 C 
ATOM     38  C   UNL A   1      45.059  29.259  30.051  1.00  0.00     0.034 A 
BRANCH  25  39
ATOM     39  C   UNL A   1      42.752  27.527  34.657  1.00  0.00     0.023 A 
ATOM     40  C   UNL A   1      43.536  26.445  34.200  1.00  0.00     0.031 A 
ATOM     41  C   UNL A   1      42.076  27.314  35.879  1.00  0.00     0.131 A 
ATOM     42  C   UNL A   1      43.531  25.209  34.869  1.00  0.00     0.055 A 
ATOM     43  C   UNL A   1      42.131  26.105  36.579  1.00  0.00     0.041 A 
ATOM     44  F   UNL A   1      41.253  28.222  36.416  1.00  0.00    -0.206 F 
ATOM     45  C   UNL A   1      42.832  25.031  36.058  1.00  0.00     0.022 A 
BRANCH  42  46
ATOM     46  S   UNL A   1      44.292  23.781  34.051  1.00  0.00     0.124 S 
ATOM     47  O   UNL A   1      45.699  23.959  34.393  1.00  0.00    -0.237 OA
ATOM     48  O   UNL A   1      43.607  22.666  34.698  1.00  0.00    -0.237 OA
ATOM     49  O   UNL A   1      43.963  23.982  32.642  1.00  0.00    -0.744 OA
ENDBRANCH  42  46
ENDBRANCH  25  39
BRANCH  26  50
ATOM     50  C   UNL A   1      42.824  24.958  26.608  1.00  0.00     0.023 A 
ATOM     51  C   UNL A   1      43.796  24.507  25.689  1.00  0.00     0.031 A 
ATOM     52  C   UNL A   1      41.835  24.022  26.992  1.00  0.00     0.131 A 
ATOM     53  C   UNL A   1      43.745  23.181  25.190  1.00  0.00     0.055 A 
ATOM     54  C   UNL A   1      41.787  22.719  26.493  1.00  0.00     0.041 A 
ATOM     55  F   UNL A   1      40.929  24.318  27.936  1.00  0.00    -0.206 F 
ATOM     56  C   UNL A   1      42.748  22.290  25.593  1.00  0.00     0.022 A 
BRANCH  53  57
ATOM     57  S   UNL A   1      45.037  22.561  24.063  1.00  0.00     0.124 S 
ATOM     58  O   UNL A   1      44.265  22.133  22.906  1.00  0.00    -0.237 OA
ATOM     59  O   UNL A   1      45.885  23.738  23.881  1.00  0.00    -0.237 OA
ATOM     60  O   UNL A   1      45.662  21.476  24.821  1.00  0.00    -0.744 OA
ENDBRANCH  53  57
ENDBRANCH  26  50
BRANCH  38  61
ATOM     61  C   UNL A   1      45.410  30.294  29.005  1.00  0.00     0.023 A 
ATOM     62  C   UNL A   1      46.726  30.651  28.636  1.00  0.00     0.031 A 
ATOM     63  C   UNL A   1      44.351  30.821  28.245  1.00  0.00     0.131 A 
ATOM     64  C   UNL A   1      46.937  31.508  27.538  1.00  0.00     0.055 A 
ATOM     65  C   UNL A   1      44.566  31.653  27.148  1.00  0.00     0.041 A 
ATOM     66  F   UNL A   1      43.080  30.492  28.530  1.00  0.00    -0.206 F 
ATOM     67  C   UNL A   1      45.862  32.002  26.791  1.00  0.00     0.022 A 
BRANCH  64  68
ATOM     68  S   UNL A   1      48.626  31.987  27.049  1.00  0.00     0.124 S 
ATOM     69  O   UNL A   1      49.208  32.485  28.289  1.00  0.00    -0.237 OA
ATOM     70  O   UNL A   1      49.172  30.733  26.537  1.00  0.00    -0.237 OA
ATOM     71  O   UNL A   1      48.405  33.013  26.027  1.00  0.00    -0.744 OA
ENDBRANCH  64  68
ENDBRANCH  38  61
ENDBRANCH  12  13
ENDBRANCH   5   7
ENDBRANCH   2   3
ENDBRANCH   1   2
BRANCH   1  72
ATOM     72  C   UNL A   1      31.663  29.203  27.389  1.00  0.00     0.023 C 
BRANCH  72  73
ATOM     73  C   UNL A   1      32.183  27.874  26.853  1.00  0.00     0.116 C 
BRANCH  73  74
ATOM     74  N   UNL A   1      31.255  26.753  26.934  1.00  0.00    -0.351 N 
ATOM     75  C   UNL A   1      31.187  25.639  26.128  1.00  0.00     0.281 C 
ATOM     76  H   UNL A   1      30.590  26.799  27.657  1.00  0.00     0.163 HD
ATOM     77  O   UNL A   1      30.506  24.686  26.522  1.00  0.00    -0.268 OA
BRANCH  75  78
ATOM     78  C   UNL A   1      31.847  25.624  24.724  1.00  0.00     0.178 C 
ATOM     79  C   UNL A   1      31.348  24.535  23.748  1.00  0.00     0.079 C 
ATOM     80  C   UNL A   1      31.418  26.906  23.917  1.00  0.00     0.062 C 
ATOM     81  C   UNL A   1      31.766  25.034  22.360  1.00  0.00     0.008 C 
ATOM     82  C   UNL A   1      31.852  26.559  22.470  1.00  0.00     0.011 C 
BRANCH  78  83
ATOM     83  N   UNL A   1      33.327  25.492  24.826  1.00  0.00    -0.331 N 
ATOM     84  H   UNL A   1      33.601  25.940  25.702  1.00  0.00     0.347 HD
ATOM     85  H   UNL A   1      33.656  25.909  23.956  1.00  0.00     0.347 HD
BRANCH  83  86
ATOM     86  C   UNL A   1      33.956  24.166  24.819  1.00  0.00     0.183 C 
ATOM     87  C   UNL A   1      35.147  23.772  23.989  1.00  0.00     0.071 C 
ATOM     88  C   UNL A   1      35.298  23.960  25.468  1.00  0.00     0.071 C 
ENDBRANCH  83  86
ENDBRANCH  78  83
BRANCH  80  89
ATOM     89  C   UNL A   1      29.887  27.241  23.853  1.00  0.00     0.032 C 
BRANCH  89  90
ATOM     90  C   UNL A   1      29.346  28.179  22.763  1.00  0.00     0.123 C 
BRANCH  90  91
ATOM     91  N   UNL A   1      28.887  29.488  23.169  1.00  0.00    -0.337 N 
ATOM     92  C   UNL A   1      27.602  29.941  23.026  1.00  0.00     0.107 A 
ATOM     93  C   UNL A   1      29.631  30.520  23.657  1.00  0.00     0.199 A 
ATOM     94  C   UNL A   1      27.628  31.241  23.477  1.00  0.00     0.130 A 
ATOM     95  N   UNL A   1      28.892  31.580  23.883  1.00  0.00    -0.245 NA
ENDBRANCH  90  91
ENDBRANCH  89  90
ENDBRANCH  80  89
ENDBRANCH  75  78
ENDBRANCH  73  74
ENDBRANCH  72  73
ENDBRANCH   1  72
TORSDOF 19
ENDMDL
