MODEL 1
REMARK VINA RESULT:     -12.4      0.000      0.000
REMARK SMILES Cc1ccc(C)c(OCc2ccc(C(=O)NCCCCNC(=O)c3ccc(-c4c5nc(c(-c6cc(S(=O)(=O)[O-])ccc6F)c6ccc([nH]6)c(-c6cc(S(=O)(=O)[O-])ccc6F)c6nc(c(-c7cc(S(=O)(=O)[O-])ccc7F)c7ccc4[nH]7)C=C6)C=C5)cc3)cc2)c1C
REMARK SMILES IDX 18 1 17 2 16 3 14 4 15 5 13 7 10 8 11 9 88 10 12 11 87 12
REMARK SMILES IDX 9 13 8 14 7 15 1 16 2 17 3 18 89 19 4 20 90 21 5 22 6 23
REMARK SMILES IDX 19 24 20 25 21 26 22 27 23 29 24 30 25 31 86 32 26 33 85 34
REMARK SMILES IDX 27 35 28 36 29 37 79 38 30 39 84 40 78 41 80 42 31 43 83 44
REMARK SMILES IDX 77 45 76 46 32 48 64 49 44 50 63 51 45 52 48 53 62 54 81 55
REMARK SMILES IDX 46 56 47 57 61 59 82 60 49 61 33 62 34 63 42 64 35 65 41 66
REMARK SMILES IDX 43 67 40 68 36 69 37 70 38 71 39 72 65 73 66 74 74 75 67 76
REMARK SMILES IDX 73 77 75 78 72 79 68 80 69 81 70 82 71 83 50 84 51 85 59 86
REMARK SMILES IDX 52 87 58 88 60 89 57 90 53 91 54 92 55 93 56 94
REMARK H PARENT 16 6 21 28 80 47 48 58
REMARK Flexibility Score: inf
ROOT
ATOM      1  C   UNL A   1      31.888  30.173  26.687  1.00  0.00     0.023 C 
ENDROOT
BRANCH   1   2
ATOM      2  C   UNL A   1      32.162  29.591  25.299  1.00  0.00     0.116 C 
BRANCH   2   3
ATOM      3  N   UNL A   1      31.065  29.897  24.415  1.00  0.00    -0.352 N 
ATOM      4  C   UNL A   1      30.410  29.143  23.480  1.00  0.00     0.251 C 
ATOM      5  O   UNL A   1      29.580  29.734  22.785  1.00  0.00    -0.269 OA
ATOM      6  H   UNL A   1      30.724  30.817  24.501  1.00  0.00     0.163 HD
BRANCH   4   7
ATOM      7  C   UNL A   1      30.588  27.666  23.304  1.00  0.00     0.039 A 
ATOM      8  C   UNL A   1      31.063  24.851  23.424  1.00  0.00    -0.011 A 
ATOM      9  C   UNL A   1      30.253  25.498  24.359  1.00  0.00     0.008 A 
ATOM     10  C   UNL A   1      31.537  25.624  22.358  1.00  0.00     0.008 A 
ATOM     11  C   UNL A   1      30.028  26.875  24.309  1.00  0.00     0.014 A 
ATOM     12  C   UNL A   1      31.284  27.003  22.289  1.00  0.00     0.014 A 
BRANCH   8  13
ATOM     13  C   UNL A   1      31.616  23.443  23.611  1.00  0.00     0.265 C 
BRANCH  13  14
ATOM     14  O   UNL A   1      32.076  22.983  24.883  1.00  0.00    -0.488 OA
BRANCH  14  15
ATOM     15  C   UNL A   1      33.308  22.409  25.018  1.00  0.00     0.125 A 
ATOM     16  C   UNL A   1      36.769  23.806  25.920  1.00  0.00     0.045 C 
ATOM     17  C   UNL A   1      35.657  22.885  25.503  1.00  0.00    -0.044 A 
ATOM     18  C   UNL A   1      35.964  21.565  25.158  1.00  0.00     0.004 A 
ATOM     19  C   UNL A   1      34.313  23.309  25.453  1.00  0.00    -0.006 A 
ATOM     20  C   UNL A   1      34.957  20.662  24.817  1.00  0.00     0.007 A 
ATOM     21  C   UNL A   1      33.916  24.725  25.800  1.00  0.00     0.049 C 
ATOM     22  C   UNL A   1      33.610  21.055  24.780  1.00  0.00    -0.009 A 
ATOM     23  C   UNL A   1      32.589  20.012  24.425  1.00  0.00     0.048 C 
ENDBRANCH  14  15
ENDBRANCH  13  14
ENDBRANCH   8  13
ENDBRANCH   4   7
ENDBRANCH   2   3
ENDBRANCH   1   2
BRANCH   1  24
ATOM     24  C   UNL A   1      31.763  31.699  26.702  1.00  0.00     0.023 C 
BRANCH  24  25
ATOM     25  C   UNL A   1      32.941  32.418  27.348  1.00  0.00     0.116 C 
BRANCH  25  26
ATOM     26  N   UNL A   1      32.650  33.809  27.657  1.00  0.00    -0.352 N 
ATOM     27  C   UNL A   1      33.224  34.604  28.615  1.00  0.00     0.251 C 
ATOM     28  H   UNL A   1      31.952  34.234  27.107  1.00  0.00     0.163 HD
ATOM     29  O   UNL A   1      32.772  35.723  28.834  1.00  0.00    -0.269 OA
BRANCH  27  30
ATOM     30  C   UNL A   1      34.349  34.070  29.402  1.00  0.00     0.039 A 
ATOM     31  C   UNL A   1      34.069  33.253  30.497  1.00  0.00     0.014 A 
ATOM     32  C   UNL A   1      35.670  34.341  29.032  1.00  0.00     0.014 A 
ATOM     33  C   UNL A   1      35.121  32.666  31.196  1.00  0.00     0.010 A 
ATOM     34  C   UNL A   1      36.713  33.694  29.683  1.00  0.00     0.010 A 
ATOM     35  C   UNL A   1      36.448  32.857  30.776  1.00  0.00    -0.014 A 
BRANCH  35  36
ATOM     36  C   UNL A   1      37.566  32.195  31.492  1.00  0.00     0.031 A 
ATOM     37  C   UNL A   1      38.319  31.072  30.836  1.00  0.00     0.074 A 
ATOM     38  C   UNL A   1      37.875  32.591  32.741  1.00  0.00     0.049 A 
ATOM     39  N   UNL A   1      39.326  30.374  31.292  1.00  0.00    -0.248 NA
ATOM     40  C   UNL A   1      37.858  30.658  29.501  1.00  0.00     0.031 C 
ATOM     41  C   UNL A   1      37.172  33.633  33.495  1.00  0.00     0.029 A 
ATOM     42  N   UNL A   1      38.860  32.172  33.597  1.00  0.00    -0.354 N 
ATOM     43  C   UNL A   1      39.618  29.440  30.305  1.00  0.00     0.074 A 
ATOM     44  C   UNL A   1      38.632  29.612  29.260  1.00  0.00     0.031 C 
ATOM     45  C   UNL A   1      37.773  33.797  34.683  1.00  0.00     0.029 A 
ATOM     46  C   UNL A   1      38.878  32.851  34.795  1.00  0.00     0.049 A 
ATOM     47  H   UNL A   1      39.495  31.453  33.377  1.00  0.00     0.167 HD
ATOM     48  C   UNL A   1      40.633  28.541  30.264  1.00  0.00     0.034 A 
ATOM     49  C   UNL A   1      39.695  32.724  35.857  1.00  0.00     0.034 A 
ATOM     50  C   UNL A   1      41.608  28.392  31.316  1.00  0.00     0.049 A 
ATOM     51  C   UNL A   1      40.812  31.714  35.790  1.00  0.00     0.074 A 
ATOM     52  C   UNL A   1      42.708  27.554  31.361  1.00  0.00     0.029 A 
ATOM     53  N   UNL A   1      41.598  29.095  32.515  1.00  0.00    -0.354 N 
ATOM     54  N   UNL A   1      41.117  30.880  34.821  1.00  0.00    -0.248 NA
ATOM     55  C   UNL A   1      41.706  31.641  36.952  1.00  0.00     0.031 C 
ATOM     56  C   UNL A   1      43.319  27.699  32.612  1.00  0.00     0.029 A 
ATOM     57  C   UNL A   1      42.651  28.688  33.318  1.00  0.00     0.049 A 
ATOM     58  H   UNL A   1      40.936  29.784  32.758  1.00  0.00     0.167 HD
ATOM     59  C   UNL A   1      42.257  30.205  35.247  1.00  0.00     0.074 A 
ATOM     60  C   UNL A   1      42.596  30.747  36.547  1.00  0.00     0.031 C 
ATOM     61  C   UNL A   1      42.963  29.228  34.621  1.00  0.00     0.034 A 
BRANCH  48  62
ATOM     62  C   UNL A   1      40.715  27.643  29.050  1.00  0.00     0.023 A 
ATOM     63  C   UNL A   1      41.669  27.854  28.038  1.00  0.00     0.031 A 
ATOM     64  C   UNL A   1      39.808  26.582  28.884  1.00  0.00     0.131 A 
ATOM     65  C   UNL A   1      41.642  27.072  26.873  1.00  0.00     0.055 A 
ATOM     66  C   UNL A   1      39.842  25.752  27.761  1.00  0.00     0.041 A 
ATOM     67  F   UNL A   1      38.859  26.344  29.804  1.00  0.00    -0.206 F 
ATOM     68  C   UNL A   1      40.752  26.004  26.740  1.00  0.00     0.022 A 
BRANCH  65  69
ATOM     69  S   UNL A   1      42.685  27.565  25.474  1.00  0.00     0.124 S 
ATOM     70  O   UNL A   1      41.883  28.626  24.868  1.00  0.00    -0.237 OA
ATOM     71  O   UNL A   1      43.915  27.991  26.131  1.00  0.00    -0.237 OA
ATOM     72  O   UNL A   1      42.792  26.345  24.679  1.00  0.00    -0.744 OA
ENDBRANCH  65  69
ENDBRANCH  48  62
BRANCH  49  73
ATOM     73  C   UNL A   1      39.500  33.571  37.069  1.00  0.00     0.023 A 
ATOM     74  C   UNL A   1      38.819  33.081  38.195  1.00  0.00     0.031 A 
ATOM     75  C   UNL A   1      39.960  34.899  37.104  1.00  0.00     0.131 A 
ATOM     76  C   UNL A   1      38.573  33.927  39.286  1.00  0.00     0.055 A 
ATOM     77  C   UNL A   1      39.759  35.722  38.215  1.00  0.00     0.041 A 
ATOM     78  F   UNL A   1      40.623  35.417  36.058  1.00  0.00    -0.206 F 
ATOM     79  C   UNL A   1      39.049  35.239  39.310  1.00  0.00     0.022 A 
BRANCH  76  80
ATOM     80  S   UNL A   1      37.540  33.311  40.645  1.00  0.00     0.124 S 
ATOM     81  O   UNL A   1      36.331  32.904  39.938  1.00  0.00    -0.237 OA
ATOM     82  O   UNL A   1      38.361  32.234  41.186  1.00  0.00    -0.237 OA
ATOM     83  O   UNL A   1      37.392  34.476  41.515  1.00  0.00    -0.744 OA
ENDBRANCH  76  80
ENDBRANCH  49  73
BRANCH  61  84
ATOM     84  C   UNL A   1      44.193  28.716  35.333  1.00  0.00     0.023 A 
ATOM     85  C   UNL A   1      44.122  27.681  36.281  1.00  0.00     0.031 A 
ATOM     86  C   UNL A   1      45.449  29.294  35.078  1.00  0.00     0.131 A 
ATOM     87  C   UNL A   1      45.271  27.304  36.991  1.00  0.00     0.055 A 
ATOM     88  C   UNL A   1      46.602  28.867  35.737  1.00  0.00     0.041 A 
ATOM     89  F   UNL A   1      45.577  30.288  34.183  1.00  0.00    -0.206 F 
ATOM     90  C   UNL A   1      46.515  27.878  36.713  1.00  0.00     0.022 A 
BRANCH  87  91
ATOM     91  S   UNL A   1      45.097  26.135  38.367  1.00  0.00     0.124 S 
ATOM     92  O   UNL A   1      44.244  26.876  39.290  1.00  0.00    -0.237 OA
ATOM     93  O   UNL A   1      44.484  24.980  37.719  1.00  0.00    -0.237 OA
ATOM     94  O   UNL A   1      46.472  25.933  38.820  1.00  0.00    -0.744 OA
ENDBRANCH  87  91
ENDBRANCH  61  84
ENDBRANCH  35  36
ENDBRANCH  27  30
ENDBRANCH  25  26
ENDBRANCH  24  25
ENDBRANCH   1  24
TORSDOF 17
ENDMDL
MODEL 2
REMARK VINA RESULT:     -12.3      2.980      8.304
REMARK SMILES Cc1ccc(C)c(OCc2ccc(C(=O)NCCCCNC(=O)c3ccc(-c4c5nc(c(-c6cc(S(=O)(=O)[O-])ccc6F)c6ccc([nH]6)c(-c6cc(S(=O)(=O)[O-])ccc6F)c6nc(c(-c7cc(S(=O)(=O)[O-])ccc7F)c7ccc4[nH]7)C=C6)C=C5)cc3)cc2)c1C
REMARK SMILES IDX 18 1 17 2 16 3 14 4 15 5 13 7 10 8 11 9 88 10 12 11 87 12
REMARK SMILES IDX 9 13 8 14 7 15 1 16 2 17 3 18 89 19 4 20 90 21 5 22 6 23
REMARK SMILES IDX 19 24 20 25 21 26 22 27 23 29 24 30 25 31 86 32 26 33 85 34
REMARK SMILES IDX 27 35 28 36 29 37 79 38 30 39 84 40 78 41 80 42 31 43 83 44
REMARK SMILES IDX 77 45 76 46 32 48 64 49 44 50 63 51 45 52 48 53 62 54 81 55
REMARK SMILES IDX 46 56 47 57 61 59 82 60 49 61 33 62 34 63 42 64 35 65 41 66
REMARK SMILES IDX 43 67 40 68 36 69 37 70 38 71 39 72 65 73 66 74 74 75 67 76
REMARK SMILES IDX 73 77 75 78 72 79 68 80 69 81 70 82 71 83 50 84 51 85 59 86
REMARK SMILES IDX 52 87 58 88 60 89 57 90 53 91 54 92 55 93 56 94
REMARK H PARENT 16 6 21 28 80 47 48 58
REMARK Flexibility Score: inf
ROOT
ATOM      1  C   UNL A   1      31.944  28.835  25.577  1.00  0.00     0.023 C 
ENDROOT
BRANCH   1   2
ATOM      2  C   UNL A   1      32.412  29.340  24.211  1.00  0.00     0.116 C 
BRANCH   2   3
ATOM      3  N   UNL A   1      31.282  29.481  23.327  1.00  0.00    -0.352 N 
ATOM      4  C   UNL A   1      30.618  28.576  22.544  1.00  0.00     0.251 C 
ATOM      5  O   UNL A   1      29.753  29.033  21.794  1.00  0.00    -0.269 OA
ATOM      6  H   UNL A   1      30.920  30.395  23.280  1.00  0.00     0.163 HD
BRANCH   4   7
ATOM      7  C   UNL A   1      30.828  27.093  22.595  1.00  0.00     0.039 A 
ATOM      8  C   UNL A   1      31.249  24.326  23.163  1.00  0.00    -0.011 A 
ATOM      9  C   UNL A   1      30.238  25.057  23.790  1.00  0.00     0.008 A 
ATOM     10  C   UNL A   1      31.970  24.979  22.158  1.00  0.00     0.008 A 
ATOM     11  C   UNL A   1      30.038  26.412  23.522  1.00  0.00     0.014 A 
ATOM     12  C   UNL A   1      31.747  26.334  21.865  1.00  0.00     0.014 A 
BRANCH   8  13
ATOM     13  C   UNL A   1      31.735  22.964  23.646  1.00  0.00     0.265 C 
BRANCH  13  14
ATOM     14  O   UNL A   1      32.347  22.798  24.925  1.00  0.00    -0.488 OA
BRANCH  14  15
ATOM     15  C   UNL A   1      33.593  22.250  25.042  1.00  0.00     0.125 A 
ATOM     16  C   UNL A   1      37.097  23.762  25.468  1.00  0.00     0.045 C 
ATOM     17  C   UNL A   1      35.967  22.791  25.271  1.00  0.00    -0.044 A 
ATOM     18  C   UNL A   1      36.261  21.437  25.088  1.00  0.00     0.004 A 
ATOM     19  C   UNL A   1      34.619  23.203  25.268  1.00  0.00    -0.006 A 
ATOM     20  C   UNL A   1      35.242  20.494  24.955  1.00  0.00     0.007 A 
ATOM     21  C   UNL A   1      34.232  24.653  25.447  1.00  0.00     0.049 C 
ATOM     22  C   UNL A   1      33.892  20.876  24.970  1.00  0.00    -0.009 A 
ATOM     23  C   UNL A   1      32.859  19.794  24.843  1.00  0.00     0.048 C 
ENDBRANCH  14  15
ENDBRANCH  13  14
ENDBRANCH   8  13
ENDBRANCH   4   7
ENDBRANCH   2   3
ENDBRANCH   1   2
BRANCH   1  24
ATOM     24  C   UNL A   1      33.066  28.242  26.432  1.00  0.00     0.023 C 
BRANCH  24  25
ATOM     25  C   UNL A   1      34.271  29.159  26.608  1.00  0.00     0.116 C 
BRANCH  25  26
ATOM     26  N   UNL A   1      33.904  30.490  27.066  1.00  0.00    -0.352 N 
ATOM     27  C   UNL A   1      34.547  31.279  27.982  1.00  0.00     0.251 C 
ATOM     28  H   UNL A   1      33.090  30.873  26.664  1.00  0.00     0.163 HD
ATOM     29  O   UNL A   1      34.033  32.329  28.355  1.00  0.00    -0.269 OA
BRANCH  27  30
ATOM     30  C   UNL A   1      35.829  30.819  28.543  1.00  0.00     0.039 A 
ATOM     31  C   UNL A   1      35.812  29.816  29.512  1.00  0.00     0.014 A 
ATOM     32  C   UNL A   1      37.039  31.346  28.082  1.00  0.00     0.014 A 
ATOM     33  C   UNL A   1      37.018  29.305  29.986  1.00  0.00     0.010 A 
ATOM     34  C   UNL A   1      38.238  30.781  28.499  1.00  0.00     0.010 A 
ATOM     35  C   UNL A   1      38.239  29.762  29.461  1.00  0.00    -0.014 A 
BRANCH  35  36
ATOM     36  C   UNL A   1      39.522  29.185  29.931  1.00  0.00     0.031 A 
ATOM     37  C   UNL A   1      40.218  29.772  31.126  1.00  0.00     0.074 A 
ATOM     38  C   UNL A   1      40.066  28.153  29.257  1.00  0.00     0.049 A 
ATOM     39  N   UNL A   1      41.338  29.405  31.693  1.00  0.00    -0.248 NA
ATOM     40  C   UNL A   1      39.587  30.946  31.748  1.00  0.00     0.031 C 
ATOM     41  C   UNL A   1      39.503  27.543  28.050  1.00  0.00     0.029 A 
ATOM     42  N   UNL A   1      41.207  27.431  29.491  1.00  0.00    -0.354 N 
ATOM     43  C   UNL A   1      41.547  30.302  32.734  1.00  0.00     0.074 A 
ATOM     44  C   UNL A   1      40.477  31.275  32.672  1.00  0.00     0.031 C 
ATOM     45  C   UNL A   1      40.280  26.515  27.674  1.00  0.00     0.029 A 
ATOM     46  C   UNL A   1      41.414  26.415  28.586  1.00  0.00     0.049 A 
ATOM     47  H   UNL A   1      41.821  27.621  30.237  1.00  0.00     0.167 HD
ATOM     48  C   UNL A   1      42.526  30.298  33.672  1.00  0.00     0.034 A 
ATOM     49  C   UNL A   1      42.404  25.506  28.506  1.00  0.00     0.034 A 
ATOM     50  C   UNL A   1      43.580  29.314  33.718  1.00  0.00     0.049 A 
ATOM     51  C   UNL A   1      43.485  25.525  29.557  1.00  0.00     0.074 A 
ATOM     52  C   UNL A   1      44.594  29.178  34.649  1.00  0.00     0.029 A 
ATOM     53  N   UNL A   1      43.761  28.298  32.786  1.00  0.00    -0.354 N 
ATOM     54  N   UNL A   1      43.634  26.340  30.576  1.00  0.00    -0.248 NA
ATOM     55  C   UNL A   1      44.520  24.489  29.456  1.00  0.00     0.031 C 
ATOM     56  C   UNL A   1      45.426  28.128  34.243  1.00  0.00     0.029 A 
ATOM     57  C   UNL A   1      44.886  27.553  33.103  1.00  0.00     0.049 A 
ATOM     58  H   UNL A   1      43.174  28.133  32.012  1.00  0.00     0.167 HD
ATOM     59  C   UNL A   1      44.765  25.894  31.255  1.00  0.00     0.074 A 
ATOM     60  C   UNL A   1      45.241  24.727  30.542  1.00  0.00     0.031 C 
ATOM     61  C   UNL A   1      45.356  26.401  32.369  1.00  0.00     0.034 A 
BRANCH  48  62
ATOM     62  C   UNL A   1      42.506  31.403  34.703  1.00  0.00     0.023 A 
ATOM     63  C   UNL A   1      41.536  31.446  35.721  1.00  0.00     0.031 A 
ATOM     64  C   UNL A   1      43.445  32.448  34.649  1.00  0.00     0.131 A 
ATOM     65  C   UNL A   1      41.477  32.547  36.590  1.00  0.00     0.055 A 
ATOM     66  C   UNL A   1      43.434  33.497  35.571  1.00  0.00     0.041 A 
ATOM     67  F   UNL A   1      44.381  32.476  33.687  1.00  0.00    -0.206 F 
ATOM     68  C   UNL A   1      42.437  33.560  36.539  1.00  0.00     0.022 A 
BRANCH  65  69
ATOM     69  S   UNL A   1      40.042  32.709  37.687  1.00  0.00     0.124 S 
ATOM     70  O   UNL A   1      39.174  31.640  37.197  1.00  0.00    -0.237 OA
ATOM     71  O   UNL A   1      40.627  32.502  39.006  1.00  0.00    -0.237 OA
ATOM     72  O   UNL A   1      39.559  34.063  37.422  1.00  0.00    -0.744 OA
ENDBRANCH  65  69
ENDBRANCH  48  62
BRANCH  49  73
ATOM     73  C   UNL A   1      42.424  24.502  27.403  1.00  0.00     0.023 A 
ATOM     74  C   UNL A   1      41.636  23.342  27.466  1.00  0.00     0.031 A 
ATOM     75  C   UNL A   1      43.261  24.671  26.287  1.00  0.00     0.131 A 
ATOM     76  C   UNL A   1      41.739  22.371  26.458  1.00  0.00     0.055 A 
ATOM     77  C   UNL A   1      43.321  23.727  25.259  1.00  0.00     0.041 A 
ATOM     78  F   UNL A   1      44.030  25.765  26.173  1.00  0.00    -0.206 F 
ATOM     79  C   UNL A   1      42.566  22.561  25.349  1.00  0.00     0.022 A 
BRANCH  76  80
ATOM     80  S   UNL A   1      40.839  20.809  26.662  1.00  0.00     0.124 S 
ATOM     81  O   UNL A   1      41.682  19.881  25.916  1.00  0.00    -0.237 OA
ATOM     82  O   UNL A   1      40.834  20.649  28.111  1.00  0.00    -0.237 OA
ATOM     83  O   UNL A   1      39.535  21.087  26.063  1.00  0.00    -0.744 OA
ENDBRANCH  76  80
ENDBRANCH  49  73
BRANCH  61  84
ATOM     84  C   UNL A   1      46.563  25.660  32.893  1.00  0.00     0.023 A 
ATOM     85  C   UNL A   1      46.441  24.599  33.806  1.00  0.00     0.031 A 
ATOM     86  C   UNL A   1      47.856  26.044  32.494  1.00  0.00     0.131 A 
ATOM     87  C   UNL A   1      47.591  24.004  34.345  1.00  0.00     0.055 A 
ATOM     88  C   UNL A   1      48.995  25.402  32.980  1.00  0.00     0.041 A 
ATOM     89  F   UNL A   1      48.034  27.052  31.625  1.00  0.00    -0.206 F 
ATOM     90  C   UNL A   1      48.867  24.386  33.924  1.00  0.00     0.022 A 
BRANCH  87  91
ATOM     91  S   UNL A   1      47.399  22.803  35.690  1.00  0.00     0.124 S 
ATOM     92  O   UNL A   1      45.995  22.973  36.051  1.00  0.00    -0.237 OA
ATOM     93  O   UNL A   1      47.741  21.544  35.037  1.00  0.00    -0.237 OA
ATOM     94  O   UNL A   1      48.357  23.259  36.695  1.00  0.00    -0.744 OA
ENDBRANCH  87  91
ENDBRANCH  61  84
ENDBRANCH  35  36
ENDBRANCH  27  30
ENDBRANCH  25  26
ENDBRANCH  24  25
ENDBRANCH   1  24
TORSDOF 17
ENDMDL
MODEL 3
REMARK VINA RESULT:     -12.2      1.684      7.804
REMARK SMILES Cc1ccc(C)c(OCc2ccc(C(=O)NCCCCNC(=O)c3ccc(-c4c5nc(c(-c6cc(S(=O)(=O)[O-])ccc6F)c6ccc([nH]6)c(-c6cc(S(=O)(=O)[O-])ccc6F)c6nc(c(-c7cc(S(=O)(=O)[O-])ccc7F)c7ccc4[nH]7)C=C6)C=C5)cc3)cc2)c1C
REMARK SMILES IDX 18 1 17 2 16 3 14 4 15 5 13 7 10 8 11 9 88 10 12 11 87 12
REMARK SMILES IDX 9 13 8 14 7 15 1 16 2 17 3 18 89 19 4 20 90 21 5 22 6 23
REMARK SMILES IDX 19 24 20 25 21 26 22 27 23 29 24 30 25 31 86 32 26 33 85 34
REMARK SMILES IDX 27 35 28 36 29 37 79 38 30 39 84 40 78 41 80 42 31 43 83 44
REMARK SMILES IDX 77 45 76 46 32 48 64 49 44 50 63 51 45 52 48 53 62 54 81 55
REMARK SMILES IDX 46 56 47 57 61 59 82 60 49 61 33 62 34 63 42 64 35 65 41 66
REMARK SMILES IDX 43 67 40 68 36 69 37 70 38 71 39 72 65 73 66 74 74 75 67 76
REMARK SMILES IDX 73 77 75 78 72 79 68 80 69 81 70 82 71 83 50 84 51 85 59 86
REMARK SMILES IDX 52 87 58 88 60 89 57 90 53 91 54 92 55 93 56 94
REMARK H PARENT 16 6 21 28 80 47 48 58
REMARK Flexibility Score: inf
ROOT
ATOM      1  C   UNL A   1      31.884  29.456  26.007  1.00  0.00     0.023 C 
ENDROOT
BRANCH   1   2
ATOM      2  C   UNL A   1      32.481  29.256  24.612  1.00  0.00     0.116 C 
BRANCH   2   3
ATOM      3  N   UNL A   1      31.459  29.439  23.612  1.00  0.00    -0.352 N 
ATOM      4  C   UNL A   1      30.868  28.564  22.741  1.00  0.00     0.251 C 
ATOM      5  O   UNL A   1      30.102  29.055  21.909  1.00  0.00    -0.269 OA
ATOM      6  H   UNL A   1      31.124  30.363  23.543  1.00  0.00     0.163 HD
BRANCH   4   7
ATOM      7  C   UNL A   1      31.039  27.076  22.785  1.00  0.00     0.039 A 
ATOM      8  C   UNL A   1      31.353  24.292  23.340  1.00  0.00    -0.011 A 
ATOM      9  C   UNL A   1      30.315  25.038  23.900  1.00  0.00     0.008 A 
ATOM     10  C   UNL A   1      32.163  24.942  22.403  1.00  0.00     0.008 A 
ATOM     11  C   UNL A   1      30.166  26.402  23.639  1.00  0.00     0.014 A 
ATOM     12  C   UNL A   1      31.994  26.306  22.115  1.00  0.00     0.014 A 
BRANCH   8  13
ATOM     13  C   UNL A   1      31.769  22.912  23.837  1.00  0.00     0.265 C 
BRANCH  13  14
ATOM     14  O   UNL A   1      32.457  22.739  25.077  1.00  0.00    -0.488 OA
BRANCH  14  15
ATOM     15  C   UNL A   1      33.816  22.860  25.149  1.00  0.00     0.125 A 
ATOM     16  C   UNL A   1      36.691  20.323  24.943  1.00  0.00     0.045 C 
ATOM     17  C   UNL A   1      35.908  21.594  25.117  1.00  0.00    -0.044 A 
ATOM     18  C   UNL A   1      36.586  22.766  25.467  1.00  0.00     0.004 A 
ATOM     19  C   UNL A   1      34.511  21.643  24.936  1.00  0.00    -0.006 A 
ATOM     20  C   UNL A   1      35.906  23.978  25.587  1.00  0.00     0.007 A 
ATOM     21  C   UNL A   1      33.715  20.410  24.571  1.00  0.00     0.049 C 
ATOM     22  C   UNL A   1      34.519  24.056  25.391  1.00  0.00    -0.009 A 
ATOM     23  C   UNL A   1      33.871  25.405  25.517  1.00  0.00     0.048 C 
ENDBRANCH  14  15
ENDBRANCH  13  14
ENDBRANCH   8  13
ENDBRANCH   4   7
ENDBRANCH   2   3
ENDBRANCH   1   2
BRANCH   1  24
ATOM     24  C   UNL A   1      31.666  30.925  26.378  1.00  0.00     0.023 C 
BRANCH  24  25
ATOM     25  C   UNL A   1      32.861  31.584  27.055  1.00  0.00     0.116 C 
BRANCH  25  26
ATOM     26  N   UNL A   1      32.641  32.993  27.340  1.00  0.00    -0.352 N 
ATOM     27  C   UNL A   1      33.342  33.807  28.190  1.00  0.00     0.251 C 
ATOM     28  H   UNL A   1      31.892  33.416  26.860  1.00  0.00     0.163 HD
ATOM     29  O   UNL A   1      32.944  34.946  28.416  1.00  0.00    -0.269 OA
BRANCH  27  30
ATOM     30  C   UNL A   1      34.541  33.273  28.860  1.00  0.00     0.039 A 
ATOM     31  C   UNL A   1      34.372  32.356  29.898  1.00  0.00     0.014 A 
ATOM     32  C   UNL A   1      35.820  33.644  28.435  1.00  0.00     0.014 A 
ATOM     33  C   UNL A   1      35.495  31.772  30.480  1.00  0.00     0.010 A 
ATOM     34  C   UNL A   1      36.933  33.003  28.964  1.00  0.00     0.010 A 
ATOM     35  C   UNL A   1      36.781  32.068  29.998  1.00  0.00    -0.014 A 
BRANCH  35  36
ATOM     36  C   UNL A   1      37.974  31.411  30.586  1.00  0.00     0.031 A 
ATOM     37  C   UNL A   1      38.412  31.755  31.981  1.00  0.00     0.074 A 
ATOM     38  C   UNL A   1      38.672  30.529  29.844  1.00  0.00     0.049 A 
ATOM     39  N   UNL A   1      39.419  31.286  32.671  1.00  0.00    -0.248 NA
ATOM     40  C   UNL A   1      37.633  32.786  32.683  1.00  0.00     0.031 C 
ATOM     41  C   UNL A   1      38.368  30.164  28.458  1.00  0.00     0.029 A 
ATOM     42  N   UNL A   1      39.775  29.774  30.150  1.00  0.00    -0.354 N 
ATOM     43  C   UNL A   1      39.396  31.964  33.884  1.00  0.00     0.074 A 
ATOM     44  C   UNL A   1      38.321  32.930  33.804  1.00  0.00     0.031 C 
ATOM     45  C   UNL A   1      39.239  29.228  28.049  1.00  0.00     0.029 A 
ATOM     46  C   UNL A   1      40.185  28.953  29.125  1.00  0.00     0.049 A 
ATOM     47  H   UNL A   1      40.231  29.817  31.021  1.00  0.00     0.167 HD
ATOM     48  C   UNL A   1      40.181  31.778  34.973  1.00  0.00     0.034 A 
ATOM     49  C   UNL A   1      41.206  28.077  29.064  1.00  0.00     0.034 A 
ATOM     50  C   UNL A   1      41.243  30.803  35.032  1.00  0.00     0.049 A 
ATOM     51  C   UNL A   1      42.069  27.891  30.286  1.00  0.00     0.074 A 
ATOM     52  C   UNL A   1      42.069  30.489  36.096  1.00  0.00     0.029 A 
ATOM     53  N   UNL A   1      41.633  29.987  33.976  1.00  0.00    -0.354 N 
ATOM     54  N   UNL A   1      41.994  28.494  31.451  1.00  0.00    -0.248 NA
ATOM     55  C   UNL A   1      43.142  26.894  30.190  1.00  0.00     0.031 C 
ATOM     56  C   UNL A   1      43.000  29.538  35.664  1.00  0.00     0.029 A 
ATOM     57  C   UNL A   1      42.705  29.195  34.354  1.00  0.00     0.049 A 
ATOM     58  H   UNL A   1      41.207  29.975  33.087  1.00  0.00     0.167 HD
ATOM     59  C   UNL A   1      42.993  27.925  32.236  1.00  0.00     0.074 A 
ATOM     60  C   UNL A   1      43.637  26.918  31.418  1.00  0.00     0.031 C 
ATOM     61  C   UNL A   1      43.346  28.206  33.518  1.00  0.00     0.034 A 
BRANCH  48  62
ATOM     62  C   UNL A   1      39.927  32.663  36.172  1.00  0.00     0.023 A 
ATOM     63  C   UNL A   1      39.067  32.268  37.213  1.00  0.00     0.031 A 
ATOM     64  C   UNL A   1      40.524  33.932  36.262  1.00  0.00     0.131 A 
ATOM     65  C   UNL A   1      38.765  33.161  38.252  1.00  0.00     0.055 A 
ATOM     66  C   UNL A   1      40.287  34.784  37.344  1.00  0.00     0.041 A 
ATOM     67  F   UNL A   1      41.336  34.376  35.289  1.00  0.00    -0.206 F 
ATOM     68  C   UNL A   1      39.391  34.407  38.339  1.00  0.00     0.022 A 
BRANCH  65  69
ATOM     69  S   UNL A   1      37.432  32.732  39.405  1.00  0.00     0.124 S 
ATOM     70  O   UNL A   1      37.806  31.374  39.795  1.00  0.00    -0.237 OA
ATOM     71  O   UNL A   1      37.566  33.752  40.438  1.00  0.00    -0.237 OA
ATOM     72  O   UNL A   1      36.227  32.826  38.585  1.00  0.00    -0.744 OA
ENDBRANCH  65  69
ENDBRANCH  48  62
BRANCH  49  73
ATOM     73  C   UNL A   1      41.468  27.305  27.815  1.00  0.00     0.023 A 
ATOM     74  C   UNL A   1      41.231  25.923  27.754  1.00  0.00     0.031 A 
ATOM     75  C   UNL A   1      41.997  27.934  26.675  1.00  0.00     0.131 A 
ATOM     76  C   UNL A   1      41.569  25.205  26.597  1.00  0.00     0.055 A 
ATOM     77  C   UNL A   1      42.283  27.224  25.506  1.00  0.00     0.041 A 
ATOM     78  F   UNL A   1      42.237  29.255  26.676  1.00  0.00    -0.206 F 
ATOM     79  C   UNL A   1      42.081  25.848  25.468  1.00  0.00     0.022 A 
BRANCH  76  80
ATOM     80  S   UNL A   1      41.412  23.398  26.618  1.00  0.00     0.124 S 
ATOM     81  O   UNL A   1      42.192  23.018  25.446  1.00  0.00    -0.237 OA
ATOM     82  O   UNL A   1      41.992  23.059  27.913  1.00  0.00    -0.237 OA
ATOM     83  O   UNL A   1      39.971  23.181  26.507  1.00  0.00    -0.744 OA
ENDBRANCH  76  80
ENDBRANCH  49  73
BRANCH  61  84
ATOM     84  C   UNL A   1      44.460  27.378  34.113  1.00  0.00     0.023 A 
ATOM     85  C   UNL A   1      44.220  26.118  34.686  1.00  0.00     0.031 A 
ATOM     86  C   UNL A   1      45.777  27.873  34.131  1.00  0.00     0.131 A 
ATOM     87  C   UNL A   1      45.264  25.426  35.316  1.00  0.00     0.055 A 
ATOM     88  C   UNL A   1      46.826  27.148  34.697  1.00  0.00     0.041 A 
ATOM     89  F   UNL A   1      46.065  29.071  33.599  1.00  0.00    -0.206 F 
ATOM     90  C   UNL A   1      46.569  25.924  35.310  1.00  0.00     0.022 A 
BRANCH  87  91
ATOM     91  S   UNL A   1      44.871  23.919  36.246  1.00  0.00     0.124 S 
ATOM     92  O   UNL A   1      46.023  23.072  35.954  1.00  0.00    -0.237 OA
ATOM     93  O   UNL A   1      44.775  24.414  37.616  1.00  0.00    -0.237 OA
ATOM     94  O   UNL A   1      43.609  23.474  35.659  1.00  0.00    -0.744 OA
ENDBRANCH  87  91
ENDBRANCH  61  84
ENDBRANCH  35  36
ENDBRANCH  27  30
ENDBRANCH  25  26
ENDBRANCH  24  25
ENDBRANCH   1  24
TORSDOF 17
ENDMDL
