MODEL 1
REMARK VINA RESULT:     -11.8      0.000      0.000
REMARK SMILES CC(C)c1cc(C(=O)NCCCCNC(=O)c2ccc(-c3c4nc(c(-c5cc(S(=O)(=O)[O-])ccc5F)c5ccc([nH]5)c(-c5cc(S(=O)(=O)[O-])ccc5F)c5nc(c(-c6cc(S(=O)(=O)[O-])ccc6F)c6ccc3[nH]6)C=C5)C=C4)cc2)ccc1[N+](=O)[O-]
REMARK SMILES IDX 12 1 11 2 10 3 9 4 7 5 8 6 6 8 4 9 5 10 82 11 81 12 80 13
REMARK SMILES IDX 2 14 1 15 3 16 83 17 84 18 85 19 13 20 14 21 15 22 16 24
REMARK SMILES IDX 17 25 18 26 79 27 19 28 78 29 20 30 21 31 22 32 72 33 23 34
REMARK SMILES IDX 77 35 71 36 73 37 24 38 76 39 70 40 69 41 25 43 57 44 37 45
REMARK SMILES IDX 56 46 38 47 41 48 55 49 74 50 39 51 40 52 54 54 75 55 42 56
REMARK SMILES IDX 26 57 27 58 35 59 28 60 34 61 36 62 33 63 29 64 30 65 31 66
REMARK SMILES IDX 32 67 58 68 59 69 67 70 60 71 66 72 68 73 65 74 61 75 62 76
REMARK SMILES IDX 63 77 64 78 43 79 44 80 52 81 45 82 51 83 53 84 50 85 46 86
REMARK SMILES IDX 47 87 48 88 49 89
REMARK H PARENT 9 7 14 23 73 42 41 53
REMARK Flexibility Score: inf
ROOT
ATOM      1  C   UNL A   1      31.959  31.578  26.758  1.00  0.00     0.023 C 
ENDROOT
BRANCH   1   2
ATOM      2  C   UNL A   1      32.130  30.086  27.026  1.00  0.00     0.023 C 
BRANCH   2   3
ATOM      3  C   UNL A   1      33.485  29.480  26.681  1.00  0.00     0.116 C 
BRANCH   3   4
ATOM      4  N   UNL A   1      33.717  29.300  25.258  1.00  0.00    -0.352 N 
ATOM      5  C   UNL A   1      33.467  28.219  24.443  1.00  0.00     0.251 C 
ATOM      6  O   UNL A   1      33.774  28.274  23.253  1.00  0.00    -0.269 OA
ATOM      7  H   UNL A   1      34.120  30.075  24.804  1.00  0.00     0.163 HD
BRANCH   5   8
ATOM      8  C   UNL A   1      32.894  26.957  24.979  1.00  0.00     0.040 A 
ATOM      9  C   UNL A   1      33.320  24.623  25.661  1.00  0.00     0.033 A 
ATOM     10  C   UNL A   1      33.735  25.832  25.057  1.00  0.00     0.025 A 
ATOM     11  C   UNL A   1      32.035  24.629  26.231  1.00  0.00     0.272 A 
ATOM     12  C   UNL A   1      31.146  25.705  26.068  1.00  0.00     0.087 A 
ATOM     13  C   UNL A   1      31.567  26.850  25.396  1.00  0.00     0.021 A 
BRANCH   9  14
ATOM     14  C   UNL A   1      34.301  23.457  25.612  1.00  0.00     0.020 C 
ATOM     15  C   UNL A   1      34.074  22.586  24.376  1.00  0.00     0.013 C 
ATOM     16  C   UNL A   1      35.789  23.787  25.766  1.00  0.00     0.013 C 
ENDBRANCH   9  14
BRANCH  11  17
ATOM     17  N   UNL A   1      31.578  23.570  27.108  1.00  0.00     0.063 N 
ATOM     18  O   UNL A   1      32.451  22.903  27.680  1.00  0.00    -0.258 OA
ATOM     19  O   UNL A   1      30.355  23.442  27.251  1.00  0.00    -0.258 OA
ENDBRANCH  11  17
ENDBRANCH   5   8
ENDBRANCH   3   4
ENDBRANCH   2   3
ENDBRANCH   1   2
BRANCH   1  20
ATOM     20  C   UNL A   1      33.092  32.483  27.231  1.00  0.00     0.116 C 
BRANCH  20  21
ATOM     21  N   UNL A   1      32.650  33.803  27.651  1.00  0.00    -0.352 N 
ATOM     22  C   UNL A   1      33.134  34.629  28.640  1.00  0.00     0.251 C 
ATOM     23  H   UNL A   1      31.884  34.164  27.149  1.00  0.00     0.163 HD
ATOM     24  O   UNL A   1      32.546  35.681  28.882  1.00  0.00    -0.269 OA
BRANCH  22  25
ATOM     25  C   UNL A   1      34.318  34.237  29.439  1.00  0.00     0.039 A 
ATOM     26  C   UNL A   1      34.118  33.677  30.703  1.00  0.00     0.014 A 
ATOM     27  C   UNL A   1      35.616  34.395  28.947  1.00  0.00     0.014 A 
ATOM     28  C   UNL A   1      35.207  33.186  31.428  1.00  0.00     0.010 A 
ATOM     29  C   UNL A   1      36.691  33.831  29.631  1.00  0.00     0.010 A 
ATOM     30  C   UNL A   1      36.498  33.208  30.874  1.00  0.00    -0.014 A 
BRANCH  30  31
ATOM     31  C   UNL A   1      37.645  32.559  31.568  1.00  0.00     0.031 A 
ATOM     32  C   UNL A   1      38.368  31.404  30.931  1.00  0.00     0.074 A 
ATOM     33  C   UNL A   1      37.989  32.971  32.805  1.00  0.00     0.049 A 
ATOM     34  N   UNL A   1      39.345  30.675  31.407  1.00  0.00    -0.248 NA
ATOM     35  C   UNL A   1      37.912  30.996  29.594  1.00  0.00     0.031 C 
ATOM     36  C   UNL A   1      37.330  34.046  33.553  1.00  0.00     0.029 A 
ATOM     37  N   UNL A   1      38.973  32.534  33.657  1.00  0.00    -0.354 N 
ATOM     38  C   UNL A   1      39.613  29.716  30.437  1.00  0.00     0.074 A 
ATOM     39  C   UNL A   1      38.651  29.919  29.374  1.00  0.00     0.031 C 
ATOM     40  C   UNL A   1      37.945  34.202  34.735  1.00  0.00     0.029 A 
ATOM     41  C   UNL A   1      39.012  33.214  34.854  1.00  0.00     0.049 A 
ATOM     42  H   UNL A   1      39.594  31.803  33.434  1.00  0.00     0.167 HD
ATOM     43  C   UNL A   1      40.587  28.770  30.420  1.00  0.00     0.034 A 
ATOM     44  C   UNL A   1      39.808  33.053  35.930  1.00  0.00     0.034 A 
ATOM     45  C   UNL A   1      41.545  28.587  31.483  1.00  0.00     0.049 A 
ATOM     46  C   UNL A   1      40.873  31.986  35.895  1.00  0.00     0.074 A 
ATOM     47  C   UNL A   1      42.607  27.700  31.543  1.00  0.00     0.029 A 
ATOM     48  N   UNL A   1      41.555  29.294  32.679  1.00  0.00    -0.354 N 
ATOM     49  N   UNL A   1      41.151  31.127  34.941  1.00  0.00    -0.248 NA
ATOM     50  C   UNL A   1      41.737  31.877  37.076  1.00  0.00     0.031 C 
ATOM     51  C   UNL A   1      43.217  27.825  32.796  1.00  0.00     0.029 A 
ATOM     52  C   UNL A   1      42.585  28.842  33.492  1.00  0.00     0.049 A 
ATOM     53  H   UNL A   1      40.925  30.012  32.914  1.00  0.00     0.167 HD
ATOM     54  C   UNL A   1      42.240  30.393  35.400  1.00  0.00     0.074 A 
ATOM     55  C   UNL A   1      42.581  30.927  36.703  1.00  0.00     0.031 C 
ATOM     56  C   UNL A   1      42.901  29.370  34.800  1.00  0.00     0.034 A 
BRANCH  43  57
ATOM     57  C   UNL A   1      40.642  27.851  29.222  1.00  0.00     0.023 A 
ATOM     58  C   UNL A   1      41.552  28.063  28.171  1.00  0.00     0.031 A 
ATOM     59  C   UNL A   1      39.758  26.762  29.115  1.00  0.00     0.131 A 
ATOM     60  C   UNL A   1      41.507  27.248  27.029  1.00  0.00     0.055 A 
ATOM     61  C   UNL A   1      39.775  25.904  28.013  1.00  0.00     0.041 A 
ATOM     62  F   UNL A   1      38.853  26.519  30.077  1.00  0.00    -0.206 F 
ATOM     63  C   UNL A   1      40.642  26.155  26.953  1.00  0.00     0.022 A 
BRANCH  60  64
ATOM     64  S   UNL A   1      42.494  27.729  25.585  1.00  0.00     0.124 S 
ATOM     65  O   UNL A   1      43.829  27.845  26.166  1.00  0.00    -0.237 OA
ATOM     66  O   UNL A   1      42.289  26.607  24.675  1.00  0.00    -0.237 OA
ATOM     67  O   UNL A   1      41.893  28.993  25.164  1.00  0.00    -0.744 OA
ENDBRANCH  60  64
ENDBRANCH  43  57
BRANCH  44  68
ATOM     68  C   UNL A   1      39.634  33.912  37.137  1.00  0.00     0.023 A 
ATOM     69  C   UNL A   1      38.998  33.422  38.289  1.00  0.00     0.031 A 
ATOM     70  C   UNL A   1      40.057  35.253  37.139  1.00  0.00     0.131 A 
ATOM     71  C   UNL A   1      38.758  34.278  39.375  1.00  0.00     0.055 A 
ATOM     72  C   UNL A   1      39.865  36.086  38.242  1.00  0.00     0.041 A 
ATOM     73  F   UNL A   1      40.675  35.772  36.066  1.00  0.00    -0.206 F 
ATOM     74  C   UNL A   1      39.199  35.603  39.364  1.00  0.00     0.022 A 
BRANCH  71  75
ATOM     75  S   UNL A   1      37.781  33.656  40.771  1.00  0.00     0.124 S 
ATOM     76  O   UNL A   1      37.455  34.890  41.478  1.00  0.00    -0.237 OA
ATOM     77  O   UNL A   1      36.673  32.992  40.093  1.00  0.00    -0.237 OA
ATOM     78  O   UNL A   1      38.709  32.765  41.465  1.00  0.00    -0.744 OA
ENDBRANCH  71  75
ENDBRANCH  44  68
BRANCH  56  79
ATOM     79  C   UNL A   1      44.081  28.790  35.545  1.00  0.00     0.023 A 
ATOM     80  C   UNL A   1      43.939  27.697  36.418  1.00  0.00     0.031 A 
ATOM     81  C   UNL A   1      45.359  29.361  35.403  1.00  0.00     0.131 A 
ATOM     82  C   UNL A   1      45.039  27.251  37.165  1.00  0.00     0.055 A 
ATOM     83  C   UNL A   1      46.463  28.871  36.101  1.00  0.00     0.041 A 
ATOM     84  F   UNL A   1      45.553  30.408  34.586  1.00  0.00    -0.206 F 
ATOM     85  C   UNL A   1      46.304  27.821  37.000  1.00  0.00     0.022 A 
BRANCH  82  86
ATOM     86  S   UNL A   1      44.770  25.987  38.438  1.00  0.00     0.124 S 
ATOM     87  O   UNL A   1      43.990  24.989  37.714  1.00  0.00    -0.237 OA
ATOM     88  O   UNL A   1      46.133  25.601  38.787  1.00  0.00    -0.237 OA
ATOM     89  O   UNL A   1      44.042  26.703  39.484  1.00  0.00    -0.744 OA
ENDBRANCH  82  86
ENDBRANCH  56  79
ENDBRANCH  30  31
ENDBRANCH  22  25
ENDBRANCH  20  21
ENDBRANCH   1  20
TORSDOF 16
ENDMDL
MODEL 2
REMARK VINA RESULT:     -11.7      6.013     11.227
REMARK SMILES CC(C)c1cc(C(=O)NCCCCNC(=O)c2ccc(-c3c4nc(c(-c5cc(S(=O)(=O)[O-])ccc5F)c5ccc([nH]5)c(-c5cc(S(=O)(=O)[O-])ccc5F)c5nc(c(-c6cc(S(=O)(=O)[O-])ccc6F)c6ccc3[nH]6)C=C5)C=C4)cc2)ccc1[N+](=O)[O-]
REMARK SMILES IDX 12 1 11 2 10 3 9 4 7 5 8 6 6 8 4 9 5 10 82 11 81 12 80 13
REMARK SMILES IDX 2 14 1 15 3 16 83 17 84 18 85 19 13 20 14 21 15 22 16 24
REMARK SMILES IDX 17 25 18 26 79 27 19 28 78 29 20 30 21 31 22 32 72 33 23 34
REMARK SMILES IDX 77 35 71 36 73 37 24 38 76 39 70 40 69 41 25 43 57 44 37 45
REMARK SMILES IDX 56 46 38 47 41 48 55 49 74 50 39 51 40 52 54 54 75 55 42 56
REMARK SMILES IDX 26 57 27 58 35 59 28 60 34 61 36 62 33 63 29 64 30 65 31 66
REMARK SMILES IDX 32 67 58 68 59 69 67 70 60 71 66 72 68 73 65 74 61 75 62 76
REMARK SMILES IDX 63 77 64 78 43 79 44 80 52 81 45 82 51 83 53 84 50 85 46 86
REMARK SMILES IDX 47 87 48 88 49 89
REMARK H PARENT 9 7 14 23 73 42 41 53
REMARK Flexibility Score: inf
ROOT
ATOM      1  C   UNL A   1      36.081  21.085  25.339  1.00  0.00     0.023 C 
ENDROOT
BRANCH   1   2
ATOM      2  C   UNL A   1      35.376  22.285  25.961  1.00  0.00     0.023 C 
BRANCH   2   3
ATOM      3  C   UNL A   1      34.236  21.982  26.926  1.00  0.00     0.116 C 
BRANCH   3   4
ATOM      4  N   UNL A   1      33.331  20.936  26.479  1.00  0.00    -0.352 N 
ATOM      5  C   UNL A   1      32.516  20.875  25.371  1.00  0.00     0.251 C 
ATOM      6  O   UNL A   1      31.801  19.889  25.200  1.00  0.00    -0.269 OA
ATOM      7  H   UNL A   1      33.295  20.145  27.063  1.00  0.00     0.163 HD
BRANCH   5   8
ATOM      8  C   UNL A   1      32.428  22.002  24.408  1.00  0.00     0.040 A 
ATOM      9  C   UNL A   1      31.926  24.396  24.073  1.00  0.00     0.033 A 
ATOM     10  C   UNL A   1      31.936  23.234  24.878  1.00  0.00     0.025 A 
ATOM     11  C   UNL A   1      32.489  24.263  22.791  1.00  0.00     0.272 A 
ATOM     12  C   UNL A   1      32.884  23.020  22.270  1.00  0.00     0.087 A 
ATOM     13  C   UNL A   1      32.804  21.882  23.070  1.00  0.00     0.021 A 
BRANCH   9  14
ATOM     14  C   UNL A   1      31.297  25.647  24.677  1.00  0.00     0.020 C 
ATOM     15  C   UNL A   1      30.248  25.293  25.732  1.00  0.00     0.013 C 
ATOM     16  C   UNL A   1      32.249  26.721  25.212  1.00  0.00     0.013 C 
ENDBRANCH   9  14
BRANCH  11  17
ATOM     17  N   UNL A   1      32.790  25.412  21.961  1.00  0.00     0.063 N 
ATOM     18  O   UNL A   1      33.960  25.818  21.974  1.00  0.00    -0.258 OA
ATOM     19  O   UNL A   1      31.869  25.869  21.272  1.00  0.00    -0.258 OA
ENDBRANCH  11  17
ENDBRANCH   5   8
ENDBRANCH   3   4
ENDBRANCH   2   3
ENDBRANCH   1   2
BRANCH   1  20
ATOM     20  C   UNL A   1      37.517  21.309  24.877  1.00  0.00     0.116 C 
BRANCH  20  21
ATOM     21  N   UNL A   1      38.455  20.315  25.375  1.00  0.00    -0.352 N 
ATOM     22  C   UNL A   1      39.595  20.468  26.131  1.00  0.00     0.251 C 
ATOM     23  H   UNL A   1      38.242  19.385  25.132  1.00  0.00     0.163 HD
ATOM     24  O   UNL A   1      40.293  19.484  26.368  1.00  0.00    -0.269 OA
BRANCH  22  25
ATOM     25  C   UNL A   1      40.007  21.807  26.612  1.00  0.00     0.039 A 
ATOM     26  C   UNL A   1      41.054  21.895  27.534  1.00  0.00     0.014 A 
ATOM     27  C   UNL A   1      39.389  22.971  26.150  1.00  0.00     0.014 A 
ATOM     28  C   UNL A   1      41.544  23.147  27.913  1.00  0.00     0.010 A 
ATOM     29  C   UNL A   1      39.933  24.217  26.462  1.00  0.00     0.010 A 
ATOM     30  C   UNL A   1      41.025  24.319  27.338  1.00  0.00    -0.014 A 
BRANCH  30  31
ATOM     31  C   UNL A   1      41.632  25.649  27.619  1.00  0.00     0.031 A 
ATOM     32  C   UNL A   1      40.859  26.698  28.371  1.00  0.00     0.074 A 
ATOM     33  C   UNL A   1      42.858  25.933  27.134  1.00  0.00     0.049 A 
ATOM     34  N   UNL A   1      41.196  27.930  28.655  1.00  0.00    -0.248 NA
ATOM     35  C   UNL A   1      39.518  26.320  28.839  1.00  0.00     0.031 C 
ATOM     36  C   UNL A   1      43.687  25.019  26.342  1.00  0.00     0.029 A 
ATOM     37  N   UNL A   1      43.621  27.070  27.227  1.00  0.00    -0.354 N 
ATOM     38  C   UNL A   1      40.108  28.479  29.324  1.00  0.00     0.074 A 
ATOM     39  C   UNL A   1      39.077  27.462  29.344  1.00  0.00     0.031 C 
ATOM     40  C   UNL A   1      44.850  25.620  26.049  1.00  0.00     0.029 A 
ATOM     41  C   UNL A   1      44.838  26.976  26.589  1.00  0.00     0.049 A 
ATOM     42  H   UNL A   1      43.327  27.878  27.706  1.00  0.00     0.167 HD
ATOM     43  C   UNL A   1      39.987  29.706  29.891  1.00  0.00     0.034 A 
ATOM     44  C   UNL A   1      45.826  27.881  26.445  1.00  0.00     0.034 A 
ATOM     45  C   UNL A   1      41.029  30.705  29.871  1.00  0.00     0.049 A 
ATOM     46  C   UNL A   1      45.664  29.242  27.071  1.00  0.00     0.074 A 
ATOM     47  C   UNL A   1      41.034  31.957  30.464  1.00  0.00     0.029 A 
ATOM     48  N   UNL A   1      42.248  30.574  29.217  1.00  0.00    -0.354 N 
ATOM     49  N   UNL A   1      44.650  29.723  27.753  1.00  0.00    -0.248 NA
ATOM     50  C   UNL A   1      46.785  30.178  26.917  1.00  0.00     0.031 C 
ATOM     51  C   UNL A   1      42.224  32.605  30.115  1.00  0.00     0.029 A 
ATOM     52  C   UNL A   1      42.997  31.732  29.367  1.00  0.00     0.049 A 
ATOM     53  H   UNL A   1      42.537  29.775  28.721  1.00  0.00     0.167 HD
ATOM     54  C   UNL A   1      45.024  31.009  28.130  1.00  0.00     0.074 A 
ATOM     55  C   UNL A   1      46.364  31.218  27.620  1.00  0.00     0.031 C 
ATOM     56  C   UNL A   1      44.325  31.935  28.836  1.00  0.00     0.034 A 
BRANCH  43  57
ATOM     57  C   UNL A   1      38.672  30.037  30.558  1.00  0.00     0.023 A 
ATOM     58  C   UNL A   1      37.648  30.716  29.874  1.00  0.00     0.031 A 
ATOM     59  C   UNL A   1      38.446  29.691  31.902  1.00  0.00     0.131 A 
ATOM     60  C   UNL A   1      36.480  31.094  30.555  1.00  0.00     0.055 A 
ATOM     61  C   UNL A   1      37.248  29.996  32.551  1.00  0.00     0.041 A 
ATOM     62  F   UNL A   1      39.393  29.059  32.615  1.00  0.00    -0.206 F 
ATOM     63  C   UNL A   1      36.262  30.717  31.881  1.00  0.00     0.022 A 
BRANCH  60  64
ATOM     64  S   UNL A   1      35.317  32.211  29.724  1.00  0.00     0.124 S 
ATOM     65  O   UNL A   1      34.459  32.621  30.832  1.00  0.00    -0.237 OA
ATOM     66  O   UNL A   1      36.199  33.239  29.184  1.00  0.00    -0.237 OA
ATOM     67  O   UNL A   1      34.672  31.355  28.729  1.00  0.00    -0.744 OA
ENDBRANCH  60  64
ENDBRANCH  43  57
BRANCH  44  68
ATOM     68  C   UNL A   1      47.058  27.541  25.674  1.00  0.00     0.023 A 
ATOM     69  C   UNL A   1      47.177  27.877  24.316  1.00  0.00     0.031 A 
ATOM     70  C   UNL A   1      48.115  26.832  26.271  1.00  0.00     0.131 A 
ATOM     71  C   UNL A   1      48.302  27.461  23.587  1.00  0.00     0.055 A 
ATOM     72  C   UNL A   1      49.257  26.468  25.557  1.00  0.00     0.041 A 
ATOM     73  F   UNL A   1      48.056  26.491  27.569  1.00  0.00    -0.206 F 
ATOM     74  C   UNL A   1      49.348  26.769  24.202  1.00  0.00     0.022 A 
BRANCH  71  75
ATOM     75  S   UNL A   1      48.337  27.761  21.798  1.00  0.00     0.124 S 
ATOM     76  O   UNL A   1      48.574  26.419  21.277  1.00  0.00    -0.237 OA
ATOM     77  O   UNL A   1      47.011  28.319  21.559  1.00  0.00    -0.237 OA
ATOM     78  O   UNL A   1      49.445  28.699  21.633  1.00  0.00    -0.744 OA
ENDBRANCH  71  75
ENDBRANCH  44  68
BRANCH  56  79
ATOM     79  C   UNL A   1      45.022  33.245  29.119  1.00  0.00     0.023 A 
ATOM     80  C   UNL A   1      44.852  34.367  28.289  1.00  0.00     0.031 A 
ATOM     81  C   UNL A   1      45.894  33.361  30.216  1.00  0.00     0.131 A 
ATOM     82  C   UNL A   1      45.593  35.534  28.530  1.00  0.00     0.055 A 
ATOM     83  C   UNL A   1      46.579  34.545  30.489  1.00  0.00     0.041 A 
ATOM     84  F   UNL A   1      46.098  32.321  31.041  1.00  0.00    -0.206 F 
ATOM     85  C   UNL A   1      46.443  35.636  29.634  1.00  0.00     0.022 A 
BRANCH  82  86
ATOM     86  S   UNL A   1      45.513  36.880  27.317  1.00  0.00     0.124 S 
ATOM     87  O   UNL A   1      46.396  36.392  26.263  1.00  0.00    -0.237 OA
ATOM     88  O   UNL A   1      44.092  36.921  26.989  1.00  0.00    -0.237 OA
ATOM     89  O   UNL A   1      46.011  38.038  28.058  1.00  0.00    -0.744 OA
ENDBRANCH  82  86
ENDBRANCH  56  79
ENDBRANCH  30  31
ENDBRANCH  22  25
ENDBRANCH  20  21
ENDBRANCH   1  20
TORSDOF 16
ENDMDL
MODEL 3
REMARK VINA RESULT:     -11.7      2.539      8.097
REMARK SMILES CC(C)c1cc(C(=O)NCCCCNC(=O)c2ccc(-c3c4nc(c(-c5cc(S(=O)(=O)[O-])ccc5F)c5ccc([nH]5)c(-c5cc(S(=O)(=O)[O-])ccc5F)c5nc(c(-c6cc(S(=O)(=O)[O-])ccc6F)c6ccc3[nH]6)C=C5)C=C4)cc2)ccc1[N+](=O)[O-]
REMARK SMILES IDX 12 1 11 2 10 3 9 4 7 5 8 6 6 8 4 9 5 10 82 11 81 12 80 13
REMARK SMILES IDX 2 14 1 15 3 16 83 17 84 18 85 19 13 20 14 21 15 22 16 24
REMARK SMILES IDX 17 25 18 26 79 27 19 28 78 29 20 30 21 31 22 32 72 33 23 34
REMARK SMILES IDX 77 35 71 36 73 37 24 38 76 39 70 40 69 41 25 43 57 44 37 45
REMARK SMILES IDX 56 46 38 47 41 48 55 49 74 50 39 51 40 52 54 54 75 55 42 56
REMARK SMILES IDX 26 57 27 58 35 59 28 60 34 61 36 62 33 63 29 64 30 65 31 66
REMARK SMILES IDX 32 67 58 68 59 69 67 70 60 71 66 72 68 73 65 74 61 75 62 76
REMARK SMILES IDX 63 77 64 78 43 79 44 80 52 81 45 82 51 83 53 84 50 85 46 86
REMARK SMILES IDX 47 87 48 88 49 89
REMARK H PARENT 9 7 14 23 73 42 41 53
REMARK Flexibility Score: inf
ROOT
ATOM      1  C   UNL A   1      31.512  29.329  25.034  1.00  0.00     0.023 C 
ENDROOT
BRANCH   1   2
ATOM      2  C   UNL A   1      31.843  28.934  23.598  1.00  0.00     0.023 C 
BRANCH   2   3
ATOM      3  C   UNL A   1      33.239  28.379  23.347  1.00  0.00     0.116 C 
BRANCH   3   4
ATOM      4  N   UNL A   1      33.374  27.628  22.110  1.00  0.00    -0.352 N 
ATOM      5  C   UNL A   1      33.050  26.322  21.819  1.00  0.00     0.251 C 
ATOM      6  O   UNL A   1      33.279  25.878  20.696  1.00  0.00    -0.269 OA
ATOM      7  H   UNL A   1      33.762  28.134  21.360  1.00  0.00     0.163 HD
BRANCH   5   8
ATOM      8  C   UNL A   1      32.488  25.412  22.851  1.00  0.00     0.040 A 
ATOM      9  C   UNL A   1      32.961  23.864  24.715  1.00  0.00     0.033 A 
ATOM     10  C   UNL A   1      33.390  24.664  23.630  1.00  0.00     0.025 A 
ATOM     11  C   UNL A   1      31.586  23.903  25.004  1.00  0.00     0.272 A 
ATOM     12  C   UNL A   1      30.662  24.558  24.173  1.00  0.00     0.087 A 
ATOM     13  C   UNL A   1      31.117  25.272  23.066  1.00  0.00     0.021 A 
BRANCH   9  14
ATOM     14  C   UNL A   1      34.030  23.044  25.429  1.00  0.00     0.020 C 
ATOM     15  C   UNL A   1      34.286  21.715  24.718  1.00  0.00     0.013 C 
ATOM     16  C   UNL A   1      35.356  23.745  25.743  1.00  0.00     0.013 C 
ENDBRANCH   9  14
BRANCH  11  17
ATOM     17  N   UNL A   1      31.043  23.357  26.231  1.00  0.00     0.063 N 
ATOM     18  O   UNL A   1      31.075  24.089  27.230  1.00  0.00    -0.258 OA
ATOM     19  O   UNL A   1      30.552  22.222  26.176  1.00  0.00    -0.258 OA
ENDBRANCH  11  17
ENDBRANCH   5   8
ENDBRANCH   3   4
ENDBRANCH   2   3
ENDBRANCH   1   2
BRANCH   1  20
ATOM     20  C   UNL A   1      32.669  29.865  25.871  1.00  0.00     0.116 C 
BRANCH  20  21
ATOM     21  N   UNL A   1      32.448  31.208  26.384  1.00  0.00    -0.352 N 
ATOM     22  C   UNL A   1      33.210  31.966  27.244  1.00  0.00     0.251 C 
ATOM     23  H   UNL A   1      31.625  31.643  26.067  1.00  0.00     0.163 HD
ATOM     24  O   UNL A   1      32.784  33.058  27.616  1.00  0.00    -0.269 OA
BRANCH  22  25
ATOM     25  C   UNL A   1      34.502  31.457  27.758  1.00  0.00     0.039 A 
ATOM     26  C   UNL A   1      35.531  32.370  28.005  1.00  0.00     0.014 A 
ATOM     27  C   UNL A   1      34.701  30.099  28.016  1.00  0.00     0.014 A 
ATOM     28  C   UNL A   1      36.717  31.936  28.603  1.00  0.00     0.010 A 
ATOM     29  C   UNL A   1      35.849  29.681  28.688  1.00  0.00     0.010 A 
ATOM     30  C   UNL A   1      36.865  30.597  29.001  1.00  0.00    -0.014 A 
BRANCH  30  31
ATOM     31  C   UNL A   1      38.060  30.149  29.769  1.00  0.00     0.031 A 
ATOM     32  C   UNL A   1      38.287  30.631  31.176  1.00  0.00     0.074 A 
ATOM     33  C   UNL A   1      38.974  29.360  29.170  1.00  0.00     0.049 A 
ATOM     34  N   UNL A   1      39.296  30.400  31.977  1.00  0.00    -0.248 NA
ATOM     35  C   UNL A   1      37.259  31.514  31.746  1.00  0.00     0.031 C 
ATOM     36  C   UNL A   1      38.895  28.869  27.791  1.00  0.00     0.029 A 
ATOM     37  N   UNL A   1      40.154  28.834  29.637  1.00  0.00    -0.354 N 
ATOM     38  C   UNL A   1      39.032  31.116  33.139  1.00  0.00     0.074 A 
ATOM     39  C   UNL A   1      37.798  31.839  32.911  1.00  0.00     0.031 C 
ATOM     40  C   UNL A   1      39.961  28.094  27.536  1.00  0.00     0.029 A 
ATOM     41  C   UNL A   1      40.824  28.065  28.712  1.00  0.00     0.049 A 
ATOM     42  H   UNL A   1      40.489  28.992  30.549  1.00  0.00     0.167 HD
ATOM     43  C   UNL A   1      39.738  31.149  34.298  1.00  0.00     0.034 A 
ATOM     44  C   UNL A   1      42.004  27.420  28.797  1.00  0.00     0.034 A 
ATOM     45  C   UNL A   1      40.961  30.414  34.514  1.00  0.00     0.049 A 
ATOM     46  C   UNL A   1      42.777  27.482  30.089  1.00  0.00     0.074 A 
ATOM     47  C   UNL A   1      41.724  30.328  35.667  1.00  0.00     0.029 A 
ATOM     48  N   UNL A   1      41.609  29.644  33.555  1.00  0.00    -0.354 N 
ATOM     49  N   UNL A   1      42.480  28.116  31.200  1.00  0.00    -0.248 NA
ATOM     50  C   UNL A   1      44.038  26.731  30.141  1.00  0.00     0.031 C 
ATOM     51  C   UNL A   1      42.862  29.565  35.387  1.00  0.00     0.029 A 
ATOM     52  C   UNL A   1      42.775  29.108  34.082  1.00  0.00     0.049 A 
ATOM     53  H   UNL A   1      41.286  29.500  32.637  1.00  0.00     0.167 HD
ATOM     54  C   UNL A   1      43.506  27.819  32.091  1.00  0.00     0.074 A 
ATOM     55  C   UNL A   1      44.415  26.930  31.395  1.00  0.00     0.031 C 
ATOM     56  C   UNL A   1      43.684  28.239  33.370  1.00  0.00     0.034 A 
BRANCH  43  57
ATOM     57  C   UNL A   1      39.209  32.027  35.409  1.00  0.00     0.023 A 
ATOM     58  C   UNL A   1      39.628  33.362  35.556  1.00  0.00     0.031 A 
ATOM     59  C   UNL A   1      38.294  31.519  36.347  1.00  0.00     0.131 A 
ATOM     60  C   UNL A   1      39.192  34.116  36.657  1.00  0.00     0.055 A 
ATOM     61  C   UNL A   1      37.799  32.301  37.393  1.00  0.00     0.041 A 
ATOM     62  F   UNL A   1      37.871  30.246  36.271  1.00  0.00    -0.206 F 
ATOM     63  C   UNL A   1      38.261  33.603  37.562  1.00  0.00     0.022 A 
BRANCH  60  64
ATOM     64  S   UNL A   1      39.973  35.723  36.967  1.00  0.00     0.124 S 
ATOM     65  O   UNL A   1      39.653  36.448  35.740  1.00  0.00    -0.237 OA
ATOM     66  O   UNL A   1      39.291  36.178  38.173  1.00  0.00    -0.237 OA
ATOM     67  O   UNL A   1      41.387  35.391  37.135  1.00  0.00    -0.744 OA
ENDBRANCH  60  64
ENDBRANCH  43  57
BRANCH  44  68
ATOM     68  C   UNL A   1      42.539  26.662  27.628  1.00  0.00     0.023 A 
ATOM     69  C   UNL A   1      42.329  25.279  27.505  1.00  0.00     0.031 A 
ATOM     70  C   UNL A   1      43.310  27.301  26.641  1.00  0.00     0.131 A 
ATOM     71  C   UNL A   1      42.925  24.571  26.450  1.00  0.00     0.055 A 
ATOM     72  C   UNL A   1      43.855  26.603  25.562  1.00  0.00     0.041 A 
ATOM     73  F   UNL A   1      43.537  28.623  26.706  1.00  0.00    -0.206 F 
ATOM     74  C   UNL A   1      43.675  25.226  25.471  1.00  0.00     0.022 A 
BRANCH  71  75
ATOM     75  S   UNL A   1      42.776  22.764  26.424  1.00  0.00     0.124 S 
ATOM     76  O   UNL A   1      44.032  22.353  27.041  1.00  0.00    -0.237 OA
ATOM     77  O   UNL A   1      41.570  22.548  27.216  1.00  0.00    -0.237 OA
ATOM     78  O   UNL A   1      42.648  22.454  25.001  1.00  0.00    -0.744 OA
ENDBRANCH  71  75
ENDBRANCH  44  68
BRANCH  56  79
ATOM     79  C   UNL A   1      44.895  27.709  34.100  1.00  0.00     0.023 A 
ATOM     80  C   UNL A   1      44.874  26.469  34.763  1.00  0.00     0.031 A 
ATOM     81  C   UNL A   1      46.076  28.470  34.161  1.00  0.00     0.131 A 
ATOM     82  C   UNL A   1      45.986  26.056  35.512  1.00  0.00     0.055 A 
ATOM     83  C   UNL A   1      47.202  28.024  34.853  1.00  0.00     0.041 A 
ATOM     84  F   UNL A   1      46.153  29.663  33.550  1.00  0.00    -0.206 F 
ATOM     85  C   UNL A   1      47.157  26.819  35.547  1.00  0.00     0.022 A 
BRANCH  82  86
ATOM     86  S   UNL A   1      45.845  24.561  36.528  1.00  0.00     0.124 S 
ATOM     87  O   UNL A   1      47.069  23.845  36.186  1.00  0.00    -0.237 OA
ATOM     88  O   UNL A   1      45.782  25.106  37.879  1.00  0.00    -0.237 OA
ATOM     89  O   UNL A   1      44.609  23.940  36.053  1.00  0.00    -0.744 OA
ENDBRANCH  82  86
ENDBRANCH  56  79
ENDBRANCH  30  31
ENDBRANCH  22  25
ENDBRANCH  20  21
ENDBRANCH   1  20
TORSDOF 16
ENDMDL
