MODEL 1
REMARK VINA RESULT:     -12.8      0.000      0.000
REMARK SMILES Cc1c(Cl)cc2c(c1C)O[C@H](C(F)(F)F)C(C(=O)NCCCCNC(=O)c1ccc(-c3c4nc(c(-c5cc(S(=O)(=O)[O-])ccc5F)c5ccc([nH]5)c(-c5cc(S(=O)(=O)[O-])ccc5F)c5nc(c(-c6cc(S(=O)(=O)[O-])ccc6F)c6ccc3[nH]6)C=C5)C=C4)cc1)=C2
REMARK SMILES IDX 22 1 21 2 20 3 19 4 17 5 18 6 16 8 1 9 2 10 3 11 8 12 4 13
REMARK SMILES IDX 5 14 7 15 9 16 6 17 10 18 90 19 11 20 12 21 13 22 14 23
REMARK SMILES IDX 15 24 23 25 24 26 25 27 26 29 27 30 28 31 89 32 29 33 88 34
REMARK SMILES IDX 30 35 31 36 32 37 82 38 33 39 87 40 81 41 83 42 34 43 86 44
REMARK SMILES IDX 80 45 79 46 35 48 67 49 47 50 66 51 48 52 51 53 65 54 84 55
REMARK SMILES IDX 49 56 50 57 64 59 85 60 52 61 36 62 37 63 45 64 38 65 44 66
REMARK SMILES IDX 46 67 43 68 39 69 40 70 41 71 42 72 68 73 69 74 77 75 70 76
REMARK SMILES IDX 76 77 78 78 75 79 71 80 72 81 73 82 74 83 53 84 54 85 62 86
REMARK SMILES IDX 55 87 61 88 63 89 60 90 56 91 57 92 58 93 59 94
REMARK H PARENT 19 7 24 28 83 47 51 58
REMARK Flexibility Score: inf
ROOT
ATOM      1  C   UNL A   1      32.716  28.900  23.806  1.00  0.00     0.023 C 
ENDROOT
BRANCH   1   2
ATOM      2  C   UNL A   1      31.204  28.671  23.729  1.00  0.00     0.023 C 
BRANCH   2   3
ATOM      3  C   UNL A   1      30.804  27.206  23.577  1.00  0.00     0.116 C 
BRANCH   3   4
ATOM      4  N   UNL A   1      30.252  26.666  24.808  1.00  0.00    -0.352 N 
ATOM      5  C   UNL A   1      30.488  25.604  25.613  1.00  0.00     0.251 C 
ATOM      6  O   UNL A   1      29.743  25.511  26.595  1.00  0.00    -0.270 OA
ATOM      7  H   UNL A   1      29.510  27.218  25.144  1.00  0.00     0.163 HD
BRANCH   5   8
ATOM      8  C   UNL A   1      31.550  24.578  25.400  1.00  0.00     0.067 C 
ATOM      9  C   UNL A   1      37.104  21.135  25.022  1.00  0.00     0.046 C 
ATOM     10  C   UNL A   1      35.992  22.136  25.216  1.00  0.00    -0.026 A 
ATOM     11  C   UNL A   1      36.255  23.478  25.561  1.00  0.00     0.045 A 
ATOM     12  C   UNL A   1      34.646  21.737  25.029  1.00  0.00    -0.004 A 
ATOM     13  Cl  UNL A   1      37.863  24.080  25.784  1.00  0.00    -0.084 Cl
ATOM     14  C   UNL A   1      35.215  24.397  25.742  1.00  0.00     0.032 A 
ATOM     15  C   UNL A   1      33.617  22.681  25.215  1.00  0.00     0.131 A 
ATOM     16  C   UNL A   1      34.254  20.336  24.627  1.00  0.00     0.049 C 
ATOM     17  C   UNL A   1      33.891  24.001  25.573  1.00  0.00     0.019 A 
ATOM     18  O   UNL A   1      32.329  22.236  25.080  1.00  0.00    -0.475 OA
ATOM     19  C   UNL A   1      32.791  24.933  25.787  1.00  0.00     0.025 C 
ATOM     20  C   UNL A   1      31.326  23.238  24.760  1.00  0.00     0.314 C 
BRANCH  20  21
ATOM     21  C   UNL A   1      31.167  23.327  23.231  1.00  0.00     0.429 C 
ATOM     22  F   UNL A   1      29.905  23.708  22.909  1.00  0.00    -0.167 F 
ATOM     23  F   UNL A   1      31.999  24.236  22.672  1.00  0.00    -0.167 F 
ATOM     24  F   UNL A   1      31.401  22.146  22.614  1.00  0.00    -0.167 F 
ENDBRANCH  20  21
ENDBRANCH   5   8
ENDBRANCH   3   4
ENDBRANCH   2   3
ENDBRANCH   1   2
BRANCH   1  25
ATOM     25  C   UNL A   1      33.251  29.298  25.182  1.00  0.00     0.116 C 
BRANCH  25  26
ATOM     26  N   UNL A   1      32.576  30.451  25.758  1.00  0.00    -0.352 N 
ATOM     27  C   UNL A   1      32.959  31.206  26.839  1.00  0.00     0.251 C 
ATOM     28  H   UNL A   1      31.739  30.724  25.316  1.00  0.00     0.163 HD
ATOM     29  O   UNL A   1      32.225  32.094  27.264  1.00  0.00    -0.269 OA
BRANCH  27  30
ATOM     30  C   UNL A   1      34.243  30.905  27.501  1.00  0.00     0.039 A 
ATOM     31  C   UNL A   1      35.156  31.943  27.705  1.00  0.00     0.014 A 
ATOM     32  C   UNL A   1      34.517  29.614  27.959  1.00  0.00     0.014 A 
ATOM     33  C   UNL A   1      36.321  31.698  28.432  1.00  0.00     0.010 A 
ATOM     34  C   UNL A   1      35.652  29.385  28.728  1.00  0.00     0.010 A 
ATOM     35  C   UNL A   1      36.561  30.427  28.975  1.00  0.00    -0.014 A 
BRANCH  35  36
ATOM     36  C   UNL A   1      37.770  30.147  29.785  1.00  0.00     0.031 A 
ATOM     37  C   UNL A   1      38.862  29.291  29.210  1.00  0.00     0.074 A 
ATOM     38  C   UNL A   1      37.858  30.612  31.046  1.00  0.00     0.049 A 
ATOM     39  N   UNL A   1      39.927  28.806  29.793  1.00  0.00    -0.248 NA
ATOM     40  C   UNL A   1      38.720  28.909  27.796  1.00  0.00     0.031 C 
ATOM     41  C   UNL A   1      36.859  31.449  31.712  1.00  0.00     0.029 A 
ATOM     42  N   UNL A   1      38.833  30.439  31.995  1.00  0.00    -0.354 N 
ATOM     43  C   UNL A   1      40.576  28.051  28.823  1.00  0.00     0.074 A 
ATOM     44  C   UNL A   1      39.759  28.105  27.630  1.00  0.00     0.031 C 
ATOM     45  C   UNL A   1      37.285  31.737  32.953  1.00  0.00     0.029 A 
ATOM     46  C   UNL A   1      38.561  31.068  33.187  1.00  0.00     0.049 A 
ATOM     47  H   UNL A   1      39.651  29.914  31.838  1.00  0.00     0.167 HD
ATOM     48  C   UNL A   1      41.754  27.388  28.916  1.00  0.00     0.034 A 
ATOM     49  C   UNL A   1      39.257  31.091  34.340  1.00  0.00     0.034 A 
ATOM     50  C   UNL A   1      42.565  27.355  30.106  1.00  0.00     0.049 A 
ATOM     51  C   UNL A   1      40.547  30.320  34.429  1.00  0.00     0.074 A 
ATOM     52  C   UNL A   1      43.780  26.723  30.304  1.00  0.00     0.029 A 
ATOM     53  N   UNL A   1      42.248  27.991  31.298  1.00  0.00    -0.354 N 
ATOM     54  N   UNL A   1      41.130  29.580  33.515  1.00  0.00    -0.248 NA
ATOM     55  C   UNL A   1      41.268  30.385  35.707  1.00  0.00     0.031 C 
ATOM     56  C   UNL A   1      44.176  26.940  31.629  1.00  0.00     0.029 A 
ATOM     57  C   UNL A   1      43.237  27.756  32.240  1.00  0.00     0.049 A 
ATOM     58  H   UNL A   1      41.438  28.529  31.453  1.00  0.00     0.167 HD
ATOM     59  C   UNL A   1      42.296  29.103  34.103  1.00  0.00     0.074 A 
ATOM     60  C   UNL A   1      42.339  29.647  35.446  1.00  0.00     0.031 C 
ATOM     61  C   UNL A   1      43.249  28.289  33.581  1.00  0.00     0.034 A 
BRANCH  48  62
ATOM     62  C   UNL A   1      42.214  26.629  27.699  1.00  0.00     0.023 A 
ATOM     63  C   UNL A   1      41.929  25.263  27.536  1.00  0.00     0.031 A 
ATOM     64  C   UNL A   1      42.964  27.273  26.701  1.00  0.00     0.131 A 
ATOM     65  C   UNL A   1      42.441  24.570  26.431  1.00  0.00     0.055 A 
ATOM     66  C   UNL A   1      43.415  26.593  25.568  1.00  0.00     0.041 A 
ATOM     67  F   UNL A   1      43.284  28.572  26.817  1.00  0.00    -0.206 F 
ATOM     68  C   UNL A   1      43.162  25.230  25.433  1.00  0.00     0.022 A 
BRANCH  65  69
ATOM     69  S   UNL A   1      42.236  22.770  26.363  1.00  0.00     0.124 S 
ATOM     70  O   UNL A   1      43.151  22.331  27.412  1.00  0.00    -0.237 OA
ATOM     71  O   UNL A   1      40.815  22.601  26.641  1.00  0.00    -0.237 OA
ATOM     72  O   UNL A   1      42.648  22.430  25.002  1.00  0.00    -0.744 OA
ENDBRANCH  65  69
ENDBRANCH  48  62
BRANCH  49  73
ATOM     73  C   UNL A   1      38.746  31.857  35.508  1.00  0.00     0.023 A 
ATOM     74  C   UNL A   1      38.161  31.195  36.599  1.00  0.00     0.031 A 
ATOM     75  C   UNL A   1      38.825  33.260  35.547  1.00  0.00     0.131 A 
ATOM     76  C   UNL A   1      37.653  31.938  37.675  1.00  0.00     0.055 A 
ATOM     77  C   UNL A   1      38.349  33.993  36.635  1.00  0.00     0.041 A 
ATOM     78  F   UNL A   1      39.386  33.935  34.531  1.00  0.00    -0.206 F 
ATOM     79  C   UNL A   1      37.752  33.332  37.705  1.00  0.00     0.022 A 
BRANCH  76  80
ATOM     80  S   UNL A   1      36.835  31.056  39.032  1.00  0.00     0.124 S 
ATOM     81  O   UNL A   1      35.590  31.802  39.163  1.00  0.00    -0.237 OA
ATOM     82  O   UNL A   1      36.721  29.704  38.495  1.00  0.00    -0.237 OA
ATOM     83  O   UNL A   1      37.772  31.202  40.145  1.00  0.00    -0.744 OA
ENDBRANCH  76  80
ENDBRANCH  49  73
BRANCH  61  84
ATOM     84  C   UNL A   1      44.426  27.964  34.460  1.00  0.00     0.023 A 
ATOM     85  C   UNL A   1      44.439  26.818  35.272  1.00  0.00     0.031 A 
ATOM     86  C   UNL A   1      45.551  28.806  34.477  1.00  0.00     0.131 A 
ATOM     87  C   UNL A   1      45.541  26.565  36.102  1.00  0.00     0.055 A 
ATOM     88  C   UNL A   1      46.664  28.525  35.268  1.00  0.00     0.041 A 
ATOM     89  F   UNL A   1      45.585  29.913  33.718  1.00  0.00    -0.206 F 
ATOM     90  C   UNL A   1      46.660  27.403  36.093  1.00  0.00     0.022 A 
BRANCH  87  91
ATOM     91  S   UNL A   1      45.472  25.152  37.236  1.00  0.00     0.124 S 
ATOM     92  O   UNL A   1      45.289  25.810  38.526  1.00  0.00    -0.237 OA
ATOM     93  O   UNL A   1      44.326  24.402  36.735  1.00  0.00    -0.237 OA
ATOM     94  O   UNL A   1      46.767  24.500  37.050  1.00  0.00    -0.744 OA
ENDBRANCH  87  91
ENDBRANCH  61  84
ENDBRANCH  35  36
ENDBRANCH  27  30
ENDBRANCH  25  26
ENDBRANCH   1  25
TORSDOF 15
ENDMDL
MODEL 2
REMARK VINA RESULT:     -12.6      5.188     10.208
REMARK SMILES Cc1c(Cl)cc2c(c1C)O[C@H](C(F)(F)F)C(C(=O)NCCCCNC(=O)c1ccc(-c3c4nc(c(-c5cc(S(=O)(=O)[O-])ccc5F)c5ccc([nH]5)c(-c5cc(S(=O)(=O)[O-])ccc5F)c5nc(c(-c6cc(S(=O)(=O)[O-])ccc6F)c6ccc3[nH]6)C=C5)C=C4)cc1)=C2
REMARK SMILES IDX 22 1 21 2 20 3 19 4 17 5 18 6 16 8 1 9 2 10 3 11 8 12 4 13
REMARK SMILES IDX 5 14 7 15 9 16 6 17 10 18 90 19 11 20 12 21 13 22 14 23
REMARK SMILES IDX 15 24 23 25 24 26 25 27 26 29 27 30 28 31 89 32 29 33 88 34
REMARK SMILES IDX 30 35 31 36 32 37 82 38 33 39 87 40 81 41 83 42 34 43 86 44
REMARK SMILES IDX 80 45 79 46 35 48 67 49 47 50 66 51 48 52 51 53 65 54 84 55
REMARK SMILES IDX 49 56 50 57 64 59 85 60 52 61 36 62 37 63 45 64 38 65 44 66
REMARK SMILES IDX 46 67 43 68 39 69 40 70 41 71 42 72 68 73 69 74 77 75 70 76
REMARK SMILES IDX 76 77 78 78 75 79 71 80 72 81 73 82 74 83 53 84 54 85 62 86
REMARK SMILES IDX 55 87 61 88 63 89 60 90 56 91 57 92 58 93 59 94
REMARK H PARENT 19 7 24 28 83 47 51 58
REMARK Flexibility Score: inf
ROOT
ATOM      1  C   UNL A   1      35.565  22.295  24.453  1.00  0.00     0.023 C 
ENDROOT
BRANCH   1   2
ATOM      2  C   UNL A   1      34.265  21.491  24.545  1.00  0.00     0.023 C 
BRANCH   2   3
ATOM      3  C   UNL A   1      33.031  22.247  24.061  1.00  0.00     0.116 C 
BRANCH   3   4
ATOM      4  N   UNL A   1      33.229  22.811  22.736  1.00  0.00    -0.352 N 
ATOM      5  C   UNL A   1      33.114  24.027  22.153  1.00  0.00     0.251 C 
ATOM      6  O   UNL A   1      33.380  24.061  20.947  1.00  0.00    -0.270 OA
ATOM      7  H   UNL A   1      33.525  22.127  22.093  1.00  0.00     0.163 HD
BRANCH   5   8
ATOM      8  C   UNL A   1      32.701  25.282  22.848  1.00  0.00     0.067 C 
ATOM      9  C   UNL A   1      32.239  30.674  26.529  1.00  0.00     0.046 C 
ATOM     10  C   UNL A   1      32.605  29.405  25.801  1.00  0.00    -0.026 A 
ATOM     11  C   UNL A   1      33.757  28.664  26.137  1.00  0.00     0.045 A 
ATOM     12  C   UNL A   1      31.769  28.922  24.765  1.00  0.00    -0.004 A 
ATOM     13  Cl  UNL A   1      34.833  29.147  27.405  1.00  0.00    -0.084 Cl
ATOM     14  C   UNL A   1      34.090  27.490  25.451  1.00  0.00     0.032 A 
ATOM     15  C   UNL A   1      32.123  27.736  24.091  1.00  0.00     0.131 A 
ATOM     16  C   UNL A   1      30.495  29.617  24.347  1.00  0.00     0.049 C 
ATOM     17  C   UNL A   1      33.275  27.023  24.423  1.00  0.00     0.019 A 
ATOM     18  O   UNL A   1      31.315  27.339  23.059  1.00  0.00    -0.475 OA
ATOM     19  C   UNL A   1      33.618  25.820  23.675  1.00  0.00     0.025 C 
ATOM     20  C   UNL A   1      31.352  25.927  22.714  1.00  0.00     0.314 C 
BRANCH  20  21
ATOM     21  C   UNL A   1      30.254  25.185  23.498  1.00  0.00     0.429 C 
ATOM     22  F   UNL A   1      29.111  25.915  23.517  1.00  0.00    -0.167 F 
ATOM     23  F   UNL A   1      29.939  23.989  22.949  1.00  0.00    -0.167 F 
ATOM     24  F   UNL A   1      30.602  24.949  24.784  1.00  0.00    -0.167 F 
ENDBRANCH  20  21
ENDBRANCH   5   8
ENDBRANCH   3   4
ENDBRANCH   2   3
ENDBRANCH   1   2
BRANCH   1  25
ATOM     25  C   UNL A   1      36.467  22.227  25.687  1.00  0.00     0.116 C 
BRANCH  25  26
ATOM     26  N   UNL A   1      37.391  21.103  25.672  1.00  0.00    -0.352 N 
ATOM     27  C   UNL A   1      38.731  21.102  25.971  1.00  0.00     0.251 C 
ATOM     28  H   UNL A   1      37.007  20.234  25.414  1.00  0.00     0.163 HD
ATOM     29  O   UNL A   1      39.399  20.083  25.814  1.00  0.00    -0.269 OA
BRANCH  27  30
ATOM     30  C   UNL A   1      39.358  22.351  26.443  1.00  0.00     0.039 A 
ATOM     31  C   UNL A   1      40.380  22.277  27.392  1.00  0.00     0.014 A 
ATOM     32  C   UNL A   1      38.968  23.583  25.910  1.00  0.00     0.014 A 
ATOM     33  C   UNL A   1      41.060  23.438  27.761  1.00  0.00     0.010 A 
ATOM     34  C   UNL A   1      39.682  24.730  26.239  1.00  0.00     0.010 A 
ATOM     35  C   UNL A   1      40.738  24.666  27.163  1.00  0.00    -0.014 A 
BRANCH  35  36
ATOM     36  C   UNL A   1      41.470  25.908  27.505  1.00  0.00     0.031 A 
ATOM     37  C   UNL A   1      40.799  26.949  28.355  1.00  0.00     0.074 A 
ATOM     38  C   UNL A   1      42.702  26.122  27.007  1.00  0.00     0.049 A 
ATOM     39  N   UNL A   1      41.198  28.159  28.649  1.00  0.00    -0.248 NA
ATOM     40  C   UNL A   1      39.494  26.586  28.928  1.00  0.00     0.031 C 
ATOM     41  C   UNL A   1      43.452  25.186  26.167  1.00  0.00     0.029 A 
ATOM     42  N   UNL A   1      43.540  27.201  27.130  1.00  0.00    -0.354 N 
ATOM     43  C   UNL A   1      40.188  28.708  29.430  1.00  0.00     0.074 A 
ATOM     44  C   UNL A   1      39.139  27.715  29.523  1.00  0.00     0.031 C 
ATOM     45  C   UNL A   1      44.647  25.721  25.872  1.00  0.00     0.029 A 
ATOM     46  C   UNL A   1      44.732  27.054  26.460  1.00  0.00     0.049 A 
ATOM     47  H   UNL A   1      43.311  28.005  27.650  1.00  0.00     0.167 HD
ATOM     48  C   UNL A   1      40.147  29.923  30.027  1.00  0.00     0.034 A 
ATOM     49  C   UNL A   1      45.768  27.904  26.326  1.00  0.00     0.034 A 
ATOM     50  C   UNL A   1      41.205  30.897  29.940  1.00  0.00     0.049 A 
ATOM     51  C   UNL A   1      45.686  29.262  26.974  1.00  0.00     0.074 A 
ATOM     52  C   UNL A   1      41.271  32.154  30.516  1.00  0.00     0.029 A 
ATOM     53  N   UNL A   1      42.389  30.719  29.237  1.00  0.00    -0.354 N 
ATOM     54  N   UNL A   1      44.708  29.781  27.678  1.00  0.00    -0.248 NA
ATOM     55  C   UNL A   1      46.845  30.146  26.801  1.00  0.00     0.031 C 
ATOM     56  C   UNL A   1      42.475  32.752  30.126  1.00  0.00     0.029 A 
ATOM     57  C   UNL A   1      43.186  31.846  29.355  1.00  0.00     0.049 A 
ATOM     58  H   UNL A   1      42.628  29.910  28.729  1.00  0.00     0.167 HD
ATOM     59  C   UNL A   1      45.142  31.050  28.047  1.00  0.00     0.074 A 
ATOM     60  C   UNL A   1      46.473  31.212  27.496  1.00  0.00     0.031 C 
ATOM     61  C   UNL A   1      44.500  31.997  28.778  1.00  0.00     0.034 A 
BRANCH  48  62
ATOM     62  C   UNL A   1      38.905  30.265  30.808  1.00  0.00     0.023 A 
ATOM     63  C   UNL A   1      37.881  31.048  30.249  1.00  0.00     0.031 A 
ATOM     64  C   UNL A   1      38.753  29.822  32.133  1.00  0.00     0.131 A 
ATOM     65  C   UNL A   1      36.777  31.414  31.031  1.00  0.00     0.055 A 
ATOM     66  C   UNL A   1      37.619  30.133  32.885  1.00  0.00     0.041 A 
ATOM     67  F   UNL A   1      39.711  29.089  32.723  1.00  0.00    -0.206 F 
ATOM     68  C   UNL A   1      36.627  30.942  32.338  1.00  0.00     0.022 A 
BRANCH  65  69
ATOM     69  S   UNL A   1      35.583  32.597  30.350  1.00  0.00     0.124 S 
ATOM     70  O   UNL A   1      36.279  33.864  30.554  1.00  0.00    -0.237 OA
ATOM     71  O   UNL A   1      35.451  32.155  28.967  1.00  0.00    -0.237 OA
ATOM     72  O   UNL A   1      34.397  32.402  31.181  1.00  0.00    -0.744 OA
ENDBRANCH  65  69
ENDBRANCH  48  62
BRANCH  49  73
ATOM     73  C   UNL A   1      46.965  27.508  25.538  1.00  0.00     0.023 A 
ATOM     74  C   UNL A   1      47.073  27.846  24.180  1.00  0.00     0.031 A 
ATOM     75  C   UNL A   1      48.012  26.779  26.127  1.00  0.00     0.131 A 
ATOM     76  C   UNL A   1      48.195  27.431  23.446  1.00  0.00     0.055 A 
ATOM     77  C   UNL A   1      49.142  26.398  25.401  1.00  0.00     0.041 A 
ATOM     78  F   UNL A   1      47.958  26.442  27.425  1.00  0.00    -0.206 F 
ATOM     79  C   UNL A   1      49.235  26.719  24.049  1.00  0.00     0.022 A 
BRANCH  76  80
ATOM     80  S   UNL A   1      48.267  27.819  21.675  1.00  0.00     0.124 S 
ATOM     81  O   UNL A   1      48.575  26.515  21.099  1.00  0.00    -0.237 OA
ATOM     82  O   UNL A   1      46.926  28.334  21.420  1.00  0.00    -0.237 OA
ATOM     83  O   UNL A   1      49.338  28.810  21.588  1.00  0.00    -0.744 OA
ENDBRANCH  76  80
ENDBRANCH  49  73
BRANCH  61  84
ATOM     84  C   UNL A   1      45.244  33.278  29.040  1.00  0.00     0.023 A 
ATOM     85  C   UNL A   1      45.167  34.365  28.154  1.00  0.00     0.031 A 
ATOM     86  C   UNL A   1      46.031  33.415  30.197  1.00  0.00     0.131 A 
ATOM     87  C   UNL A   1      45.901  35.531  28.417  1.00  0.00     0.055 A 
ATOM     88  C   UNL A   1      46.721  34.594  30.477  1.00  0.00     0.041 A 
ATOM     89  F   UNL A   1      46.136  32.404  31.074  1.00  0.00    -0.206 F 
ATOM     90  C   UNL A   1      46.664  35.657  29.580  1.00  0.00     0.022 A 
BRANCH  87  91
ATOM     91  S   UNL A   1      45.887  36.864  27.188  1.00  0.00     0.124 S 
ATOM     92  O   UNL A   1      44.469  37.206  27.130  1.00  0.00    -0.237 OA
ATOM     93  O   UNL A   1      46.759  37.862  27.797  1.00  0.00    -0.237 OA
ATOM     94  O   UNL A   1      46.421  36.227  25.985  1.00  0.00    -0.744 OA
ENDBRANCH  87  91
ENDBRANCH  61  84
ENDBRANCH  35  36
ENDBRANCH  27  30
ENDBRANCH  25  26
ENDBRANCH   1  25
TORSDOF 15
ENDMDL
MODEL 3
REMARK VINA RESULT:     -12.4      1.469      1.924
REMARK SMILES Cc1c(Cl)cc2c(c1C)O[C@H](C(F)(F)F)C(C(=O)NCCCCNC(=O)c1ccc(-c3c4nc(c(-c5cc(S(=O)(=O)[O-])ccc5F)c5ccc([nH]5)c(-c5cc(S(=O)(=O)[O-])ccc5F)c5nc(c(-c6cc(S(=O)(=O)[O-])ccc6F)c6ccc3[nH]6)C=C5)C=C4)cc1)=C2
REMARK SMILES IDX 22 1 21 2 20 3 19 4 17 5 18 6 16 8 1 9 2 10 3 11 8 12 4 13
REMARK SMILES IDX 5 14 7 15 9 16 6 17 10 18 90 19 11 20 12 21 13 22 14 23
REMARK SMILES IDX 15 24 23 25 24 26 25 27 26 29 27 30 28 31 89 32 29 33 88 34
REMARK SMILES IDX 30 35 31 36 32 37 82 38 33 39 87 40 81 41 83 42 34 43 86 44
REMARK SMILES IDX 80 45 79 46 35 48 67 49 47 50 66 51 48 52 51 53 65 54 84 55
REMARK SMILES IDX 49 56 50 57 64 59 85 60 52 61 36 62 37 63 45 64 38 65 44 66
REMARK SMILES IDX 46 67 43 68 39 69 40 70 41 71 42 72 68 73 69 74 77 75 70 76
REMARK SMILES IDX 76 77 78 78 75 79 71 80 72 81 73 82 74 83 53 84 54 85 62 86
REMARK SMILES IDX 55 87 61 88 63 89 60 90 56 91 57 92 58 93 59 94
REMARK H PARENT 19 7 24 28 83 47 51 58
REMARK Flexibility Score: inf
ROOT
ATOM      1  C   UNL A   1      32.924  28.998  23.772  1.00  0.00     0.023 C 
ENDROOT
BRANCH   1   2
ATOM      2  C   UNL A   1      33.906  28.074  23.045  1.00  0.00     0.023 C 
BRANCH   2   3
ATOM      3  C   UNL A   1      33.241  27.102  22.073  1.00  0.00     0.116 C 
BRANCH   3   4
ATOM      4  N   UNL A   1      32.002  26.565  22.610  1.00  0.00    -0.352 N 
ATOM      5  C   UNL A   1      31.611  25.445  23.261  1.00  0.00     0.251 C 
ATOM      6  O   UNL A   1      30.407  25.386  23.532  1.00  0.00    -0.270 OA
ATOM      7  H   UNL A   1      31.247  27.178  22.459  1.00  0.00     0.163 HD
BRANCH   5   8
ATOM      8  C   UNL A   1      32.508  24.320  23.657  1.00  0.00     0.067 C 
ATOM      9  C   UNL A   1      35.293  18.540  24.952  1.00  0.00     0.046 C 
ATOM     10  C   UNL A   1      34.427  19.713  24.568  1.00  0.00    -0.026 A 
ATOM     11  C   UNL A   1      33.067  19.552  24.232  1.00  0.00     0.045 A 
ATOM     12  C   UNL A   1      34.975  21.019  24.561  1.00  0.00    -0.004 A 
ATOM     13  Cl  UNL A   1      32.288  18.006  24.236  1.00  0.00    -0.084 Cl
ATOM     14  C   UNL A   1      32.274  20.648  23.873  1.00  0.00     0.032 A 
ATOM     15  C   UNL A   1      34.156  22.107  24.199  1.00  0.00     0.131 A 
ATOM     16  C   UNL A   1      36.408  21.310  24.936  1.00  0.00     0.049 C 
ATOM     17  C   UNL A   1      32.816  21.930  23.852  1.00  0.00     0.019 A 
ATOM     18  O   UNL A   1      34.744  23.343  24.151  1.00  0.00    -0.475 OA
ATOM     19  C   UNL A   1      32.018  23.082  23.452  1.00  0.00     0.025 C 
ATOM     20  C   UNL A   1      33.859  24.488  24.291  1.00  0.00     0.314 C 
BRANCH  20  21
ATOM     21  C   UNL A   1      33.776  24.886  25.776  1.00  0.00     0.429 C 
ATOM     22  F   UNL A   1      34.559  24.072  26.528  1.00  0.00    -0.167 F 
ATOM     23  F   UNL A   1      34.205  26.150  26.002  1.00  0.00    -0.167 F 
ATOM     24  F   UNL A   1      32.518  24.803  26.268  1.00  0.00    -0.167 F 
ENDBRANCH  20  21
ENDBRANCH   5   8
ENDBRANCH   3   4
ENDBRANCH   2   3
ENDBRANCH   1   2
BRANCH   1  25
ATOM     25  C   UNL A   1      33.216  29.227  25.256  1.00  0.00     0.116 C 
BRANCH  25  26
ATOM     26  N   UNL A   1      32.566  30.408  25.801  1.00  0.00    -0.352 N 
ATOM     27  C   UNL A   1      32.982  31.202  26.841  1.00  0.00     0.251 C 
ATOM     28  H   UNL A   1      31.720  30.672  25.370  1.00  0.00     0.163 HD
ATOM     29  O   UNL A   1      32.266  32.113  27.248  1.00  0.00    -0.269 OA
BRANCH  27  30
ATOM     30  C   UNL A   1      34.279  30.916  27.483  1.00  0.00     0.039 A 
ATOM     31  C   UNL A   1      35.178  31.966  27.686  1.00  0.00     0.014 A 
ATOM     32  C   UNL A   1      34.581  29.624  27.923  1.00  0.00     0.014 A 
ATOM     33  C   UNL A   1      36.357  31.733  28.395  1.00  0.00     0.010 A 
ATOM     34  C   UNL A   1      35.730  29.406  28.674  1.00  0.00     0.010 A 
ATOM     35  C   UNL A   1      36.625  30.460  28.921  1.00  0.00    -0.014 A 
BRANCH  35  36
ATOM     36  C   UNL A   1      37.849  30.192  29.712  1.00  0.00     0.031 A 
ATOM     37  C   UNL A   1      38.932  29.331  29.126  1.00  0.00     0.074 A 
ATOM     38  C   UNL A   1      37.959  30.671  30.965  1.00  0.00     0.049 A 
ATOM     39  N   UNL A   1      40.008  28.855  29.695  1.00  0.00    -0.248 NA
ATOM     40  C   UNL A   1      38.764  28.933  27.720  1.00  0.00     0.031 C 
ATOM     41  C   UNL A   1      36.971  31.514  31.640  1.00  0.00     0.029 A 
ATOM     42  N   UNL A   1      38.951  30.511  31.898  1.00  0.00    -0.354 N 
ATOM     43  C   UNL A   1      40.641  28.090  28.723  1.00  0.00     0.074 A 
ATOM     44  C   UNL A   1      39.802  28.129  27.543  1.00  0.00     0.031 C 
ATOM     45  C   UNL A   1      37.418  31.817  32.870  1.00  0.00     0.029 A 
ATOM     46  C   UNL A   1      38.700  31.154  33.088  1.00  0.00     0.049 A 
ATOM     47  H   UNL A   1      39.767  29.986  31.733  1.00  0.00     0.167 HD
ATOM     48  C   UNL A   1      41.821  27.430  28.801  1.00  0.00     0.034 A 
ATOM     49  C   UNL A   1      39.417  31.191  34.227  1.00  0.00     0.034 A 
ATOM     50  C   UNL A   1      42.655  27.413  29.976  1.00  0.00     0.049 A 
ATOM     51  C   UNL A   1      40.710  30.423  34.301  1.00  0.00     0.074 A 
ATOM     52  C   UNL A   1      43.875  26.785  30.159  1.00  0.00     0.029 A 
ATOM     53  N   UNL A   1      42.358  28.061  31.167  1.00  0.00    -0.354 N 
ATOM     54  N   UNL A   1      41.278  29.674  33.385  1.00  0.00    -0.248 NA
ATOM     55  C   UNL A   1      41.454  30.503  35.565  1.00  0.00     0.031 C 
ATOM     56  C   UNL A   1      44.294  27.018  31.474  1.00  0.00     0.029 A 
ATOM     57  C   UNL A   1      43.364  27.839  32.093  1.00  0.00     0.049 A 
ATOM     58  H   UNL A   1      41.550  28.600  31.331  1.00  0.00     0.167 HD
ATOM     59  C   UNL A   1      42.456  29.205  33.958  1.00  0.00     0.074 A 
ATOM     60  C   UNL A   1      42.521  29.765  35.293  1.00  0.00     0.031 C 
ATOM     61  C   UNL A   1      43.400  28.387  33.427  1.00  0.00     0.034 A 
BRANCH  48  62
ATOM     62  C   UNL A   1      42.261  26.659  27.584  1.00  0.00     0.023 A 
ATOM     63  C   UNL A   1      41.936  25.302  27.421  1.00  0.00     0.031 A 
ATOM     64  C   UNL A   1      43.032  27.281  26.588  1.00  0.00     0.131 A 
ATOM     65  C   UNL A   1      42.429  24.594  26.316  1.00  0.00     0.055 A 
ATOM     66  C   UNL A   1      43.463  26.588  25.455  1.00  0.00     0.041 A 
ATOM     67  F   UNL A   1      43.389  28.570  26.705  1.00  0.00    -0.206 F 
ATOM     68  C   UNL A   1      43.171  25.233  25.320  1.00  0.00     0.022 A 
BRANCH  65  69
ATOM     69  S   UNL A   1      42.171  22.801  26.247  1.00  0.00     0.124 S 
ATOM     70  O   UNL A   1      42.938  22.350  27.404  1.00  0.00    -0.237 OA
ATOM     71  O   UNL A   1      40.721  22.683  26.355  1.00  0.00    -0.237 OA
ATOM     72  O   UNL A   1      42.730  22.425  24.949  1.00  0.00    -0.744 OA
ENDBRANCH  65  69
ENDBRANCH  48  62
BRANCH  49  73
ATOM     73  C   UNL A   1      38.926  31.969  35.396  1.00  0.00     0.023 A 
ATOM     74  C   UNL A   1      38.291  31.325  36.470  1.00  0.00     0.031 A 
ATOM     75  C   UNL A   1      39.075  33.365  35.452  1.00  0.00     0.131 A 
ATOM     76  C   UNL A   1      37.803  32.082  37.546  1.00  0.00     0.055 A 
ATOM     77  C   UNL A   1      38.618  34.110  36.541  1.00  0.00     0.041 A 
ATOM     78  F   UNL A   1      39.684  34.023  34.453  1.00  0.00    -0.206 F 
ATOM     79  C   UNL A   1      37.972  33.468  37.594  1.00  0.00     0.022 A 
BRANCH  76  80
ATOM     80  S   UNL A   1      36.920  31.227  38.881  1.00  0.00     0.124 S 
ATOM     81  O   UNL A   1      35.689  32.003  38.965  1.00  0.00    -0.237 OA
ATOM     82  O   UNL A   1      36.794  29.875  38.347  1.00  0.00    -0.237 OA
ATOM     83  O   UNL A   1      37.823  31.360  40.023  1.00  0.00    -0.744 OA
ENDBRANCH  76  80
ENDBRANCH  49  73
BRANCH  61  84
ATOM     84  C   UNL A   1      44.594  28.074  34.288  1.00  0.00     0.023 A 
ATOM     85  C   UNL A   1      44.633  26.926  35.097  1.00  0.00     0.031 A 
ATOM     86  C   UNL A   1      45.708  28.930  34.291  1.00  0.00     0.131 A 
ATOM     87  C   UNL A   1      45.750  26.685  35.910  1.00  0.00     0.055 A 
ATOM     88  C   UNL A   1      46.836  28.661  35.065  1.00  0.00     0.041 A 
ATOM     89  F   UNL A   1      45.718  30.040  33.534  1.00  0.00    -0.206 F 
ATOM     90  C   UNL A   1      46.858  27.537  35.887  1.00  0.00     0.022 A 
BRANCH  87  91
ATOM     91  S   UNL A   1      45.715  25.268  37.041  1.00  0.00     0.124 S 
ATOM     92  O   UNL A   1      47.011  25.379  37.703  1.00  0.00    -0.237 OA
ATOM     93  O   UNL A   1      44.548  25.556  37.869  1.00  0.00    -0.237 OA
ATOM     94  O   UNL A   1      45.571  24.120  36.147  1.00  0.00    -0.744 OA
ENDBRANCH  87  91
ENDBRANCH  61  84
ENDBRANCH  35  36
ENDBRANCH  27  30
ENDBRANCH  25  26
ENDBRANCH   1  25
TORSDOF 15
ENDMDL
