MODEL 1
REMARK VINA RESULT:     -11.8      0.000      0.000
REMARK SMILES O=C(Cc1ccc(S(=O)(=O)N2CCNC(=O)C2)cc1)NCCCCNC(=O)c1ccc(-c2c3nc(c(-c4cc(S(=O)(=O)[O-])ccc4F)c4ccc([nH]4)c(-c4cc(S(=O)(=O)[O-])ccc4F)c4nc(c(-c5cc(S(=O)(=O)[O-])ccc5F)c5ccc2[nH]5)C=C4)C=C3)cc1
REMARK SMILES IDX 22 1 21 2 20 3 1 4 2 5 3 7 4 8 5 9 19 10 6 11 18 12 7 13
REMARK SMILES IDX 8 14 9 15 10 16 11 17 12 18 17 19 13 20 15 21 14 22 16 23
REMARK SMILES IDX 23 25 24 26 25 27 26 28 27 30 28 31 29 32 90 33 30 34 89 35
REMARK SMILES IDX 31 36 32 37 33 38 83 39 34 40 88 41 82 42 84 43 35 44 87 45
REMARK SMILES IDX 81 46 80 47 36 49 68 50 48 51 67 52 49 53 52 54 66 55 85 56
REMARK SMILES IDX 50 57 51 58 65 60 86 61 53 62 37 63 38 64 46 65 39 66 45 67
REMARK SMILES IDX 47 68 44 69 40 70 41 71 42 72 43 73 69 74 70 75 78 76 71 77
REMARK SMILES IDX 77 78 79 79 76 80 72 81 73 82 74 83 75 84 54 85 55 86 63 87
REMARK SMILES IDX 56 88 62 89 64 90 61 91 57 92 58 93 59 94 60 95
REMARK H PARENT 20 6 14 24 25 29 84 48 52 59
REMARK Flexibility Score: inf
ROOT
ATOM      1  C   UNL A   1      31.771  30.390  26.600  1.00  0.00     0.023 C 
ENDROOT
BRANCH   1   2
ATOM      2  C   UNL A   1      32.194  29.987  25.189  1.00  0.00     0.116 C 
BRANCH   2   3
ATOM      3  N   UNL A   1      31.649  28.706  24.780  1.00  0.00    -0.356 N 
ATOM      4  O   UNL A   1      32.333  28.862  22.590  1.00  0.00    -0.275 OA
ATOM      5  C   UNL A   1      31.856  28.201  23.507  1.00  0.00     0.224 C 
ATOM      6  H   UNL A   1      31.120  28.182  25.424  1.00  0.00     0.163 HD
BRANCH   5   7
ATOM      7  C   UNL A   1      31.513  26.718  23.357  1.00  0.00     0.135 C 
BRANCH   7   8
ATOM      8  C   UNL A   1      32.671  25.811  23.720  1.00  0.00    -0.039 A 
ATOM      9  C   UNL A   1      33.107  24.784  22.869  1.00  0.00     0.005 A 
ATOM     10  C   UNL A   1      33.301  25.950  24.958  1.00  0.00     0.005 A 
ATOM     11  C   UNL A   1      34.183  23.957  23.235  1.00  0.00     0.022 A 
ATOM     12  C   UNL A   1      34.360  25.131  25.318  1.00  0.00     0.022 A 
ATOM     13  C   UNL A   1      34.822  24.145  24.465  1.00  0.00     0.082 A 
BRANCH  13  14
ATOM     14  S   UNL A   1      36.193  23.098  24.906  1.00  0.00     0.243 S 
ATOM     15  O   UNL A   1      36.774  22.658  23.658  1.00  0.00    -0.207 OA
ATOM     16  O   UNL A   1      36.970  23.850  25.872  1.00  0.00    -0.207 OA
BRANCH  14  17
ATOM     17  N   UNL A   1      35.579  21.747  25.692  1.00  0.00    -0.187 NA
ATOM     18  C   UNL A   1      34.854  21.840  26.973  1.00  0.00     0.124 C 
ATOM     19  C   UNL A   1      35.401  20.461  24.978  1.00  0.00     0.202 C 
ATOM     20  C   UNL A   1      33.365  21.578  26.772  1.00  0.00     0.132 C 
ATOM     21  C   UNL A   1      33.967  19.920  25.001  1.00  0.00     0.235 C 
ATOM     22  N   UNL A   1      33.095  20.422  25.937  1.00  0.00    -0.354 N 
ATOM     23  O   UNL A   1      33.561  19.072  24.209  1.00  0.00    -0.274 OA
ATOM     24  H   UNL A   1      32.230  19.966  26.048  1.00  0.00     0.163 HD
ENDBRANCH  14  17
ENDBRANCH  13  14
ENDBRANCH   7   8
ENDBRANCH   5   7
ENDBRANCH   2   3
ENDBRANCH   1   2
BRANCH   1  25
ATOM     25  C   UNL A   1      31.602  31.895  26.836  1.00  0.00     0.023 C 
BRANCH  25  26
ATOM     26  C   UNL A   1      32.864  32.652  27.249  1.00  0.00     0.116 C 
BRANCH  26  27
ATOM     27  N   UNL A   1      32.591  34.020  27.660  1.00  0.00    -0.352 N 
ATOM     28  C   UNL A   1      33.142  34.768  28.676  1.00  0.00     0.251 C 
ATOM     29  H   UNL A   1      31.905  34.484  27.128  1.00  0.00     0.163 HD
ATOM     30  O   UNL A   1      32.637  35.852  28.961  1.00  0.00    -0.269 OA
BRANCH  28  31
ATOM     31  C   UNL A   1      34.312  34.274  29.441  1.00  0.00     0.039 A 
ATOM     32  C   UNL A   1      34.093  33.546  30.615  1.00  0.00     0.014 A 
ATOM     33  C   UNL A   1      35.620  34.536  29.026  1.00  0.00     0.014 A 
ATOM     34  C   UNL A   1      35.176  33.022  31.326  1.00  0.00     0.010 A 
ATOM     35  C   UNL A   1      36.697  33.950  29.694  1.00  0.00     0.010 A 
ATOM     36  C   UNL A   1      36.489  33.184  30.850  1.00  0.00    -0.014 A 
BRANCH  36  37
ATOM     37  C   UNL A   1      37.645  32.547  31.540  1.00  0.00     0.031 A 
ATOM     38  C   UNL A   1      38.378  31.398  30.900  1.00  0.00     0.074 A 
ATOM     39  C   UNL A   1      38.003  32.969  32.771  1.00  0.00     0.049 A 
ATOM     40  N   UNL A   1      39.361  30.674  31.373  1.00  0.00    -0.248 NA
ATOM     41  C   UNL A   1      37.931  30.997  29.557  1.00  0.00     0.031 C 
ATOM     42  C   UNL A   1      37.357  34.055  33.511  1.00  0.00     0.029 A 
ATOM     43  N   UNL A   1      38.991  32.534  33.620  1.00  0.00    -0.354 N 
ATOM     44  C   UNL A   1      39.643  29.726  30.394  1.00  0.00     0.074 A 
ATOM     45  C   UNL A   1      38.688  29.935  29.326  1.00  0.00     0.031 C 
ATOM     46  C   UNL A   1      37.980  34.218  34.688  1.00  0.00     0.029 A 
ATOM     47  C   UNL A   1      39.033  33.215  34.817  1.00  0.00     0.049 A 
ATOM     48  H   UNL A   1      39.612  31.804  33.396  1.00  0.00     0.167 HD
ATOM     49  C   UNL A   1      40.618  28.782  30.380  1.00  0.00     0.034 A 
ATOM     50  C   UNL A   1      39.816  33.041  35.902  1.00  0.00     0.034 A 
ATOM     51  C   UNL A   1      41.564  28.589  31.453  1.00  0.00     0.049 A 
ATOM     52  C   UNL A   1      40.859  31.950  35.882  1.00  0.00     0.074 A 
ATOM     53  C   UNL A   1      42.622  27.697  31.517  1.00  0.00     0.029 A 
ATOM     54  N   UNL A   1      41.562  29.284  32.657  1.00  0.00    -0.354 N 
ATOM     55  N   UNL A   1      41.144  31.096  34.927  1.00  0.00    -0.248 NA
ATOM     56  C   UNL A   1      41.690  31.808  37.084  1.00  0.00     0.031 C 
ATOM     57  C   UNL A   1      43.203  27.793  32.785  1.00  0.00     0.029 A 
ATOM     58  C   UNL A   1      42.572  28.812  33.482  1.00  0.00     0.049 A 
ATOM     59  H   UNL A   1      40.934  30.005  32.890  1.00  0.00     0.167 HD
ATOM     60  C   UNL A   1      42.214  30.341  35.401  1.00  0.00     0.074 A 
ATOM     61  C   UNL A   1      42.530  30.852  36.719  1.00  0.00     0.031 C 
ATOM     62  C   UNL A   1      42.878  29.320  34.799  1.00  0.00     0.034 A 
BRANCH  49  63
ATOM     63  C   UNL A   1      40.688  27.865  29.181  1.00  0.00     0.023 A 
ATOM     64  C   UNL A   1      41.631  28.058  28.156  1.00  0.00     0.031 A 
ATOM     65  C   UNL A   1      39.794  26.787  29.056  1.00  0.00     0.131 A 
ATOM     66  C   UNL A   1      41.611  27.232  27.021  1.00  0.00     0.055 A 
ATOM     67  C   UNL A   1      39.836  25.916  27.966  1.00  0.00     0.041 A 
ATOM     68  F   UNL A   1      38.855  26.565  29.989  1.00  0.00    -0.206 F 
ATOM     69  C   UNL A   1      40.740  26.144  26.931  1.00  0.00     0.022 A 
BRANCH  66  70
ATOM     70  S   UNL A   1      42.639  27.691  25.598  1.00  0.00     0.124 S 
ATOM     71  O   UNL A   1      41.931  28.862  25.089  1.00  0.00    -0.237 OA
ATOM     72  O   UNL A   1      43.936  27.943  26.214  1.00  0.00    -0.237 OA
ATOM     73  O   UNL A   1      42.575  26.512  24.736  1.00  0.00    -0.744 OA
ENDBRANCH  66  70
ENDBRANCH  49  63
BRANCH  50  74
ATOM     74  C   UNL A   1      39.641  33.900  37.111  1.00  0.00     0.023 A 
ATOM     75  C   UNL A   1      38.997  33.412  38.259  1.00  0.00     0.031 A 
ATOM     76  C   UNL A   1      40.063  35.243  37.116  1.00  0.00     0.131 A 
ATOM     77  C   UNL A   1      38.741  34.272  39.339  1.00  0.00     0.055 A 
ATOM     78  C   UNL A   1      39.864  36.076  38.217  1.00  0.00     0.041 A 
ATOM     79  F   UNL A   1      40.684  35.764  36.046  1.00  0.00    -0.206 F 
ATOM     80  C   UNL A   1      39.184  35.597  39.333  1.00  0.00     0.022 A 
BRANCH  77  81
ATOM     81  S   UNL A   1      37.721  33.664  40.710  1.00  0.00     0.124 S 
ATOM     82  O   UNL A   1      37.459  34.892  41.452  1.00  0.00    -0.237 OA
ATOM     83  O   UNL A   1      36.582  33.083  40.005  1.00  0.00    -0.237 OA
ATOM     84  O   UNL A   1      38.593  32.701  41.380  1.00  0.00    -0.744 OA
ENDBRANCH  77  81
ENDBRANCH  50  74
BRANCH  62  85
ATOM     85  C   UNL A   1      44.053  28.727  35.541  1.00  0.00     0.023 A 
ATOM     86  C   UNL A   1      43.901  27.667  36.452  1.00  0.00     0.031 A 
ATOM     87  C   UNL A   1      45.347  29.240  35.339  1.00  0.00     0.131 A 
ATOM     88  C   UNL A   1      45.012  27.195  37.169  1.00  0.00     0.055 A 
ATOM     89  C   UNL A   1      46.459  28.720  36.003  1.00  0.00     0.041 A 
ATOM     90  F   UNL A   1      45.553  30.258  34.486  1.00  0.00    -0.206 F 
ATOM     91  C   UNL A   1      46.292  27.702  36.934  1.00  0.00     0.022 A 
BRANCH  88  92
ATOM     92  S   UNL A   1      44.745  25.982  38.490  1.00  0.00     0.124 S 
ATOM     93  O   UNL A   1      44.101  24.887  37.771  1.00  0.00    -0.237 OA
ATOM     94  O   UNL A   1      46.103  25.725  38.958  1.00  0.00    -0.237 OA
ATOM     95  O   UNL A   1      43.886  26.690  39.439  1.00  0.00    -0.744 OA
ENDBRANCH  88  92
ENDBRANCH  62  85
ENDBRANCH  36  37
ENDBRANCH  28  31
ENDBRANCH  26  27
ENDBRANCH  25  26
ENDBRANCH   1  25
TORSDOF 17
ENDMDL
MODEL 2
REMARK VINA RESULT:     -11.8      1.217      1.825
REMARK SMILES O=C(Cc1ccc(S(=O)(=O)N2CCNC(=O)C2)cc1)NCCCCNC(=O)c1ccc(-c2c3nc(c(-c4cc(S(=O)(=O)[O-])ccc4F)c4ccc([nH]4)c(-c4cc(S(=O)(=O)[O-])ccc4F)c4nc(c(-c5cc(S(=O)(=O)[O-])ccc5F)c5ccc2[nH]5)C=C4)C=C3)cc1
REMARK SMILES IDX 22 1 21 2 20 3 1 4 2 5 3 7 4 8 5 9 19 10 6 11 18 12 7 13
REMARK SMILES IDX 8 14 9 15 10 16 11 17 12 18 17 19 13 20 15 21 14 22 16 23
REMARK SMILES IDX 23 25 24 26 25 27 26 28 27 30 28 31 29 32 90 33 30 34 89 35
REMARK SMILES IDX 31 36 32 37 33 38 83 39 34 40 88 41 82 42 84 43 35 44 87 45
REMARK SMILES IDX 81 46 80 47 36 49 68 50 48 51 67 52 49 53 52 54 66 55 85 56
REMARK SMILES IDX 50 57 51 58 65 60 86 61 53 62 37 63 38 64 46 65 39 66 45 67
REMARK SMILES IDX 47 68 44 69 40 70 41 71 42 72 43 73 69 74 70 75 78 76 71 77
REMARK SMILES IDX 77 78 79 79 76 80 72 81 73 82 74 83 75 84 54 85 55 86 63 87
REMARK SMILES IDX 56 88 62 89 64 90 61 91 57 92 58 93 59 94 60 95
REMARK H PARENT 20 6 14 24 25 29 84 48 52 59
REMARK Flexibility Score: inf
ROOT
ATOM      1  C   UNL A   1      31.368  30.792  26.654  1.00  0.00     0.023 C 
ENDROOT
BRANCH   1   2
ATOM      2  C   UNL A   1      32.535  29.854  26.356  1.00  0.00     0.116 C 
BRANCH   2   3
ATOM      3  N   UNL A   1      32.111  28.592  25.778  1.00  0.00    -0.356 N 
ATOM      4  O   UNL A   1      31.322  27.699  27.745  1.00  0.00    -0.275 OA
ATOM      5  C   UNL A   1      31.437  27.640  26.525  1.00  0.00     0.224 C 
ATOM      6  H   UNL A   1      32.307  28.409  24.830  1.00  0.00     0.163 HD
BRANCH   5   7
ATOM      7  C   UNL A   1      30.775  26.542  25.691  1.00  0.00     0.135 C 
BRANCH   7   8
ATOM      8  C   UNL A   1      31.524  25.226  25.756  1.00  0.00    -0.039 A 
ATOM      9  C   UNL A   1      30.947  24.019  25.331  1.00  0.00     0.005 A 
ATOM     10  C   UNL A   1      32.808  25.184  26.302  1.00  0.00     0.005 A 
ATOM     11  C   UNL A   1      31.666  22.815  25.406  1.00  0.00     0.022 A 
ATOM     12  C   UNL A   1      33.515  23.994  26.378  1.00  0.00     0.022 A 
ATOM     13  C   UNL A   1      32.967  22.808  25.921  1.00  0.00     0.082 A 
BRANCH  13  14
ATOM     14  S   UNL A   1      33.870  21.275  25.995  1.00  0.00     0.243 S 
ATOM     15  O   UNL A   1      34.451  21.220  27.317  1.00  0.00    -0.207 OA
ATOM     16  O   UNL A   1      32.950  20.252  25.535  1.00  0.00    -0.207 OA
BRANCH  14  17
ATOM     17  N   UNL A   1      35.126  21.362  24.884  1.00  0.00    -0.187 NA
ATOM     18  C   UNL A   1      35.117  22.311  23.756  1.00  0.00     0.124 C 
ATOM     19  C   UNL A   1      36.453  20.774  25.181  1.00  0.00     0.202 C 
ATOM     20  C   UNL A   1      36.126  23.433  23.984  1.00  0.00     0.132 C 
ATOM     21  C   UNL A   1      37.616  21.770  25.108  1.00  0.00     0.235 C 
ATOM     22  N   UNL A   1      37.417  22.956  24.443  1.00  0.00    -0.354 N 
ATOM     23  O   UNL A   1      38.708  21.561  25.631  1.00  0.00    -0.274 OA
ATOM     24  H   UNL A   1      38.205  23.520  24.266  1.00  0.00     0.163 HD
ENDBRANCH  14  17
ENDBRANCH  13  14
ENDBRANCH   7   8
ENDBRANCH   5   7
ENDBRANCH   2   3
ENDBRANCH   1   2
BRANCH   1  25
ATOM     25  C   UNL A   1      31.663  32.288  26.494  1.00  0.00     0.023 C 
BRANCH  25  26
ATOM     26  C   UNL A   1      32.772  32.849  27.385  1.00  0.00     0.116 C 
BRANCH  26  27
ATOM     27  N   UNL A   1      32.529  34.225  27.788  1.00  0.00    -0.352 N 
ATOM     28  C   UNL A   1      33.115  34.975  28.782  1.00  0.00     0.251 C 
ATOM     29  H   UNL A   1      31.837  34.694  27.267  1.00  0.00     0.163 HD
ATOM     30  O   UNL A   1      32.632  36.069  29.067  1.00  0.00    -0.269 OA
BRANCH  28  31
ATOM     31  C   UNL A   1      34.295  34.471  29.524  1.00  0.00     0.039 A 
ATOM     32  C   UNL A   1      34.101  33.864  30.770  1.00  0.00     0.014 A 
ATOM     33  C   UNL A   1      35.590  34.609  29.018  1.00  0.00     0.014 A 
ATOM     34  C   UNL A   1      35.191  33.332  31.466  1.00  0.00     0.010 A 
ATOM     35  C   UNL A   1      36.666  34.011  29.677  1.00  0.00     0.010 A 
ATOM     36  C   UNL A   1      36.479  33.363  30.907  1.00  0.00    -0.014 A 
BRANCH  36  37
ATOM     37  C   UNL A   1      37.633  32.712  31.589  1.00  0.00     0.031 A 
ATOM     38  C   UNL A   1      38.348  31.556  30.943  1.00  0.00     0.074 A 
ATOM     39  C   UNL A   1      38.004  33.129  32.818  1.00  0.00     0.049 A 
ATOM     40  N   UNL A   1      39.326  30.821  31.409  1.00  0.00    -0.248 NA
ATOM     41  C   UNL A   1      37.888  31.162  29.602  1.00  0.00     0.031 C 
ATOM     42  C   UNL A   1      37.376  34.222  33.563  1.00  0.00     0.029 A 
ATOM     43  N   UNL A   1      38.993  32.682  33.661  1.00  0.00    -0.354 N 
ATOM     44  C   UNL A   1      39.591  29.870  30.426  1.00  0.00     0.074 A 
ATOM     45  C   UNL A   1      38.631  30.092  29.365  1.00  0.00     0.031 C 
ATOM     46  C   UNL A   1      38.008  34.376  34.737  1.00  0.00     0.029 A 
ATOM     47  C   UNL A   1      39.050  33.360  34.858  1.00  0.00     0.049 A 
ATOM     48  H   UNL A   1      39.604  31.945  33.431  1.00  0.00     0.167 HD
ATOM     49  C   UNL A   1      40.555  28.916  30.405  1.00  0.00     0.034 A 
ATOM     50  C   UNL A   1      39.838  33.176  35.937  1.00  0.00     0.034 A 
ATOM     51  C   UNL A   1      41.506  28.710  31.471  1.00  0.00     0.049 A 
ATOM     52  C   UNL A   1      40.868  32.074  35.909  1.00  0.00     0.074 A 
ATOM     53  C   UNL A   1      42.554  27.806  31.527  1.00  0.00     0.029 A 
ATOM     54  N   UNL A   1      41.520  29.403  32.676  1.00  0.00    -0.354 N 
ATOM     55  N   UNL A   1      41.138  31.218  34.951  1.00  0.00    -0.248 NA
ATOM     56  C   UNL A   1      41.706  31.920  37.105  1.00  0.00     0.031 C 
ATOM     57  C   UNL A   1      43.145  27.894  32.792  1.00  0.00     0.029 A 
ATOM     58  C   UNL A   1      42.530  28.919  33.494  1.00  0.00     0.049 A 
ATOM     59  H   UNL A   1      40.902  30.131  32.914  1.00  0.00     0.167 HD
ATOM     60  C   UNL A   1      42.202  30.449  35.417  1.00  0.00     0.074 A 
ATOM     61  C   UNL A   1      42.533  30.955  36.733  1.00  0.00     0.031 C 
ATOM     62  C   UNL A   1      42.850  29.422  34.809  1.00  0.00     0.034 A 
BRANCH  49  63
ATOM     63  C   UNL A   1      40.607  28.000  29.204  1.00  0.00     0.023 A 
ATOM     64  C   UNL A   1      41.555  28.173  28.181  1.00  0.00     0.031 A 
ATOM     65  C   UNL A   1      39.689  26.942  29.076  1.00  0.00     0.131 A 
ATOM     66  C   UNL A   1      41.519  27.350  27.045  1.00  0.00     0.055 A 
ATOM     67  C   UNL A   1      39.714  26.072  27.984  1.00  0.00     0.041 A 
ATOM     68  F   UNL A   1      38.744  26.740  30.006  1.00  0.00    -0.206 F 
ATOM     69  C   UNL A   1      40.624  26.282  26.952  1.00  0.00     0.022 A 
BRANCH  66  70
ATOM     70  S   UNL A   1      42.559  27.788  25.624  1.00  0.00     0.124 S 
ATOM     71  O   UNL A   1      41.833  28.926  25.067  1.00  0.00    -0.237 OA
ATOM     72  O   UNL A   1      43.840  28.090  26.253  1.00  0.00    -0.237 OA
ATOM     73  O   UNL A   1      42.538  26.582  24.799  1.00  0.00    -0.744 OA
ENDBRANCH  66  70
ENDBRANCH  49  63
BRANCH  50  74
ATOM     74  C   UNL A   1      39.681  34.036  37.148  1.00  0.00     0.023 A 
ATOM     75  C   UNL A   1      39.047  33.551  38.303  1.00  0.00     0.031 A 
ATOM     76  C   UNL A   1      40.110  35.376  37.149  1.00  0.00     0.131 A 
ATOM     77  C   UNL A   1      38.808  34.412  39.386  1.00  0.00     0.055 A 
ATOM     78  C   UNL A   1      39.928  36.210  38.253  1.00  0.00     0.041 A 
ATOM     79  F   UNL A   1      40.723  35.895  36.072  1.00  0.00    -0.206 F 
ATOM     80  C   UNL A   1      39.258  35.734  39.375  1.00  0.00     0.022 A 
BRANCH  77  81
ATOM     81  S   UNL A   1      37.799  33.809  40.768  1.00  0.00     0.124 S 
ATOM     82  O   UNL A   1      38.734  32.924  41.453  1.00  0.00    -0.237 OA
ATOM     83  O   UNL A   1      37.462  35.049  41.461  1.00  0.00    -0.237 OA
ATOM     84  O   UNL A   1      36.679  33.144  40.105  1.00  0.00    -0.744 OA
ENDBRANCH  77  81
ENDBRANCH  50  74
BRANCH  62  85
ATOM     85  C   UNL A   1      44.024  28.815  35.543  1.00  0.00     0.023 A 
ATOM     86  C   UNL A   1      43.875  27.712  36.403  1.00  0.00     0.031 A 
ATOM     87  C   UNL A   1      45.311  29.357  35.385  1.00  0.00     0.131 A 
ATOM     88  C   UNL A   1      44.982  27.226  37.116  1.00  0.00     0.055 A 
ATOM     89  C   UNL A   1      46.422  28.826  36.043  1.00  0.00     0.041 A 
ATOM     90  F   UNL A   1      45.514  30.416  34.583  1.00  0.00    -0.206 F 
ATOM     91  C   UNL A   1      46.257  27.763  36.925  1.00  0.00     0.022 A 
BRANCH  88  92
ATOM     92  S   UNL A   1      44.715  25.949  38.376  1.00  0.00     0.124 S 
ATOM     93  O   UNL A   1      43.978  26.683  39.400  1.00  0.00    -0.237 OA
ATOM     94  O   UNL A   1      43.957  24.941  37.644  1.00  0.00    -0.237 OA
ATOM     95  O   UNL A   1      46.071  25.552  38.754  1.00  0.00    -0.744 OA
ENDBRANCH  88  92
ENDBRANCH  62  85
ENDBRANCH  36  37
ENDBRANCH  28  31
ENDBRANCH  26  27
ENDBRANCH  25  26
ENDBRANCH   1  25
TORSDOF 17
ENDMDL
MODEL 3
REMARK VINA RESULT:     -11.8      1.794      2.226
REMARK SMILES O=C(Cc1ccc(S(=O)(=O)N2CCNC(=O)C2)cc1)NCCCCNC(=O)c1ccc(-c2c3nc(c(-c4cc(S(=O)(=O)[O-])ccc4F)c4ccc([nH]4)c(-c4cc(S(=O)(=O)[O-])ccc4F)c4nc(c(-c5cc(S(=O)(=O)[O-])ccc5F)c5ccc2[nH]5)C=C4)C=C3)cc1
REMARK SMILES IDX 22 1 21 2 20 3 1 4 2 5 3 7 4 8 5 9 19 10 6 11 18 12 7 13
REMARK SMILES IDX 8 14 9 15 10 16 11 17 12 18 17 19 13 20 15 21 14 22 16 23
REMARK SMILES IDX 23 25 24 26 25 27 26 28 27 30 28 31 29 32 90 33 30 34 89 35
REMARK SMILES IDX 31 36 32 37 33 38 83 39 34 40 88 41 82 42 84 43 35 44 87 45
REMARK SMILES IDX 81 46 80 47 36 49 68 50 48 51 67 52 49 53 52 54 66 55 85 56
REMARK SMILES IDX 50 57 51 58 65 60 86 61 53 62 37 63 38 64 46 65 39 66 45 67
REMARK SMILES IDX 47 68 44 69 40 70 41 71 42 72 43 73 69 74 70 75 78 76 71 77
REMARK SMILES IDX 77 78 79 79 76 80 72 81 73 82 74 83 75 84 54 85 55 86 63 87
REMARK SMILES IDX 56 88 62 89 64 90 61 91 57 92 58 93 59 94 60 95
REMARK H PARENT 20 6 14 24 25 29 84 48 52 59
REMARK Flexibility Score: inf
ROOT
ATOM      1  C   UNL A   1      31.718  30.169  26.752  1.00  0.00     0.023 C 
ENDROOT
BRANCH   1   2
ATOM      2  C   UNL A   1      32.085  29.656  25.362  1.00  0.00     0.116 C 
BRANCH   2   3
ATOM      3  N   UNL A   1      31.125  28.701  24.840  1.00  0.00    -0.356 N 
ATOM      4  O   UNL A   1      29.951  30.230  23.584  1.00  0.00    -0.275 OA
ATOM      5  C   UNL A   1      30.177  29.064  23.898  1.00  0.00     0.224 C 
ATOM      6  H   UNL A   1      31.149  27.771  25.163  1.00  0.00     0.163 HD
BRANCH   5   7
ATOM      7  C   UNL A   1      29.486  27.883  23.216  1.00  0.00     0.135 C 
BRANCH   7   8
ATOM      8  C   UNL A   1      30.391  26.675  23.078  1.00  0.00    -0.039 A 
ATOM      9  C   UNL A   1      31.504  26.674  22.223  1.00  0.00     0.005 A 
ATOM     10  C   UNL A   1      30.094  25.502  23.773  1.00  0.00     0.005 A 
ATOM     11  C   UNL A   1      32.323  25.537  22.115  1.00  0.00     0.022 A 
ATOM     12  C   UNL A   1      30.902  24.381  23.663  1.00  0.00     0.022 A 
ATOM     13  C   UNL A   1      32.024  24.387  22.854  1.00  0.00     0.082 A 
BRANCH  13  14
ATOM     14  S   UNL A   1      33.082  22.962  22.717  1.00  0.00     0.243 S 
ATOM     15  O   UNL A   1      32.210  21.847  22.424  1.00  0.00    -0.207 OA
ATOM     16  O   UNL A   1      34.145  23.344  21.807  1.00  0.00    -0.207 OA
BRANCH  14  17
ATOM     17  N   UNL A   1      33.778  22.688  24.220  1.00  0.00    -0.187 NA
ATOM     18  C   UNL A   1      32.971  22.428  25.427  1.00  0.00     0.124 C 
ATOM     19  C   UNL A   1      35.208  22.324  24.348  1.00  0.00     0.202 C 
ATOM     20  C   UNL A   1      33.083  20.966  25.848  1.00  0.00     0.132 C 
ATOM     21  C   UNL A   1      35.460  20.998  25.074  1.00  0.00     0.235 C 
ATOM     22  N   UNL A   1      34.448  20.471  25.840  1.00  0.00    -0.354 N 
ATOM     23  O   UNL A   1      36.518  20.378  24.986  1.00  0.00    -0.274 OA
ATOM     24  H   UNL A   1      34.663  19.707  26.422  1.00  0.00     0.163 HD
ENDBRANCH  14  17
ENDBRANCH  13  14
ENDBRANCH   7   8
ENDBRANCH   5   7
ENDBRANCH   2   3
ENDBRANCH   1   2
BRANCH   1  25
ATOM     25  C   UNL A   1      31.405  31.668  26.844  1.00  0.00     0.023 C 
BRANCH  25  26
ATOM     26  C   UNL A   1      32.585  32.611  26.609  1.00  0.00     0.116 C 
BRANCH  26  27
ATOM     27  N   UNL A   1      32.442  33.876  27.311  1.00  0.00    -0.352 N 
ATOM     28  C   UNL A   1      33.121  34.366  28.404  1.00  0.00     0.251 C 
ATOM     29  H   UNL A   1      31.753  34.477  26.948  1.00  0.00     0.163 HD
ATOM     30  O   UNL A   1      32.718  35.392  28.946  1.00  0.00    -0.269 OA
BRANCH  28  31
ATOM     31  C   UNL A   1      34.308  33.661  28.945  1.00  0.00     0.039 A 
ATOM     32  C   UNL A   1      35.565  34.261  28.820  1.00  0.00     0.014 A 
ATOM     33  C   UNL A   1      34.199  32.409  29.555  1.00  0.00     0.014 A 
ATOM     34  C   UNL A   1      36.693  33.644  29.369  1.00  0.00     0.010 A 
ATOM     35  C   UNL A   1      35.312  31.830  30.169  1.00  0.00     0.010 A 
ATOM     36  C   UNL A   1      36.571  32.442  30.086  1.00  0.00    -0.014 A 
BRANCH  36  37
ATOM     37  C   UNL A   1      37.746  31.824  30.762  1.00  0.00     0.031 A 
ATOM     38  C   UNL A   1      38.570  30.779  30.058  1.00  0.00     0.074 A 
ATOM     39  C   UNL A   1      38.040  32.164  32.034  1.00  0.00     0.049 A 
ATOM     40  N   UNL A   1      39.584  30.082  30.504  1.00  0.00    -0.248 NA
ATOM     41  C   UNL A   1      38.190  30.463  28.672  1.00  0.00     0.031 C 
ATOM     42  C   UNL A   1      37.304  33.143  32.837  1.00  0.00     0.029 A 
ATOM     43  N   UNL A   1      39.029  31.724  32.880  1.00  0.00    -0.354 N 
ATOM     44  C   UNL A   1      39.956  29.237  29.462  1.00  0.00     0.074 A 
ATOM     45  C   UNL A   1      39.021  29.473  28.382  1.00  0.00     0.031 C 
ATOM     46  C   UNL A   1      37.880  33.247  34.044  1.00  0.00     0.029 A 
ATOM     47  C   UNL A   1      38.992  32.304  34.128  1.00  0.00     0.049 A 
ATOM     48  H   UNL A   1      39.702  31.054  32.619  1.00  0.00     0.167 HD
ATOM     49  C   UNL A   1      40.990  28.361  29.406  1.00  0.00     0.034 A 
ATOM     50  C   UNL A   1      39.752  32.091  35.222  1.00  0.00     0.034 A 
ATOM     51  C   UNL A   1      41.915  28.138  30.492  1.00  0.00     0.049 A 
ATOM     52  C   UNL A   1      40.864  31.072  35.150  1.00  0.00     0.074 A 
ATOM     53  C   UNL A   1      43.026  27.312  30.520  1.00  0.00     0.029 A 
ATOM     54  N   UNL A   1      41.832  28.730  31.747  1.00  0.00    -0.354 N 
ATOM     55  N   UNL A   1      41.232  30.319  34.139  1.00  0.00    -0.248 NA
ATOM     56  C   UNL A   1      41.667  30.883  36.364  1.00  0.00     0.031 C 
ATOM     57  C   UNL A   1      43.563  27.339  31.811  1.00  0.00     0.029 A 
ATOM     58  C   UNL A   1      42.847  28.256  32.565  1.00  0.00     0.049 A 
ATOM     59  H   UNL A   1      41.153  29.389  32.016  1.00  0.00     0.167 HD
ATOM     60  C   UNL A   1      42.335  29.596  34.588  1.00  0.00     0.074 A 
ATOM     61  C   UNL A   1      42.578  30.015  35.953  1.00  0.00     0.031 C 
ATOM     62  C   UNL A   1      43.080  28.672  33.929  1.00  0.00     0.034 A 
BRANCH  49  63
ATOM     63  C   UNL A   1      41.155  27.552  28.140  1.00  0.00     0.023 A 
ATOM     64  C   UNL A   1      40.807  26.192  28.079  1.00  0.00     0.031 A 
ATOM     65  C   UNL A   1      41.677  28.149  26.978  1.00  0.00     0.131 A 
ATOM     66  C   UNL A   1      41.049  25.458  26.908  1.00  0.00     0.055 A 
ATOM     67  C   UNL A   1      41.834  27.434  25.789  1.00  0.00     0.041 A 
ATOM     68  F   UNL A   1      42.051  29.437  26.979  1.00  0.00    -0.206 F 
ATOM     69  C   UNL A   1      41.533  26.075  25.752  1.00  0.00     0.022 A 
BRANCH  66  70
ATOM     70  S   UNL A   1      40.863  23.654  26.962  1.00  0.00     0.124 S 
ATOM     71  O   UNL A   1      41.713  23.236  25.850  1.00  0.00    -0.237 OA
ATOM     72  O   UNL A   1      41.349  23.327  28.297  1.00  0.00    -0.237 OA
ATOM     73  O   UNL A   1      39.432  23.450  26.751  1.00  0.00    -0.744 OA
ENDBRANCH  66  70
ENDBRANCH  49  63
BRANCH  50  74
ATOM     74  C   UNL A   1      39.487  32.834  36.489  1.00  0.00     0.023 A 
ATOM     75  C   UNL A   1      38.624  32.314  37.467  1.00  0.00     0.031 A 
ATOM     76  C   UNL A   1      40.045  34.106  36.716  1.00  0.00     0.131 A 
ATOM     77  C   UNL A   1      38.300  33.082  38.597  1.00  0.00     0.055 A 
ATOM     78  C   UNL A   1      39.770  34.839  37.872  1.00  0.00     0.041 A 
ATOM     79  F   UNL A   1      40.877  34.654  35.816  1.00  0.00    -0.206 F 
ATOM     80  C   UNL A   1      38.879  34.334  38.814  1.00  0.00     0.022 A 
BRANCH  77  81
ATOM     81  S   UNL A   1      37.020  32.467  39.726  1.00  0.00     0.124 S 
ATOM     82  O   UNL A   1      37.173  33.366  40.864  1.00  0.00    -0.237 OA
ATOM     83  O   UNL A   1      35.807  32.637  38.931  1.00  0.00    -0.237 OA
ATOM     84  O   UNL A   1      37.417  31.081  39.965  1.00  0.00    -0.744 OA
ENDBRANCH  77  81
ENDBRANCH  50  74
BRANCH  62  85
ATOM     85  C   UNL A   1      44.270  28.094  34.661  1.00  0.00     0.023 A 
ATOM     86  C   UNL A   1      44.193  26.878  35.364  1.00  0.00     0.031 A 
ATOM     87  C   UNL A   1      45.498  28.779  34.662  1.00  0.00     0.131 A 
ATOM     88  C   UNL A   1      45.305  26.417  36.086  1.00  0.00     0.055 A 
ATOM     89  C   UNL A   1      46.621  28.279  35.323  1.00  0.00     0.041 A 
ATOM     90  F   UNL A   1      45.630  29.948  34.013  1.00  0.00    -0.206 F 
ATOM     91  C   UNL A   1      46.523  27.099  36.053  1.00  0.00     0.022 A 
BRANCH  88  92
ATOM     92  S   UNL A   1      45.107  24.966  37.156  1.00  0.00     0.124 S 
ATOM     93  O   UNL A   1      44.270  24.096  36.336  1.00  0.00    -0.237 OA
ATOM     94  O   UNL A   1      46.486  24.527  37.346  1.00  0.00    -0.237 OA
ATOM     95  O   UNL A   1      44.458  25.505  38.350  1.00  0.00    -0.744 OA
ENDBRANCH  88  92
ENDBRANCH  62  85
ENDBRANCH  36  37
ENDBRANCH  28  31
ENDBRANCH  26  27
ENDBRANCH  25  26
ENDBRANCH   1  25
TORSDOF 17
ENDMDL
