MODEL 1
REMARK VINA RESULT:     -11.7      0.000      0.000
REMARK SMILES COc1ccc2cc([C@@H](C)C(=O)NCCCCNC(=O)c3ccc(-c4c5nc(c(-c6cc(S(=O)(=O)[O-])ccc6F)c6ccc([nH]6)c(-c6cc(S(=O)(=O)[O-])ccc6F)c6nc(c(-c7cc(S(=O)(=O)[O-])ccc7F)c7ccc4[nH]7)C=C6)C=C5)cc3)ccc2c1
REMARK SMILES IDX 16 1 15 2 14 3 13 4 11 5 12 6 9 8 10 9 8 10 3 11 4 12 87 13
REMARK SMILES IDX 5 14 86 15 6 16 85 17 7 18 84 19 2 20 1 21 17 22 18 23 19 24
REMARK SMILES IDX 20 26 21 27 22 28 83 29 23 30 82 31 24 32 25 33 26 34 76 35
REMARK SMILES IDX 27 36 81 37 75 38 77 39 28 40 80 41 74 42 73 43 29 45 61 46
REMARK SMILES IDX 41 47 60 48 42 49 45 50 59 51 78 52 43 53 44 54 58 56 79 57
REMARK SMILES IDX 46 58 30 59 31 60 39 61 32 62 38 63 40 64 37 65 33 66 34 67
REMARK SMILES IDX 35 68 36 69 62 70 63 71 71 72 64 73 70 74 72 75 69 76 65 77
REMARK SMILES IDX 66 78 67 79 68 80 47 81 48 82 56 83 49 84 55 85 57 86 54 87
REMARK SMILES IDX 50 88 51 89 52 90 53 91
REMARK H PARENT 13 7 18 25 77 44 45 55
REMARK Flexibility Score: inf
ROOT
ATOM      1  C   UNL A   1      31.734  28.734  25.922  1.00  0.00     0.023 C 
ENDROOT
BRANCH   1   2
ATOM      2  C   UNL A   1      32.108  27.446  26.650  1.00  0.00     0.023 C 
BRANCH   2   3
ATOM      3  C   UNL A   1      33.324  26.707  26.087  1.00  0.00     0.116 C 
BRANCH   3   4
ATOM      4  N   UNL A   1      33.159  25.268  26.137  1.00  0.00    -0.356 N 
ATOM      5  C   UNL A   1      32.834  24.356  25.181  1.00  0.00     0.227 C 
ATOM      6  O   UNL A   1      32.696  23.186  25.560  1.00  0.00    -0.274 OA
ATOM      7  H   UNL A   1      33.311  24.879  27.029  1.00  0.00     0.163 HD
BRANCH   5   8
ATOM      8  C   UNL A   1      32.646  24.697  23.692  1.00  0.00     0.105 C 
ATOM      9  C   UNL A   1      33.947  24.972  22.940  1.00  0.00     0.023 C 
BRANCH   8  10
ATOM     10  C   UNL A   1      31.506  25.670  23.432  1.00  0.00    -0.035 A 
ATOM     11  C   UNL A   1      28.644  29.780  22.510  1.00  0.00     0.119 A 
ATOM     12  C   UNL A   1      29.906  30.049  21.987  1.00  0.00     0.047 A 
ATOM     13  C   UNL A   1      28.405  28.548  23.127  1.00  0.00     0.055 A 
ATOM     14  C   UNL A   1      30.903  29.072  22.028  1.00  0.00     0.012 A 
ATOM     15  C   UNL A   1      29.409  27.568  23.208  1.00  0.00    -0.015 A 
ATOM     16  C   UNL A   1      30.665  27.825  22.627  1.00  0.00    -0.018 A 
ATOM     17  C   UNL A   1      29.206  26.349  23.870  1.00  0.00     0.009 A 
ATOM     18  C   UNL A   1      31.673  26.849  22.694  1.00  0.00     0.013 A 
ATOM     19  C   UNL A   1      30.248  25.427  24.004  1.00  0.00     0.005 A 
BRANCH  11  20
ATOM     20  O   UNL A   1      27.580  30.641  22.502  1.00  0.00    -0.497 OA
ATOM     21  C   UNL A   1      27.527  31.578  23.573  1.00  0.00     0.278 C 
ENDBRANCH  11  20
ENDBRANCH   8  10
ENDBRANCH   5   8
ENDBRANCH   3   4
ENDBRANCH   2   3
ENDBRANCH   1   2
BRANCH   1  22
ATOM     22  C   UNL A   1      32.866  29.745  25.766  1.00  0.00     0.116 C 
BRANCH  22  23
ATOM     23  N   UNL A   1      32.558  31.065  26.298  1.00  0.00    -0.352 N 
ATOM     24  C   UNL A   1      33.269  31.804  27.221  1.00  0.00     0.251 C 
ATOM     25  H   UNL A   1      31.736  31.483  25.956  1.00  0.00     0.163 HD
ATOM     26  O   UNL A   1      32.829  32.868  27.625  1.00  0.00    -0.269 OA
BRANCH  24  27
ATOM     27  C   UNL A   1      34.542  31.260  27.747  1.00  0.00     0.039 A 
ATOM     28  C   UNL A   1      35.595  32.140  28.010  1.00  0.00     0.014 A 
ATOM     29  C   UNL A   1      34.668  29.901  28.043  1.00  0.00     0.014 A 
ATOM     30  C   UNL A   1      36.741  31.670  28.654  1.00  0.00     0.010 A 
ATOM     31  C   UNL A   1      35.777  29.451  28.753  1.00  0.00     0.010 A 
ATOM     32  C   UNL A   1      36.821  30.332  29.074  1.00  0.00    -0.014 A 
BRANCH  32  33
ATOM     33  C   UNL A   1      37.978  29.831  29.861  1.00  0.00     0.031 A 
ATOM     34  C   UNL A   1      38.216  30.348  31.253  1.00  0.00     0.074 A 
ATOM     35  C   UNL A   1      38.863  28.991  29.286  1.00  0.00     0.049 A 
ATOM     36  N   UNL A   1      39.227  30.132  32.056  1.00  0.00    -0.248 NA
ATOM     37  C   UNL A   1      37.202  31.262  31.801  1.00  0.00     0.031 C 
ATOM     38  C   UNL A   1      38.772  28.471  27.919  1.00  0.00     0.029 A 
ATOM     39  N   UNL A   1      40.026  28.442  29.769  1.00  0.00    -0.354 N 
ATOM     40  C   UNL A   1      38.986  30.905  33.185  1.00  0.00     0.074 A 
ATOM     41  C   UNL A   1      37.757  31.630  32.945  1.00  0.00     0.031 C 
ATOM     42  C   UNL A   1      39.826  27.674  27.678  1.00  0.00     0.029 A 
ATOM     43  C   UNL A   1      40.689  27.654  28.855  1.00  0.00     0.049 A 
ATOM     44  H   UNL A   1      40.354  28.597  30.683  1.00  0.00     0.167 HD
ATOM     45  C   UNL A   1      39.716  30.989  34.325  1.00  0.00     0.034 A 
ATOM     46  C   UNL A   1      41.865  27.003  28.949  1.00  0.00     0.034 A 
ATOM     47  C   UNL A   1      40.914  30.226  34.566  1.00  0.00     0.049 A 
ATOM     48  C   UNL A   1      42.635  27.081  30.244  1.00  0.00     0.074 A 
ATOM     49  C   UNL A   1      41.679  30.163  35.718  1.00  0.00     0.029 A 
ATOM     50  N   UNL A   1      41.527  29.394  33.638  1.00  0.00    -0.354 N 
ATOM     51  N   UNL A   1      42.353  27.759  31.332  1.00  0.00    -0.248 NA
ATOM     52  C   UNL A   1      43.873  26.294  30.329  1.00  0.00     0.031 C 
ATOM     53  C   UNL A   1      42.781  29.338  35.470  1.00  0.00     0.029 A 
ATOM     54  C   UNL A   1      42.671  28.834  34.185  1.00  0.00     0.049 A 
ATOM     55  H   UNL A   1      41.197  29.226  32.727  1.00  0.00     0.167 HD
ATOM     56  C   UNL A   1      43.363  27.454  32.240  1.00  0.00     0.074 A 
ATOM     57  C   UNL A   1      44.250  26.521  31.579  1.00  0.00     0.031 C 
ATOM     58  C   UNL A   1      43.543  27.903  33.509  1.00  0.00     0.034 A 
BRANCH  45  59
ATOM     59  C   UNL A   1      39.246  31.952  35.387  1.00  0.00     0.023 A 
ATOM     60  C   UNL A   1      39.716  33.276  35.449  1.00  0.00     0.031 A 
ATOM     61  C   UNL A   1      38.318  31.537  36.358  1.00  0.00     0.131 A 
ATOM     62  C   UNL A   1      39.308  34.115  36.495  1.00  0.00     0.055 A 
ATOM     63  C   UNL A   1      37.858  32.400  37.354  1.00  0.00     0.041 A 
ATOM     64  F   UNL A   1      37.849  30.279  36.360  1.00  0.00    -0.206 F 
ATOM     65  C   UNL A   1      38.363  33.695  37.434  1.00  0.00     0.022 A 
BRANCH  62  66
ATOM     66  S   UNL A   1      40.118  35.727  36.679  1.00  0.00     0.124 S 
ATOM     67  O   UNL A   1      41.529  35.347  36.685  1.00  0.00    -0.237 OA
ATOM     68  O   UNL A   1      39.656  36.450  35.501  1.00  0.00    -0.237 OA
ATOM     69  O   UNL A   1      39.609  36.222  37.956  1.00  0.00    -0.744 OA
ENDBRANCH  62  66
ENDBRANCH  45  59
BRANCH  46  70
ATOM     70  C   UNL A   1      42.405  26.232  27.792  1.00  0.00     0.023 A 
ATOM     71  C   UNL A   1      42.010  24.904  27.560  1.00  0.00     0.031 A 
ATOM     72  C   UNL A   1      43.368  26.791  26.935  1.00  0.00     0.131 A 
ATOM     73  C   UNL A   1      42.618  24.161  26.536  1.00  0.00     0.055 A 
ATOM     74  C   UNL A   1      43.931  26.065  25.884  1.00  0.00     0.041 A 
ATOM     75  F   UNL A   1      43.775  28.059  27.107  1.00  0.00    -0.206 F 
ATOM     76  C   UNL A   1      43.569  24.736  25.690  1.00  0.00     0.022 A 
BRANCH  73  77
ATOM     77  S   UNL A   1      42.223  22.396  26.392  1.00  0.00     0.124 S 
ATOM     78  O   UNL A   1      42.622  21.894  27.702  1.00  0.00    -0.237 OA
ATOM     79  O   UNL A   1      40.788  22.430  26.128  1.00  0.00    -0.237 OA
ATOM     80  O   UNL A   1      43.051  21.952  25.273  1.00  0.00    -0.744 OA
ENDBRANCH  73  77
ENDBRANCH  46  70
BRANCH  58  81
ATOM     81  C   UNL A   1      44.715  27.345  34.272  1.00  0.00     0.023 A 
ATOM     82  C   UNL A   1      44.619  26.147  35.002  1.00  0.00     0.031 A 
ATOM     83  C   UNL A   1      45.944  28.027  34.274  1.00  0.00     0.131 A 
ATOM     84  C   UNL A   1      45.718  25.696  35.747  1.00  0.00     0.055 A 
ATOM     85  C   UNL A   1      47.051  27.544  34.972  1.00  0.00     0.041 A 
ATOM     86  F   UNL A   1      46.088  29.176  33.592  1.00  0.00    -0.206 F 
ATOM     87  C   UNL A   1      46.937  26.379  35.725  1.00  0.00     0.022 A 
BRANCH  84  88
ATOM     88  S   UNL A   1      45.510  24.243  36.813  1.00  0.00     0.124 S 
ATOM     89  O   UNL A   1      46.867  23.709  36.867  1.00  0.00    -0.237 OA
ATOM     90  O   UNL A   1      45.006  24.833  38.049  1.00  0.00    -0.237 OA
ATOM     91  O   UNL A   1      44.547  23.419  36.085  1.00  0.00    -0.744 OA
ENDBRANCH  84  88
ENDBRANCH  58  81
ENDBRANCH  32  33
ENDBRANCH  24  27
ENDBRANCH  22  23
ENDBRANCH   1  22
TORSDOF 16
ENDMDL
MODEL 2
REMARK VINA RESULT:     -11.7      5.051     10.055
REMARK SMILES COc1ccc2cc([C@@H](C)C(=O)NCCCCNC(=O)c3ccc(-c4c5nc(c(-c6cc(S(=O)(=O)[O-])ccc6F)c6ccc([nH]6)c(-c6cc(S(=O)(=O)[O-])ccc6F)c6nc(c(-c7cc(S(=O)(=O)[O-])ccc7F)c7ccc4[nH]7)C=C6)C=C5)cc3)ccc2c1
REMARK SMILES IDX 16 1 15 2 14 3 13 4 11 5 12 6 9 8 10 9 8 10 3 11 4 12 87 13
REMARK SMILES IDX 5 14 86 15 6 16 85 17 7 18 84 19 2 20 1 21 17 22 18 23 19 24
REMARK SMILES IDX 20 26 21 27 22 28 83 29 23 30 82 31 24 32 25 33 26 34 76 35
REMARK SMILES IDX 27 36 81 37 75 38 77 39 28 40 80 41 74 42 73 43 29 45 61 46
REMARK SMILES IDX 41 47 60 48 42 49 45 50 59 51 78 52 43 53 44 54 58 56 79 57
REMARK SMILES IDX 46 58 30 59 31 60 39 61 32 62 38 63 40 64 37 65 33 66 34 67
REMARK SMILES IDX 35 68 36 69 62 70 63 71 71 72 64 73 70 74 72 75 69 76 65 77
REMARK SMILES IDX 66 78 67 79 68 80 47 81 48 82 56 83 49 84 55 85 57 86 54 87
REMARK SMILES IDX 50 88 51 89 52 90 53 91
REMARK H PARENT 13 7 18 25 77 44 45 55
REMARK Flexibility Score: inf
ROOT
ATOM      1  C   UNL A   1      35.915  21.646  24.525  1.00  0.00     0.023 C 
ENDROOT
BRANCH   1   2
ATOM      2  C   UNL A   1      36.113  22.700  23.439  1.00  0.00     0.023 C 
BRANCH   2   3
ATOM      3  C   UNL A   1      35.049  23.799  23.394  1.00  0.00     0.116 C 
BRANCH   3   4
ATOM      4  N   UNL A   1      33.705  23.258  23.419  1.00  0.00    -0.356 N 
ATOM      5  C   UNL A   1      32.798  23.121  24.425  1.00  0.00     0.227 C 
ATOM      6  O   UNL A   1      31.743  22.541  24.139  1.00  0.00    -0.274 OA
ATOM      7  H   UNL A   1      33.390  22.928  22.547  1.00  0.00     0.163 HD
BRANCH   5   8
ATOM      8  C   UNL A   1      33.010  23.649  25.855  1.00  0.00     0.105 C 
ATOM      9  C   UNL A   1      32.490  22.721  26.952  1.00  0.00     0.023 C 
BRANCH   8  10
ATOM     10  C   UNL A   1      32.674  25.124  26.012  1.00  0.00    -0.035 A 
ATOM     11  C   UNL A   1      32.743  30.118  27.004  1.00  0.00     0.119 A 
ATOM     12  C   UNL A   1      34.066  29.736  26.800  1.00  0.00     0.047 A 
ATOM     13  C   UNL A   1      31.728  29.162  26.902  1.00  0.00     0.055 A 
ATOM     14  C   UNL A   1      34.366  28.420  26.440  1.00  0.00     0.012 A 
ATOM     15  C   UNL A   1      32.017  27.827  26.575  1.00  0.00    -0.015 A 
ATOM     16  C   UNL A   1      33.351  27.459  26.314  1.00  0.00    -0.018 A 
ATOM     17  C   UNL A   1      31.021  26.843  26.521  1.00  0.00     0.009 A 
ATOM     18  C   UNL A   1      33.650  26.128  25.978  1.00  0.00     0.013 A 
ATOM     19  C   UNL A   1      31.349  25.506  26.271  1.00  0.00     0.005 A 
BRANCH  11  20
ATOM     20  O   UNL A   1      32.322  31.380  27.330  1.00  0.00    -0.497 OA
ATOM     21  C   UNL A   1      31.401  31.982  26.427  1.00  0.00     0.278 C 
ENDBRANCH  11  20
ENDBRANCH   8  10
ENDBRANCH   5   8
ENDBRANCH   3   4
ENDBRANCH   2   3
ENDBRANCH   1   2
BRANCH   1  22
ATOM     22  C   UNL A   1      36.829  21.782  25.737  1.00  0.00     0.116 C 
BRANCH  22  23
ATOM     23  N   UNL A   1      37.933  20.833  25.756  1.00  0.00    -0.352 N 
ATOM     24  C   UNL A   1      39.244  21.052  26.125  1.00  0.00     0.251 C 
ATOM     25  H   UNL A   1      37.716  19.918  25.468  1.00  0.00     0.163 HD
ATOM     26  O   UNL A   1      40.071  20.162  26.005  1.00  0.00    -0.269 OA
BRANCH  24  27
ATOM     27  C   UNL A   1      39.638  22.393  26.614  1.00  0.00     0.039 A 
ATOM     28  C   UNL A   1      40.682  22.495  27.537  1.00  0.00     0.014 A 
ATOM     29  C   UNL A   1      39.026  23.543  26.111  1.00  0.00     0.014 A 
ATOM     30  C   UNL A   1      41.172  23.755  27.886  1.00  0.00     0.010 A 
ATOM     31  C   UNL A   1      39.564  24.792  26.401  1.00  0.00     0.010 A 
ATOM     32  C   UNL A   1      40.648  24.912  27.284  1.00  0.00    -0.014 A 
BRANCH  32  33
ATOM     33  C   UNL A   1      41.224  26.256  27.550  1.00  0.00     0.031 A 
ATOM     34  C   UNL A   1      42.601  26.593  27.047  1.00  0.00     0.074 A 
ATOM     35  C   UNL A   1      40.549  27.130  28.325  1.00  0.00     0.049 A 
ATOM     36  N   UNL A   1      43.328  27.658  27.273  1.00  0.00    -0.248 NA
ATOM     37  C   UNL A   1      43.265  25.581  26.212  1.00  0.00     0.031 C 
ATOM     38  C   UNL A   1      39.232  26.890  28.923  1.00  0.00     0.029 A 
ATOM     39  N   UNL A   1      40.884  28.388  28.762  1.00  0.00    -0.354 N 
ATOM     40  C   UNL A   1      44.542  27.429  26.636  1.00  0.00     0.074 A 
ATOM     41  C   UNL A   1      44.470  26.107  26.054  1.00  0.00     0.031 C 
ATOM     42  C   UNL A   1      38.870  27.968  29.638  1.00  0.00     0.029 A 
ATOM     43  C   UNL A   1      39.939  28.959  29.585  1.00  0.00     0.049 A 
ATOM     44  H   UNL A   1      41.721  28.840  28.510  1.00  0.00     0.167 HD
ATOM     45  C   UNL A   1      45.613  28.255  26.533  1.00  0.00     0.034 A 
ATOM     46  C   UNL A   1      39.942  30.140  30.235  1.00  0.00     0.034 A 
ATOM     47  C   UNL A   1      45.651  29.588  27.082  1.00  0.00     0.049 A 
ATOM     48  C   UNL A   1      41.128  31.057  30.069  1.00  0.00     0.074 A 
ATOM     49  C   UNL A   1      46.645  30.543  26.956  1.00  0.00     0.029 A 
ATOM     50  N   UNL A   1      44.652  30.155  27.862  1.00  0.00    -0.354 N 
ATOM     51  N   UNL A   1      42.239  30.854  29.399  1.00  0.00    -0.248 NA
ATOM     52  C   UNL A   1      41.055  32.366  30.732  1.00  0.00     0.031 C 
ATOM     53  C   UNL A   1      46.274  31.664  27.705  1.00  0.00     0.029 A 
ATOM     54  C   UNL A   1      45.018  31.436  28.245  1.00  0.00     0.049 A 
ATOM     55  H   UNL A   1      43.809  29.712  28.108  1.00  0.00     0.167 HD
ATOM     56  C   UNL A   1      42.982  32.024  29.537  1.00  0.00     0.074 A 
ATOM     57  C   UNL A   1      42.187  32.930  30.337  1.00  0.00     0.031 C 
ATOM     58  C   UNL A   1      44.211  32.325  29.044  1.00  0.00     0.034 A 
BRANCH  45  59
ATOM     59  C   UNL A   1      46.833  27.733  25.817  1.00  0.00     0.023 A 
ATOM     60  C   UNL A   1      47.083  28.029  24.466  1.00  0.00     0.031 A 
ATOM     61  C   UNL A   1      47.757  26.920  26.496  1.00  0.00     0.131 A 
ATOM     62  C   UNL A   1      48.192  27.464  23.820  1.00  0.00     0.055 A 
ATOM     63  C   UNL A   1      48.900  26.421  25.867  1.00  0.00     0.041 A 
ATOM     64  F   UNL A   1      47.561  26.588  27.781  1.00  0.00    -0.206 F 
ATOM     65  C   UNL A   1      49.116  26.682  24.517  1.00  0.00     0.022 A 
BRANCH  62  66
ATOM     66  S   UNL A   1      48.347  27.671  22.025  1.00  0.00     0.124 S 
ATOM     67  O   UNL A   1      47.049  28.246  21.683  1.00  0.00    -0.237 OA
ATOM     68  O   UNL A   1      49.493  28.565  21.907  1.00  0.00    -0.237 OA
ATOM     69  O   UNL A   1      48.565  26.310  21.540  1.00  0.00    -0.744 OA
ENDBRANCH  62  66
ENDBRANCH  45  59
BRANCH  46  70
ATOM     70  C   UNL A   1      38.801  30.529  31.114  1.00  0.00     0.023 A 
ATOM     71  C   UNL A   1      37.655  31.141  30.582  1.00  0.00     0.031 A 
ATOM     72  C   UNL A   1      38.866  30.349  32.506  1.00  0.00     0.131 A 
ATOM     73  C   UNL A   1      36.645  31.604  31.442  1.00  0.00     0.055 A 
ATOM     74  C   UNL A   1      37.835  30.763  33.352  1.00  0.00     0.041 A 
ATOM     75  F   UNL A   1      39.936  29.761  33.066  1.00  0.00    -0.206 F 
ATOM     76  C   UNL A   1      36.724  31.410  32.822  1.00  0.00     0.022 A 
BRANCH  73  77
ATOM     77  S   UNL A   1      35.275  32.561  30.735  1.00  0.00     0.124 S 
ATOM     78  O   UNL A   1      35.875  33.882  30.594  1.00  0.00    -0.237 OA
ATOM     79  O   UNL A   1      35.014  31.839  29.494  1.00  0.00    -0.237 OA
ATOM     80  O   UNL A   1      34.227  32.454  31.749  1.00  0.00    -0.744 OA
ENDBRANCH  73  77
ENDBRANCH  46  70
BRANCH  58  81
ATOM     81  C   UNL A   1      44.737  33.710  29.319  1.00  0.00     0.023 A 
ATOM     82  C   UNL A   1      44.509  34.777  28.434  1.00  0.00     0.031 A 
ATOM     83  C   UNL A   1      45.485  33.960  30.482  1.00  0.00     0.131 A 
ATOM     84  C   UNL A   1      45.069  36.035  28.700  1.00  0.00     0.055 A 
ATOM     85  C   UNL A   1      45.993  35.227  30.770  1.00  0.00     0.041 A 
ATOM     86  F   UNL A   1      45.732  32.974  31.362  1.00  0.00    -0.206 F 
ATOM     87  C   UNL A   1      45.797  36.270  29.869  1.00  0.00     0.022 A 
BRANCH  84  88
ATOM     88  S   UNL A   1      44.901  37.344  27.455  1.00  0.00     0.124 S 
ATOM     89  O   UNL A   1      43.567  37.085  26.922  1.00  0.00    -0.237 OA
ATOM     90  O   UNL A   1      45.045  38.556  28.255  1.00  0.00    -0.237 OA
ATOM     91  O   UNL A   1      46.001  37.079  26.529  1.00  0.00    -0.744 OA
ENDBRANCH  84  88
ENDBRANCH  58  81
ENDBRANCH  32  33
ENDBRANCH  24  27
ENDBRANCH  22  23
ENDBRANCH   1  22
TORSDOF 16
ENDMDL
MODEL 3
REMARK VINA RESULT:     -11.7      5.255     10.632
REMARK SMILES COc1ccc2cc([C@@H](C)C(=O)NCCCCNC(=O)c3ccc(-c4c5nc(c(-c6cc(S(=O)(=O)[O-])ccc6F)c6ccc([nH]6)c(-c6cc(S(=O)(=O)[O-])ccc6F)c6nc(c(-c7cc(S(=O)(=O)[O-])ccc7F)c7ccc4[nH]7)C=C6)C=C5)cc3)ccc2c1
REMARK SMILES IDX 16 1 15 2 14 3 13 4 11 5 12 6 9 8 10 9 8 10 3 11 4 12 87 13
REMARK SMILES IDX 5 14 86 15 6 16 85 17 7 18 84 19 2 20 1 21 17 22 18 23 19 24
REMARK SMILES IDX 20 26 21 27 22 28 83 29 23 30 82 31 24 32 25 33 26 34 76 35
REMARK SMILES IDX 27 36 81 37 75 38 77 39 28 40 80 41 74 42 73 43 29 45 61 46
REMARK SMILES IDX 41 47 60 48 42 49 45 50 59 51 78 52 43 53 44 54 58 56 79 57
REMARK SMILES IDX 46 58 30 59 31 60 39 61 32 62 38 63 40 64 37 65 33 66 34 67
REMARK SMILES IDX 35 68 36 69 62 70 63 71 71 72 64 73 70 74 72 75 69 76 65 77
REMARK SMILES IDX 66 78 67 79 68 80 47 81 48 82 56 83 49 84 55 85 57 86 54 87
REMARK SMILES IDX 50 88 51 89 52 90 53 91
REMARK H PARENT 13 7 18 25 77 44 45 55
REMARK Flexibility Score: inf
ROOT
ATOM      1  C   UNL A   1      36.987  22.215  23.921  1.00  0.00     0.023 C 
ENDROOT
BRANCH   1   2
ATOM      2  C   UNL A   1      35.550  22.524  23.508  1.00  0.00     0.023 C 
BRANCH   2   3
ATOM      3  C   UNL A   1      35.162  24.003  23.554  1.00  0.00     0.116 C 
BRANCH   3   4
ATOM      4  N   UNL A   1      34.250  24.295  24.642  1.00  0.00    -0.356 N 
ATOM      5  C   UNL A   1      32.898  24.176  24.752  1.00  0.00     0.227 C 
ATOM      6  O   UNL A   1      32.394  24.585  25.805  1.00  0.00    -0.274 OA
ATOM      7  H   UNL A   1      34.690  24.644  25.450  1.00  0.00     0.163 HD
BRANCH   5   8
ATOM      8  C   UNL A   1      31.995  23.563  23.667  1.00  0.00     0.105 C 
ATOM      9  C   UNL A   1      30.599  24.178  23.588  1.00  0.00     0.023 C 
BRANCH   8  10
ATOM     10  C   UNL A   1      32.061  22.044  23.611  1.00  0.00    -0.035 A 
ATOM     11  C   UNL A   1      32.959  17.112  24.504  1.00  0.00     0.119 A 
ATOM     12  C   UNL A   1      33.011  17.754  25.738  1.00  0.00     0.047 A 
ATOM     13  C   UNL A   1      32.687  17.857  23.352  1.00  0.00     0.055 A 
ATOM     14  C   UNL A   1      32.736  19.121  25.827  1.00  0.00     0.012 A 
ATOM     15  C   UNL A   1      32.443  19.239  23.421  1.00  0.00    -0.015 A 
ATOM     16  C   UNL A   1      32.442  19.872  24.678  1.00  0.00    -0.018 A 
ATOM     17  C   UNL A   1      32.223  20.013  22.273  1.00  0.00     0.009 A 
ATOM     18  C   UNL A   1      32.190  21.252  24.759  1.00  0.00     0.013 A 
ATOM     19  C   UNL A   1      32.062  21.399  22.366  1.00  0.00     0.005 A 
BRANCH  11  20
ATOM     20  O   UNL A   1      33.178  15.777  24.294  1.00  0.00    -0.497 OA
ATOM     21  C   UNL A   1      32.829  14.911  25.369  1.00  0.00     0.278 C 
ENDBRANCH  11  20
ENDBRANCH   8  10
ENDBRANCH   5   8
ENDBRANCH   3   4
ENDBRANCH   2   3
ENDBRANCH   1   2
BRANCH   1  22
ATOM     22  C   UNL A   1      37.184  21.898  25.400  1.00  0.00     0.116 C 
BRANCH  22  23
ATOM     23  N   UNL A   1      38.234  20.924  25.661  1.00  0.00    -0.352 N 
ATOM     24  C   UNL A   1      39.463  21.127  26.254  1.00  0.00     0.251 C 
ATOM     25  H   UNL A   1      38.043  20.001  25.378  1.00  0.00     0.163 HD
ATOM     26  O   UNL A   1      40.268  20.212  26.327  1.00  0.00    -0.269 OA
BRANCH  24  27
ATOM     27  C   UNL A   1      39.806  22.480  26.749  1.00  0.00     0.039 A 
ATOM     28  C   UNL A   1      40.824  22.614  27.697  1.00  0.00     0.014 A 
ATOM     29  C   UNL A   1      39.174  23.611  26.228  1.00  0.00     0.014 A 
ATOM     30  C   UNL A   1      41.268  23.889  28.054  1.00  0.00     0.010 A 
ATOM     31  C   UNL A   1      39.669  24.875  26.528  1.00  0.00     0.010 A 
ATOM     32  C   UNL A   1      40.727  25.029  27.436  1.00  0.00    -0.014 A 
BRANCH  32  33
ATOM     33  C   UNL A   1      41.257  26.389  27.712  1.00  0.00     0.031 A 
ATOM     34  C   UNL A   1      42.652  26.751  27.279  1.00  0.00     0.074 A 
ATOM     35  C   UNL A   1      40.522  27.258  28.436  1.00  0.00     0.049 A 
ATOM     36  N   UNL A   1      43.341  27.835  27.528  1.00  0.00    -0.248 NA
ATOM     37  C   UNL A   1      43.382  25.743  26.496  1.00  0.00     0.031 C 
ATOM     38  C   UNL A   1      39.181  26.996  28.966  1.00  0.00     0.029 A 
ATOM     39  N   UNL A   1      40.804  28.529  28.872  1.00  0.00    -0.354 N 
ATOM     40  C   UNL A   1      44.593  27.626  26.961  1.00  0.00     0.074 A 
ATOM     41  C   UNL A   1      44.582  26.294  26.396  1.00  0.00     0.031 C 
ATOM     42  C   UNL A   1      38.755  28.075  29.644  1.00  0.00     0.029 A 
ATOM     43  C   UNL A   1      39.803  29.090  29.634  1.00  0.00     0.049 A 
ATOM     44  H   UNL A   1      41.643  28.997  28.659  1.00  0.00     0.167 HD
ATOM     45  C   UNL A   1      45.649  28.475  26.903  1.00  0.00     0.034 A 
ATOM     46  C   UNL A   1      39.745  30.280  30.265  1.00  0.00     0.034 A 
ATOM     47  C   UNL A   1      45.627  29.816  27.433  1.00  0.00     0.049 A 
ATOM     48  C   UNL A   1      40.917  31.221  30.149  1.00  0.00     0.074 A 
ATOM     49  C   UNL A   1      46.605  30.792  27.347  1.00  0.00     0.029 A 
ATOM     50  N   UNL A   1      44.575  30.371  28.150  1.00  0.00    -0.354 N 
ATOM     51  N   UNL A   1      42.068  31.035  29.543  1.00  0.00    -0.248 NA
ATOM     52  C   UNL A   1      40.779  32.537  30.788  1.00  0.00     0.031 C 
ATOM     53  C   UNL A   1      46.169  31.915  28.057  1.00  0.00     0.029 A 
ATOM     54  C   UNL A   1      44.891  31.665  28.532  1.00  0.00     0.049 A 
ATOM     55  H   UNL A   1      43.730  29.912  28.356  1.00  0.00     0.167 HD
ATOM     56  C   UNL A   1      42.775  32.224  29.703  1.00  0.00     0.074 A 
ATOM     57  C   UNL A   1      41.918  33.122  30.446  1.00  0.00     0.031 C 
ATOM     58  C   UNL A   1      44.022  32.546  29.273  1.00  0.00     0.034 A 
BRANCH  45  59
ATOM     59  C   UNL A   1      46.918  27.971  26.262  1.00  0.00     0.023 A 
ATOM     60  C   UNL A   1      47.168  28.132  24.888  1.00  0.00     0.031 A 
ATOM     61  C   UNL A   1      47.889  27.314  27.037  1.00  0.00     0.131 A 
ATOM     62  C   UNL A   1      48.328  27.585  24.320  1.00  0.00     0.055 A 
ATOM     63  C   UNL A   1      49.076  26.837  26.478  1.00  0.00     0.041 A 
ATOM     64  F   UNL A   1      47.695  27.115  28.350  1.00  0.00    -0.206 F 
ATOM     65  C   UNL A   1      49.296  26.960  25.110  1.00  0.00     0.022 A 
BRANCH  62  66
ATOM     66  S   UNL A   1      48.499  27.600  22.515  1.00  0.00     0.124 S 
ATOM     67  O   UNL A   1      47.303  28.338  22.114  1.00  0.00    -0.237 OA
ATOM     68  O   UNL A   1      49.769  28.289  22.322  1.00  0.00    -0.237 OA
ATOM     69  O   UNL A   1      48.497  26.183  22.159  1.00  0.00    -0.744 OA
ENDBRANCH  62  66
ENDBRANCH  45  59
BRANCH  46  70
ATOM     70  C   UNL A   1      38.550  30.655  31.075  1.00  0.00     0.023 A 
ATOM     71  C   UNL A   1      37.461  31.322  30.492  1.00  0.00     0.031 A 
ATOM     72  C   UNL A   1      38.504  30.403  32.457  1.00  0.00     0.131 A 
ATOM     73  C   UNL A   1      36.400  31.768  31.296  1.00  0.00     0.055 A 
ATOM     74  C   UNL A   1      37.422  30.801  33.244  1.00  0.00     0.041 A 
ATOM     75  F   UNL A   1      39.515  29.760  33.064  1.00  0.00    -0.206 F 
ATOM     76  C   UNL A   1      36.369  31.503  32.667  1.00  0.00     0.022 A 
BRANCH  73  77
ATOM     77  S   UNL A   1      35.109  32.794  30.539  1.00  0.00     0.124 S 
ATOM     78  O   UNL A   1      34.160  32.938  31.638  1.00  0.00    -0.237 OA
ATOM     79  O   UNL A   1      35.855  33.994  30.175  1.00  0.00    -0.237 OA
ATOM     80  O   UNL A   1      34.646  31.984  29.415  1.00  0.00    -0.744 OA
ENDBRANCH  73  77
ENDBRANCH  46  70
BRANCH  58  81
ATOM     81  C   UNL A   1      44.501  33.946  29.555  1.00  0.00     0.023 A 
ATOM     82  C   UNL A   1      44.201  35.018  28.696  1.00  0.00     0.031 A 
ATOM     83  C   UNL A   1      45.278  34.208  30.697  1.00  0.00     0.131 A 
ATOM     84  C   UNL A   1      44.719  36.293  28.966  1.00  0.00     0.055 A 
ATOM     85  C   UNL A   1      45.744  35.490  30.990  1.00  0.00     0.041 A 
ATOM     86  F   UNL A   1      45.593  33.219  31.550  1.00  0.00    -0.206 F 
ATOM     87  C   UNL A   1      45.476  36.538  30.115  1.00  0.00     0.022 A 
BRANCH  84  88
ATOM     88  S   UNL A   1      44.457  37.614  27.751  1.00  0.00     0.124 S 
ATOM     89  O   UNL A   1      43.423  37.039  26.896  1.00  0.00    -0.237 OA
ATOM     90  O   UNL A   1      44.041  38.732  28.590  1.00  0.00    -0.237 OA
ATOM     91  O   UNL A   1      45.768  37.766  27.122  1.00  0.00    -0.744 OA
ENDBRANCH  84  88
ENDBRANCH  58  81
ENDBRANCH  32  33
ENDBRANCH  24  27
ENDBRANCH  22  23
ENDBRANCH   1  22
TORSDOF 16
ENDMDL
