MODEL 1
REMARK VINA RESULT:     -12.1      0.000      0.000
REMARK SMILES CCc1cc(N2CCC(O)(C(=O)NCCCCNC(=O)c3ccc(-c4c5nc(c(-c6cc(S(=O)(=O)[O-])ccc6F)c6ccc([nH]6)c(-c6cc(S(=O)(=O)[O-])ccc6F)c6nc(c(-c7cc(S(=O)(=O)[O-])ccc7F)c7ccc4[nH]7)C=C6)C=C5)cc3)CC2)nc(N2CCOCC2)n1
REMARK SMILES IDX 16 1 15 2 14 3 13 4 11 5 12 6 9 8 6 9 7 10 85 11 8 12 84 13
REMARK SMILES IDX 5 14 3 15 4 16 94 17 87 18 86 19 2 20 1 21 88 22 89 23 93 24
REMARK SMILES IDX 90 25 92 26 91 27 10 28 17 30 18 31 19 32 20 34 21 35 22 36
REMARK SMILES IDX 83 37 23 38 82 39 24 40 25 41 26 42 76 43 27 44 81 45 75 46
REMARK SMILES IDX 77 47 28 48 80 49 74 50 73 51 29 53 61 54 41 55 60 56 42 57
REMARK SMILES IDX 45 58 59 59 78 60 43 61 44 62 58 64 79 65 46 66 30 67 31 68
REMARK SMILES IDX 39 69 32 70 38 71 40 72 37 73 33 74 34 75 35 76 36 77 62 78
REMARK SMILES IDX 63 79 71 80 64 81 70 82 72 83 69 84 65 85 66 86 67 87 68 88
REMARK SMILES IDX 47 89 48 90 56 91 49 92 55 93 57 94 54 95 50 96 51 97 52 98
REMARK SMILES IDX 53 99
REMARK H PARENT 13 7 10 29 18 33 77 52 45 63
REMARK Flexibility Score: inf
ROOT
ATOM      1  C   UNL A   1      31.750  31.655  26.822  1.00  0.00     0.023 C 
ENDROOT
BRANCH   1   2
ATOM      2  C   UNL A   1      31.954  30.155  26.609  1.00  0.00     0.023 C 
BRANCH   2   3
ATOM      3  C   UNL A   1      31.688  29.679  25.182  1.00  0.00     0.116 C 
BRANCH   3   4
ATOM      4  N   UNL A   1      32.913  29.646  24.409  1.00  0.00    -0.354 N 
ATOM      5  C   UNL A   1      33.384  28.693  23.549  1.00  0.00     0.252 C 
ATOM      6  O   UNL A   1      34.485  28.903  23.033  1.00  0.00    -0.272 OA
ATOM      7  H   UNL A   1      33.497  30.431  24.520  1.00  0.00     0.163 HD
BRANCH   5   8
ATOM      8  C   UNL A   1      32.554  27.414  23.244  1.00  0.00     0.146 C 
ATOM      9  N   UNL A   1      32.237  24.556  23.219  1.00  0.00    -0.356 N 
ATOM     10  C   UNL A   1      31.501  25.338  24.194  1.00  0.00     0.121 C 
ATOM     11  C   UNL A   1      32.713  25.183  21.998  1.00  0.00     0.121 C 
ATOM     12  C   UNL A   1      32.266  26.611  24.517  1.00  0.00     0.067 C 
ATOM     13  C   UNL A   1      33.364  26.532  22.268  1.00  0.00     0.067 C 
BRANCH   9  14
ATOM     14  C   UNL A   1      32.835  23.387  23.652  1.00  0.00     0.134 A 
ATOM     15  C   UNL A   1      32.855  21.034  23.786  1.00  0.00     0.048 A 
ATOM     16  C   UNL A   1      32.203  22.186  23.411  1.00  0.00     0.071 A 
ATOM     17  N   UNL A   1      34.075  21.077  24.363  1.00  0.00    -0.218 NA
ATOM     18  C   UNL A   1      34.599  22.286  24.621  1.00  0.00     0.227 A 
ATOM     19  N   UNL A   1      34.015  23.442  24.275  1.00  0.00    -0.196 NA
BRANCH  15  20
ATOM     20  C   UNL A   1      32.265  19.663  23.569  1.00  0.00     0.053 C 
ATOM     21  C   UNL A   1      33.094  18.479  24.063  1.00  0.00     0.011 C 
ENDBRANCH  15  20
BRANCH  18  22
ATOM     22  N   UNL A   1      35.811  22.378  25.235  1.00  0.00    -0.336 N 
ATOM     23  C   UNL A   1      36.154  23.598  25.949  1.00  0.00     0.148 C 
ATOM     24  C   UNL A   1      36.600  21.202  25.538  1.00  0.00     0.148 C 
ATOM     25  C   UNL A   1      37.657  23.866  25.787  1.00  0.00     0.181 C 
ATOM     26  C   UNL A   1      38.081  21.579  25.342  1.00  0.00     0.181 C 
ATOM     27  O   UNL A   1      38.448  22.715  26.149  1.00  0.00    -0.378 OA
ENDBRANCH  18  22
ENDBRANCH   9  14
BRANCH   8  28
ATOM     28  O   UNL A   1      31.311  27.814  22.645  1.00  0.00    -0.380 OA
ATOM     29  H   UNL A   1      31.167  28.760  22.801  1.00  0.00     0.212 HD
ENDBRANCH   8  28
ENDBRANCH   5   8
ENDBRANCH   3   4
ENDBRANCH   2   3
ENDBRANCH   1   2
BRANCH   1  30
ATOM     30  C   UNL A   1      33.018  32.431  27.148  1.00  0.00     0.116 C 
BRANCH  30  31
ATOM     31  N   UNL A   1      32.743  33.783  27.605  1.00  0.00    -0.352 N 
ATOM     32  C   UNL A   1      33.289  34.465  28.662  1.00  0.00     0.251 C 
ATOM     33  H   UNL A   1      32.071  34.278  27.083  1.00  0.00     0.163 HD
ATOM     34  O   UNL A   1      32.803  35.544  28.999  1.00  0.00    -0.269 OA
BRANCH  32  35
ATOM     35  C   UNL A   1      34.430  33.889  29.405  1.00  0.00     0.039 A 
ATOM     36  C   UNL A   1      34.172  32.961  30.417  1.00  0.00     0.014 A 
ATOM     37  C   UNL A   1      35.746  34.262  29.116  1.00  0.00     0.014 A 
ATOM     38  C   UNL A   1      35.236  32.380  31.108  1.00  0.00     0.010 A 
ATOM     39  C   UNL A   1      36.807  33.615  29.744  1.00  0.00     0.010 A 
ATOM     40  C   UNL A   1      36.564  32.682  30.761  1.00  0.00    -0.014 A 
BRANCH  40  41
ATOM     41  C   UNL A   1      37.699  32.050  31.484  1.00  0.00     0.031 A 
ATOM     42  C   UNL A   1      38.497  30.954  30.827  1.00  0.00     0.074 A 
ATOM     43  C   UNL A   1      37.998  32.452  32.735  1.00  0.00     0.049 A 
ATOM     44  N   UNL A   1      39.523  30.286  31.291  1.00  0.00    -0.248 NA
ATOM     45  C   UNL A   1      38.066  30.533  29.486  1.00  0.00     0.031 C 
ATOM     46  C   UNL A   1      37.266  33.470  33.493  1.00  0.00     0.029 A 
ATOM     47  N   UNL A   1      38.998  32.061  33.589  1.00  0.00    -0.354 N 
ATOM     48  C   UNL A   1      39.857  29.368  30.301  1.00  0.00     0.074 A 
ATOM     49  C   UNL A   1      38.874  29.512  29.249  1.00  0.00     0.031 C 
ATOM     50  C   UNL A   1      37.867  33.653  34.678  1.00  0.00     0.029 A 
ATOM     51  C   UNL A   1      38.998  32.737  34.788  1.00  0.00     0.049 A 
ATOM     52  H   UNL A   1      39.653  31.361  33.366  1.00  0.00     0.167 HD
ATOM     53  C   UNL A   1      40.902  28.504  30.259  1.00  0.00     0.034 A 
ATOM     54  C   UNL A   1      39.816  32.630  35.854  1.00  0.00     0.034 A 
ATOM     55  C   UNL A   1      41.876  28.377  31.318  1.00  0.00     0.049 A 
ATOM     56  C   UNL A   1      40.959  31.648  35.792  1.00  0.00     0.074 A 
ATOM     57  C   UNL A   1      42.998  27.569  31.364  1.00  0.00     0.029 A 
ATOM     58  N   UNL A   1      41.838  29.070  32.522  1.00  0.00    -0.354 N 
ATOM     59  N   UNL A   1      41.297  30.828  34.822  1.00  0.00    -0.248 NA
ATOM     60  C   UNL A   1      41.842  31.594  36.962  1.00  0.00     0.031 C 
ATOM     61  C   UNL A   1      43.594  27.715  32.621  1.00  0.00     0.029 A 
ATOM     62  C   UNL A   1      42.898  28.682  33.329  1.00  0.00     0.049 A 
ATOM     63  H   UNL A   1      41.158  29.738  32.767  1.00  0.00     0.167 HD
ATOM     64  C   UNL A   1      42.452  30.183  35.257  1.00  0.00     0.074 A 
ATOM     65  C   UNL A   1      42.765  30.734  36.559  1.00  0.00     0.031 C 
ATOM     66  C   UNL A   1      43.189  29.225  34.637  1.00  0.00     0.034 A 
BRANCH  53  67
ATOM     67  C   UNL A   1      41.023  27.617  29.041  1.00  0.00     0.023 A 
ATOM     68  C   UNL A   1      42.010  27.835  28.062  1.00  0.00     0.031 A 
ATOM     69  C   UNL A   1      40.121  26.557  28.836  1.00  0.00     0.131 A 
ATOM     70  C   UNL A   1      42.022  27.060  26.891  1.00  0.00     0.055 A 
ATOM     71  C   UNL A   1      40.195  25.732  27.712  1.00  0.00     0.041 A 
ATOM     72  F   UNL A   1      39.143  26.312  29.720  1.00  0.00    -0.206 F 
ATOM     73  C   UNL A   1      41.139  25.992  26.722  1.00  0.00     0.022 A 
BRANCH  70  74
ATOM     74  S   UNL A   1      43.103  27.571  25.526  1.00  0.00     0.124 S 
ATOM     75  O   UNL A   1      43.630  26.287  25.071  1.00  0.00    -0.237 OA
ATOM     76  O   UNL A   1      42.174  28.239  24.622  1.00  0.00    -0.237 OA
ATOM     77  O   UNL A   1      44.081  28.443  26.173  1.00  0.00    -0.744 OA
ENDBRANCH  70  74
ENDBRANCH  53  67
BRANCH  54  78
ATOM     78  C   UNL A   1      39.593  33.467  37.069  1.00  0.00     0.023 A 
ATOM     79  C   UNL A   1      38.878  32.972  38.172  1.00  0.00     0.031 A 
ATOM     80  C   UNL A   1      40.049  34.796  37.125  1.00  0.00     0.131 A 
ATOM     81  C   UNL A   1      38.592  33.814  39.256  1.00  0.00     0.055 A 
ATOM     82  C   UNL A   1      39.814  35.612  38.233  1.00  0.00     0.041 A 
ATOM     83  F   UNL A   1      40.741  35.320  36.100  1.00  0.00    -0.206 F 
ATOM     84  C   UNL A   1      39.068  35.127  39.301  1.00  0.00     0.022 A 
BRANCH  81  85
ATOM     85  S   UNL A   1      37.500  33.200  40.569  1.00  0.00     0.124 S 
ATOM     86  O   UNL A   1      36.318  32.806  39.812  1.00  0.00    -0.237 OA
ATOM     87  O   UNL A   1      38.291  32.114  41.138  1.00  0.00    -0.237 OA
ATOM     88  O   UNL A   1      37.326  34.363  41.438  1.00  0.00    -0.744 OA
ENDBRANCH  81  85
ENDBRANCH  54  78
BRANCH  66  89
ATOM     89  C   UNL A   1      44.430  28.747  35.356  1.00  0.00     0.023 A 
ATOM     90  C   UNL A   1      44.376  27.736  36.332  1.00  0.00     0.031 A 
ATOM     91  C   UNL A   1      45.676  29.345  35.097  1.00  0.00     0.131 A 
ATOM     92  C   UNL A   1      45.524  27.417  37.073  1.00  0.00     0.055 A 
ATOM     93  C   UNL A   1      46.832  28.966  35.780  1.00  0.00     0.041 A 
ATOM     94  F   UNL A   1      45.791  30.319  34.179  1.00  0.00    -0.206 F 
ATOM     95  C   UNL A   1      46.757  28.012  36.791  1.00  0.00     0.022 A 
BRANCH  92  96
ATOM     96  S   UNL A   1      45.353  26.324  38.511  1.00  0.00     0.124 S 
ATOM     97  O   UNL A   1      46.432  26.789  39.376  1.00  0.00    -0.237 OA
ATOM     98  O   UNL A   1      43.998  26.621  38.968  1.00  0.00    -0.237 OA
ATOM     99  O   UNL A   1      45.539  24.987  37.950  1.00  0.00    -0.744 OA
ENDBRANCH  92  96
ENDBRANCH  66  89
ENDBRANCH  40  41
ENDBRANCH  32  35
ENDBRANCH  30  31
ENDBRANCH   1  30
TORSDOF 18
ENDMDL
MODEL 2
REMARK VINA RESULT:     -12.1      3.065      8.490
REMARK SMILES CCc1cc(N2CCC(O)(C(=O)NCCCCNC(=O)c3ccc(-c4c5nc(c(-c6cc(S(=O)(=O)[O-])ccc6F)c6ccc([nH]6)c(-c6cc(S(=O)(=O)[O-])ccc6F)c6nc(c(-c7cc(S(=O)(=O)[O-])ccc7F)c7ccc4[nH]7)C=C6)C=C5)cc3)CC2)nc(N2CCOCC2)n1
REMARK SMILES IDX 16 1 15 2 14 3 13 4 11 5 12 6 9 8 6 9 7 10 85 11 8 12 84 13
REMARK SMILES IDX 5 14 3 15 4 16 94 17 87 18 86 19 2 20 1 21 88 22 89 23 93 24
REMARK SMILES IDX 90 25 92 26 91 27 10 28 17 30 18 31 19 32 20 34 21 35 22 36
REMARK SMILES IDX 83 37 23 38 82 39 24 40 25 41 26 42 76 43 27 44 81 45 75 46
REMARK SMILES IDX 77 47 28 48 80 49 74 50 73 51 29 53 61 54 41 55 60 56 42 57
REMARK SMILES IDX 45 58 59 59 78 60 43 61 44 62 58 64 79 65 46 66 30 67 31 68
REMARK SMILES IDX 39 69 32 70 38 71 40 72 37 73 33 74 34 75 35 76 36 77 62 78
REMARK SMILES IDX 63 79 71 80 64 81 70 82 72 83 69 84 65 85 66 86 67 87 68 88
REMARK SMILES IDX 47 89 48 90 56 91 49 92 55 93 57 94 54 95 50 96 51 97 52 98
REMARK SMILES IDX 53 99
REMARK H PARENT 13 7 10 29 18 33 77 52 45 63
REMARK Flexibility Score: inf
ROOT
ATOM      1  C   UNL A   1      34.050  28.503  24.987  1.00  0.00     0.023 C 
ENDROOT
BRANCH   1   2
ATOM      2  C   UNL A   1      33.228  29.110  23.850  1.00  0.00     0.023 C 
BRANCH   2   3
ATOM      3  C   UNL A   1      31.827  28.519  23.700  1.00  0.00     0.116 C 
BRANCH   3   4
ATOM      4  N   UNL A   1      31.718  27.745  22.479  1.00  0.00    -0.354 N 
ATOM      5  C   UNL A   1      31.642  26.392  22.302  1.00  0.00     0.252 C 
ATOM      6  O   UNL A   1      31.582  25.985  21.138  1.00  0.00    -0.272 OA
ATOM      7  H   UNL A   1      31.696  28.275  21.650  1.00  0.00     0.163 HD
BRANCH   5   8
ATOM      8  C   UNL A   1      31.629  25.426  23.521  1.00  0.00     0.146 C 
ATOM      9  N   UNL A   1      32.624  23.126  24.931  1.00  0.00    -0.356 N 
ATOM     10  C   UNL A   1      32.958  24.450  25.420  1.00  0.00     0.121 C 
ATOM     11  C   UNL A   1      31.451  22.937  24.092  1.00  0.00     0.121 C 
ATOM     12  C   UNL A   1      32.969  25.438  24.264  1.00  0.00     0.067 C 
ATOM     13  C   UNL A   1      31.355  23.997  23.004  1.00  0.00     0.067 C 
BRANCH   9  14
ATOM     14  C   UNL A   1      33.630  22.178  24.902  1.00  0.00     0.134 A 
ATOM     15  C   UNL A   1      35.920  21.632  25.004  1.00  0.00     0.048 A 
ATOM     16  C   UNL A   1      34.942  22.597  24.958  1.00  0.00     0.071 A 
ATOM     17  N   UNL A   1      35.607  20.319  25.002  1.00  0.00    -0.218 NA
ATOM     18  C   UNL A   1      34.311  19.988  24.884  1.00  0.00     0.227 A 
ATOM     19  N   UNL A   1      33.313  20.882  24.841  1.00  0.00    -0.196 NA
BRANCH  15  20
ATOM     20  C   UNL A   1      37.389  21.969  25.071  1.00  0.00     0.053 C 
ATOM     21  C   UNL A   1      37.755  23.286  25.753  1.00  0.00     0.011 C 
ENDBRANCH  15  20
BRANCH  18  22
ATOM     22  N   UNL A   1      33.951  18.675  24.842  1.00  0.00    -0.336 N 
ATOM     23  C   UNL A   1      34.863  17.709  24.248  1.00  0.00     0.148 C 
ATOM     24  C   UNL A   1      32.904  18.146  25.690  1.00  0.00     0.148 C 
ATOM     25  C   UNL A   1      34.044  16.625  23.531  1.00  0.00     0.181 C 
ATOM     26  C   UNL A   1      32.149  17.077  24.878  1.00  0.00     0.181 C 
ATOM     27  O   UNL A   1      33.042  16.053  24.396  1.00  0.00    -0.378 OA
ENDBRANCH  18  22
ENDBRANCH   9  14
BRANCH   8  28
ATOM     28  O   UNL A   1      30.588  25.845  24.417  1.00  0.00    -0.380 OA
ATOM     29  H   UNL A   1      29.933  25.136  24.506  1.00  0.00     0.212 HD
ENDBRANCH   8  28
ENDBRANCH   5   8
ENDBRANCH   3   4
ENDBRANCH   2   3
ENDBRANCH   1   2
BRANCH   1  30
ATOM     30  C   UNL A   1      33.538  28.823  26.384  1.00  0.00     0.116 C 
BRANCH  30  31
ATOM     31  N   UNL A   1      33.517  30.251  26.658  1.00  0.00    -0.352 N 
ATOM     32  C   UNL A   1      34.365  30.991  27.440  1.00  0.00     0.251 C 
ATOM     33  H   UNL A   1      32.794  30.755  26.221  1.00  0.00     0.163 HD
ATOM     34  O   UNL A   1      34.085  32.163  27.691  1.00  0.00    -0.269 OA
BRANCH  32  35
ATOM     35  C   UNL A   1      35.586  30.374  28.000  1.00  0.00     0.039 A 
ATOM     36  C   UNL A   1      36.763  30.411  27.249  1.00  0.00     0.014 A 
ATOM     37  C   UNL A   1      35.575  29.755  29.254  1.00  0.00     0.014 A 
ATOM     38  C   UNL A   1      37.934  29.864  27.773  1.00  0.00     0.010 A 
ATOM     39  C   UNL A   1      36.764  29.291  29.812  1.00  0.00     0.010 A 
ATOM     40  C   UNL A   1      37.953  29.321  29.069  1.00  0.00    -0.014 A 
BRANCH  40  41
ATOM     41  C   UNL A   1      39.204  28.755  29.637  1.00  0.00     0.031 A 
ATOM     42  C   UNL A   1      39.781  29.318  30.909  1.00  0.00     0.074 A 
ATOM     43  C   UNL A   1      39.828  27.746  28.997  1.00  0.00     0.049 A 
ATOM     44  N   UNL A   1      40.856  28.957  31.561  1.00  0.00    -0.248 NA
ATOM     45  C   UNL A   1      39.072  30.459  31.509  1.00  0.00     0.031 C 
ATOM     46  C   UNL A   1      39.391  27.150  27.732  1.00  0.00     0.029 A 
ATOM     47  N   UNL A   1      40.957  27.037  29.323  1.00  0.00    -0.354 N 
ATOM     48  C   UNL A   1      40.953  29.824  32.645  1.00  0.00     0.074 A 
ATOM     49  C   UNL A   1      39.873  30.778  32.514  1.00  0.00     0.031 C 
ATOM     50  C   UNL A   1      40.216  26.140  27.413  1.00  0.00     0.029 A 
ATOM     51  C   UNL A   1      41.266  26.043  28.423  1.00  0.00     0.049 A 
ATOM     52  H   UNL A   1      41.497  27.224  30.125  1.00  0.00     0.167 HD
ATOM     53  C   UNL A   1      41.842  29.810  33.669  1.00  0.00     0.034 A 
ATOM     54  C   UNL A   1      42.279  25.155  28.412  1.00  0.00     0.034 A 
ATOM     55  C   UNL A   1      42.912  28.848  33.785  1.00  0.00     0.049 A 
ATOM     56  C   UNL A   1      43.267  25.172  29.552  1.00  0.00     0.074 A 
ATOM     57  C   UNL A   1      43.842  28.711  34.801  1.00  0.00     0.029 A 
ATOM     58  N   UNL A   1      43.201  27.862  32.849  1.00  0.00    -0.354 N 
ATOM     59  N   UNL A   1      43.309  25.961  30.602  1.00  0.00    -0.248 NA
ATOM     60  C   UNL A   1      44.331  24.163  29.514  1.00  0.00     0.031 C 
ATOM     61  C   UNL A   1      44.738  27.697  34.443  1.00  0.00     0.029 A 
ATOM     62  C   UNL A   1      44.315  27.136  33.248  1.00  0.00     0.049 A 
ATOM     63  H   UNL A   1      42.690  27.701  32.023  1.00  0.00     0.167 HD
ATOM     64  C   UNL A   1      44.389  25.521  31.364  1.00  0.00     0.074 A 
ATOM     65  C   UNL A   1      44.946  24.380  30.666  1.00  0.00     0.031 C 
ATOM     66  C   UNL A   1      44.874  26.012  32.533  1.00  0.00     0.034 A 
BRANCH  53  67
ATOM     67  C   UNL A   1      41.704  30.884  34.725  1.00  0.00     0.023 A 
ATOM     68  C   UNL A   1      40.594  30.936  35.588  1.00  0.00     0.031 A 
ATOM     69  C   UNL A   1      42.679  31.891  34.852  1.00  0.00     0.131 A 
ATOM     70  C   UNL A   1      40.446  32.010  36.480  1.00  0.00     0.055 A 
ATOM     71  C   UNL A   1      42.571  32.906  35.804  1.00  0.00     0.041 A 
ATOM     72  F   UNL A   1      43.749  31.912  34.043  1.00  0.00    -0.206 F 
ATOM     73  C   UNL A   1      41.441  32.981  36.613  1.00  0.00     0.022 A 
BRANCH  70  74
ATOM     74  S   UNL A   1      38.864  32.204  37.346  1.00  0.00     0.124 S 
ATOM     75  O   UNL A   1      38.185  30.958  37.002  1.00  0.00    -0.237 OA
ATOM     76  O   UNL A   1      39.281  32.344  38.736  1.00  0.00    -0.237 OA
ATOM     77  O   UNL A   1      38.289  33.405  36.742  1.00  0.00    -0.744 OA
ENDBRANCH  70  74
ENDBRANCH  53  67
BRANCH  54  78
ATOM     78  C   UNL A   1      42.420  24.176  27.295  1.00  0.00     0.023 A 
ATOM     79  C   UNL A   1      41.843  22.898  27.371  1.00  0.00     0.031 A 
ATOM     80  C   UNL A   1      43.179  24.486  26.153  1.00  0.00     0.131 A 
ATOM     81  C   UNL A   1      42.079  21.960  26.355  1.00  0.00     0.055 A 
ATOM     82  C   UNL A   1      43.362  23.570  25.116  1.00  0.00     0.041 A 
ATOM     83  F   UNL A   1      43.752  25.695  26.026  1.00  0.00    -0.206 F 
ATOM     84  C   UNL A   1      42.823  22.293  25.220  1.00  0.00     0.022 A 
BRANCH  81  85
ATOM     85  S   UNL A   1      41.483  20.262  26.583  1.00  0.00     0.124 S 
ATOM     86  O   UNL A   1      42.163  19.871  27.812  1.00  0.00    -0.237 OA
ATOM     87  O   UNL A   1      40.041  20.458  26.681  1.00  0.00    -0.237 OA
ATOM     88  O   UNL A   1      41.935  19.577  25.372  1.00  0.00    -0.744 OA
ENDBRANCH  81  85
ENDBRANCH  54  78
BRANCH  66  89
ATOM     89  C   UNL A   1      46.048  25.281  33.144  1.00  0.00     0.023 A 
ATOM     90  C   UNL A   1      45.869  24.196  34.021  1.00  0.00     0.031 A 
ATOM     91  C   UNL A   1      47.364  25.706  32.884  1.00  0.00     0.131 A 
ATOM     92  C   UNL A   1      46.976  23.633  34.674  1.00  0.00     0.055 A 
ATOM     93  C   UNL A   1      48.468  25.088  33.474  1.00  0.00     0.041 A 
ATOM     94  F   UNL A   1      47.599  26.738  32.059  1.00  0.00    -0.206 F 
ATOM     95  C   UNL A   1      48.276  24.060  34.392  1.00  0.00     0.022 A 
BRANCH  92  96
ATOM     96  S   UNL A   1      46.682  22.439  36.008  1.00  0.00     0.124 S 
ATOM     97  O   UNL A   1      47.598  22.909  37.042  1.00  0.00    -0.237 OA
ATOM     98  O   UNL A   1      45.261  22.625  36.284  1.00  0.00    -0.237 OA
ATOM     99  O   UNL A   1      47.034  21.156  35.403  1.00  0.00    -0.744 OA
ENDBRANCH  92  96
ENDBRANCH  66  89
ENDBRANCH  40  41
ENDBRANCH  32  35
ENDBRANCH  30  31
ENDBRANCH   1  30
TORSDOF 18
ENDMDL
MODEL 3
REMARK VINA RESULT:     -12.0      1.586      2.459
REMARK SMILES CCc1cc(N2CCC(O)(C(=O)NCCCCNC(=O)c3ccc(-c4c5nc(c(-c6cc(S(=O)(=O)[O-])ccc6F)c6ccc([nH]6)c(-c6cc(S(=O)(=O)[O-])ccc6F)c6nc(c(-c7cc(S(=O)(=O)[O-])ccc7F)c7ccc4[nH]7)C=C6)C=C5)cc3)CC2)nc(N2CCOCC2)n1
REMARK SMILES IDX 16 1 15 2 14 3 13 4 11 5 12 6 9 8 6 9 7 10 85 11 8 12 84 13
REMARK SMILES IDX 5 14 3 15 4 16 94 17 87 18 86 19 2 20 1 21 88 22 89 23 93 24
REMARK SMILES IDX 90 25 92 26 91 27 10 28 17 30 18 31 19 32 20 34 21 35 22 36
REMARK SMILES IDX 83 37 23 38 82 39 24 40 25 41 26 42 76 43 27 44 81 45 75 46
REMARK SMILES IDX 77 47 28 48 80 49 74 50 73 51 29 53 61 54 41 55 60 56 42 57
REMARK SMILES IDX 45 58 59 59 78 60 43 61 44 62 58 64 79 65 46 66 30 67 31 68
REMARK SMILES IDX 39 69 32 70 38 71 40 72 37 73 33 74 34 75 35 76 36 77 62 78
REMARK SMILES IDX 63 79 71 80 64 81 70 82 72 83 69 84 65 85 66 86 67 87 68 88
REMARK SMILES IDX 47 89 48 90 56 91 49 92 55 93 57 94 54 95 50 96 51 97 52 98
REMARK SMILES IDX 53 99
REMARK H PARENT 13 7 10 29 18 33 77 52 45 63
REMARK Flexibility Score: inf
ROOT
ATOM      1  C   UNL A   1      31.561  31.612  26.779  1.00  0.00     0.023 C 
ENDROOT
BRANCH   1   2
ATOM      2  C   UNL A   1      31.723  30.115  26.517  1.00  0.00     0.023 C 
BRANCH   2   3
ATOM      3  C   UNL A   1      31.439  29.693  25.075  1.00  0.00     0.116 C 
BRANCH   3   4
ATOM      4  N   UNL A   1      32.635  29.790  24.262  1.00  0.00    -0.354 N 
ATOM      5  C   UNL A   1      33.194  28.879  23.411  1.00  0.00     0.252 C 
ATOM      6  O   UNL A   1      34.245  29.208  22.853  1.00  0.00    -0.272 OA
ATOM      7  H   UNL A   1      33.119  30.644  24.333  1.00  0.00     0.163 HD
BRANCH   5   8
ATOM      8  C   UNL A   1      32.523  27.497  23.167  1.00  0.00     0.146 C 
ATOM      9  N   UNL A   1      32.598  24.623  23.136  1.00  0.00    -0.356 N 
ATOM     10  C   UNL A   1      31.855  25.296  24.184  1.00  0.00     0.121 C 
ATOM     11  C   UNL A   1      32.869  25.310  21.884  1.00  0.00     0.121 C 
ATOM     12  C   UNL A   1      32.466  26.663  24.451  1.00  0.00     0.067 C 
ATOM     13  C   UNL A   1      33.352  26.735  22.110  1.00  0.00     0.067 C 
BRANCH   9  14
ATOM     14  C   UNL A   1      33.388  23.547  23.497  1.00  0.00     0.134 A 
ATOM     15  C   UNL A   1      35.496  22.668  24.078  1.00  0.00     0.048 A 
ATOM     16  C   UNL A   1      34.745  23.736  23.645  1.00  0.00     0.071 A 
ATOM     17  N   UNL A   1      34.924  21.477  24.355  1.00  0.00    -0.218 NA
ATOM     18  C   UNL A   1      33.606  21.352  24.128  1.00  0.00     0.227 A 
ATOM     19  N   UNL A   1      32.821  22.357  23.713  1.00  0.00    -0.196 NA
BRANCH  15  20
ATOM     20  C   UNL A   1      36.988  22.756  24.281  1.00  0.00     0.053 C 
ATOM     21  C   UNL A   1      37.461  23.301  25.628  1.00  0.00     0.011 C 
ENDBRANCH  15  20
BRANCH  18  22
ATOM     22  N   UNL A   1      32.992  20.159  24.359  1.00  0.00    -0.336 N 
ATOM     23  C   UNL A   1      32.698  19.766  25.728  1.00  0.00     0.148 C 
ATOM     24  C   UNL A   1      32.281  19.455  23.312  1.00  0.00     0.148 C 
ATOM     25  C   UNL A   1      32.859  18.244  25.857  1.00  0.00     0.181 C 
ATOM     26  C   UNL A   1      32.510  17.948  23.533  1.00  0.00     0.181 C 
ATOM     27  O   UNL A   1      32.099  17.540  24.853  1.00  0.00    -0.378 OA
ENDBRANCH  18  22
ENDBRANCH   9  14
BRANCH   8  28
ATOM     28  O   UNL A   1      31.186  27.723  22.690  1.00  0.00    -0.380 OA
ATOM     29  H   UNL A   1      31.201  27.834  21.727  1.00  0.00     0.212 HD
ENDBRANCH   8  28
ENDBRANCH   5   8
ENDBRANCH   3   4
ENDBRANCH   2   3
ENDBRANCH   1   2
BRANCH   1  30
ATOM     30  C   UNL A   1      32.869  32.382  26.902  1.00  0.00     0.116 C 
BRANCH  30  31
ATOM     31  N   UNL A   1      32.675  33.732  27.404  1.00  0.00    -0.352 N 
ATOM     32  C   UNL A   1      33.263  34.344  28.481  1.00  0.00     0.251 C 
ATOM     33  H   UNL A   1      32.033  34.284  26.902  1.00  0.00     0.163 HD
ATOM     34  O   UNL A   1      32.843  35.438  28.857  1.00  0.00    -0.269 OA
BRANCH  32  35
ATOM     35  C   UNL A   1      34.370  33.677  29.200  1.00  0.00     0.039 A 
ATOM     36  C   UNL A   1      35.670  34.155  29.024  1.00  0.00     0.014 A 
ATOM     37  C   UNL A   1      34.133  32.583  30.038  1.00  0.00     0.014 A 
ATOM     38  C   UNL A   1      36.724  33.560  29.719  1.00  0.00     0.010 A 
ATOM     39  C   UNL A   1      35.172  32.051  30.799  1.00  0.00     0.010 A 
ATOM     40  C   UNL A   1      36.482  32.520  30.632  1.00  0.00    -0.014 A 
BRANCH  40  41
ATOM     41  C   UNL A   1      37.601  31.899  31.387  1.00  0.00     0.031 A 
ATOM     42  C   UNL A   1      38.448  30.832  30.743  1.00  0.00     0.074 A 
ATOM     43  C   UNL A   1      37.842  32.283  32.656  1.00  0.00     0.049 A 
ATOM     44  N   UNL A   1      39.469  30.177  31.235  1.00  0.00    -0.248 NA
ATOM     45  C   UNL A   1      38.079  30.427  29.378  1.00  0.00     0.031 C 
ATOM     46  C   UNL A   1      37.059  33.271  33.402  1.00  0.00     0.029 A 
ATOM     47  N   UNL A   1      38.816  31.897  33.542  1.00  0.00    -0.354 N 
ATOM     48  C   UNL A   1      39.862  29.285  30.242  1.00  0.00     0.074 A 
ATOM     49  C   UNL A   1      38.918  29.428  29.155  1.00  0.00     0.031 C 
ATOM     50  C   UNL A   1      37.609  33.444  34.614  1.00  0.00     0.029 A 
ATOM     51  C   UNL A   1      38.755  32.550  34.752  1.00  0.00     0.049 A 
ATOM     52  H   UNL A   1      39.495  31.215  33.332  1.00  0.00     0.167 HD
ATOM     53  C   UNL A   1      40.926  28.444  30.227  1.00  0.00     0.034 A 
ATOM     54  C   UNL A   1      39.532  32.441  35.847  1.00  0.00     0.034 A 
ATOM     55  C   UNL A   1      41.860  28.318  31.320  1.00  0.00     0.049 A 
ATOM     56  C   UNL A   1      40.698  31.485  35.813  1.00  0.00     0.074 A 
ATOM     57  C   UNL A   1      42.998  27.533  31.396  1.00  0.00     0.029 A 
ATOM     58  N   UNL A   1      41.760  28.987  32.535  1.00  0.00    -0.354 N 
ATOM     59  N   UNL A   1      41.092  30.690  34.843  1.00  0.00    -0.248 NA
ATOM     60  C   UNL A   1      41.536  31.427  37.016  1.00  0.00     0.031 C 
ATOM     61  C   UNL A   1      43.540  27.668  32.679  1.00  0.00     0.029 A 
ATOM     62  C   UNL A   1      42.796  28.607  33.376  1.00  0.00     0.049 A 
ATOM     63  H   UNL A   1      41.057  29.636  32.764  1.00  0.00     0.167 HD
ATOM     64  C   UNL A   1      42.243  30.062  35.311  1.00  0.00     0.074 A 
ATOM     65  C   UNL A   1      42.493  30.594  36.634  1.00  0.00     0.031 C 
ATOM     66  C   UNL A   1      43.024  29.131  34.703  1.00  0.00     0.034 A 
BRANCH  53  67
ATOM     67  C   UNL A   1      41.114  27.583  28.998  1.00  0.00     0.023 A 
ATOM     68  C   UNL A   1      42.125  27.848  28.056  1.00  0.00     0.031 A 
ATOM     69  C   UNL A   1      40.253  26.499  28.747  1.00  0.00     0.131 A 
ATOM     70  C   UNL A   1      42.198  27.095  26.873  1.00  0.00     0.055 A 
ATOM     71  C   UNL A   1      40.389  25.697  27.612  1.00  0.00     0.041 A 
ATOM     72  F   UNL A   1      39.255  26.208  29.594  1.00  0.00    -0.206 F 
ATOM     73  C   UNL A   1      41.355  26.003  26.658  1.00  0.00     0.022 A 
BRANCH  70  74
ATOM     74  S   UNL A   1      43.306  27.662  25.553  1.00  0.00     0.124 S 
ATOM     75  O   UNL A   1      44.000  28.769  26.206  1.00  0.00    -0.237 OA
ATOM     76  O   UNL A   1      44.107  26.475  25.282  1.00  0.00    -0.237 OA
ATOM     77  O   UNL A   1      42.390  28.056  24.484  1.00  0.00    -0.744 OA
ENDBRANCH  70  74
ENDBRANCH  53  67
BRANCH  54  78
ATOM     78  C   UNL A   1      39.244  33.250  37.067  1.00  0.00     0.023 A 
ATOM     79  C   UNL A   1      39.860  34.495  37.276  1.00  0.00     0.031 A 
ATOM     80  C   UNL A   1      38.386  32.765  38.070  1.00  0.00     0.131 A 
ATOM     81  C   UNL A   1      39.653  35.185  38.480  1.00  0.00     0.055 A 
ATOM     82  C   UNL A   1      38.137  33.483  39.240  1.00  0.00     0.041 A 
ATOM     83  F   UNL A   1      37.769  31.581  37.922  1.00  0.00    -0.206 F 
ATOM     84  C   UNL A   1      38.784  34.695  39.457  1.00  0.00     0.022 A 
BRANCH  81  85
ATOM     85  S   UNL A   1      40.617  36.690  38.795  1.00  0.00     0.124 S 
ATOM     86  O   UNL A   1      39.568  37.694  38.920  1.00  0.00    -0.237 OA
ATOM     87  O   UNL A   1      41.325  36.344  40.023  1.00  0.00    -0.237 OA
ATOM     88  O   UNL A   1      41.459  36.809  37.606  1.00  0.00    -0.744 OA
ENDBRANCH  81  85
ENDBRANCH  54  78
BRANCH  66  89
ATOM     89  C   UNL A   1      44.246  28.666  35.462  1.00  0.00     0.023 A 
ATOM     90  C   UNL A   1      44.191  27.588  36.363  1.00  0.00     0.031 A 
ATOM     91  C   UNL A   1      45.471  29.341  35.319  1.00  0.00     0.131 A 
ATOM     92  C   UNL A   1      45.311  27.275  37.150  1.00  0.00     0.055 A 
ATOM     93  C   UNL A   1      46.605  28.973  36.044  1.00  0.00     0.041 A 
ATOM     94  F   UNL A   1      45.586  30.381  34.477  1.00  0.00    -0.206 F 
ATOM     95  C   UNL A   1      46.523  27.949  36.982  1.00  0.00     0.022 A 
BRANCH  92  96
ATOM     96  S   UNL A   1      45.116  26.077  38.498  1.00  0.00     0.124 S 
ATOM     97  O   UNL A   1      46.498  25.686  38.757  1.00  0.00    -0.237 OA
ATOM     98  O   UNL A   1      44.476  26.878  39.537  1.00  0.00    -0.237 OA
ATOM     99  O   UNL A   1      44.276  25.035  37.912  1.00  0.00    -0.744 OA
ENDBRANCH  92  96
ENDBRANCH  66  89
ENDBRANCH  40  41
ENDBRANCH  32  35
ENDBRANCH  30  31
ENDBRANCH   1  30
TORSDOF 18
ENDMDL
