MODEL 1
REMARK VINA RESULT:     -11.7      0.000      0.000
REMARK SMILES COCCCN1C(=O)CC[C@@H](C(=O)NCCCCNC(=O)c2ccc(-c3c4nc(c(-c5cc(S(=O)(=O)[O-])ccc5F)c5ccc([nH]5)c(-c5cc(S(=O)(=O)[O-])ccc5F)c5nc(c(-c6cc(S(=O)(=O)[O-])ccc6F)c6ccc3[nH]6)C=C5)C=C4)cc2)[C@@H]1c1ccc(F)cc1
REMARK SMILES IDX 16 1 15 2 14 3 12 4 13 5 11 7 6 8 7 9 85 10 8 11 9 12 10 13
REMARK SMILES IDX 5 14 4 15 3 16 2 17 1 18 86 19 87 20 92 21 88 22 91 23 89 24
REMARK SMILES IDX 90 25 17 26 18 27 19 28 20 29 21 31 22 32 23 33 84 34 24 35
REMARK SMILES IDX 83 36 25 37 26 38 27 39 77 40 28 41 82 42 76 43 78 44 29 45
REMARK SMILES IDX 81 46 75 47 74 48 30 50 62 51 42 52 61 53 43 54 46 55 60 56
REMARK SMILES IDX 79 57 44 58 45 59 59 61 80 62 47 63 31 64 32 65 40 66 33 67
REMARK SMILES IDX 39 68 41 69 38 70 34 71 35 72 36 73 37 74 63 75 64 76 72 77
REMARK SMILES IDX 65 78 71 79 73 80 70 81 66 82 67 83 68 84 69 85 48 86 49 87
REMARK SMILES IDX 57 88 50 89 56 90 58 91 55 92 51 93 52 94 53 95 54 96
REMARK H PARENT 14 6 19 30 78 49 46 60
REMARK Flexibility Score: inf
ROOT
ATOM      1  C   UNL A   1      31.763  30.186  26.649  1.00  0.00     0.023 C 
ENDROOT
BRANCH   1   2
ATOM      2  C   UNL A   1      33.137  29.565  26.422  1.00  0.00     0.116 C 
BRANCH   2   3
ATOM      3  N   UNL A   1      33.541  29.629  25.031  1.00  0.00    -0.356 N 
ATOM      4  C   UNL A   1      33.712  28.631  24.120  1.00  0.00     0.225 C 
ATOM      5  O   UNL A   1      34.178  28.938  23.023  1.00  0.00    -0.275 OA
ATOM      6  H   UNL A   1      33.720  30.536  24.692  1.00  0.00     0.163 HD
BRANCH   4   7
ATOM      7  C   UNL A   1      33.331  27.196  24.481  1.00  0.00     0.106 C 
ATOM      8  N   UNL A   1      31.280  27.043  23.058  1.00  0.00    -0.335 N 
ATOM      9  C   UNL A   1      31.938  26.405  22.016  1.00  0.00     0.223 C 
ATOM     10  C   UNL A   1      31.803  27.012  24.433  1.00  0.00     0.128 C 
ATOM     11  O   UNL A   1      31.373  26.086  20.969  1.00  0.00    -0.275 OA
ATOM     12  C   UNL A   1      33.432  26.190  22.148  1.00  0.00     0.101 C 
ATOM     13  C   UNL A   1      33.993  26.171  23.561  1.00  0.00     0.026 C 
BRANCH   8  14
ATOM     14  C   UNL A   1      29.908  27.534  22.856  1.00  0.00     0.122 C 
BRANCH  14  15
ATOM     15  C   UNL A   1      29.732  29.032  23.114  1.00  0.00     0.050 C 
BRANCH  15  16
ATOM     16  C   UNL A   1      30.156  29.953  21.974  1.00  0.00     0.161 C 
BRANCH  16  17
ATOM     17  O   UNL A   1      29.051  30.439  21.216  1.00  0.00    -0.385 OA
ATOM     18  C   UNL A   1      28.390  31.549  21.806  1.00  0.00     0.194 C 
ENDBRANCH  16  17
ENDBRANCH  15  16
ENDBRANCH  14  15
ENDBRANCH   8  14
BRANCH  10  19
ATOM     19  C   UNL A   1      31.331  25.769  25.215  1.00  0.00    -0.024 A 
ATOM     20  C   UNL A   1      32.010  24.536  25.160  1.00  0.00     0.009 A 
ATOM     21  C   UNL A   1      30.142  25.828  25.969  1.00  0.00     0.009 A 
ATOM     22  C   UNL A   1      31.511  23.405  25.810  1.00  0.00     0.039 A 
ATOM     23  C   UNL A   1      29.650  24.699  26.629  1.00  0.00     0.039 A 
ATOM     24  C   UNL A   1      30.334  23.496  26.537  1.00  0.00     0.123 A 
ATOM     25  F   UNL A   1      29.850  22.409  27.150  1.00  0.00    -0.207 F 
ENDBRANCH  10  19
ENDBRANCH   4   7
ENDBRANCH   2   3
ENDBRANCH   1   2
BRANCH   1  26
ATOM     26  C   UNL A   1      31.740  31.714  26.625  1.00  0.00     0.023 C 
BRANCH  26  27
ATOM     27  C   UNL A   1      32.888  32.395  27.363  1.00  0.00     0.116 C 
BRANCH  27  28
ATOM     28  N   UNL A   1      32.621  33.795  27.646  1.00  0.00    -0.352 N 
ATOM     29  C   UNL A   1      33.191  34.614  28.594  1.00  0.00     0.251 C 
ATOM     30  H   UNL A   1      31.937  34.218  27.077  1.00  0.00     0.163 HD
ATOM     31  O   UNL A   1      32.719  35.726  28.793  1.00  0.00    -0.269 OA
BRANCH  29  32
ATOM     32  C   UNL A   1      34.343  34.129  29.387  1.00  0.00     0.039 A 
ATOM     33  C   UNL A   1      34.108  33.279  30.471  1.00  0.00     0.014 A 
ATOM     34  C   UNL A   1      35.650  34.498  29.057  1.00  0.00     0.014 A 
ATOM     35  C   UNL A   1      35.188  32.747  31.181  1.00  0.00     0.010 A 
ATOM     36  C   UNL A   1      36.724  33.902  29.712  1.00  0.00     0.010 A 
ATOM     37  C   UNL A   1      36.507  33.024  30.784  1.00  0.00    -0.014 A 
BRANCH  37  38
ATOM     38  C   UNL A   1      37.669  32.421  31.490  1.00  0.00     0.031 A 
ATOM     39  C   UNL A   1      38.440  31.299  30.846  1.00  0.00     0.074 A 
ATOM     40  C   UNL A   1      37.996  32.839  32.730  1.00  0.00     0.049 A 
ATOM     41  N   UNL A   1      39.427  30.587  31.328  1.00  0.00    -0.248 NA
ATOM     42  C   UNL A   1      38.023  30.906  29.492  1.00  0.00     0.031 C 
ATOM     43  C   UNL A   1      37.305  33.894  33.475  1.00  0.00     0.029 A 
ATOM     44  N   UNL A   1      38.985  32.425  33.587  1.00  0.00    -0.354 N 
ATOM     45  C   UNL A   1      39.741  29.656  30.343  1.00  0.00     0.074 A 
ATOM     46  C   UNL A   1      38.791  29.851  29.268  1.00  0.00     0.031 C 
ATOM     47  C   UNL A   1      37.909  34.063  34.662  1.00  0.00     0.029 A 
ATOM     48  C   UNL A   1      38.994  33.095  34.790  1.00  0.00     0.049 A 
ATOM     49  H   UNL A   1      39.628  31.715  33.363  1.00  0.00     0.167 HD
ATOM     50  C   UNL A   1      40.741  28.741  30.325  1.00  0.00     0.034 A 
ATOM     51  C   UNL A   1      39.777  32.938  35.877  1.00  0.00     0.034 A 
ATOM     52  C   UNL A   1      41.685  28.566  31.402  1.00  0.00     0.049 A 
ATOM     53  C   UNL A   1      40.861  31.889  35.849  1.00  0.00     0.074 A 
ATOM     54  C   UNL A   1      42.764  27.700  31.470  1.00  0.00     0.029 A 
ATOM     55  N   UNL A   1      41.660  29.260  32.606  1.00  0.00    -0.354 N 
ATOM     56  N   UNL A   1      41.172  31.046  34.890  1.00  0.00    -0.248 NA
ATOM     57  C   UNL A   1      41.708  31.779  37.043  1.00  0.00     0.031 C 
ATOM     58  C   UNL A   1      43.342  27.816  32.739  1.00  0.00     0.029 A 
ATOM     59  C   UNL A   1      42.684  28.820  33.431  1.00  0.00     0.049 A 
ATOM     60  H   UNL A   1      41.010  29.962  32.838  1.00  0.00     0.167 HD
ATOM     61  C   UNL A   1      42.276  30.335  35.355  1.00  0.00     0.074 A 
ATOM     62  C   UNL A   1      42.582  30.857  36.670  1.00  0.00     0.031 C 
ATOM     63  C   UNL A   1      42.979  29.345  34.745  1.00  0.00     0.034 A 
BRANCH  50  64
ATOM     64  C   UNL A   1      40.844  27.846  29.112  1.00  0.00     0.023 A 
ATOM     65  C   UNL A   1      41.838  28.036  28.134  1.00  0.00     0.031 A 
ATOM     66  C   UNL A   1      39.920  26.805  28.912  1.00  0.00     0.131 A 
ATOM     67  C   UNL A   1      41.834  27.256  26.968  1.00  0.00     0.055 A 
ATOM     68  C   UNL A   1      39.978  25.973  27.793  1.00  0.00     0.041 A 
ATOM     69  F   UNL A   1      38.934  26.587  29.796  1.00  0.00    -0.206 F 
ATOM     70  C   UNL A   1      40.929  26.206  26.804  1.00  0.00     0.022 A 
BRANCH  67  71
ATOM     71  S   UNL A   1      42.928  27.735  25.604  1.00  0.00     0.124 S 
ATOM     72  O   UNL A   1      43.341  26.432  25.086  1.00  0.00    -0.237 OA
ATOM     73  O   UNL A   1      42.042  28.511  24.746  1.00  0.00    -0.237 OA
ATOM     74  O   UNL A   1      43.986  28.497  26.263  1.00  0.00    -0.744 OA
ENDBRANCH  67  71
ENDBRANCH  50  64
BRANCH  51  75
ATOM     75  C   UNL A   1      39.567  33.782  37.090  1.00  0.00     0.023 A 
ATOM     76  C   UNL A   1      38.918  33.269  38.225  1.00  0.00     0.031 A 
ATOM     77  C   UNL A   1      39.965  35.130  37.114  1.00  0.00     0.131 A 
ATOM     78  C   UNL A   1      38.640  34.111  39.313  1.00  0.00     0.055 A 
ATOM     79  C   UNL A   1      39.740  35.949  38.223  1.00  0.00     0.041 A 
ATOM     80  F   UNL A   1      40.592  35.672  36.057  1.00  0.00    -0.206 F 
ATOM     81  C   UNL A   1      39.060  35.443  39.326  1.00  0.00     0.022 A 
BRANCH  78  82
ATOM     82  S   UNL A   1      37.631  33.466  40.676  1.00  0.00     0.124 S 
ATOM     83  O   UNL A   1      37.235  34.693  41.358  1.00  0.00    -0.237 OA
ATOM     84  O   UNL A   1      36.575  32.758  39.960  1.00  0.00    -0.237 OA
ATOM     85  O   UNL A   1      38.561  32.613  41.413  1.00  0.00    -0.744 OA
ENDBRANCH  78  82
ENDBRANCH  51  75
BRANCH  63  86
ATOM     86  C   UNL A   1      44.188  28.808  35.473  1.00  0.00     0.023 A 
ATOM     87  C   UNL A   1      44.095  27.763  36.408  1.00  0.00     0.031 A 
ATOM     88  C   UNL A   1      45.459  29.363  35.230  1.00  0.00     0.131 A 
ATOM     89  C   UNL A   1      45.238  27.347  37.108  1.00  0.00     0.055 A 
ATOM     90  C   UNL A   1      46.603  28.899  35.880  1.00  0.00     0.041 A 
ATOM     91  F   UNL A   1      45.609  30.368  34.351  1.00  0.00    -0.206 F 
ATOM     92  C   UNL A   1      46.493  27.895  36.836  1.00  0.00     0.022 A 
BRANCH  89  93
ATOM     93  S   UNL A   1      45.045  26.152  38.460  1.00  0.00     0.124 S 
ATOM     94  O   UNL A   1      44.580  24.964  37.752  1.00  0.00    -0.237 OA
ATOM     95  O   UNL A   1      46.396  26.079  39.007  1.00  0.00    -0.237 OA
ATOM     96  O   UNL A   1      44.056  26.779  39.334  1.00  0.00    -0.744 OA
ENDBRANCH  89  93
ENDBRANCH  63  86
ENDBRANCH  37  38
ENDBRANCH  29  32
ENDBRANCH  27  28
ENDBRANCH  26  27
ENDBRANCH   1  26
TORSDOF 19
ENDMDL
MODEL 2
REMARK VINA RESULT:     -11.5      1.921      8.154
REMARK SMILES COCCCN1C(=O)CC[C@@H](C(=O)NCCCCNC(=O)c2ccc(-c3c4nc(c(-c5cc(S(=O)(=O)[O-])ccc5F)c5ccc([nH]5)c(-c5cc(S(=O)(=O)[O-])ccc5F)c5nc(c(-c6cc(S(=O)(=O)[O-])ccc6F)c6ccc3[nH]6)C=C5)C=C4)cc2)[C@@H]1c1ccc(F)cc1
REMARK SMILES IDX 16 1 15 2 14 3 12 4 13 5 11 7 6 8 7 9 85 10 8 11 9 12 10 13
REMARK SMILES IDX 5 14 4 15 3 16 2 17 1 18 86 19 87 20 92 21 88 22 91 23 89 24
REMARK SMILES IDX 90 25 17 26 18 27 19 28 20 29 21 31 22 32 23 33 84 34 24 35
REMARK SMILES IDX 83 36 25 37 26 38 27 39 77 40 28 41 82 42 76 43 78 44 29 45
REMARK SMILES IDX 81 46 75 47 74 48 30 50 62 51 42 52 61 53 43 54 46 55 60 56
REMARK SMILES IDX 79 57 44 58 45 59 59 61 80 62 47 63 31 64 32 65 40 66 33 67
REMARK SMILES IDX 39 68 41 69 38 70 34 71 35 72 36 73 37 74 63 75 64 76 72 77
REMARK SMILES IDX 65 78 71 79 73 80 70 81 66 82 67 83 68 84 69 85 48 86 49 87
REMARK SMILES IDX 57 88 50 89 56 90 58 91 55 92 51 93 52 94 53 95 54 96
REMARK H PARENT 14 6 19 30 78 49 46 60
REMARK Flexibility Score: inf
ROOT
ATOM      1  C   UNL A   1      34.799  31.234  28.105  1.00  0.00     0.023 C 
ENDROOT
BRANCH   1   2
ATOM      2  C   UNL A   1      34.748  29.884  27.396  1.00  0.00     0.116 C 
BRANCH   2   3
ATOM      3  N   UNL A   1      33.499  29.189  27.637  1.00  0.00    -0.356 N 
ATOM      4  C   UNL A   1      32.953  28.117  26.998  1.00  0.00     0.225 C 
ATOM      5  O   UNL A   1      31.815  27.782  27.322  1.00  0.00    -0.275 OA
ATOM      6  H   UNL A   1      32.961  29.547  28.380  1.00  0.00     0.163 HD
BRANCH   4   7
ATOM      7  C   UNL A   1      33.753  27.383  25.922  1.00  0.00     0.106 C 
ATOM      8  N   UNL A   1      31.869  26.028  24.991  1.00  0.00    -0.335 N 
ATOM      9  C   UNL A   1      31.631  26.908  23.945  1.00  0.00     0.223 C 
ATOM     10  C   UNL A   1      33.171  25.979  25.675  1.00  0.00     0.128 C 
ATOM     11  O   UNL A   1      30.732  26.734  23.122  1.00  0.00    -0.275 OA
ATOM     12  C   UNL A   1      32.453  28.180  23.889  1.00  0.00     0.101 C 
ATOM     13  C   UNL A   1      33.794  28.154  24.603  1.00  0.00     0.026 C 
BRANCH   8  14
ATOM     14  C   UNL A   1      30.912  24.942  25.256  1.00  0.00     0.122 C 
BRANCH  14  15
ATOM     15  C   UNL A   1      31.033  24.327  26.653  1.00  0.00     0.050 C 
BRANCH  15  16
ATOM     16  C   UNL A   1      31.611  22.915  26.705  1.00  0.00     0.161 C 
BRANCH  16  17
ATOM     17  O   UNL A   1      32.376  22.675  27.883  1.00  0.00    -0.385 OA
ATOM     18  C   UNL A   1      33.576  21.949  27.654  1.00  0.00     0.194 C 
ENDBRANCH  16  17
ENDBRANCH  15  16
ENDBRANCH  14  15
ENDBRANCH   8  14
BRANCH  10  19
ATOM     19  C   UNL A   1      34.171  25.038  24.973  1.00  0.00    -0.024 A 
ATOM     20  C   UNL A   1      33.959  24.544  23.670  1.00  0.00     0.009 A 
ATOM     21  C   UNL A   1      35.313  24.591  25.665  1.00  0.00     0.009 A 
ATOM     22  C   UNL A   1      34.839  23.625  23.093  1.00  0.00     0.039 A 
ATOM     23  C   UNL A   1      36.200  23.681  25.081  1.00  0.00     0.039 A 
ATOM     24  C   UNL A   1      35.950  23.200  23.804  1.00  0.00     0.123 A 
ATOM     25  F   UNL A   1      36.786  22.311  23.256  1.00  0.00    -0.207 F 
ENDBRANCH  10  19
ENDBRANCH   4   7
ENDBRANCH   2   3
ENDBRANCH   1   2
BRANCH   1  26
ATOM     26  C   UNL A   1      33.577  32.122  27.878  1.00  0.00     0.023 C 
BRANCH  26  27
ATOM     27  C   UNL A   1      33.878  33.600  27.651  1.00  0.00     0.116 C 
BRANCH  27  28
ATOM     28  N   UNL A   1      33.223  34.462  28.621  1.00  0.00    -0.352 N 
ATOM     29  C   UNL A   1      33.483  34.612  29.965  1.00  0.00     0.251 C 
ATOM     30  H   UNL A   1      32.492  35.017  28.267  1.00  0.00     0.163 HD
ATOM     31  O   UNL A   1      32.716  35.268  30.658  1.00  0.00    -0.269 OA
BRANCH  29  32
ATOM     32  C   UNL A   1      34.666  33.953  30.563  1.00  0.00     0.039 A 
ATOM     33  C   UNL A   1      34.471  32.886  31.442  1.00  0.00     0.014 A 
ATOM     34  C   UNL A   1      35.961  34.376  30.249  1.00  0.00     0.014 A 
ATOM     35  C   UNL A   1      35.577  32.200  31.954  1.00  0.00     0.010 A 
ATOM     36  C   UNL A   1      37.056  33.640  30.692  1.00  0.00     0.010 A 
ATOM     37  C   UNL A   1      36.878  32.547  31.554  1.00  0.00    -0.014 A 
BRANCH  37  38
ATOM     38  C   UNL A   1      38.064  31.792  32.041  1.00  0.00     0.031 A 
ATOM     39  C   UNL A   1      38.689  32.145  33.364  1.00  0.00     0.074 A 
ATOM     40  C   UNL A   1      38.613  30.830  31.270  1.00  0.00     0.049 A 
ATOM     41  N   UNL A   1      39.770  31.666  33.926  1.00  0.00    -0.248 NA
ATOM     42  C   UNL A   1      38.026  33.201  34.144  1.00  0.00     0.031 C 
ATOM     43  C   UNL A   1      38.122  30.419  29.954  1.00  0.00     0.029 A 
ATOM     44  N   UNL A   1      39.710  30.030  31.477  1.00  0.00    -0.354 N 
ATOM     45  C   UNL A   1      39.923  32.368  35.117  1.00  0.00     0.074 A 
ATOM     46  C   UNL A   1      38.863  33.354  35.158  1.00  0.00     0.031 C 
ATOM     47  C   UNL A   1      38.894  29.426  29.485  1.00  0.00     0.029 A 
ATOM     48  C   UNL A   1      39.968  29.163  30.439  1.00  0.00     0.049 A 
ATOM     49  H   UNL A   1      40.260  30.071  32.292  1.00  0.00     0.167 HD
ATOM     50  C   UNL A   1      40.845  32.193  36.095  1.00  0.00     0.034 A 
ATOM     51  C   UNL A   1      40.964  28.271  30.266  1.00  0.00     0.034 A 
ATOM     52  C   UNL A   1      41.891  31.200  36.041  1.00  0.00     0.049 A 
ATOM     53  C   UNL A   1      42.000  28.117  31.352  1.00  0.00     0.074 A 
ATOM     54  C   UNL A   1      42.851  30.906  36.995  1.00  0.00     0.029 A 
ATOM     55  N   UNL A   1      42.123  30.343  34.971  1.00  0.00    -0.354 N 
ATOM     56  N   UNL A   1      42.104  28.761  32.493  1.00  0.00    -0.248 NA
ATOM     57  C   UNL A   1      43.045  27.109  31.133  1.00  0.00     0.031 C 
ATOM     58  C   UNL A   1      43.705  29.930  36.473  1.00  0.00     0.029 A 
ATOM     59  C   UNL A   1      43.227  29.545  35.231  1.00  0.00     0.049 A 
ATOM     60  H   UNL A   1      41.582  30.308  34.150  1.00  0.00     0.167 HD
ATOM     61  C   UNL A   1      43.204  28.204  33.143  1.00  0.00     0.074 A 
ATOM     62  C   UNL A   1      43.718  27.167  32.273  1.00  0.00     0.031 C 
ATOM     63  C   UNL A   1      43.735  28.516  34.353  1.00  0.00     0.034 A 
BRANCH  50  64
ATOM     64  C   UNL A   1      40.775  33.114  37.291  1.00  0.00     0.023 A 
ATOM     65  C   UNL A   1      39.946  32.836  38.393  1.00  0.00     0.031 A 
ATOM     66  C   UNL A   1      41.526  34.303  37.321  1.00  0.00     0.131 A 
ATOM     67  C   UNL A   1      39.823  33.768  39.433  1.00  0.00     0.055 A 
ATOM     68  C   UNL A   1      41.469  35.184  38.403  1.00  0.00     0.041 A 
ATOM     69  F   UNL A   1      42.319  34.638  36.291  1.00  0.00    -0.206 F 
ATOM     70  C   UNL A   1      40.601  34.927  39.461  1.00  0.00     0.022 A 
BRANCH  67  71
ATOM     71  S   UNL A   1      38.520  33.518  40.669  1.00  0.00     0.124 S 
ATOM     72  O   UNL A   1      37.501  32.823  39.885  1.00  0.00    -0.237 OA
ATOM     73  O   UNL A   1      39.196  32.721  41.685  1.00  0.00    -0.237 OA
ATOM     74  O   UNL A   1      38.165  34.876  41.073  1.00  0.00    -0.744 OA
ENDBRANCH  67  71
ENDBRANCH  50  64
BRANCH  51  75
ATOM     75  C   UNL A   1      41.044  27.456  29.018  1.00  0.00     0.023 A 
ATOM     76  C   UNL A   1      42.007  27.732  28.034  1.00  0.00     0.031 A 
ATOM     77  C   UNL A   1      40.125  26.421  28.767  1.00  0.00     0.131 A 
ATOM     78  C   UNL A   1      41.996  27.020  26.825  1.00  0.00     0.055 A 
ATOM     79  C   UNL A   1      40.156  25.675  27.588  1.00  0.00     0.041 A 
ATOM     80  F   UNL A   1      39.185  26.113  29.676  1.00  0.00    -0.206 F 
ATOM     81  C   UNL A   1      41.087  25.984  26.601  1.00  0.00     0.022 A 
BRANCH  78  82
ATOM     82  S   UNL A   1      43.127  27.535  25.503  1.00  0.00     0.124 S 
ATOM     83  O   UNL A   1      43.612  26.250  25.011  1.00  0.00    -0.237 OA
ATOM     84  O   UNL A   1      42.235  28.269  24.612  1.00  0.00    -0.237 OA
ATOM     85  O   UNL A   1      44.117  28.351  26.202  1.00  0.00    -0.744 OA
ENDBRANCH  78  82
ENDBRANCH  51  75
BRANCH  63  86
ATOM     86  C   UNL A   1      44.898  27.680  34.833  1.00  0.00     0.023 A 
ATOM     87  C   UNL A   1      44.715  26.497  35.568  1.00  0.00     0.031 A 
ATOM     88  C   UNL A   1      46.217  28.085  34.553  1.00  0.00     0.131 A 
ATOM     89  C   UNL A   1      45.830  25.794  36.051  1.00  0.00     0.055 A 
ATOM     90  C   UNL A   1      47.322  27.344  34.977  1.00  0.00     0.041 A 
ATOM     91  F   UNL A   1      46.455  29.210  33.858  1.00  0.00    -0.206 F 
ATOM     92  C   UNL A   1      47.131  26.199  35.743  1.00  0.00     0.022 A 
BRANCH  89  93
ATOM     93  S   UNL A   1      45.560  24.398  37.178  1.00  0.00     0.124 S 
ATOM     94  O   UNL A   1      45.060  23.368  36.273  1.00  0.00    -0.237 OA
ATOM     95  O   UNL A   1      46.895  24.173  37.723  1.00  0.00    -0.237 OA
ATOM     96  O   UNL A   1      44.581  24.913  38.133  1.00  0.00    -0.744 OA
ENDBRANCH  89  93
ENDBRANCH  63  86
ENDBRANCH  37  38
ENDBRANCH  29  32
ENDBRANCH  27  28
ENDBRANCH  26  27
ENDBRANCH   1  26
TORSDOF 19
ENDMDL
MODEL 3
REMARK VINA RESULT:     -11.5      1.560      2.731
REMARK SMILES COCCCN1C(=O)CC[C@@H](C(=O)NCCCCNC(=O)c2ccc(-c3c4nc(c(-c5cc(S(=O)(=O)[O-])ccc5F)c5ccc([nH]5)c(-c5cc(S(=O)(=O)[O-])ccc5F)c5nc(c(-c6cc(S(=O)(=O)[O-])ccc6F)c6ccc3[nH]6)C=C5)C=C4)cc2)[C@@H]1c1ccc(F)cc1
REMARK SMILES IDX 16 1 15 2 14 3 12 4 13 5 11 7 6 8 7 9 85 10 8 11 9 12 10 13
REMARK SMILES IDX 5 14 4 15 3 16 2 17 1 18 86 19 87 20 92 21 88 22 91 23 89 24
REMARK SMILES IDX 90 25 17 26 18 27 19 28 20 29 21 31 22 32 23 33 84 34 24 35
REMARK SMILES IDX 83 36 25 37 26 38 27 39 77 40 28 41 82 42 76 43 78 44 29 45
REMARK SMILES IDX 81 46 75 47 74 48 30 50 62 51 42 52 61 53 43 54 46 55 60 56
REMARK SMILES IDX 79 57 44 58 45 59 59 61 80 62 47 63 31 64 32 65 40 66 33 67
REMARK SMILES IDX 39 68 41 69 38 70 34 71 35 72 36 73 37 74 63 75 64 76 72 77
REMARK SMILES IDX 65 78 71 79 73 80 70 81 66 82 67 83 68 84 69 85 48 86 49 87
REMARK SMILES IDX 57 88 50 89 56 90 58 91 55 92 51 93 52 94 53 95 54 96
REMARK H PARENT 14 6 19 30 78 49 46 60
REMARK Flexibility Score: inf
ROOT
ATOM      1  C   UNL A   1      34.710  30.947  28.130  1.00  0.00     0.023 C 
ENDROOT
BRANCH   1   2
ATOM      2  C   UNL A   1      34.676  29.546  27.531  1.00  0.00     0.116 C 
BRANCH   2   3
ATOM      3  N   UNL A   1      33.360  28.945  27.625  1.00  0.00    -0.356 N 
ATOM      4  C   UNL A   1      32.796  27.947  26.888  1.00  0.00     0.225 C 
ATOM      5  O   UNL A   1      31.609  27.693  27.091  1.00  0.00    -0.275 OA
ATOM      6  H   UNL A   1      32.784  29.314  28.333  1.00  0.00     0.163 HD
BRANCH   4   7
ATOM      7  C   UNL A   1      33.633  27.196  25.854  1.00  0.00     0.106 C 
ATOM      8  N   UNL A   1      31.755  25.971  24.749  1.00  0.00    -0.335 N 
ATOM      9  C   UNL A   1      31.644  26.888  23.713  1.00  0.00     0.223 C 
ATOM     10  C   UNL A   1      32.997  25.833  25.525  1.00  0.00     0.128 C 
ATOM     11  O   UNL A   1      30.802  26.784  22.821  1.00  0.00    -0.275 OA
ATOM     12  C   UNL A   1      32.535  28.112  23.753  1.00  0.00     0.101 C 
ATOM     13  C   UNL A   1      33.815  27.994  24.564  1.00  0.00     0.026 C 
BRANCH   8  14
ATOM     14  C   UNL A   1      30.724  24.934  24.912  1.00  0.00     0.122 C 
BRANCH  14  15
ATOM     15  C   UNL A   1      30.740  24.242  26.277  1.00  0.00     0.050 C 
BRANCH  15  16
ATOM     16  C   UNL A   1      30.720  22.717  26.245  1.00  0.00     0.161 C 
BRANCH  16  17
ATOM     17  O   UNL A   1      31.495  22.176  25.178  1.00  0.00    -0.385 OA
ATOM     18  C   UNL A   1      32.639  21.451  25.606  1.00  0.00     0.194 C 
ENDBRANCH  16  17
ENDBRANCH  15  16
ENDBRANCH  14  15
ENDBRANCH   8  14
BRANCH  10  19
ATOM     19  C   UNL A   1      33.995  24.855  24.873  1.00  0.00    -0.024 A 
ATOM     20  C   UNL A   1      35.188  24.454  25.507  1.00  0.00     0.009 A 
ATOM     21  C   UNL A   1      33.755  24.381  23.568  1.00  0.00     0.009 A 
ATOM     22  C   UNL A   1      36.113  23.634  24.856  1.00  0.00     0.039 A 
ATOM     23  C   UNL A   1      34.677  23.551  22.922  1.00  0.00     0.039 A 
ATOM     24  C   UNL A   1      35.850  23.192  23.569  1.00  0.00     0.123 A 
ATOM     25  F   UNL A   1      36.742  22.417  22.941  1.00  0.00    -0.207 F 
ENDBRANCH  10  19
ENDBRANCH   4   7
ENDBRANCH   2   3
ENDBRANCH   1   2
BRANCH   1  26
ATOM     26  C   UNL A   1      33.404  31.730  28.003  1.00  0.00     0.023 C 
BRANCH  26  27
ATOM     27  C   UNL A   1      33.473  32.974  27.122  1.00  0.00     0.116 C 
BRANCH  27  28
ATOM     28  N   UNL A   1      32.920  34.152  27.770  1.00  0.00    -0.352 N 
ATOM     29  C   UNL A   1      33.262  34.722  28.975  1.00  0.00     0.251 C 
ATOM     30  H   UNL A   1      32.200  34.606  27.275  1.00  0.00     0.163 HD
ATOM     31  O   UNL A   1      32.570  35.621  29.435  1.00  0.00    -0.269 OA
BRANCH  29  32
ATOM     32  C   UNL A   1      34.441  34.219  29.717  1.00  0.00     0.039 A 
ATOM     33  C   UNL A   1      34.238  33.493  30.893  1.00  0.00     0.014 A 
ATOM     34  C   UNL A   1      35.738  34.451  29.250  1.00  0.00     0.014 A 
ATOM     35  C   UNL A   1      35.334  32.943  31.564  1.00  0.00     0.010 A 
ATOM     36  C   UNL A   1      36.818  33.833  29.872  1.00  0.00     0.010 A 
ATOM     37  C   UNL A   1      36.631  33.076  31.039  1.00  0.00    -0.014 A 
BRANCH  37  38
ATOM     38  C   UNL A   1      37.803  32.447  31.706  1.00  0.00     0.031 A 
ATOM     39  C   UNL A   1      38.527  31.308  31.038  1.00  0.00     0.074 A 
ATOM     40  C   UNL A   1      38.181  32.859  32.934  1.00  0.00     0.049 A 
ATOM     41  N   UNL A   1      39.514  30.576  31.487  1.00  0.00    -0.248 NA
ATOM     42  C   UNL A   1      38.055  30.924  29.699  1.00  0.00     0.031 C 
ATOM     43  C   UNL A   1      37.539  33.929  33.700  1.00  0.00     0.029 A 
ATOM     44  N   UNL A   1      39.189  32.423  33.757  1.00  0.00    -0.354 N 
ATOM     45  C   UNL A   1      39.774  29.637  30.492  1.00  0.00     0.074 A 
ATOM     46  C   UNL A   1      38.792  29.853  29.450  1.00  0.00     0.031 C 
ATOM     47  C   UNL A   1      38.186  34.085  34.866  1.00  0.00     0.029 A 
ATOM     48  C   UNL A   1      39.254  33.093  34.958  1.00  0.00     0.049 A 
ATOM     49  H   UNL A   1      39.809  31.699  33.512  1.00  0.00     0.167 HD
ATOM     50  C   UNL A   1      40.752  28.701  30.442  1.00  0.00     0.034 A 
ATOM     51  C   UNL A   1      40.069  32.920  36.018  1.00  0.00     0.034 A 
ATOM     52  C   UNL A   1      41.728  28.505  31.487  1.00  0.00     0.049 A 
ATOM     53  C   UNL A   1      41.129  31.848  35.955  1.00  0.00     0.074 A 
ATOM     54  C   UNL A   1      42.789  27.616  31.519  1.00  0.00     0.029 A 
ATOM     55  N   UNL A   1      41.759  29.201  32.690  1.00  0.00    -0.354 N 
ATOM     56  N   UNL A   1      41.388  30.998  34.987  1.00  0.00    -0.248 NA
ATOM     57  C   UNL A   1      42.013  31.720  37.120  1.00  0.00     0.031 C 
ATOM     58  C   UNL A   1      43.412  27.720  32.767  1.00  0.00     0.029 A 
ATOM     59  C   UNL A   1      42.800  28.738  33.481  1.00  0.00     0.049 A 
ATOM     60  H   UNL A   1      41.133  29.917  32.943  1.00  0.00     0.167 HD
ATOM     61  C   UNL A   1      42.492  30.263  35.415  1.00  0.00     0.074 A 
ATOM     62  C   UNL A   1      42.853  30.779  36.718  1.00  0.00     0.031 C 
ATOM     63  C   UNL A   1      43.151  29.258  34.783  1.00  0.00     0.034 A 
BRANCH  50  64
ATOM     64  C   UNL A   1      40.794  27.803  29.227  1.00  0.00     0.023 A 
ATOM     65  C   UNL A   1      41.725  28.002  28.191  1.00  0.00     0.031 A 
ATOM     66  C   UNL A   1      39.873  26.749  29.085  1.00  0.00     0.131 A 
ATOM     67  C   UNL A   1      41.663  27.218  27.030  1.00  0.00     0.055 A 
ATOM     68  C   UNL A   1      39.875  25.914  27.967  1.00  0.00     0.041 A 
ATOM     69  F   UNL A   1      38.945  26.521  30.027  1.00  0.00    -0.206 F 
ATOM     70  C   UNL A   1      40.763  26.156  26.922  1.00  0.00     0.022 A 
BRANCH  67  71
ATOM     71  S   UNL A   1      42.667  27.707  25.601  1.00  0.00     0.124 S 
ATOM     72  O   UNL A   1      41.928  28.866  25.105  1.00  0.00    -0.237 OA
ATOM     73  O   UNL A   1      43.963  27.988  26.208  1.00  0.00    -0.237 OA
ATOM     74  O   UNL A   1      42.624  26.533  24.733  1.00  0.00    -0.744 OA
ENDBRANCH  67  71
ENDBRANCH  50  64
BRANCH  51  75
ATOM     75  C   UNL A   1      39.919  33.769  37.237  1.00  0.00     0.023 A 
ATOM     76  C   UNL A   1      39.219  33.303  38.362  1.00  0.00     0.031 A 
ATOM     77  C   UNL A   1      40.427  35.080  37.276  1.00  0.00     0.131 A 
ATOM     78  C   UNL A   1      39.002  34.157  39.455  1.00  0.00     0.055 A 
ATOM     79  C   UNL A   1      40.261  35.905  38.389  1.00  0.00     0.041 A 
ATOM     80  F   UNL A   1      41.107  35.575  36.228  1.00  0.00    -0.206 F 
ATOM     81  C   UNL A   1      39.531  35.449  39.482  1.00  0.00     0.022 A 
BRANCH  78  82
ATOM     82  S   UNL A   1      37.931  33.587  40.804  1.00  0.00     0.124 S 
ATOM     83  O   UNL A   1      38.754  32.551  41.417  1.00  0.00    -0.237 OA
ATOM     84  O   UNL A   1      37.748  34.808  41.581  1.00  0.00    -0.237 OA
ATOM     85  O   UNL A   1      36.737  33.107  40.109  1.00  0.00    -0.744 OA
ENDBRANCH  78  82
ENDBRANCH  51  75
BRANCH  63  86
ATOM     86  C   UNL A   1      44.372  28.694  35.470  1.00  0.00     0.023 A 
ATOM     87  C   UNL A   1      44.285  27.672  36.430  1.00  0.00     0.031 A 
ATOM     88  C   UNL A   1      45.649  29.201  35.161  1.00  0.00     0.131 A 
ATOM     89  C   UNL A   1      45.443  27.231  37.090  1.00  0.00     0.055 A 
ATOM     90  C   UNL A   1      46.804  28.711  35.772  1.00  0.00     0.041 A 
ATOM     91  F   UNL A   1      45.794  30.183  34.256  1.00  0.00    -0.206 F 
ATOM     92  C   UNL A   1      46.703  27.731  36.754  1.00  0.00     0.022 A 
BRANCH  89  93
ATOM     93  S   UNL A   1      45.270  26.071  38.474  1.00  0.00     0.124 S 
ATOM     94  O   UNL A   1      45.160  24.789  37.784  1.00  0.00    -0.237 OA
ATOM     95  O   UNL A   1      46.505  26.288  39.220  1.00  0.00    -0.237 OA
ATOM     96  O   UNL A   1      44.053  26.519  39.147  1.00  0.00    -0.744 OA
ENDBRANCH  89  93
ENDBRANCH  63  86
ENDBRANCH  37  38
ENDBRANCH  29  32
ENDBRANCH  27  28
ENDBRANCH  26  27
ENDBRANCH   1  26
TORSDOF 19
ENDMDL
