MODEL 1
REMARK VINA RESULT:     -12.9      0.000      0.000
REMARK SMILES Cc1[nH]cnc1C[NH+]1CCC(Oc2cccc(F)c2)(C(=O)NCCCCNC(=O)c2ccc(-c3c4nc(c(-c5cc(S(=O)(=O)[O-])ccc5F)c5ccc([nH]5)c(-c5cc(S(=O)(=O)[O-])ccc5F)c5nc(c(-c6cc(S(=O)(=O)[O-])ccc6F)c6ccc3[nH]6)C=C5)C=C4)cc2)CC1
REMARK SMILES IDX 25 1 24 2 23 3 22 4 20 5 21 6 11 8 8 9 9 10 94 11 10 13
REMARK SMILES IDX 93 14 7 15 6 16 1 17 2 18 3 19 4 20 5 22 12 23 13 24 14 25
REMARK SMILES IDX 19 26 15 27 17 28 16 29 18 30 26 31 27 32 28 33 29 35 30 36
REMARK SMILES IDX 31 37 92 38 32 39 91 40 33 41 34 42 35 43 85 44 36 45 90 46
REMARK SMILES IDX 84 47 86 48 37 49 89 50 83 51 82 52 38 54 70 55 50 56 69 57
REMARK SMILES IDX 51 58 54 59 68 60 87 61 52 62 53 63 67 65 88 66 55 67 39 68
REMARK SMILES IDX 40 69 48 70 41 71 47 72 49 73 46 74 42 75 43 76 44 77 45 78
REMARK SMILES IDX 71 79 72 80 80 81 73 82 79 83 81 84 78 85 74 86 75 87 76 88
REMARK SMILES IDX 77 89 56 90 57 91 65 92 58 93 64 94 66 95 63 96 59 97 60 98
REMARK SMILES IDX 61 99 62 100
REMARK H PARENT 22 7 8 12 3 21 27 34 86 53 54 64
REMARK Flexibility Score: inf
ROOT
ATOM      1  C   UNL A   1      38.247  20.067  24.961  1.00  0.00     0.023 C 
ENDROOT
BRANCH   1   2
ATOM      2  C   UNL A   1      37.170  21.152  24.927  1.00  0.00     0.023 C 
BRANCH   2   3
ATOM      3  C   UNL A   1      35.735  20.634  25.006  1.00  0.00     0.116 C 
BRANCH   3   4
ATOM      4  N   UNL A   1      35.086  21.038  26.239  1.00  0.00    -0.353 N 
ATOM      5  C   UNL A   1      33.786  21.382  26.490  1.00  0.00     0.264 C 
ATOM      6  O   UNL A   1      33.495  21.536  27.680  1.00  0.00    -0.270 OA
ATOM      7  H   UNL A   1      35.679  21.070  27.024  1.00  0.00     0.163 HD
BRANCH   5   8
ATOM      8  C   UNL A   1      32.742  21.545  25.344  1.00  0.00     0.197 C 
ATOM      9  N   UNL A   1      33.026  24.276  24.311  1.00  0.00    -0.330 N 
ATOM     10  C   UNL A   1      34.067  23.282  24.051  1.00  0.00     0.267 C 
ATOM     11  C   UNL A   1      32.394  24.067  25.620  1.00  0.00     0.267 C 
ATOM     12  H   UNL A   1      32.305  24.137  23.603  1.00  0.00     0.348 HD
ATOM     13  C   UNL A   1      33.428  21.897  24.011  1.00  0.00     0.120 C 
ATOM     14  C   UNL A   1      31.750  22.675  25.705  1.00  0.00     0.120 C 
BRANCH   9  15
ATOM     15  C   UNL A   1      33.501  25.665  24.127  1.00  0.00     0.321 C 
BRANCH  15  16
ATOM     16  C   UNL A   1      32.550  26.554  23.378  1.00  0.00     0.115 A 
ATOM     17  C   UNL A   1      32.531  25.634  20.914  1.00  0.00     0.066 C 
ATOM     18  C   UNL A   1      32.180  26.526  22.041  1.00  0.00     0.040 A 
ATOM     19  N   UNL A   1      31.334  27.598  21.888  1.00  0.00    -0.348 N 
ATOM     20  C   UNL A   1      31.190  28.194  23.106  1.00  0.00     0.197 A 
ATOM     21  H   UNL A   1      30.907  27.883  21.049  1.00  0.00     0.167 HD
ATOM     22  N   UNL A   1      31.879  27.570  24.028  1.00  0.00    -0.236 NA
ENDBRANCH  15  16
ENDBRANCH   9  15
BRANCH   8  23
ATOM     23  O   UNL A   1      32.110  20.236  25.367  1.00  0.00    -0.477 OA
BRANCH  23  24
ATOM     24  C   UNL A   1      32.578  19.273  24.525  1.00  0.00     0.123 A 
ATOM     25  C   UNL A   1      33.284  18.172  25.008  1.00  0.00     0.046 A 
ATOM     26  C   UNL A   1      32.194  19.329  23.188  1.00  0.00     0.085 A 
ATOM     27  C   UNL A   1      33.697  17.167  24.132  1.00  0.00     0.007 A 
ATOM     28  C   UNL A   1      32.596  18.315  22.326  1.00  0.00     0.126 A 
ATOM     29  C   UNL A   1      33.357  17.243  22.782  1.00  0.00     0.039 A 
ATOM     30  F   UNL A   1      32.238  18.363  21.037  1.00  0.00    -0.207 F 
ENDBRANCH  23  24
ENDBRANCH   8  23
ENDBRANCH   5   8
ENDBRANCH   3   4
ENDBRANCH   2   3
ENDBRANCH   1   2
BRANCH   1  31
ATOM     31  C   UNL A   1      39.354  20.276  25.989  1.00  0.00     0.116 C 
BRANCH  31  32
ATOM     32  N   UNL A   1      40.322  19.192  26.010  1.00  0.00    -0.352 N 
ATOM     33  C   UNL A   1      41.688  19.248  26.144  1.00  0.00     0.251 C 
ATOM     34  H   UNL A   1      39.945  18.287  25.915  1.00  0.00     0.163 HD
ATOM     35  O   UNL A   1      42.354  18.226  26.001  1.00  0.00    -0.269 OA
BRANCH  33  36
ATOM     36  C   UNL A   1      42.351  20.542  26.419  1.00  0.00     0.039 A 
ATOM     37  C   UNL A   1      42.819  21.298  25.342  1.00  0.00     0.014 A 
ATOM     38  C   UNL A   1      42.497  21.016  27.726  1.00  0.00     0.014 A 
ATOM     39  C   UNL A   1      43.362  22.564  25.571  1.00  0.00     0.010 A 
ATOM     40  C   UNL A   1      42.976  22.307  27.946  1.00  0.00     0.010 A 
ATOM     41  C   UNL A   1      43.404  23.097  26.870  1.00  0.00    -0.014 A 
BRANCH  41  42
ATOM     42  C   UNL A   1      43.871  24.489  27.109  1.00  0.00     0.031 A 
ATOM     43  C   UNL A   1      42.918  25.535  27.619  1.00  0.00     0.074 A 
ATOM     44  C   UNL A   1      45.149  24.815  26.831  1.00  0.00     0.049 A 
ATOM     45  N   UNL A   1      43.135  26.805  27.842  1.00  0.00    -0.248 NA
ATOM     46  C   UNL A   1      41.538  25.105  27.893  1.00  0.00     0.031 C 
ATOM     47  C   UNL A   1      46.160  23.894  26.304  1.00  0.00     0.029 A 
ATOM     48  N   UNL A   1      45.823  26.005  26.958  1.00  0.00    -0.354 N 
ATOM     49  C   UNL A   1      41.923  27.325  28.283  1.00  0.00     0.074 A 
ATOM     50  C   UNL A   1      40.962  26.246  28.243  1.00  0.00     0.031 C 
ATOM     51  C   UNL A   1      47.332  24.540  26.197  1.00  0.00     0.029 A 
ATOM     52  C   UNL A   1      47.150  25.932  26.598  1.00  0.00     0.049 A 
ATOM     53  H   UNL A   1      45.398  26.833  27.277  1.00  0.00     0.167 HD
ATOM     54  C   UNL A   1      41.647  28.582  28.705  1.00  0.00     0.034 A 
ATOM     55  C   UNL A   1      48.111  26.877  26.587  1.00  0.00     0.034 A 
ATOM     56  C   UNL A   1      42.616  29.646  28.761  1.00  0.00     0.049 A 
ATOM     57  C   UNL A   1      47.770  28.274  27.032  1.00  0.00     0.074 A 
ATOM     58  C   UNL A   1      42.442  30.943  29.212  1.00  0.00     0.029 A 
ATOM     59  N   UNL A   1      43.940  29.538  28.360  1.00  0.00    -0.354 N 
ATOM     60  N   UNL A   1      46.619  28.744  27.447  1.00  0.00    -0.248 NA
ATOM     61  C   UNL A   1      48.853  29.267  27.006  1.00  0.00     0.031 C 
ATOM     62  C   UNL A   1      43.642  31.635  29.030  1.00  0.00     0.029 A 
ATOM     63  C   UNL A   1      44.586  30.752  28.531  1.00  0.00     0.049 A 
ATOM     64  H   UNL A   1      44.359  28.720  28.007  1.00  0.00     0.167 HD
ATOM     65  C   UNL A   1      46.846  30.081  27.760  1.00  0.00     0.074 A 
ATOM     66  C   UNL A   1      48.242  30.344  27.481  1.00  0.00     0.031 C 
ATOM     67  C   UNL A   1      45.976  31.001  28.245  1.00  0.00     0.034 A 
BRANCH  54  68
ATOM     68  C   UNL A   1      40.237  28.885  29.138  1.00  0.00     0.023 A 
ATOM     69  C   UNL A   1      39.858  28.828  30.489  1.00  0.00     0.031 A 
ATOM     70  C   UNL A   1      39.272  29.278  28.193  1.00  0.00     0.131 A 
ATOM     71  C   UNL A   1      38.538  29.127  30.857  1.00  0.00     0.055 A 
ATOM     72  C   UNL A   1      37.977  29.632  28.573  1.00  0.00     0.041 A 
ATOM     73  F   UNL A   1      39.578  29.333  26.887  1.00  0.00    -0.206 F 
ATOM     74  C   UNL A   1      37.603  29.552  29.911  1.00  0.00     0.022 A 
BRANCH  71  75
ATOM     75  S   UNL A   1      38.042  28.889  32.584  1.00  0.00     0.124 S 
ATOM     76  O   UNL A   1      39.043  29.685  33.289  1.00  0.00    -0.237 OA
ATOM     77  O   UNL A   1      36.682  29.414  32.599  1.00  0.00    -0.237 OA
ATOM     78  O   UNL A   1      38.155  27.445  32.776  1.00  0.00    -0.744 OA
ENDBRANCH  71  75
ENDBRANCH  54  68
BRANCH  55  79
ATOM     79  C   UNL A   1      49.490  26.530  26.142  1.00  0.00     0.023 A 
ATOM     80  C   UNL A   1      49.971  26.947  24.892  1.00  0.00     0.031 A 
ATOM     81  C   UNL A   1      50.348  25.779  26.966  1.00  0.00     0.131 A 
ATOM     82  C   UNL A   1      51.268  26.592  24.489  1.00  0.00     0.055 A 
ATOM     83  C   UNL A   1      51.650  25.462  26.577  1.00  0.00     0.041 A 
ATOM     84  F   UNL A   1      49.938  25.366  28.176  1.00  0.00    -0.206 F 
ATOM     85  C   UNL A   1      52.114  25.864  25.328  1.00  0.00     0.022 A 
BRANCH  82  86
ATOM     86  S   UNL A   1      51.828  27.070  22.832  1.00  0.00     0.124 S 
ATOM     87  O   UNL A   1      50.610  26.902  22.048  1.00  0.00    -0.237 OA
ATOM     88  O   UNL A   1      52.271  28.445  23.045  1.00  0.00    -0.237 OA
ATOM     89  O   UNL A   1      52.894  26.114  22.545  1.00  0.00    -0.744 OA
ENDBRANCH  82  86
ENDBRANCH  55  79
BRANCH  67  90
ATOM     90  C   UNL A   1      46.509  32.375  28.550  1.00  0.00     0.023 A 
ATOM     91  C   UNL A   1      46.420  33.422  27.619  1.00  0.00     0.031 A 
ATOM     92  C   UNL A   1      47.043  32.651  29.821  1.00  0.00     0.131 A 
ATOM     93  C   UNL A   1      46.875  34.703  27.971  1.00  0.00     0.055 A 
ATOM     94  C   UNL A   1      47.456  33.935  30.177  1.00  0.00     0.041 A 
ATOM     95  F   UNL A   1      47.144  31.681  30.744  1.00  0.00    -0.206 F 
ATOM     96  C   UNL A   1      47.374  34.968  29.250  1.00  0.00     0.022 A 
BRANCH  93  97
ATOM     97  S   UNL A   1      46.813  36.023  26.730  1.00  0.00     0.124 S 
ATOM     98  O   UNL A   1      47.529  35.418  25.610  1.00  0.00    -0.237 OA
ATOM     99  O   UNL A   1      45.380  36.215  26.539  1.00  0.00    -0.237 OA
ATOM    100  O   UNL A   1      47.505  37.136  27.378  1.00  0.00    -0.744 OA
ENDBRANCH  93  97
ENDBRANCH  67  90
ENDBRANCH  41  42
ENDBRANCH  33  36
ENDBRANCH  31  32
ENDBRANCH   1  31
TORSDOF 18
ENDMDL
MODEL 2
REMARK VINA RESULT:     -12.6      5.755      9.240
REMARK SMILES Cc1[nH]cnc1C[NH+]1CCC(Oc2cccc(F)c2)(C(=O)NCCCCNC(=O)c2ccc(-c3c4nc(c(-c5cc(S(=O)(=O)[O-])ccc5F)c5ccc([nH]5)c(-c5cc(S(=O)(=O)[O-])ccc5F)c5nc(c(-c6cc(S(=O)(=O)[O-])ccc6F)c6ccc3[nH]6)C=C5)C=C4)cc2)CC1
REMARK SMILES IDX 25 1 24 2 23 3 22 4 20 5 21 6 11 8 8 9 9 10 94 11 10 13
REMARK SMILES IDX 93 14 7 15 6 16 1 17 2 18 3 19 4 20 5 22 12 23 13 24 14 25
REMARK SMILES IDX 19 26 15 27 17 28 16 29 18 30 26 31 27 32 28 33 29 35 30 36
REMARK SMILES IDX 31 37 92 38 32 39 91 40 33 41 34 42 35 43 85 44 36 45 90 46
REMARK SMILES IDX 84 47 86 48 37 49 89 50 83 51 82 52 38 54 70 55 50 56 69 57
REMARK SMILES IDX 51 58 54 59 68 60 87 61 52 62 53 63 67 65 88 66 55 67 39 68
REMARK SMILES IDX 40 69 48 70 41 71 47 72 49 73 46 74 42 75 43 76 44 77 45 78
REMARK SMILES IDX 71 79 72 80 80 81 73 82 79 83 81 84 78 85 74 86 75 87 76 88
REMARK SMILES IDX 77 89 56 90 57 91 65 92 58 93 64 94 66 95 63 96 59 97 60 98
REMARK SMILES IDX 61 99 62 100
REMARK H PARENT 22 7 8 12 3 21 27 34 86 53 54 64
REMARK Flexibility Score: inf
ROOT
ATOM      1  C   UNL A   1      32.235  29.712  25.142  1.00  0.00     0.023 C 
ENDROOT
BRANCH   1   2
ATOM      2  C   UNL A   1      33.525  28.954  24.828  1.00  0.00     0.023 C 
BRANCH   2   3
ATOM      3  C   UNL A   1      33.610  27.553  25.432  1.00  0.00     0.116 C 
BRANCH   3   4
ATOM      4  N   UNL A   1      34.024  26.570  24.450  1.00  0.00    -0.353 N 
ATOM      5  C   UNL A   1      33.297  25.875  23.523  1.00  0.00     0.264 C 
ATOM      6  O   UNL A   1      33.954  25.211  22.716  1.00  0.00    -0.270 OA
ATOM      7  H   UNL A   1      34.987  26.369  24.451  1.00  0.00     0.163 HD
BRANCH   5   8
ATOM      8  C   UNL A   1      31.740  25.941  23.482  1.00  0.00     0.197 C 
ATOM      9  N   UNL A   1      30.746  23.706  25.101  1.00  0.00    -0.330 N 
ATOM     10  C   UNL A   1      31.389  24.850  25.746  1.00  0.00     0.267 C 
ATOM     11  C   UNL A   1      31.331  23.431  23.781  1.00  0.00     0.267 C 
ATOM     12  H   UNL A   1      29.771  23.963  24.949  1.00  0.00     0.348 HD
ATOM     13  C   UNL A   1      31.150  26.094  24.895  1.00  0.00     0.120 C 
ATOM     14  C   UNL A   1      31.184  24.644  22.850  1.00  0.00     0.120 C 
BRANCH   9  15
ATOM     15  C   UNL A   1      30.710  22.505  25.965  1.00  0.00     0.321 C 
BRANCH  15  16
ATOM     16  C   UNL A   1      31.921  21.623  25.856  1.00  0.00     0.115 A 
ATOM     17  C   UNL A   1      33.667  22.624  27.550  1.00  0.00     0.066 C 
ATOM     18  C   UNL A   1      33.139  21.708  26.515  1.00  0.00     0.040 A 
ATOM     19  N   UNL A   1      33.893  20.685  25.992  1.00  0.00    -0.348 N 
ATOM     20  C   UNL A   1      33.120  20.012  25.094  1.00  0.00     0.197 A 
ATOM     21  H   UNL A   1      34.827  20.477  26.225  1.00  0.00     0.167 HD
ATOM     22  N   UNL A   1      31.918  20.528  25.016  1.00  0.00    -0.236 NA
ENDBRANCH  15  16
ENDBRANCH   9  15
BRANCH   8  23
ATOM     23  O   UNL A   1      31.541  27.095  22.620  1.00  0.00    -0.477 OA
BRANCH  23  24
ATOM     24  C   UNL A   1      30.352  27.754  22.680  1.00  0.00     0.123 A 
ATOM     25  C   UNL A   1      29.246  27.194  23.320  1.00  0.00     0.046 A 
ATOM     26  C   UNL A   1      30.308  29.071  22.230  1.00  0.00     0.085 A 
ATOM     27  C   UNL A   1      28.057  27.917  23.423  1.00  0.00     0.007 A 
ATOM     28  C   UNL A   1      29.124  29.789  22.351  1.00  0.00     0.126 A 
ATOM     29  C   UNL A   1      27.994  29.219  22.929  1.00  0.00     0.039 A 
ATOM     30  F   UNL A   1      29.071  31.053  21.914  1.00  0.00    -0.207 F 
ENDBRANCH  23  24
ENDBRANCH   8  23
ENDBRANCH   5   8
ENDBRANCH   3   4
ENDBRANCH   2   3
ENDBRANCH   1   2
BRANCH   1  31
ATOM     31  C   UNL A   1      32.061  30.132  26.599  1.00  0.00     0.116 C 
BRANCH  31  32
ATOM     32  N   UNL A   1      31.986  31.573  26.769  1.00  0.00    -0.352 N 
ATOM     33  C   UNL A   1      32.867  32.422  27.395  1.00  0.00     0.251 C 
ATOM     34  H   UNL A   1      31.190  32.003  26.381  1.00  0.00     0.163 HD
ATOM     35  O   UNL A   1      32.561  33.600  27.557  1.00  0.00    -0.269 OA
BRANCH  33  36
ATOM     36  C   UNL A   1      34.156  31.906  27.906  1.00  0.00     0.039 A 
ATOM     37  C   UNL A   1      35.211  32.801  28.089  1.00  0.00     0.014 A 
ATOM     38  C   UNL A   1      34.320  30.553  28.219  1.00  0.00     0.014 A 
ATOM     39  C   UNL A   1      36.406  32.354  28.659  1.00  0.00     0.010 A 
ATOM     40  C   UNL A   1      35.486  30.124  28.851  1.00  0.00     0.010 A 
ATOM     41  C   UNL A   1      36.537  31.023  29.086  1.00  0.00    -0.014 A 
BRANCH  41  42
ATOM     42  C   UNL A   1      37.759  30.567  29.799  1.00  0.00     0.031 A 
ATOM     43  C   UNL A   1      38.013  30.988  31.221  1.00  0.00     0.074 A 
ATOM     44  C   UNL A   1      38.658  29.800  29.150  1.00  0.00     0.049 A 
ATOM     45  N   UNL A   1      39.041  30.726  31.985  1.00  0.00    -0.248 NA
ATOM     46  C   UNL A   1      36.989  31.829  31.862  1.00  0.00     0.031 C 
ATOM     47  C   UNL A   1      38.537  29.351  27.760  1.00  0.00     0.029 A 
ATOM     48  N   UNL A   1      39.847  29.255  29.569  1.00  0.00    -0.354 N 
ATOM     49  C   UNL A   1      38.791  31.367  33.192  1.00  0.00     0.074 A 
ATOM     50  C   UNL A   1      37.539  32.075  33.042  1.00  0.00     0.031 C 
ATOM     51  C   UNL A   1      39.582  28.566  27.458  1.00  0.00     0.029 A 
ATOM     52  C   UNL A   1      40.475  28.491  28.611  1.00  0.00     0.049 A 
ATOM     53  H   UNL A   1      40.216  29.396  30.470  1.00  0.00     0.167 HD
ATOM     54  C   UNL A   1      39.526  31.346  34.330  1.00  0.00     0.034 A 
ATOM     55  C   UNL A   1      41.638  27.811  28.652  1.00  0.00     0.034 A 
ATOM     56  C   UNL A   1      40.761  30.619  34.477  1.00  0.00     0.049 A 
ATOM     57  C   UNL A   1      42.452  27.829  29.918  1.00  0.00     0.074 A 
ATOM     58  C   UNL A   1      41.560  30.503  35.602  1.00  0.00     0.029 A 
ATOM     59  N   UNL A   1      41.377  29.883  33.475  1.00  0.00    -0.354 N 
ATOM     60  N   UNL A   1      42.196  28.439  31.050  1.00  0.00    -0.248 NA
ATOM     61  C   UNL A   1      43.710  27.068  29.915  1.00  0.00     0.031 C 
ATOM     62  C   UNL A   1      42.684  29.747  35.265  1.00  0.00     0.029 A 
ATOM     63  C   UNL A   1      42.556  29.332  33.950  1.00  0.00     0.049 A 
ATOM     64  H   UNL A   1      41.028  29.770  32.562  1.00  0.00     0.167 HD
ATOM     65  C   UNL A   1      43.246  28.113  31.902  1.00  0.00     0.074 A 
ATOM     66  C   UNL A   1      44.142  27.256  31.154  1.00  0.00     0.031 C 
ATOM     67  C   UNL A   1      43.441  28.483  33.193  1.00  0.00     0.034 A 
BRANCH  54  68
ATOM     68  C   UNL A   1      39.021  32.133  35.510  1.00  0.00     0.023 A 
ATOM     69  C   UNL A   1      38.370  31.504  36.584  1.00  0.00     0.031 A 
ATOM     70  C   UNL A   1      39.233  33.521  35.581  1.00  0.00     0.131 A 
ATOM     71  C   UNL A   1      37.922  32.268  37.671  1.00  0.00     0.055 A 
ATOM     72  C   UNL A   1      38.839  34.266  36.693  1.00  0.00     0.041 A 
ATOM     73  F   UNL A   1      39.836  34.172  34.574  1.00  0.00    -0.206 F 
ATOM     74  C   UNL A   1      38.175  33.640  37.744  1.00  0.00     0.022 A 
BRANCH  71  75
ATOM     75  S   UNL A   1      36.946  31.452  38.963  1.00  0.00     0.124 S 
ATOM     76  O   UNL A   1      36.775  30.116  38.401  1.00  0.00    -0.237 OA
ATOM     77  O   UNL A   1      37.818  31.548  40.128  1.00  0.00    -0.237 OA
ATOM     78  O   UNL A   1      35.728  32.256  39.029  1.00  0.00    -0.744 OA
ENDBRANCH  71  75
ENDBRANCH  54  68
BRANCH  55  79
ATOM     79  C   UNL A   1      42.099  27.054  27.455  1.00  0.00     0.023 A 
ATOM     80  C   UNL A   1      41.947  25.661  27.379  1.00  0.00     0.031 A 
ATOM     81  C   UNL A   1      42.696  27.716  26.367  1.00  0.00     0.131 A 
ATOM     82  C   UNL A   1      42.405  24.969  26.247  1.00  0.00     0.055 A 
ATOM     83  C   UNL A   1      43.115  27.028  25.228  1.00  0.00     0.041 A 
ATOM     84  F   UNL A   1      42.854  29.049  26.388  1.00  0.00    -0.206 F 
ATOM     85  C   UNL A   1      42.976  25.645  25.166  1.00  0.00     0.022 A 
BRANCH  82  86
ATOM     86  S   UNL A   1      42.274  23.161  26.217  1.00  0.00     0.124 S 
ATOM     87  O   UNL A   1      42.787  22.849  24.889  1.00  0.00    -0.237 OA
ATOM     88  O   UNL A   1      43.122  22.775  27.341  1.00  0.00    -0.237 OA
ATOM     89  O   UNL A   1      40.845  22.921  26.408  1.00  0.00    -0.744 OA
ENDBRANCH  82  86
ENDBRANCH  55  79
BRANCH  67  90
ATOM     90  C   UNL A   1      44.648  27.934  33.903  1.00  0.00     0.023 A 
ATOM     91  C   UNL A   1      44.599  26.722  34.609  1.00  0.00     0.031 A 
ATOM     92  C   UNL A   1      45.882  28.602  33.804  1.00  0.00     0.131 A 
ATOM     93  C   UNL A   1      45.766  26.218  35.205  1.00  0.00     0.055 A 
ATOM     94  C   UNL A   1      47.046  28.076  34.363  1.00  0.00     0.041 A 
ATOM     95  F   UNL A   1      45.977  29.763  33.135  1.00  0.00    -0.206 F 
ATOM     96  C   UNL A   1      46.991  26.879  35.069  1.00  0.00     0.022 A 
BRANCH  93  97
ATOM     97  S   UNL A   1      45.663  24.686  36.169  1.00  0.00     0.124 S 
ATOM     98  O   UNL A   1      45.775  23.668  35.129  1.00  0.00    -0.237 OA
ATOM     99  O   UNL A   1      46.803  24.801  37.072  1.00  0.00    -0.237 OA
ATOM    100  O   UNL A   1      44.354  24.773  36.813  1.00  0.00    -0.744 OA
ENDBRANCH  93  97
ENDBRANCH  67  90
ENDBRANCH  41  42
ENDBRANCH  33  36
ENDBRANCH  31  32
ENDBRANCH   1  31
TORSDOF 18
ENDMDL
MODEL 3
REMARK VINA RESULT:     -12.6      4.921     10.377
REMARK SMILES Cc1[nH]cnc1C[NH+]1CCC(Oc2cccc(F)c2)(C(=O)NCCCCNC(=O)c2ccc(-c3c4nc(c(-c5cc(S(=O)(=O)[O-])ccc5F)c5ccc([nH]5)c(-c5cc(S(=O)(=O)[O-])ccc5F)c5nc(c(-c6cc(S(=O)(=O)[O-])ccc6F)c6ccc3[nH]6)C=C5)C=C4)cc2)CC1
REMARK SMILES IDX 25 1 24 2 23 3 22 4 20 5 21 6 11 8 8 9 9 10 94 11 10 13
REMARK SMILES IDX 93 14 7 15 6 16 1 17 2 18 3 19 4 20 5 22 12 23 13 24 14 25
REMARK SMILES IDX 19 26 15 27 17 28 16 29 18 30 26 31 27 32 28 33 29 35 30 36
REMARK SMILES IDX 31 37 92 38 32 39 91 40 33 41 34 42 35 43 85 44 36 45 90 46
REMARK SMILES IDX 84 47 86 48 37 49 89 50 83 51 82 52 38 54 70 55 50 56 69 57
REMARK SMILES IDX 51 58 54 59 68 60 87 61 52 62 53 63 67 65 88 66 55 67 39 68
REMARK SMILES IDX 40 69 48 70 41 71 47 72 49 73 46 74 42 75 43 76 44 77 45 78
REMARK SMILES IDX 71 79 72 80 80 81 73 82 79 83 81 84 78 85 74 86 75 87 76 88
REMARK SMILES IDX 77 89 56 90 57 91 65 92 58 93 64 94 66 95 63 96 59 97 60 98
REMARK SMILES IDX 61 99 62 100
REMARK H PARENT 22 7 8 12 3 21 27 34 86 53 54 64
REMARK Flexibility Score: inf
ROOT
ATOM      1  C   UNL A   1      32.103  27.838  25.106  1.00  0.00     0.023 C 
ENDROOT
BRANCH   1   2
ATOM      2  C   UNL A   1      31.763  26.709  26.081  1.00  0.00     0.023 C 
BRANCH   2   3
ATOM      3  C   UNL A   1      31.767  25.310  25.469  1.00  0.00     0.116 C 
BRANCH   3   4
ATOM      4  N   UNL A   1      32.444  25.286  24.186  1.00  0.00    -0.353 N 
ATOM      5  C   UNL A   1      33.206  24.315  23.599  1.00  0.00     0.264 C 
ATOM      6  O   UNL A   1      33.530  24.525  22.426  1.00  0.00    -0.270 OA
ATOM      7  H   UNL A   1      32.338  26.105  23.651  1.00  0.00     0.163 HD
BRANCH   5   8
ATOM      8  C   UNL A   1      33.617  23.019  24.361  1.00  0.00     0.197 C 
ATOM      9  N   UNL A   1      36.377  23.403  25.277  1.00  0.00    -0.330 N 
ATOM     10  C   UNL A   1      35.288  24.156  25.896  1.00  0.00     0.267 C 
ATOM     11  C   UNL A   1      36.122  23.158  23.851  1.00  0.00     0.267 C 
ATOM     12  H   UNL A   1      36.405  22.494  25.737  1.00  0.00     0.348 HD
ATOM     13  C   UNL A   1      34.008  23.328  25.817  1.00  0.00     0.120 C 
ATOM     14  C   UNL A   1      34.824  22.362  23.652  1.00  0.00     0.120 C 
BRANCH   9  15
ATOM     15  C   UNL A   1      37.704  24.010  25.518  1.00  0.00     0.321 C 
BRANCH  15  16
ATOM     16  C   UNL A   1      38.696  23.098  26.181  1.00  0.00     0.115 A 
ATOM     17  C   UNL A   1      39.865  24.561  28.027  1.00  0.00     0.066 C 
ATOM     18  C   UNL A   1      39.590  23.360  27.209  1.00  0.00     0.040 A 
ATOM     19  N   UNL A   1      40.288  22.187  27.376  1.00  0.00    -0.348 N 
ATOM     20  C   UNL A   1      39.781  21.272  26.502  1.00  0.00     0.197 A 
ATOM     21  H   UNL A   1      41.022  22.036  28.013  1.00  0.00     0.167 HD
ATOM     22  N   UNL A   1      38.800  21.776  25.795  1.00  0.00    -0.236 NA
ENDBRANCH  15  16
ENDBRANCH   9  15
BRANCH   8  23
ATOM     23  O   UNL A   1      32.405  22.228  24.221  1.00  0.00    -0.477 OA
BRANCH  23  24
ATOM     24  C   UNL A   1      32.513  20.871  24.195  1.00  0.00     0.123 A 
ATOM     25  C   UNL A   1      32.659  20.135  25.372  1.00  0.00     0.046 A 
ATOM     26  C   UNL A   1      32.312  20.220  22.982  1.00  0.00     0.085 A 
ATOM     27  C   UNL A   1      32.703  18.741  25.324  1.00  0.00     0.007 A 
ATOM     28  C   UNL A   1      32.341  18.831  22.947  1.00  0.00     0.126 A 
ATOM     29  C   UNL A   1      32.551  18.086  24.103  1.00  0.00     0.039 A 
ATOM     30  F   UNL A   1      32.156  18.195  21.783  1.00  0.00    -0.207 F 
ENDBRANCH  23  24
ENDBRANCH   8  23
ENDBRANCH   5   8
ENDBRANCH   3   4
ENDBRANCH   2   3
ENDBRANCH   1   2
BRANCH   1  31
ATOM     31  C   UNL A   1      33.174  28.813  25.583  1.00  0.00     0.116 C 
BRANCH  31  32
ATOM     32  N   UNL A   1      32.627  30.083  26.031  1.00  0.00    -0.352 N 
ATOM     33  C   UNL A   1      33.130  30.971  26.951  1.00  0.00     0.251 C 
ATOM     34  H   UNL A   1      31.773  30.344  25.616  1.00  0.00     0.163 HD
ATOM     35  O   UNL A   1      32.450  31.932  27.299  1.00  0.00    -0.269 OA
BRANCH  33  36
ATOM     36  C   UNL A   1      34.465  30.743  27.544  1.00  0.00     0.039 A 
ATOM     37  C   UNL A   1      35.324  31.833  27.701  1.00  0.00     0.014 A 
ATOM     38  C   UNL A   1      34.865  29.470  27.961  1.00  0.00     0.014 A 
ATOM     39  C   UNL A   1      36.551  31.660  28.346  1.00  0.00     0.010 A 
ATOM     40  C   UNL A   1      36.058  29.312  28.665  1.00  0.00     0.010 A 
ATOM     41  C   UNL A   1      36.908  30.408  28.873  1.00  0.00    -0.014 A 
BRANCH  41  42
ATOM     42  C   UNL A   1      38.157  30.240  29.662  1.00  0.00     0.031 A 
ATOM     43  C   UNL A   1      39.328  29.493  29.085  1.00  0.00     0.074 A 
ATOM     44  C   UNL A   1      38.219  30.732  30.915  1.00  0.00     0.049 A 
ATOM     45  N   UNL A   1      40.477  29.210  29.641  1.00  0.00    -0.248 NA
ATOM     46  C   UNL A   1      39.183  28.980  27.713  1.00  0.00     0.031 C 
ATOM     47  C   UNL A   1      37.137  31.449  31.595  1.00  0.00     0.029 A 
ATOM     48  N   UNL A   1      39.233  30.713  31.841  1.00  0.00    -0.354 N 
ATOM     49  C   UNL A   1      41.191  28.488  28.692  1.00  0.00     0.074 A 
ATOM     50  C   UNL A   1      40.326  28.330  27.544  1.00  0.00     0.031 C 
ATOM     51  C   UNL A   1      37.560  31.839  32.808  1.00  0.00     0.029 A 
ATOM     52  C   UNL A   1      38.924  31.361  33.016  1.00  0.00     0.049 A 
ATOM     53  H   UNL A   1      40.101  30.278  31.680  1.00  0.00     0.167 HD
ATOM     54  C   UNL A   1      42.461  28.022  28.763  1.00  0.00     0.034 A 
ATOM     55  C   UNL A   1      39.651  31.547  34.136  1.00  0.00     0.034 A 
ATOM     56  C   UNL A   1      43.323  28.203  29.902  1.00  0.00     0.049 A 
ATOM     57  C   UNL A   1      41.049  30.992  34.201  1.00  0.00     0.074 A 
ATOM     58  C   UNL A   1      44.640  27.802  30.055  1.00  0.00     0.029 A 
ATOM     59  N   UNL A   1      42.962  28.838  31.082  1.00  0.00    -0.354 N 
ATOM     60  N   UNL A   1      41.707  30.315  33.291  1.00  0.00    -0.248 NA
ATOM     61  C   UNL A   1      41.803  31.224  35.441  1.00  0.00     0.031 C 
ATOM     62  C   UNL A   1      45.055  28.143  31.344  1.00  0.00     0.029 A 
ATOM     63  C   UNL A   1      44.022  28.819  31.973  1.00  0.00     0.049 A 
ATOM     64  H   UNL A   1      42.082  29.243  31.259  1.00  0.00     0.167 HD
ATOM     65  C   UNL A   1      42.961  30.065  33.838  1.00  0.00     0.074 A 
ATOM     66  C   UNL A   1      42.969  30.659  35.158  1.00  0.00     0.031 C 
ATOM     67  C   UNL A   1      44.014  29.411  33.287  1.00  0.00     0.034 A 
BRANCH  54  68
ATOM     68  C   UNL A   1      43.001  27.266  27.578  1.00  0.00     0.023 A 
ATOM     69  C   UNL A   1      42.962  25.863  27.526  1.00  0.00     0.031 A 
ATOM     70  C   UNL A   1      43.521  27.958  26.470  1.00  0.00     0.131 A 
ATOM     71  C   UNL A   1      43.464  25.192  26.402  1.00  0.00     0.055 A 
ATOM     72  C   UNL A   1      43.963  27.287  25.329  1.00  0.00     0.041 A 
ATOM     73  F   UNL A   1      43.595  29.298  26.476  1.00  0.00    -0.206 F 
ATOM     74  C   UNL A   1      43.941  25.896  25.293  1.00  0.00     0.022 A 
BRANCH  71  75
ATOM     75  S   UNL A   1      43.545  23.381  26.434  1.00  0.00     0.124 S 
ATOM     76  O   UNL A   1      44.956  23.146  26.145  1.00  0.00    -0.237 OA
ATOM     77  O   UNL A   1      43.110  23.068  27.790  1.00  0.00    -0.237 OA
ATOM     78  O   UNL A   1      42.622  22.979  25.376  1.00  0.00    -0.744 OA
ENDBRANCH  71  75
ENDBRANCH  54  68
BRANCH  55  79
ATOM     79  C   UNL A   1      39.069  32.295  35.285  1.00  0.00     0.023 A 
ATOM     80  C   UNL A   1      38.480  31.617  36.363  1.00  0.00     0.031 A 
ATOM     81  C   UNL A   1      39.099  33.700  35.322  1.00  0.00     0.131 A 
ATOM     82  C   UNL A   1      37.924  32.346  37.426  1.00  0.00     0.055 A 
ATOM     83  C   UNL A   1      38.579  34.419  36.399  1.00  0.00     0.041 A 
ATOM     84  F   UNL A   1      39.662  34.394  34.319  1.00  0.00    -0.206 F 
ATOM     85  C   UNL A   1      37.981  33.741  37.457  1.00  0.00     0.022 A 
BRANCH  82  86
ATOM     86  S   UNL A   1      37.091  31.444  38.761  1.00  0.00     0.124 S 
ATOM     87  O   UNL A   1      38.021  31.632  39.868  1.00  0.00    -0.237 OA
ATOM     88  O   UNL A   1      35.820  32.155  38.862  1.00  0.00    -0.237 OA
ATOM     89  O   UNL A   1      37.000  30.081  38.244  1.00  0.00    -0.744 OA
ENDBRANCH  82  86
ENDBRANCH  55  79
BRANCH  67  90
ATOM     90  C   UNL A   1      45.285  29.334  34.087  1.00  0.00     0.023 A 
ATOM     91  C   UNL A   1      45.561  28.244  34.928  1.00  0.00     0.031 A 
ATOM     92  C   UNL A   1      46.265  30.333  33.943  1.00  0.00     0.131 A 
ATOM     93  C   UNL A   1      46.788  28.185  35.608  1.00  0.00     0.055 A 
ATOM     94  C   UNL A   1      47.498  30.248  34.589  1.00  0.00     0.041 A 
ATOM     95  F   UNL A   1      46.046  31.392  33.146  1.00  0.00    -0.206 F 
ATOM     96  C   UNL A   1      47.763  29.171  35.429  1.00  0.00     0.022 A 
BRANCH  93  97
ATOM     97  S   UNL A   1      47.094  26.803  36.741  1.00  0.00     0.124 S 
ATOM     98  O   UNL A   1      46.917  27.437  38.044  1.00  0.00    -0.237 OA
ATOM     99  O   UNL A   1      46.066  25.842  36.356  1.00  0.00    -0.237 OA
ATOM    100  O   UNL A   1      48.464  26.400  36.428  1.00  0.00    -0.744 OA
ENDBRANCH  93  97
ENDBRANCH  67  90
ENDBRANCH  41  42
ENDBRANCH  33  36
ENDBRANCH  31  32
ENDBRANCH   1  31
TORSDOF 18
ENDMDL
