MODEL 1
REMARK VINA RESULT:     -11.4      0.000      0.000
REMARK SMILES C[C@@H]1[C@H](C(=O)NCCCCNC(=O)c2ccc(-c3c4nc(c(-c5cc(S(=O)(=O)[O-])ccc5F)c5ccc([nH]5)c(-c5cc(S(=O)(=O)[O-])ccc5F)c5nc(c(-c6cc(S(=O)(=O)[O-])ccc6F)c6ccc3[nH]6)C=C5)C=C4)cc2)CCN1C(=O)C1CC1
REMARK SMILES IDX 9 1 8 2 7 3 6 4 4 5 5 6 3 8 1 9 2 10 79 11 77 12 78 13 80 14
REMARK SMILES IDX 81 15 82 16 83 17 84 18 10 19 11 20 12 21 13 23 14 24 15 25
REMARK SMILES IDX 76 26 16 27 75 28 17 29 18 30 19 31 69 32 20 33 74 34 68 35
REMARK SMILES IDX 70 36 21 37 73 38 67 39 66 40 22 42 54 43 34 44 53 45 35 46
REMARK SMILES IDX 38 47 52 48 71 49 36 50 37 51 51 53 72 54 39 55 23 56 24 57
REMARK SMILES IDX 32 58 25 59 31 60 33 61 30 62 26 63 27 64 28 65 29 66 55 67
REMARK SMILES IDX 56 68 64 69 57 70 63 71 65 72 62 73 58 74 59 75 60 76 61 77
REMARK SMILES IDX 40 78 41 79 49 80 42 81 48 82 50 83 47 84 43 85 44 86 45 87
REMARK SMILES IDX 46 88
REMARK H PARENT 6 7 11 22 70 41 38 52
REMARK Flexibility Score: inf
ROOT
ATOM      1  C   UNL A   1      31.675  29.153  27.139  1.00  0.00     0.023 C 
ENDROOT
BRANCH   1   2
ATOM      2  C   UNL A   1      32.129  27.709  27.246  1.00  0.00     0.023 C 
BRANCH   2   3
ATOM      3  C   UNL A   1      32.999  27.189  26.097  1.00  0.00     0.116 C 
BRANCH   3   4
ATOM      4  N   UNL A   1      32.398  26.070  25.389  1.00  0.00    -0.356 N 
ATOM      5  C   UNL A   1      31.234  25.927  24.696  1.00  0.00     0.225 C 
ATOM      6  O   UNL A   1      31.000  24.803  24.238  1.00  0.00    -0.275 OA
ATOM      7  H   UNL A   1      32.941  25.249  25.415  1.00  0.00     0.163 HD
BRANCH   5   8
ATOM      8  C   UNL A   1      30.214  27.042  24.466  1.00  0.00     0.102 C 
ATOM      9  C   UNL A   1      31.745  27.971  22.624  1.00  0.00     0.032 C 
ATOM     10  C   UNL A   1      30.625  28.262  23.604  1.00  0.00     0.094 C 
ATOM     11  N   UNL A   1      29.384  28.683  22.936  1.00  0.00    -0.339 N 
ATOM     12  C   UNL A   1      28.855  26.579  23.962  1.00  0.00     0.037 C 
ATOM     13  C   UNL A   1      28.283  27.782  23.244  1.00  0.00     0.120 C 
BRANCH  11  14
ATOM     14  C   UNL A   1      29.063  29.809  22.187  1.00  0.00     0.225 C 
ATOM     15  O   UNL A   1      29.633  30.014  21.113  1.00  0.00    -0.275 OA
BRANCH  14  16
ATOM     16  C   UNL A   1      28.021  30.814  22.546  1.00  0.00     0.079 C 
ATOM     17  C   UNL A   1      27.419  31.242  23.845  1.00  0.00     0.014 C 
ATOM     18  C   UNL A   1      28.465  32.107  23.196  1.00  0.00     0.014 C 
ENDBRANCH  14  16
ENDBRANCH  11  14
ENDBRANCH   5   8
ENDBRANCH   3   4
ENDBRANCH   2   3
ENDBRANCH   1   2
BRANCH   1  19
ATOM     19  C   UNL A   1      32.597  30.041  26.331  1.00  0.00     0.116 C 
BRANCH  19  20
ATOM     20  N   UNL A   1      32.432  31.460  26.620  1.00  0.00    -0.352 N 
ATOM     21  C   UNL A   1      33.243  32.287  27.363  1.00  0.00     0.251 C 
ATOM     22  H   UNL A   1      31.633  31.884  26.230  1.00  0.00     0.163 HD
ATOM     23  O   UNL A   1      32.894  33.431  27.618  1.00  0.00    -0.269 OA
BRANCH  21  24
ATOM     24  C   UNL A   1      34.517  31.746  27.878  1.00  0.00     0.039 A 
ATOM     25  C   UNL A   1      35.616  32.595  28.013  1.00  0.00     0.014 A 
ATOM     26  C   UNL A   1      34.585  30.418  28.306  1.00  0.00     0.014 A 
ATOM     27  C   UNL A   1      36.764  32.127  28.654  1.00  0.00     0.010 A 
ATOM     28  C   UNL A   1      35.680  29.994  29.041  1.00  0.00     0.010 A 
ATOM     29  C   UNL A   1      36.788  30.837  29.209  1.00  0.00    -0.014 A 
BRANCH  29  30
ATOM     30  C   UNL A   1      37.978  30.312  29.923  1.00  0.00     0.031 A 
ATOM     31  C   UNL A   1      38.243  30.769  31.331  1.00  0.00     0.074 A 
ATOM     32  C   UNL A   1      38.852  29.510  29.285  1.00  0.00     0.049 A 
ATOM     33  N   UNL A   1      39.284  30.554  32.094  1.00  0.00    -0.248 NA
ATOM     34  C   UNL A   1      37.220  31.634  31.942  1.00  0.00     0.031 C 
ATOM     35  C   UNL A   1      38.727  29.048  27.900  1.00  0.00     0.029 A 
ATOM     36  N   UNL A   1      40.026  28.947  29.716  1.00  0.00    -0.354 N 
ATOM     37  C   UNL A   1      39.052  31.283  33.257  1.00  0.00     0.074 A 
ATOM     38  C   UNL A   1      37.817  32.008  33.061  1.00  0.00     0.031 C 
ATOM     39  C   UNL A   1      39.766  28.248  27.608  1.00  0.00     0.029 A 
ATOM     40  C   UNL A   1      40.650  28.172  28.766  1.00  0.00     0.049 A 
ATOM     41  H   UNL A   1      40.387  29.085  30.622  1.00  0.00     0.167 HD
ATOM     42  C   UNL A   1      39.787  31.318  34.396  1.00  0.00     0.034 A 
ATOM     43  C   UNL A   1      41.807  27.485  28.828  1.00  0.00     0.034 A 
ATOM     44  C   UNL A   1      40.995  30.554  34.582  1.00  0.00     0.049 A 
ATOM     45  C   UNL A   1      42.595  27.512  30.113  1.00  0.00     0.074 A 
ATOM     46  C   UNL A   1      41.796  30.460  35.705  1.00  0.00     0.029 A 
ATOM     47  N   UNL A   1      41.573  29.742  33.612  1.00  0.00    -0.354 N 
ATOM     48  N   UNL A   1      42.345  28.172  31.221  1.00  0.00    -0.248 NA
ATOM     49  C   UNL A   1      43.809  26.688  30.161  1.00  0.00     0.031 C 
ATOM     50  C   UNL A   1      42.882  29.632  35.400  1.00  0.00     0.029 A 
ATOM     51  C   UNL A   1      42.725  29.154  34.108  1.00  0.00     0.049 A 
ATOM     52  H   UNL A   1      41.215  29.604  32.705  1.00  0.00     0.167 HD
ATOM     53  C   UNL A   1      43.355  27.814  32.110  1.00  0.00     0.074 A 
ATOM     54  C   UNL A   1      44.207  26.874  31.410  1.00  0.00     0.031 C 
ATOM     55  C   UNL A   1      43.558  28.220  33.390  1.00  0.00     0.034 A 
BRANCH  42  56
ATOM     56  C   UNL A   1      39.298  32.222  35.503  1.00  0.00     0.023 A 
ATOM     57  C   UNL A   1      39.660  33.581  35.558  1.00  0.00     0.031 A 
ATOM     58  C   UNL A   1      38.516  31.710  36.553  1.00  0.00     0.131 A 
ATOM     59  C   UNL A   1      39.333  34.350  36.684  1.00  0.00     0.055 A 
ATOM     60  C   UNL A   1      38.111  32.507  37.626  1.00  0.00     0.041 A 
ATOM     61  F   UNL A   1      38.156  30.417  36.569  1.00  0.00    -0.206 F 
ATOM     62  C   UNL A   1      38.538  33.830  37.707  1.00  0.00     0.022 A 
BRANCH  59  63
ATOM     63  S   UNL A   1      40.110  35.979  36.872  1.00  0.00     0.124 S 
ATOM     64  O   UNL A   1      41.514  35.614  37.051  1.00  0.00    -0.237 OA
ATOM     65  O   UNL A   1      39.775  36.635  35.614  1.00  0.00    -0.237 OA
ATOM     66  O   UNL A   1      39.461  36.533  38.058  1.00  0.00    -0.744 OA
ENDBRANCH  59  63
ENDBRANCH  42  56
BRANCH  43  67
ATOM     67  C   UNL A   1      42.286  26.703  27.653  1.00  0.00     0.023 A 
ATOM     68  C   UNL A   1      41.939  25.351  27.498  1.00  0.00     0.031 A 
ATOM     69  C   UNL A   1      43.122  27.285  26.684  1.00  0.00     0.131 A 
ATOM     70  C   UNL A   1      42.459  24.612  26.425  1.00  0.00     0.055 A 
ATOM     71  C   UNL A   1      43.601  26.557  25.591  1.00  0.00     0.041 A 
ATOM     72  F   UNL A   1      43.475  28.576  26.778  1.00  0.00    -0.206 F 
ATOM     73  C   UNL A   1      43.280  25.208  25.465  1.00  0.00     0.022 A 
BRANCH  70  74
ATOM     74  S   UNL A   1      42.105  22.835  26.341  1.00  0.00     0.124 S 
ATOM     75  O   UNL A   1      42.680  22.477  25.050  1.00  0.00    -0.237 OA
ATOM     76  O   UNL A   1      42.804  22.332  27.518  1.00  0.00    -0.237 OA
ATOM     77  O   UNL A   1      40.646  22.776  26.413  1.00  0.00    -0.744 OA
ENDBRANCH  70  74
ENDBRANCH  43  67
BRANCH  55  78
ATOM     78  C   UNL A   1      44.718  27.598  34.126  1.00  0.00     0.023 A 
ATOM     79  C   UNL A   1      44.567  26.429  34.890  1.00  0.00     0.031 A 
ATOM     80  C   UNL A   1      45.989  28.195  34.065  1.00  0.00     0.131 A 
ATOM     81  C   UNL A   1      45.659  25.922  35.609  1.00  0.00     0.055 A 
ATOM     82  C   UNL A   1      47.086  27.655  34.736  1.00  0.00     0.041 A 
ATOM     83  F   UNL A   1      46.185  29.313  33.349  1.00  0.00    -0.206 F 
ATOM     84  C   UNL A   1      46.921  26.518  35.525  1.00  0.00     0.022 A 
BRANCH  81  85
ATOM     85  S   UNL A   1      45.390  24.521  36.728  1.00  0.00     0.124 S 
ATOM     86  O   UNL A   1      44.240  24.971  37.506  1.00  0.00    -0.237 OA
ATOM     87  O   UNL A   1      45.141  23.423  35.799  1.00  0.00    -0.237 OA
ATOM     88  O   UNL A   1      46.645  24.430  37.472  1.00  0.00    -0.744 OA
ENDBRANCH  81  85
ENDBRANCH  55  78
ENDBRANCH  29  30
ENDBRANCH  21  24
ENDBRANCH  19  20
ENDBRANCH   1  19
TORSDOF 16
ENDMDL
MODEL 2
REMARK VINA RESULT:     -11.4      2.075      2.644
REMARK SMILES C[C@@H]1[C@H](C(=O)NCCCCNC(=O)c2ccc(-c3c4nc(c(-c5cc(S(=O)(=O)[O-])ccc5F)c5ccc([nH]5)c(-c5cc(S(=O)(=O)[O-])ccc5F)c5nc(c(-c6cc(S(=O)(=O)[O-])ccc6F)c6ccc3[nH]6)C=C5)C=C4)cc2)CCN1C(=O)C1CC1
REMARK SMILES IDX 9 1 8 2 7 3 6 4 4 5 5 6 3 8 1 9 2 10 79 11 77 12 78 13 80 14
REMARK SMILES IDX 81 15 82 16 83 17 84 18 10 19 11 20 12 21 13 23 14 24 15 25
REMARK SMILES IDX 76 26 16 27 75 28 17 29 18 30 19 31 69 32 20 33 74 34 68 35
REMARK SMILES IDX 70 36 21 37 73 38 67 39 66 40 22 42 54 43 34 44 53 45 35 46
REMARK SMILES IDX 38 47 52 48 71 49 36 50 37 51 51 53 72 54 39 55 23 56 24 57
REMARK SMILES IDX 32 58 25 59 31 60 33 61 30 62 26 63 27 64 28 65 29 66 55 67
REMARK SMILES IDX 56 68 64 69 57 70 63 71 65 72 62 73 58 74 59 75 60 76 61 77
REMARK SMILES IDX 40 78 41 79 49 80 42 81 48 82 50 83 47 84 43 85 44 86 45 87
REMARK SMILES IDX 46 88
REMARK H PARENT 6 7 11 22 70 41 38 52
REMARK Flexibility Score: inf
ROOT
ATOM      1  C   UNL A   1      32.996  28.123  26.557  1.00  0.00     0.023 C 
ENDROOT
BRANCH   1   2
ATOM      2  C   UNL A   1      33.213  26.715  26.033  1.00  0.00     0.023 C 
BRANCH   2   3
ATOM      3  C   UNL A   1      32.174  25.672  26.455  1.00  0.00     0.116 C 
BRANCH   3   4
ATOM      4  N   UNL A   1      31.595  24.957  25.327  1.00  0.00    -0.356 N 
ATOM      5  C   UNL A   1      30.629  25.277  24.422  1.00  0.00     0.225 C 
ATOM      6  O   UNL A   1      30.340  24.406  23.594  1.00  0.00    -0.275 OA
ATOM      7  H   UNL A   1      31.980  24.061  25.189  1.00  0.00     0.163 HD
BRANCH   5   8
ATOM      8  C   UNL A   1      29.885  26.612  24.378  1.00  0.00     0.102 C 
ATOM      9  C   UNL A   1      31.547  27.401  22.585  1.00  0.00     0.032 C 
ATOM     10  C   UNL A   1      30.544  27.808  23.647  1.00  0.00     0.094 C 
ATOM     11  N   UNL A   1      29.416  28.576  23.095  1.00  0.00    -0.339 N 
ATOM     12  C   UNL A   1      28.445  26.531  23.889  1.00  0.00     0.037 C 
ATOM     13  C   UNL A   1      28.146  27.911  23.349  1.00  0.00     0.120 C 
BRANCH  11  14
ATOM     14  C   UNL A   1      29.344  29.831  22.502  1.00  0.00     0.225 C 
ATOM     15  O   UNL A   1      29.434  29.936  21.277  1.00  0.00    -0.275 OA
BRANCH  14  16
ATOM     16  C   UNL A   1      29.113  31.114  23.226  1.00  0.00     0.079 C 
ATOM     17  C   UNL A   1      28.692  32.478  22.782  1.00  0.00     0.014 C 
ATOM     18  C   UNL A   1      27.686  31.571  23.439  1.00  0.00     0.014 C 
ENDBRANCH  14  16
ENDBRANCH  11  14
ENDBRANCH   5   8
ENDBRANCH   3   4
ENDBRANCH   2   3
ENDBRANCH   1   2
BRANCH   1  19
ATOM     19  C   UNL A   1      33.782  29.192  25.828  1.00  0.00     0.116 C 
BRANCH  19  20
ATOM     20  N   UNL A   1      33.690  30.505  26.454  1.00  0.00    -0.352 N 
ATOM     21  C   UNL A   1      34.480  31.042  27.445  1.00  0.00     0.251 C 
ATOM     22  H   UNL A   1      32.966  31.085  26.123  1.00  0.00     0.163 HD
ATOM     23  O   UNL A   1      34.189  32.116  27.954  1.00  0.00    -0.269 OA
BRANCH  21  24
ATOM     24  C   UNL A   1      35.654  30.273  27.904  1.00  0.00     0.039 A 
ATOM     25  C   UNL A   1      36.876  30.434  27.249  1.00  0.00     0.014 A 
ATOM     26  C   UNL A   1      35.553  29.464  29.038  1.00  0.00     0.014 A 
ATOM     27  C   UNL A   1      38.019  29.839  27.784  1.00  0.00     0.010 A 
ATOM     28  C   UNL A   1      36.706  28.972  29.628  1.00  0.00     0.010 A 
ATOM     29  C   UNL A   1      37.949  29.139  29.000  1.00  0.00    -0.014 A 
BRANCH  29  30
ATOM     30  C   UNL A   1      39.146  28.517  29.616  1.00  0.00     0.031 A 
ATOM     31  C   UNL A   1      39.620  29.017  30.954  1.00  0.00     0.074 A 
ATOM     32  C   UNL A   1      39.846  27.582  28.945  1.00  0.00     0.049 A 
ATOM     33  N   UNL A   1      40.710  28.722  31.614  1.00  0.00    -0.248 NA
ATOM     34  C   UNL A   1      38.777  30.030  31.610  1.00  0.00     0.031 C 
ATOM     35  C   UNL A   1      39.513  27.062  27.617  1.00  0.00     0.029 A 
ATOM     36  N   UNL A   1      40.991  26.908  29.285  1.00  0.00    -0.354 N 
ATOM     37  C   UNL A   1      40.697  29.537  32.742  1.00  0.00     0.074 A 
ATOM     38  C   UNL A   1      39.536  30.392  32.630  1.00  0.00     0.031 C 
ATOM     39  C   UNL A   1      40.415  26.129  27.270  1.00  0.00     0.029 A 
ATOM     40  C   UNL A   1      41.412  26.013  28.329  1.00  0.00     0.049 A 
ATOM     41  H   UNL A   1      41.467  27.052  30.136  1.00  0.00     0.167 HD
ATOM     42  C   UNL A   1      41.556  29.547  33.791  1.00  0.00     0.034 A 
ATOM     43  C   UNL A   1      42.484  25.198  28.314  1.00  0.00     0.034 A 
ATOM     44  C   UNL A   1      42.684  28.657  33.898  1.00  0.00     0.049 A 
ATOM     45  C   UNL A   1      43.411  25.202  29.502  1.00  0.00     0.074 A 
ATOM     46  C   UNL A   1      43.593  28.531  34.933  1.00  0.00     0.029 A 
ATOM     47  N   UNL A   1      43.053  27.729  32.930  1.00  0.00    -0.354 N 
ATOM     48  N   UNL A   1      43.365  25.947  30.583  1.00  0.00    -0.248 NA
ATOM     49  C   UNL A   1      44.522  24.243  29.477  1.00  0.00     0.031 C 
ATOM     50  C   UNL A   1      44.537  27.563  34.571  1.00  0.00     0.029 A 
ATOM     51  C   UNL A   1      44.181  27.037  33.339  1.00  0.00     0.049 A 
ATOM     52  H   UNL A   1      42.580  27.585  32.078  1.00  0.00     0.167 HD
ATOM     53  C   UNL A   1      44.424  25.522  31.381  1.00  0.00     0.074 A 
ATOM     54  C   UNL A   1      45.079  24.449  30.661  1.00  0.00     0.031 C 
ATOM     55  C   UNL A   1      44.816  25.971  32.601  1.00  0.00     0.034 A 
BRANCH  42  56
ATOM     56  C   UNL A   1      41.302  30.564  34.879  1.00  0.00     0.023 A 
ATOM     57  C   UNL A   1      40.120  30.543  35.644  1.00  0.00     0.031 A 
ATOM     58  C   UNL A   1      42.216  31.605  35.114  1.00  0.00     0.131 A 
ATOM     59  C   UNL A   1      39.837  31.596  36.526  1.00  0.00     0.055 A 
ATOM     60  C   UNL A   1      41.971  32.600  36.064  1.00  0.00     0.041 A 
ATOM     61  F   UNL A   1      43.351  31.692  34.403  1.00  0.00    -0.206 F 
ATOM     62  C   UNL A   1      40.766  32.611  36.762  1.00  0.00     0.022 A 
BRANCH  59  63
ATOM     63  S   UNL A   1      38.166  31.712  37.223  1.00  0.00     0.124 S 
ATOM     64  O   UNL A   1      37.778  30.304  37.287  1.00  0.00    -0.237 OA
ATOM     65  O   UNL A   1      38.403  32.368  38.503  1.00  0.00    -0.237 OA
ATOM     66  O   UNL A   1      37.438  32.508  36.238  1.00  0.00    -0.744 OA
ENDBRANCH  59  63
ENDBRANCH  42  56
BRANCH  43  67
ATOM     67  C   UNL A   1      42.734  24.300  27.151  1.00  0.00     0.023 A 
ATOM     68  C   UNL A   1      42.286  22.969  27.159  1.00  0.00     0.031 A 
ATOM     69  C   UNL A   1      43.451  24.748  26.028  1.00  0.00     0.131 A 
ATOM     70  C   UNL A   1      42.596  22.118  26.087  1.00  0.00     0.055 A 
ATOM     71  C   UNL A   1      43.717  23.910  24.941  1.00  0.00     0.041 A 
ATOM     72  F   UNL A   1      43.892  26.013  25.964  1.00  0.00    -0.206 F 
ATOM     73  C   UNL A   1      43.299  22.582  24.973  1.00  0.00     0.022 A 
BRANCH  70  74
ATOM     74  S   UNL A   1      42.125  20.370  26.202  1.00  0.00     0.124 S 
ATOM     75  O   UNL A   1      43.233  19.718  25.514  1.00  0.00    -0.237 OA
ATOM     76  O   UNL A   1      42.058  20.170  27.645  1.00  0.00    -0.237 OA
ATOM     77  O   UNL A   1      40.841  20.318  25.506  1.00  0.00    -0.744 OA
ENDBRANCH  70  74
ENDBRANCH  43  67
BRANCH  55  78
ATOM     78  C   UNL A   1      45.975  25.258  33.249  1.00  0.00     0.023 A 
ATOM     79  C   UNL A   1      45.788  24.116  34.046  1.00  0.00     0.031 A 
ATOM     80  C   UNL A   1      47.284  25.738  33.071  1.00  0.00     0.131 A 
ATOM     81  C   UNL A   1      46.889  23.523  34.681  1.00  0.00     0.055 A 
ATOM     82  C   UNL A   1      48.382  25.111  33.659  1.00  0.00     0.041 A 
ATOM     83  F   UNL A   1      47.516  26.826  32.319  1.00  0.00    -0.206 F 
ATOM     84  C   UNL A   1      48.187  24.003  34.480  1.00  0.00     0.022 A 
BRANCH  81  85
ATOM     85  S   UNL A   1      46.594  22.165  35.846  1.00  0.00     0.124 S 
ATOM     86  O   UNL A   1      45.766  22.810  36.860  1.00  0.00    -0.237 OA
ATOM     87  O   UNL A   1      45.922  21.176  35.009  1.00  0.00    -0.237 OA
ATOM     88  O   UNL A   1      47.938  21.793  36.287  1.00  0.00    -0.744 OA
ENDBRANCH  81  85
ENDBRANCH  55  78
ENDBRANCH  29  30
ENDBRANCH  21  24
ENDBRANCH  19  20
ENDBRANCH   1  19
TORSDOF 16
ENDMDL
MODEL 3
REMARK VINA RESULT:     -11.2      2.258      8.499
REMARK SMILES C[C@@H]1[C@H](C(=O)NCCCCNC(=O)c2ccc(-c3c4nc(c(-c5cc(S(=O)(=O)[O-])ccc5F)c5ccc([nH]5)c(-c5cc(S(=O)(=O)[O-])ccc5F)c5nc(c(-c6cc(S(=O)(=O)[O-])ccc6F)c6ccc3[nH]6)C=C5)C=C4)cc2)CCN1C(=O)C1CC1
REMARK SMILES IDX 9 1 8 2 7 3 6 4 4 5 5 6 3 8 1 9 2 10 79 11 77 12 78 13 80 14
REMARK SMILES IDX 81 15 82 16 83 17 84 18 10 19 11 20 12 21 13 23 14 24 15 25
REMARK SMILES IDX 76 26 16 27 75 28 17 29 18 30 19 31 69 32 20 33 74 34 68 35
REMARK SMILES IDX 70 36 21 37 73 38 67 39 66 40 22 42 54 43 34 44 53 45 35 46
REMARK SMILES IDX 38 47 52 48 71 49 36 50 37 51 51 53 72 54 39 55 23 56 24 57
REMARK SMILES IDX 32 58 25 59 31 60 33 61 30 62 26 63 27 64 28 65 29 66 55 67
REMARK SMILES IDX 56 68 64 69 57 70 63 71 65 72 62 73 58 74 59 75 60 76 61 77
REMARK SMILES IDX 40 78 41 79 49 80 42 81 48 82 50 83 47 84 43 85 44 86 45 87
REMARK SMILES IDX 46 88
REMARK H PARENT 6 7 11 22 70 41 38 52
REMARK Flexibility Score: inf
ROOT
ATOM      1  C   UNL A   1      32.594  28.715  23.856  1.00  0.00     0.023 C 
ENDROOT
BRANCH   1   2
ATOM      2  C   UNL A   1      31.085  28.814  23.984  1.00  0.00     0.023 C 
BRANCH   2   3
ATOM      3  C   UNL A   1      30.307  27.508  23.793  1.00  0.00     0.116 C 
BRANCH   3   4
ATOM      4  N   UNL A   1      30.194  26.728  25.016  1.00  0.00    -0.356 N 
ATOM      5  C   UNL A   1      30.652  25.499  25.379  1.00  0.00     0.225 C 
ATOM      6  O   UNL A   1      30.339  25.105  26.508  1.00  0.00    -0.275 OA
ATOM      7  H   UNL A   1      29.684  27.182  25.726  1.00  0.00     0.163 HD
BRANCH   5   8
ATOM      8  C   UNL A   1      31.498  24.587  24.489  1.00  0.00     0.102 C 
ATOM      9  C   UNL A   1      33.598  25.581  25.584  1.00  0.00     0.032 C 
ATOM     10  C   UNL A   1      33.021  24.850  24.388  1.00  0.00     0.094 C 
ATOM     11  N   UNL A   1      33.618  23.519  24.197  1.00  0.00    -0.339 N 
ATOM     12  C   UNL A   1      31.320  23.096  24.741  1.00  0.00     0.037 C 
ATOM     13  C   UNL A   1      32.610  22.470  24.260  1.00  0.00     0.120 C 
BRANCH  11  14
ATOM     14  C   UNL A   1      34.905  23.113  23.863  1.00  0.00     0.225 C 
ATOM     15  O   UNL A   1      35.363  23.378  22.750  1.00  0.00    -0.275 OA
BRANCH  14  16
ATOM     16  C   UNL A   1      35.844  22.396  24.773  1.00  0.00     0.079 C 
ATOM     17  C   UNL A   1      37.260  21.939  24.628  1.00  0.00     0.014 C 
ATOM     18  C   UNL A   1      36.964  23.186  25.416  1.00  0.00     0.014 C 
ENDBRANCH  14  16
ENDBRANCH  11  14
ENDBRANCH   5   8
ENDBRANCH   3   4
ENDBRANCH   2   3
ENDBRANCH   1   2
BRANCH   1  19
ATOM     19  C   UNL A   1      33.361  29.324  25.012  1.00  0.00     0.116 C 
BRANCH  19  20
ATOM     20  N   UNL A   1      32.661  30.431  25.650  1.00  0.00    -0.352 N 
ATOM     21  C   UNL A   1      33.017  31.139  26.776  1.00  0.00     0.251 C 
ATOM     22  H   UNL A   1      31.820  30.709  25.219  1.00  0.00     0.163 HD
ATOM     23  O   UNL A   1      32.250  31.960  27.259  1.00  0.00    -0.269 OA
BRANCH  21  24
ATOM     24  C   UNL A   1      34.322  30.852  27.404  1.00  0.00     0.039 A 
ATOM     25  C   UNL A   1      35.194  31.906  27.683  1.00  0.00     0.014 A 
ATOM     26  C   UNL A   1      34.633  29.548  27.793  1.00  0.00     0.014 A 
ATOM     27  C   UNL A   1      36.348  31.657  28.426  1.00  0.00     0.010 A 
ATOM     28  C   UNL A   1      35.718  29.325  28.626  1.00  0.00     0.010 A 
ATOM     29  C   UNL A   1      36.597  30.373  28.937  1.00  0.00    -0.014 A 
BRANCH  29  30
ATOM     30  C   UNL A   1      37.797  30.073  29.756  1.00  0.00     0.031 A 
ATOM     31  C   UNL A   1      38.857  29.167  29.192  1.00  0.00     0.074 A 
ATOM     32  C   UNL A   1      37.890  30.536  31.017  1.00  0.00     0.049 A 
ATOM     33  N   UNL A   1      39.914  28.660  29.772  1.00  0.00    -0.248 NA
ATOM     34  C   UNL A   1      38.668  28.727  27.799  1.00  0.00     0.031 C 
ATOM     35  C   UNL A   1      36.896  31.376  31.689  1.00  0.00     0.029 A 
ATOM     36  N   UNL A   1      38.865  30.358  31.965  1.00  0.00    -0.354 N 
ATOM     37  C   UNL A   1      40.493  27.819  28.826  1.00  0.00     0.074 A 
ATOM     38  C   UNL A   1      39.623  27.822  27.671  1.00  0.00     0.031 C 
ATOM     39  C   UNL A   1      37.328  31.665  32.929  1.00  0.00     0.029 A 
ATOM     40  C   UNL A   1      38.606  30.999  33.154  1.00  0.00     0.049 A 
ATOM     41  H   UNL A   1      39.676  29.820  31.807  1.00  0.00     0.167 HD
ATOM     42  C   UNL A   1      41.660  27.133  28.903  1.00  0.00     0.034 A 
ATOM     43  C   UNL A   1      39.322  31.037  34.294  1.00  0.00     0.034 A 
ATOM     44  C   UNL A   1      42.529  27.178  30.051  1.00  0.00     0.049 A 
ATOM     45  C   UNL A   1      40.632  30.293  34.351  1.00  0.00     0.074 A 
ATOM     46  C   UNL A   1      43.761  26.575  30.229  1.00  0.00     0.029 A 
ATOM     47  N   UNL A   1      42.257  27.878  31.222  1.00  0.00    -0.354 N 
ATOM     48  N   UNL A   1      41.190  29.533  33.435  1.00  0.00    -0.248 NA
ATOM     49  C   UNL A   1      41.415  30.425  35.585  1.00  0.00     0.031 C 
ATOM     50  C   UNL A   1      44.211  26.869  31.521  1.00  0.00     0.029 A 
ATOM     51  C   UNL A   1      43.291  27.711  32.128  1.00  0.00     0.049 A 
ATOM     52  H   UNL A   1      41.447  28.414  31.382  1.00  0.00     0.167 HD
ATOM     53  C   UNL A   1      42.407  29.125  33.973  1.00  0.00     0.074 A 
ATOM     54  C   UNL A   1      42.503  29.732  35.285  1.00  0.00     0.031 C 
ATOM     55  C   UNL A   1      43.363  28.326  33.432  1.00  0.00     0.034 A 
BRANCH  42  56
ATOM     56  C   UNL A   1      42.034  26.276  27.716  1.00  0.00     0.023 A 
ATOM     57  C   UNL A   1      41.605  24.940  27.609  1.00  0.00     0.031 A 
ATOM     58  C   UNL A   1      42.883  26.774  26.713  1.00  0.00     0.131 A 
ATOM     59  C   UNL A   1      42.108  24.122  26.586  1.00  0.00     0.055 A 
ATOM     60  C   UNL A   1      43.302  25.981  25.643  1.00  0.00     0.041 A 
ATOM     61  F   UNL A   1      43.342  28.034  26.770  1.00  0.00    -0.206 F 
ATOM     62  C   UNL A   1      42.932  24.640  25.586  1.00  0.00     0.022 A 
BRANCH  59  63
ATOM     63  S   UNL A   1      41.809  22.335  26.686  1.00  0.00     0.124 S 
ATOM     64  O   UNL A   1      42.420  21.867  25.443  1.00  0.00    -0.237 OA
ATOM     65  O   UNL A   1      42.500  21.967  27.916  1.00  0.00    -0.237 OA
ATOM     66  O   UNL A   1      40.352  22.233  26.732  1.00  0.00    -0.744 OA
ENDBRANCH  59  63
ENDBRANCH  42  56
BRANCH  43  67
ATOM     67  C   UNL A   1      38.834  31.815  35.468  1.00  0.00     0.023 A 
ATOM     68  C   UNL A   1      38.260  31.167  36.574  1.00  0.00     0.031 A 
ATOM     69  C   UNL A   1      38.906  33.219  35.491  1.00  0.00     0.131 A 
ATOM     70  C   UNL A   1      37.739  31.921  37.636  1.00  0.00     0.055 A 
ATOM     71  C   UNL A   1      38.428  33.964  36.573  1.00  0.00     0.041 A 
ATOM     72  F   UNL A   1      39.455  33.888  34.466  1.00  0.00    -0.206 F 
ATOM     73  C   UNL A   1      37.829  33.315  37.648  1.00  0.00     0.022 A 
BRANCH  70  74
ATOM     74  S   UNL A   1      36.877  31.054  38.975  1.00  0.00     0.124 S 
ATOM     75  O   UNL A   1      35.627  31.802  39.059  1.00  0.00    -0.237 OA
ATOM     76  O   UNL A   1      36.779  29.699  38.445  1.00  0.00    -0.237 OA
ATOM     77  O   UNL A   1      37.775  31.211  40.117  1.00  0.00    -0.744 OA
ENDBRANCH  70  74
ENDBRANCH  43  67
BRANCH  55  78
ATOM     78  C   UNL A   1      44.616  28.117  34.243  1.00  0.00     0.023 A 
ATOM     79  C   UNL A   1      44.745  27.043  35.140  1.00  0.00     0.031 A 
ATOM     80  C   UNL A   1      45.690  29.015  34.119  1.00  0.00     0.131 A 
ATOM     81  C   UNL A   1      45.904  26.925  35.920  1.00  0.00     0.055 A 
ATOM     82  C   UNL A   1      46.864  28.861  34.857  1.00  0.00     0.041 A 
ATOM     83  F   UNL A   1      45.616  30.058  33.277  1.00  0.00    -0.206 F 
ATOM     84  C   UNL A   1      46.971  27.818  35.774  1.00  0.00     0.022 A 
BRANCH  81  85
ATOM     85  S   UNL A   1      45.967  25.638  37.197  1.00  0.00     0.124 S 
ATOM     86  O   UNL A   1      46.666  26.321  38.281  1.00  0.00    -0.237 OA
ATOM     87  O   UNL A   1      44.553  25.358  37.427  1.00  0.00    -0.237 OA
ATOM     88  O   UNL A   1      46.716  24.557  36.559  1.00  0.00    -0.744 OA
ENDBRANCH  81  85
ENDBRANCH  55  78
ENDBRANCH  29  30
ENDBRANCH  21  24
ENDBRANCH  19  20
ENDBRANCH   1  19
TORSDOF 16
ENDMDL
