MODEL 1
REMARK VINA RESULT:     -12.2      0.000      0.000
REMARK SMILES COc1nc2c(cc1C(=O)NCc1ccc(C(=O)NCCCCNC(=O)c3ccc(-c4c5nc(c(-c6cc(S(=O)(=O)[O-])ccc6F)c6ccc([nH]6)c(-c6cc(S(=O)(=O)[O-])ccc6F)c6nc(c(-c7cc(S(=O)(=O)[O-])ccc7F)c7ccc4[nH]7)C=C6)C=C5)cc3)s1)CCC2
REMARK SMILES IDX 21 1 20 2 19 3 17 4 18 5 16 7 13 8 14 9 90 10 15 11 12 12
REMARK SMILES IDX 11 13 9 14 10 15 8 17 3 18 4 19 5 20 7 21 6 22 93 23 91 24
REMARK SMILES IDX 92 25 2 26 1 27 22 28 23 29 24 30 25 31 26 33 27 34 28 35
REMARK SMILES IDX 89 36 29 37 88 38 30 39 31 40 32 41 82 42 33 43 87 44 81 45
REMARK SMILES IDX 83 46 34 47 86 48 80 49 79 50 35 52 67 53 47 54 66 55 48 56
REMARK SMILES IDX 51 57 65 58 84 59 49 60 50 61 64 63 85 64 52 65 36 66 37 67
REMARK SMILES IDX 45 68 38 69 44 70 46 71 43 72 39 73 40 74 41 75 42 76 68 77
REMARK SMILES IDX 69 78 77 79 70 80 76 81 78 82 75 83 71 84 72 85 73 86 74 87
REMARK SMILES IDX 53 88 54 89 62 90 55 91 61 92 63 93 60 94 56 95 57 96 58 97
REMARK SMILES IDX 59 98
REMARK H PARENT 19 6 11 16 24 32 83 51 51 62
REMARK Flexibility Score: inf
ROOT
ATOM      1  C   UNL A   1      32.802  29.384  24.844  1.00  0.00     0.023 C 
ENDROOT
BRANCH   1   2
ATOM      2  C   UNL A   1      33.098  29.051  23.381  1.00  0.00     0.116 C 
BRANCH   2   3
ATOM      3  N   UNL A   1      31.964  29.321  22.531  1.00  0.00    -0.351 N 
ATOM      4  C   UNL A   1      30.760  28.677  22.375  1.00  0.00     0.261 C 
ATOM      5  O   UNL A   1      30.010  29.198  21.544  1.00  0.00    -0.268 OA
ATOM      6  H   UNL A   1      32.073  30.114  21.958  1.00  0.00     0.163 HD
BRANCH   4   7
ATOM      7  C   UNL A   1      30.401  27.471  23.127  1.00  0.00     0.092 A 
ATOM      8  C   UNL A   1      30.508  25.107  23.963  1.00  0.00     0.025 A 
ATOM      9  C   UNL A   1      29.475  25.818  24.529  1.00  0.00     0.018 A 
ATOM     10  S   UNL A   1      31.372  26.072  22.844  1.00  0.00    -0.133 S 
ATOM     11  C   UNL A   1      29.427  27.170  24.063  1.00  0.00     0.026 A 
BRANCH   8  12
ATOM     12  C   UNL A   1      30.990  23.716  24.195  1.00  0.00     0.163 C 
BRANCH  12  13
ATOM     13  N   UNL A   1      31.132  23.398  25.601  1.00  0.00    -0.347 N 
ATOM     14  C   UNL A   1      32.095  22.930  26.445  1.00  0.00     0.257 C 
ATOM     15  O   UNL A   1      31.744  22.913  27.634  1.00  0.00    -0.269 OA
ATOM     16  H   UNL A   1      30.293  23.569  26.086  1.00  0.00     0.164 HD
BRANCH  14  17
ATOM     17  C   UNL A   1      33.462  22.415  26.140  1.00  0.00     0.102 A 
ATOM     18  C   UNL A   1      33.861  21.161  25.671  1.00  0.00     0.226 A 
ATOM     19  N   UNL A   1      35.153  20.801  25.397  1.00  0.00    -0.218 NA
ATOM     20  C   UNL A   1      36.080  21.750  25.565  1.00  0.00     0.048 A 
ATOM     21  C   UNL A   1      34.491  23.380  26.263  1.00  0.00     0.025 A 
ATOM     22  C   UNL A   1      35.800  23.040  25.966  1.00  0.00    -0.025 A 
ATOM     23  C   UNL A   1      37.542  21.582  25.263  1.00  0.00     0.057 C 
ATOM     24  C   UNL A   1      37.019  23.898  25.932  1.00  0.00     0.038 C 
ATOM     25  C   UNL A   1      38.129  22.835  25.933  1.00  0.00     0.011 C 
BRANCH  18  26
ATOM     26  O   UNL A   1      32.970  20.166  25.407  1.00  0.00    -0.480 OA
ATOM     27  C   UNL A   1      32.567  20.239  24.041  1.00  0.00     0.280 C 
ENDBRANCH  18  26
ENDBRANCH  14  17
ENDBRANCH  12  13
ENDBRANCH   8  12
ENDBRANCH   4   7
ENDBRANCH   2   3
ENDBRANCH   1   2
BRANCH   1  28
ATOM     28  C   UNL A   1      33.125  28.253  25.823  1.00  0.00     0.023 C 
BRANCH  28  29
ATOM     29  C   UNL A   1      33.338  28.692  27.267  1.00  0.00     0.116 C 
BRANCH  29  30
ATOM     30  N   UNL A   1      33.338  30.137  27.443  1.00  0.00    -0.352 N 
ATOM     31  C   UNL A   1      34.373  30.910  27.922  1.00  0.00     0.251 C 
ATOM     32  H   UNL A   1      32.512  30.612  27.195  1.00  0.00     0.163 HD
ATOM     33  O   UNL A   1      34.257  32.114  28.072  1.00  0.00    -0.269 OA
BRANCH  31  34
ATOM     34  C   UNL A   1      35.615  30.207  28.287  1.00  0.00     0.039 A 
ATOM     35  C   UNL A   1      36.683  30.232  27.390  1.00  0.00     0.014 A 
ATOM     36  C   UNL A   1      35.752  29.669  29.569  1.00  0.00     0.014 A 
ATOM     37  C   UNL A   1      37.924  29.753  27.804  1.00  0.00     0.010 A 
ATOM     38  C   UNL A   1      37.002  29.236  29.994  1.00  0.00     0.010 A 
ATOM     39  C   UNL A   1      38.096  29.275  29.114  1.00  0.00    -0.014 A 
BRANCH  39  40
ATOM     40  C   UNL A   1      39.420  28.795  29.567  1.00  0.00     0.031 A 
ATOM     41  C   UNL A   1      40.133  29.523  30.667  1.00  0.00     0.074 A 
ATOM     42  C   UNL A   1      39.987  27.732  28.965  1.00  0.00     0.049 A 
ATOM     43  N   UNL A   1      41.276  29.240  31.231  1.00  0.00    -0.248 NA
ATOM     44  C   UNL A   1      39.489  30.740  31.190  1.00  0.00     0.031 C 
ATOM     45  C   UNL A   1      39.416  26.998  27.835  1.00  0.00     0.029 A 
ATOM     46  N   UNL A   1      41.173  27.087  29.214  1.00  0.00    -0.354 N 
ATOM     47  C   UNL A   1      41.486  30.235  32.175  1.00  0.00     0.074 A 
ATOM     48  C   UNL A   1      40.384  31.165  32.068  1.00  0.00     0.031 C 
ATOM     49  C   UNL A   1      40.250  26.002  27.492  1.00  0.00     0.029 A 
ATOM     50  C   UNL A   1      41.414  26.026  28.375  1.00  0.00     0.049 A 
ATOM     51  H   UNL A   1      41.794  27.362  29.927  1.00  0.00     0.167 HD
ATOM     52  C   UNL A   1      42.491  30.344  33.073  1.00  0.00     0.034 A 
ATOM     53  C   UNL A   1      42.447  25.159  28.335  1.00  0.00     0.034 A 
ATOM     54  C   UNL A   1      43.569  29.401  33.182  1.00  0.00     0.049 A 
ATOM     55  C   UNL A   1      43.520  25.260  29.391  1.00  0.00     0.074 A 
ATOM     56  C   UNL A   1      44.618  29.401  34.082  1.00  0.00     0.029 A 
ATOM     57  N   UNL A   1      43.727  28.282  32.377  1.00  0.00    -0.354 N 
ATOM     58  N   UNL A   1      43.646  26.145  30.352  1.00  0.00    -0.248 NA
ATOM     59  C   UNL A   1      44.569  24.230  29.388  1.00  0.00     0.031 C 
ATOM     60  C   UNL A   1      45.425  28.296  33.808  1.00  0.00     0.029 A 
ATOM     61  C   UNL A   1      44.853  27.581  32.765  1.00  0.00     0.049 A 
ATOM     62  H   UNL A   1      43.127  28.026  31.640  1.00  0.00     0.167 HD
ATOM     63  C   UNL A   1      44.761  25.757  31.088  1.00  0.00     0.074 A 
ATOM     64  C   UNL A   1      45.269  24.551  30.469  1.00  0.00     0.031 C 
ATOM     65  C   UNL A   1      45.313  26.350  32.175  1.00  0.00     0.034 A 
BRANCH  52  66
ATOM     66  C   UNL A   1      42.457  31.488  34.045  1.00  0.00     0.023 A 
ATOM     67  C   UNL A   1      41.566  31.470  35.131  1.00  0.00     0.031 A 
ATOM     68  C   UNL A   1      43.226  32.645  33.826  1.00  0.00     0.131 A 
ATOM     69  C   UNL A   1      41.442  32.603  35.943  1.00  0.00     0.055 A 
ATOM     70  C   UNL A   1      43.124  33.758  34.657  1.00  0.00     0.041 A 
ATOM     71  F   UNL A   1      44.095  32.701  32.804  1.00  0.00    -0.206 F 
ATOM     72  C   UNL A   1      42.222  33.745  35.717  1.00  0.00     0.022 A 
BRANCH  69  73
ATOM     73  S   UNL A   1      40.252  32.645  37.309  1.00  0.00     0.124 S 
ATOM     74  O   UNL A   1      39.645  33.966  37.149  1.00  0.00    -0.237 OA
ATOM     75  O   UNL A   1      39.384  31.516  36.989  1.00  0.00    -0.237 OA
ATOM     76  O   UNL A   1      41.082  32.490  38.498  1.00  0.00    -0.744 OA
ENDBRANCH  69  73
ENDBRANCH  52  66
BRANCH  53  77
ATOM     77  C   UNL A   1      42.454  24.074  27.313  1.00  0.00     0.023 A 
ATOM     78  C   UNL A   1      41.850  22.831  27.575  1.00  0.00     0.031 A 
ATOM     79  C   UNL A   1      43.126  24.240  26.091  1.00  0.00     0.131 A 
ATOM     80  C   UNL A   1      41.961  21.794  26.639  1.00  0.00     0.055 A 
ATOM     81  C   UNL A   1      43.189  23.221  25.139  1.00  0.00     0.041 A 
ATOM     82  F   UNL A   1      43.733  25.403  25.807  1.00  0.00    -0.206 F 
ATOM     83  C   UNL A   1      42.612  21.987  25.416  1.00  0.00     0.022 A 
BRANCH  80  84
ATOM     84  S   UNL A   1      41.341  20.131  27.013  1.00  0.00     0.124 S 
ATOM     85  O   UNL A   1      42.542  19.316  26.857  1.00  0.00    -0.237 OA
ATOM     86  O   UNL A   1      40.862  20.294  28.383  1.00  0.00    -0.237 OA
ATOM     87  O   UNL A   1      40.301  19.918  26.013  1.00  0.00    -0.744 OA
ENDBRANCH  80  84
ENDBRANCH  53  77
BRANCH  65  88
ATOM     88  C   UNL A   1      46.508  25.706  32.826  1.00  0.00     0.023 A 
ATOM     89  C   UNL A   1      47.765  25.777  32.193  1.00  0.00     0.031 A 
ATOM     90  C   UNL A   1      46.373  24.882  33.955  1.00  0.00     0.131 A 
ATOM     91  C   UNL A   1      48.828  25.004  32.672  1.00  0.00     0.055 A 
ATOM     92  C   UNL A   1      47.446  24.142  34.451  1.00  0.00     0.041 A 
ATOM     93  F   UNL A   1      45.190  24.774  34.581  1.00  0.00    -0.206 F 
ATOM     94  C   UNL A   1      48.677  24.191  33.801  1.00  0.00     0.022 A 
BRANCH  91  95
ATOM     95  S   UNL A   1      50.421  24.965  31.805  1.00  0.00     0.124 S 
ATOM     96  O   UNL A   1      51.123  26.093  32.412  1.00  0.00    -0.237 OA
ATOM     97  O   UNL A   1      50.933  23.646  32.164  1.00  0.00    -0.237 OA
ATOM     98  O   UNL A   1      50.063  25.140  30.401  1.00  0.00    -0.744 OA
ENDBRANCH  91  95
ENDBRANCH  65  88
ENDBRANCH  39  40
ENDBRANCH  31  34
ENDBRANCH  29  30
ENDBRANCH  28  29
ENDBRANCH   1  28
TORSDOF 18
ENDMDL
MODEL 2
REMARK VINA RESULT:     -12.1      1.326      1.630
REMARK SMILES COc1nc2c(cc1C(=O)NCc1ccc(C(=O)NCCCCNC(=O)c3ccc(-c4c5nc(c(-c6cc(S(=O)(=O)[O-])ccc6F)c6ccc([nH]6)c(-c6cc(S(=O)(=O)[O-])ccc6F)c6nc(c(-c7cc(S(=O)(=O)[O-])ccc7F)c7ccc4[nH]7)C=C6)C=C5)cc3)s1)CCC2
REMARK SMILES IDX 21 1 20 2 19 3 17 4 18 5 16 7 13 8 14 9 90 10 15 11 12 12
REMARK SMILES IDX 11 13 9 14 10 15 8 17 3 18 4 19 5 20 7 21 6 22 93 23 91 24
REMARK SMILES IDX 92 25 2 26 1 27 22 28 23 29 24 30 25 31 26 33 27 34 28 35
REMARK SMILES IDX 89 36 29 37 88 38 30 39 31 40 32 41 82 42 33 43 87 44 81 45
REMARK SMILES IDX 83 46 34 47 86 48 80 49 79 50 35 52 67 53 47 54 66 55 48 56
REMARK SMILES IDX 51 57 65 58 84 59 49 60 50 61 64 63 85 64 52 65 36 66 37 67
REMARK SMILES IDX 45 68 38 69 44 70 46 71 43 72 39 73 40 74 41 75 42 76 68 77
REMARK SMILES IDX 69 78 77 79 70 80 76 81 78 82 75 83 71 84 72 85 73 86 74 87
REMARK SMILES IDX 53 88 54 89 62 90 55 91 61 92 63 93 60 94 56 95 57 96 58 97
REMARK SMILES IDX 59 98
REMARK H PARENT 19 6 11 16 24 32 83 51 51 62
REMARK Flexibility Score: inf
ROOT
ATOM      1  C   UNL A   1      33.211  29.433  24.694  1.00  0.00     0.023 C 
ENDROOT
BRANCH   1   2
ATOM      2  C   UNL A   1      33.320  28.944  23.250  1.00  0.00     0.116 C 
BRANCH   2   3
ATOM      3  N   UNL A   1      32.158  29.305  22.474  1.00  0.00    -0.351 N 
ATOM      4  C   UNL A   1      30.903  28.750  22.388  1.00  0.00     0.261 C 
ATOM      5  O   UNL A   1      30.143  29.334  21.610  1.00  0.00    -0.268 OA
ATOM      6  H   UNL A   1      32.288  30.095  21.902  1.00  0.00     0.163 HD
BRANCH   4   7
ATOM      7  C   UNL A   1      30.505  27.564  23.152  1.00  0.00     0.092 A 
ATOM      8  C   UNL A   1      30.510  25.194  23.978  1.00  0.00     0.025 A 
ATOM      9  C   UNL A   1      29.541  25.960  24.585  1.00  0.00     0.018 A 
ATOM     10  S   UNL A   1      31.384  26.113  22.828  1.00  0.00    -0.133 S 
ATOM     11  C   UNL A   1      29.552  27.314  24.124  1.00  0.00     0.026 A 
BRANCH   8  12
ATOM     12  C   UNL A   1      30.920  23.776  24.189  1.00  0.00     0.163 C 
BRANCH  12  13
ATOM     13  N   UNL A   1      31.167  23.465  25.582  1.00  0.00    -0.347 N 
ATOM     14  C   UNL A   1      32.190  23.002  26.354  1.00  0.00     0.257 C 
ATOM     15  O   UNL A   1      31.928  22.988  27.566  1.00  0.00    -0.269 OA
ATOM     16  H   UNL A   1      30.365  23.636  26.127  1.00  0.00     0.164 HD
BRANCH  14  17
ATOM     17  C   UNL A   1      33.532  22.488  25.952  1.00  0.00     0.102 A 
ATOM     18  C   UNL A   1      33.869  21.350  25.214  1.00  0.00     0.226 A 
ATOM     19  N   UNL A   1      35.144  20.984  24.876  1.00  0.00    -0.218 NA
ATOM     20  C   UNL A   1      36.119  21.815  25.261  1.00  0.00     0.048 A 
ATOM     21  C   UNL A   1      34.611  23.337  26.297  1.00  0.00     0.025 A 
ATOM     22  C   UNL A   1      35.904  22.996  25.941  1.00  0.00    -0.025 A 
ATOM     23  C   UNL A   1      37.575  21.632  24.940  1.00  0.00     0.057 C 
ATOM     24  C   UNL A   1      37.170  23.765  26.111  1.00  0.00     0.038 C 
ATOM     25  C   UNL A   1      38.218  22.665  25.880  1.00  0.00     0.011 C 
BRANCH  18  26
ATOM     26  O   UNL A   1      32.929  20.495  24.725  1.00  0.00    -0.480 OA
ATOM     27  C   UNL A   1      33.280  19.155  25.069  1.00  0.00     0.280 C 
ENDBRANCH  18  26
ENDBRANCH  14  17
ENDBRANCH  12  13
ENDBRANCH   8  12
ENDBRANCH   4   7
ENDBRANCH   2   3
ENDBRANCH   1   2
BRANCH   1  28
ATOM     28  C   UNL A   1      33.056  28.314  25.727  1.00  0.00     0.023 C 
BRANCH  28  29
ATOM     29  C   UNL A   1      33.449  28.691  27.150  1.00  0.00     0.116 C 
BRANCH  29  30
ATOM     30  N   UNL A   1      33.428  30.125  27.400  1.00  0.00    -0.352 N 
ATOM     31  C   UNL A   1      34.446  30.884  27.935  1.00  0.00     0.251 C 
ATOM     32  H   UNL A   1      32.601  30.603  27.163  1.00  0.00     0.163 HD
ATOM     33  O   UNL A   1      34.313  32.076  28.145  1.00  0.00    -0.269 OA
BRANCH  31  34
ATOM     34  C   UNL A   1      35.690  30.177  28.285  1.00  0.00     0.039 A 
ATOM     35  C   UNL A   1      36.758  30.225  27.389  1.00  0.00     0.014 A 
ATOM     36  C   UNL A   1      35.829  29.610  29.555  1.00  0.00     0.014 A 
ATOM     37  C   UNL A   1      38.001  29.742  27.792  1.00  0.00     0.010 A 
ATOM     38  C   UNL A   1      37.081  29.172  29.969  1.00  0.00     0.010 A 
ATOM     39  C   UNL A   1      38.175  29.234  29.091  1.00  0.00    -0.014 A 
BRANCH  39  40
ATOM     40  C   UNL A   1      39.501  28.749  29.532  1.00  0.00     0.031 A 
ATOM     41  C   UNL A   1      40.230  29.480  30.619  1.00  0.00     0.074 A 
ATOM     42  C   UNL A   1      40.054  27.678  28.932  1.00  0.00     0.049 A 
ATOM     43  N   UNL A   1      41.378  29.193  31.173  1.00  0.00    -0.248 NA
ATOM     44  C   UNL A   1      39.600  30.705  31.140  1.00  0.00     0.031 C 
ATOM     45  C   UNL A   1      39.466  26.940  27.813  1.00  0.00     0.029 A 
ATOM     46  N   UNL A   1      41.239  27.027  29.173  1.00  0.00    -0.354 N 
ATOM     47  C   UNL A   1      41.604  30.194  32.108  1.00  0.00     0.074 A 
ATOM     48  C   UNL A   1      40.507  31.130  32.006  1.00  0.00     0.031 C 
ATOM     49  C   UNL A   1      40.289  25.935  27.469  1.00  0.00     0.029 A 
ATOM     50  C   UNL A   1      41.463  25.958  28.339  1.00  0.00     0.049 A 
ATOM     51  H   UNL A   1      41.869  27.303  29.877  1.00  0.00     0.167 HD
ATOM     52  C   UNL A   1      42.620  30.303  32.993  1.00  0.00     0.034 A 
ATOM     53  C   UNL A   1      42.490  25.085  28.294  1.00  0.00     0.034 A 
ATOM     54  C   UNL A   1      43.693  29.353  33.097  1.00  0.00     0.049 A 
ATOM     55  C   UNL A   1      43.575  25.185  29.337  1.00  0.00     0.074 A 
ATOM     56  C   UNL A   1      44.752  29.352  33.985  1.00  0.00     0.029 A 
ATOM     57  N   UNL A   1      43.835  28.227  32.299  1.00  0.00    -0.354 N 
ATOM     58  N   UNL A   1      43.718  26.077  30.290  1.00  0.00    -0.248 NA
ATOM     59  C   UNL A   1      44.617  24.149  29.330  1.00  0.00     0.031 C 
ATOM     60  C   UNL A   1      45.548  28.240  33.710  1.00  0.00     0.029 A 
ATOM     61  C   UNL A   1      44.960  27.522  32.680  1.00  0.00     0.049 A 
ATOM     62  H   UNL A   1      43.225  27.970  31.570  1.00  0.00     0.167 HD
ATOM     63  C   UNL A   1      44.837  25.687  31.017  1.00  0.00     0.074 A 
ATOM     64  C   UNL A   1      45.331  24.472  30.401  1.00  0.00     0.031 C 
ATOM     65  C   UNL A   1      45.406  26.283  32.094  1.00  0.00     0.034 A 
BRANCH  52  66
ATOM     66  C   UNL A   1      42.604  31.454  33.957  1.00  0.00     0.023 A 
ATOM     67  C   UNL A   1      41.761  31.427  35.081  1.00  0.00     0.031 A 
ATOM     68  C   UNL A   1      43.339  32.624  33.697  1.00  0.00     0.131 A 
ATOM     69  C   UNL A   1      41.649  32.564  35.889  1.00  0.00     0.055 A 
ATOM     70  C   UNL A   1      43.250  33.742  34.523  1.00  0.00     0.041 A 
ATOM     71  F   UNL A   1      44.161  32.689  32.637  1.00  0.00    -0.206 F 
ATOM     72  C   UNL A   1      42.394  33.719  35.621  1.00  0.00     0.022 A 
BRANCH  69  73
ATOM     73  S   UNL A   1      40.518  32.593  37.305  1.00  0.00     0.124 S 
ATOM     74  O   UNL A   1      41.405  32.239  38.413  1.00  0.00    -0.237 OA
ATOM     75  O   UNL A   1      40.054  33.976  37.294  1.00  0.00    -0.237 OA
ATOM     76  O   UNL A   1      39.518  31.584  36.973  1.00  0.00    -0.744 OA
ENDBRANCH  69  73
ENDBRANCH  52  66
BRANCH  53  77
ATOM     77  C   UNL A   1      42.478  23.992  27.280  1.00  0.00     0.023 A 
ATOM     78  C   UNL A   1      41.865  22.757  27.556  1.00  0.00     0.031 A 
ATOM     79  C   UNL A   1      43.142  24.143  26.051  1.00  0.00     0.131 A 
ATOM     80  C   UNL A   1      41.959  21.712  26.626  1.00  0.00     0.055 A 
ATOM     81  C   UNL A   1      43.187  23.117  25.106  1.00  0.00     0.041 A 
ATOM     82  F   UNL A   1      43.757  25.298  25.753  1.00  0.00    -0.206 F 
ATOM     83  C   UNL A   1      42.601  21.890  25.397  1.00  0.00     0.022 A 
BRANCH  80  84
ATOM     84  S   UNL A   1      41.327  20.057  27.017  1.00  0.00     0.124 S 
ATOM     85  O   UNL A   1      40.346  19.847  25.957  1.00  0.00    -0.237 OA
ATOM     86  O   UNL A   1      42.539  19.247  26.924  1.00  0.00    -0.237 OA
ATOM     87  O   UNL A   1      40.782  20.205  28.362  1.00  0.00    -0.744 OA
ENDBRANCH  80  84
ENDBRANCH  53  77
BRANCH  65  88
ATOM     88  C   UNL A   1      46.604  25.636  32.736  1.00  0.00     0.023 A 
ATOM     89  C   UNL A   1      46.422  24.794  33.850  1.00  0.00     0.031 A 
ATOM     90  C   UNL A   1      47.912  25.989  32.370  1.00  0.00     0.131 A 
ATOM     91  C   UNL A   1      47.533  24.365  34.585  1.00  0.00     0.055 A 
ATOM     92  C   UNL A   1      49.019  25.529  33.083  1.00  0.00     0.041 A 
ATOM     93  F   UNL A   1      48.130  26.802  31.323  1.00  0.00    -0.206 F 
ATOM     94  C   UNL A   1      48.831  24.723  34.204  1.00  0.00     0.022 A 
BRANCH  91  95
ATOM     95  S   UNL A   1      47.332  23.391  36.102  1.00  0.00     0.124 S 
ATOM     96  O   UNL A   1      47.057  22.058  35.572  1.00  0.00    -0.237 OA
ATOM     97  O   UNL A   1      48.634  23.551  36.743  1.00  0.00    -0.237 OA
ATOM     98  O   UNL A   1      46.212  24.030  36.786  1.00  0.00    -0.744 OA
ENDBRANCH  91  95
ENDBRANCH  65  88
ENDBRANCH  39  40
ENDBRANCH  31  34
ENDBRANCH  29  30
ENDBRANCH  28  29
ENDBRANCH   1  28
TORSDOF 18
ENDMDL
MODEL 3
REMARK VINA RESULT:     -11.9      3.685      8.726
REMARK SMILES COc1nc2c(cc1C(=O)NCc1ccc(C(=O)NCCCCNC(=O)c3ccc(-c4c5nc(c(-c6cc(S(=O)(=O)[O-])ccc6F)c6ccc([nH]6)c(-c6cc(S(=O)(=O)[O-])ccc6F)c6nc(c(-c7cc(S(=O)(=O)[O-])ccc7F)c7ccc4[nH]7)C=C6)C=C5)cc3)s1)CCC2
REMARK SMILES IDX 21 1 20 2 19 3 17 4 18 5 16 7 13 8 14 9 90 10 15 11 12 12
REMARK SMILES IDX 11 13 9 14 10 15 8 17 3 18 4 19 5 20 7 21 6 22 93 23 91 24
REMARK SMILES IDX 92 25 2 26 1 27 22 28 23 29 24 30 25 31 26 33 27 34 28 35
REMARK SMILES IDX 89 36 29 37 88 38 30 39 31 40 32 41 82 42 33 43 87 44 81 45
REMARK SMILES IDX 83 46 34 47 86 48 80 49 79 50 35 52 67 53 47 54 66 55 48 56
REMARK SMILES IDX 51 57 65 58 84 59 49 60 50 61 64 63 85 64 52 65 36 66 37 67
REMARK SMILES IDX 45 68 38 69 44 70 46 71 43 72 39 73 40 74 41 75 42 76 68 77
REMARK SMILES IDX 69 78 77 79 70 80 76 81 78 82 75 83 71 84 72 85 73 86 74 87
REMARK SMILES IDX 53 88 54 89 62 90 55 91 61 92 63 93 60 94 56 95 57 96 58 97
REMARK SMILES IDX 59 98
REMARK H PARENT 19 6 11 16 24 32 83 51 51 62
REMARK Flexibility Score: inf
ROOT
ATOM      1  C   UNL A   1      32.445  30.005  26.818  1.00  0.00     0.023 C 
ENDROOT
BRANCH   1   2
ATOM      2  C   UNL A   1      32.764  29.616  25.375  1.00  0.00     0.116 C 
BRANCH   2   3
ATOM      3  N   UNL A   1      31.630  29.814  24.505  1.00  0.00    -0.351 N 
ATOM      4  C   UNL A   1      30.655  28.954  24.057  1.00  0.00     0.261 C 
ATOM      5  O   UNL A   1      29.820  29.478  23.312  1.00  0.00    -0.268 OA
ATOM      6  H   UNL A   1      31.537  30.735  24.171  1.00  0.00     0.163 HD
BRANCH   4   7
ATOM      7  C   UNL A   1      30.614  27.537  24.430  1.00  0.00     0.092 A 
ATOM      8  C   UNL A   1      30.714  25.041  24.182  1.00  0.00     0.025 A 
ATOM      9  C   UNL A   1      30.480  25.432  25.482  1.00  0.00     0.018 A 
ATOM     10  S   UNL A   1      30.835  26.401  23.149  1.00  0.00    -0.133 S 
ATOM     11  C   UNL A   1      30.440  26.855  25.621  1.00  0.00     0.026 A 
BRANCH   8  12
ATOM     12  C   UNL A   1      30.911  23.692  23.580  1.00  0.00     0.163 C 
BRANCH  12  13
ATOM     13  N   UNL A   1      31.870  23.698  22.494  1.00  0.00    -0.347 N 
ATOM     14  C   UNL A   1      33.223  23.653  22.332  1.00  0.00     0.257 C 
ATOM     15  O   UNL A   1      33.577  23.590  21.145  1.00  0.00    -0.269 OA
ATOM     16  H   UNL A   1      31.413  23.750  21.623  1.00  0.00     0.164 HD
BRANCH  14  17
ATOM     17  C   UNL A   1      34.307  23.705  23.355  1.00  0.00     0.102 A 
ATOM     18  C   UNL A   1      34.560  24.660  24.344  1.00  0.00     0.226 A 
ATOM     19  N   UNL A   1      35.577  24.594  25.256  1.00  0.00    -0.218 NA
ATOM     20  C   UNL A   1      36.353  23.506  25.199  1.00  0.00     0.048 A 
ATOM     21  C   UNL A   1      35.147  22.565  23.376  1.00  0.00     0.025 A 
ATOM     22  C   UNL A   1      36.165  22.470  24.308  1.00  0.00    -0.025 A 
ATOM     23  C   UNL A   1      37.482  23.209  26.145  1.00  0.00     0.057 C 
ATOM     24  C   UNL A   1      37.103  21.342  24.578  1.00  0.00     0.038 C 
ATOM     25  C   UNL A   1      38.179  22.047  25.419  1.00  0.00     0.011 C 
BRANCH  18  26
ATOM     26  O   UNL A   1      33.773  25.758  24.511  1.00  0.00    -0.480 OA
ATOM     27  C   UNL A   1      34.076  26.373  25.762  1.00  0.00     0.280 C 
ENDBRANCH  18  26
ENDBRANCH  14  17
ENDBRANCH  12  13
ENDBRANCH   8  12
ENDBRANCH   4   7
ENDBRANCH   2   3
ENDBRANCH   1   2
BRANCH   1  28
ATOM     28  C   UNL A   1      32.033  31.468  26.999  1.00  0.00     0.023 C 
BRANCH  28  29
ATOM     29  C   UNL A   1      33.154  32.403  27.440  1.00  0.00     0.116 C 
BRANCH  29  30
ATOM     30  N   UNL A   1      32.718  33.775  27.654  1.00  0.00    -0.352 N 
ATOM     31  C   UNL A   1      33.210  34.660  28.588  1.00  0.00     0.251 C 
ATOM     32  H   UNL A   1      31.996  34.105  27.073  1.00  0.00     0.163 HD
ATOM     33  O   UNL A   1      32.745  35.779  28.717  1.00  0.00    -0.269 OA
BRANCH  31  34
ATOM     34  C   UNL A   1      34.296  34.176  29.457  1.00  0.00     0.039 A 
ATOM     35  C   UNL A   1      33.965  33.394  30.564  1.00  0.00     0.014 A 
ATOM     36  C   UNL A   1      35.626  34.377  29.078  1.00  0.00     0.014 A 
ATOM     37  C   UNL A   1      34.984  32.761  31.273  1.00  0.00     0.010 A 
ATOM     38  C   UNL A   1      36.634  33.706  29.759  1.00  0.00     0.010 A 
ATOM     39  C   UNL A   1      36.320  32.894  30.860  1.00  0.00    -0.014 A 
BRANCH  39  40
ATOM     40  C   UNL A   1      37.401  32.198  31.592  1.00  0.00     0.031 A 
ATOM     41  C   UNL A   1      38.132  31.068  30.930  1.00  0.00     0.074 A 
ATOM     42  C   UNL A   1      37.695  32.561  32.855  1.00  0.00     0.049 A 
ATOM     43  N   UNL A   1      39.131  30.360  31.384  1.00  0.00    -0.248 NA
ATOM     44  C   UNL A   1      37.669  30.666  29.591  1.00  0.00     0.031 C 
ATOM     45  C   UNL A   1      36.996  33.594  33.621  1.00  0.00     0.029 A 
ATOM     46  N   UNL A   1      38.654  32.099  33.721  1.00  0.00    -0.354 N 
ATOM     47  C   UNL A   1      39.419  29.436  30.389  1.00  0.00     0.074 A 
ATOM     48  C   UNL A   1      38.452  29.631  29.332  1.00  0.00     0.031 C 
ATOM     49  C   UNL A   1      37.552  33.690  34.840  1.00  0.00     0.029 A 
ATOM     50  C   UNL A   1      38.645  32.726  34.944  1.00  0.00     0.049 A 
ATOM     51  H   UNL A   1      39.288  31.383  33.487  1.00  0.00     0.167 HD
ATOM     52  C   UNL A   1      40.422  28.530  30.349  1.00  0.00     0.034 A 
ATOM     53  C   UNL A   1      39.441  32.555  36.020  1.00  0.00     0.034 A 
ATOM     54  C   UNL A   1      41.389  28.363  31.398  1.00  0.00     0.049 A 
ATOM     55  C   UNL A   1      40.595  31.588  35.924  1.00  0.00     0.074 A 
ATOM     56  C   UNL A   1      42.466  27.497  31.439  1.00  0.00     0.029 A 
ATOM     57  N   UNL A   1      41.406  29.085  32.582  1.00  0.00    -0.354 N 
ATOM     58  N   UNL A   1      40.923  30.798  34.929  1.00  0.00    -0.248 NA
ATOM     59  C   UNL A   1      41.509  31.512  37.072  1.00  0.00     0.031 C 
ATOM     60  C   UNL A   1      43.122  27.678  32.656  1.00  0.00     0.029 A 
ATOM     61  C   UNL A   1      42.480  28.689  33.356  1.00  0.00     0.049 A 
ATOM     62  H   UNL A   1      40.751  29.776  32.833  1.00  0.00     0.167 HD
ATOM     63  C   UNL A   1      42.099  30.163  35.314  1.00  0.00     0.074 A 
ATOM     64  C   UNL A   1      42.433  30.668  36.629  1.00  0.00     0.031 C 
ATOM     65  C   UNL A   1      42.832  29.243  34.639  1.00  0.00     0.034 A 
BRANCH  52  66
ATOM     66  C   UNL A   1      40.565  27.682  29.118  1.00  0.00     0.023 A 
ATOM     67  C   UNL A   1      41.483  28.037  28.115  1.00  0.00     0.031 A 
ATOM     68  C   UNL A   1      39.711  26.589  28.890  1.00  0.00     0.131 A 
ATOM     69  C   UNL A   1      41.503  27.322  26.912  1.00  0.00     0.055 A 
ATOM     70  C   UNL A   1      39.758  25.859  27.704  1.00  0.00     0.041 A 
ATOM     71  F   UNL A   1      38.824  26.212  29.826  1.00  0.00    -0.206 F 
ATOM     72  C   UNL A   1      40.651  26.230  26.704  1.00  0.00     0.022 A 
BRANCH  69  73
ATOM     73  S   UNL A   1      42.622  27.794  25.566  1.00  0.00     0.124 S 
ATOM     74  O   UNL A   1      41.983  29.002  25.044  1.00  0.00    -0.237 OA
ATOM     75  O   UNL A   1      43.878  28.010  26.279  1.00  0.00    -0.237 OA
ATOM     76  O   UNL A   1      42.591  26.645  24.668  1.00  0.00    -0.744 OA
ENDBRANCH  69  73
ENDBRANCH  52  66
BRANCH  53  77
ATOM     77  C   UNL A   1      39.218  33.390  37.235  1.00  0.00     0.023 A 
ATOM     78  C   UNL A   1      39.881  34.618  37.400  1.00  0.00     0.031 A 
ATOM     79  C   UNL A   1      38.395  32.935  38.280  1.00  0.00     0.131 A 
ATOM     80  C   UNL A   1      39.734  35.333  38.597  1.00  0.00     0.055 A 
ATOM     81  C   UNL A   1      38.211  33.675  39.448  1.00  0.00     0.041 A 
ATOM     82  F   UNL A   1      37.758  31.759  38.174  1.00  0.00    -0.206 F 
ATOM     83  C   UNL A   1      38.890  34.877  39.615  1.00  0.00     0.022 A 
BRANCH  80  84
ATOM     84  S   UNL A   1      40.703  36.834  38.912  1.00  0.00     0.124 S 
ATOM     85  O   UNL A   1      41.551  36.903  37.726  1.00  0.00    -0.237 OA
ATOM     86  O   UNL A   1      39.656  37.849  38.999  1.00  0.00    -0.237 OA
ATOM     87  O   UNL A   1      41.391  36.543  40.165  1.00  0.00    -0.744 OA
ENDBRANCH  80  84
ENDBRANCH  53  77
BRANCH  65  88
ATOM     88  C   UNL A   1      44.105  28.730  35.259  1.00  0.00     0.023 A 
ATOM     89  C   UNL A   1      44.044  27.686  36.203  1.00  0.00     0.031 A 
ATOM     90  C   UNL A   1      45.331  29.382  35.059  1.00  0.00     0.131 A 
ATOM     91  C   UNL A   1      45.184  27.351  36.942  1.00  0.00     0.055 A 
ATOM     92  C   UNL A   1      46.474  29.020  35.772  1.00  0.00     0.041 A 
ATOM     93  F   UNL A   1      45.431  30.392  34.180  1.00  0.00    -0.206 F 
ATOM     94  C   UNL A   1      46.400  28.009  36.727  1.00  0.00     0.022 A 
BRANCH  91  95
ATOM     95  S   UNL A   1      45.113  26.106  38.259  1.00  0.00     0.124 S 
ATOM     96  O   UNL A   1      46.508  25.681  38.349  1.00  0.00    -0.237 OA
ATOM     97  O   UNL A   1      44.625  26.887  39.392  1.00  0.00    -0.237 OA
ATOM     98  O   UNL A   1      44.191  25.100  37.744  1.00  0.00    -0.744 OA
ENDBRANCH  91  95
ENDBRANCH  65  88
ENDBRANCH  39  40
ENDBRANCH  31  34
ENDBRANCH  29  30
ENDBRANCH  28  29
ENDBRANCH   1  28
TORSDOF 18
ENDMDL
