MODEL 1
REMARK VINA RESULT:     -10.1      0.000      0.000
REMARK SMILES O=C(C[N@@H+]1CCC[C@@H]1c1ccccc1Cl)NCCCCNC(=O)c1ccc(-c2c3nc(c(-c4cc(S(=O)(=O)[O-])ccc4F)c4ccc([nH]4)c(-c4cc(S(=O)(=O)[O-])ccc4F)c4nc(c(-c5cc(S(=O)(=O)[O-])ccc5F)c5ccc2[nH]5)C=C4)C=C3)cc1
REMARK SMILES IDX 19 1 18 2 17 3 16 4 1 5 2 6 3 8 4 9 5 10 8 11 6 13 7 14 9 15
REMARK SMILES IDX 10 16 14 17 11 18 13 19 15 20 12 21 20 22 21 23 22 24 23 26
REMARK SMILES IDX 24 27 25 28 86 29 26 30 85 31 27 32 28 33 29 34 79 35 30 36
REMARK SMILES IDX 84 37 78 38 80 39 31 40 83 41 77 42 76 43 32 45 64 46 44 47
REMARK SMILES IDX 63 48 45 49 48 50 62 51 81 52 46 53 47 54 61 56 82 57 49 58
REMARK SMILES IDX 33 59 34 60 42 61 35 62 41 63 43 64 40 65 36 66 37 67 38 68
REMARK SMILES IDX 39 69 65 70 66 71 74 72 67 73 73 74 75 75 72 76 68 77 69 78
REMARK SMILES IDX 70 79 71 80 50 81 51 82 59 83 52 84 58 85 60 86 57 87 53 88
REMARK SMILES IDX 54 89 55 90 56 91
REMARK H PARENT 16 7 4 12 21 25 80 44 48 55
REMARK Flexibility Score: inf
ROOT
ATOM      1  C   UNL A   1      33.592  33.755  28.740  1.00  0.00     0.023 C 
ENDROOT
BRANCH   1   2
ATOM      2  C   UNL A   1      34.214  34.990  29.399  1.00  0.00     0.023 C 
BRANCH   2   3
ATOM      3  C   UNL A   1      33.517  35.466  30.667  1.00  0.00     0.116 C 
BRANCH   3   4
ATOM      4  N   UNL A   1      34.409  35.561  31.804  1.00  0.00    -0.351 N 
ATOM      5  O   UNL A   1      33.380  33.943  33.057  1.00  0.00    -0.269 OA
ATOM      6  C   UNL A   1      34.342  34.685  32.863  1.00  0.00     0.275 C 
ATOM      7  H   UNL A   1      35.086  36.275  31.818  1.00  0.00     0.163 HD
BRANCH   6   8
ATOM      8  C   UNL A   1      35.500  34.768  33.852  1.00  0.00     0.364 C 
BRANCH   8   9
ATOM      9  N   UNL A   1      36.414  33.605  34.054  1.00  0.00    -0.321 N 
ATOM     10  C   UNL A   1      36.763  33.529  35.491  1.00  0.00     0.263 C 
ATOM     11  C   UNL A   1      37.735  33.442  33.375  1.00  0.00     0.217 C 
ATOM     12  H   UNL A   1      35.829  32.893  33.615  1.00  0.00     0.349 HD
ATOM     13  C   UNL A   1      37.972  34.435  35.602  1.00  0.00     0.068 C 
ATOM     14  C   UNL A   1      38.729  34.167  34.309  1.00  0.00     0.076 C 
BRANCH  11  15
ATOM     15  C   UNL A   1      37.839  33.638  31.868  1.00  0.00     0.028 A 
ATOM     16  C   UNL A   1      38.722  34.611  31.356  1.00  0.00     0.011 A 
ATOM     17  C   UNL A   1      37.073  32.933  30.917  1.00  0.00     0.050 A 
ATOM     18  C   UNL A   1      39.019  34.694  29.992  1.00  0.00     0.001 A 
ATOM     19  C   UNL A   1      37.356  33.029  29.545  1.00  0.00     0.021 A 
ATOM     20  Cl  UNL A   1      35.708  31.953  31.323  1.00  0.00    -0.084 Cl
ATOM     21  C   UNL A   1      38.363  33.872  29.088  1.00  0.00     0.002 A 
ENDBRANCH  11  15
ENDBRANCH   8   9
ENDBRANCH   6   8
ENDBRANCH   3   4
ENDBRANCH   2   3
ENDBRANCH   1   2
BRANCH   1  22
ATOM     22  C   UNL A   1      34.570  32.825  28.027  1.00  0.00     0.116 C 
BRANCH  22  23
ATOM     23  N   UNL A   1      33.940  31.612  27.536  1.00  0.00    -0.352 N 
ATOM     24  C   UNL A   1      34.448  30.338  27.414  1.00  0.00     0.251 C 
ATOM     25  H   UNL A   1      33.006  31.717  27.245  1.00  0.00     0.163 HD
ATOM     26  O   UNL A   1      33.800  29.487  26.815  1.00  0.00    -0.269 OA
BRANCH  24  27
ATOM     27  C   UNL A   1      35.783  30.005  27.967  1.00  0.00     0.039 A 
ATOM     28  C   UNL A   1      35.858  29.458  29.251  1.00  0.00     0.014 A 
ATOM     29  C   UNL A   1      36.952  30.235  27.240  1.00  0.00     0.014 A 
ATOM     30  C   UNL A   1      37.098  29.070  29.771  1.00  0.00     0.010 A 
ATOM     31  C   UNL A   1      38.177  29.778  27.728  1.00  0.00     0.010 A 
ATOM     32  C   UNL A   1      38.265  29.184  28.997  1.00  0.00    -0.014 A 
BRANCH  32  33
ATOM     33  C   UNL A   1      39.573  28.675  29.497  1.00  0.00     0.031 A 
ATOM     34  C   UNL A   1      40.298  29.391  30.607  1.00  0.00     0.074 A 
ATOM     35  C   UNL A   1      40.137  27.595  28.918  1.00  0.00     0.049 A 
ATOM     36  N   UNL A   1      41.471  29.136  31.130  1.00  0.00    -0.248 NA
ATOM     37  C   UNL A   1      39.624  30.562  31.187  1.00  0.00     0.031 C 
ATOM     38  C   UNL A   1      39.552  26.828  27.816  1.00  0.00     0.029 A 
ATOM     39  N   UNL A   1      41.327  26.956  29.167  1.00  0.00    -0.354 N 
ATOM     40  C   UNL A   1      41.682  30.119  32.092  1.00  0.00     0.074 A 
ATOM     41  C   UNL A   1      40.539  31.008  32.034  1.00  0.00     0.031 C 
ATOM     42  C   UNL A   1      40.368  25.808  27.506  1.00  0.00     0.029 A 
ATOM     43  C   UNL A   1      41.560  25.876  28.344  1.00  0.00     0.049 A 
ATOM     44  H   UNL A   1      41.955  27.243  29.868  1.00  0.00     0.167 HD
ATOM     45  C   UNL A   1      42.719  30.256  32.955  1.00  0.00     0.034 A 
ATOM     46  C   UNL A   1      42.618  25.043  28.261  1.00  0.00     0.034 A 
ATOM     47  C   UNL A   1      43.849  29.359  33.005  1.00  0.00     0.049 A 
ATOM     48  C   UNL A   1      43.782  25.245  29.200  1.00  0.00     0.074 A 
ATOM     49  C   UNL A   1      44.925  29.377  33.876  1.00  0.00     0.029 A 
ATOM     50  N   UNL A   1      44.059  28.290  32.143  1.00  0.00    -0.354 N 
ATOM     51  N   UNL A   1      43.941  26.152  30.137  1.00  0.00    -0.248 NA
ATOM     52  C   UNL A   1      44.905  24.308  29.075  1.00  0.00     0.031 C 
ATOM     53  C   UNL A   1      45.823  28.377  33.489  1.00  0.00     0.029 A 
ATOM     54  C   UNL A   1      45.266  27.671  32.436  1.00  0.00     0.049 A 
ATOM     55  H   UNL A   1      43.442  28.012  31.428  1.00  0.00     0.167 HD
ATOM     56  C   UNL A   1      45.166  25.867  30.737  1.00  0.00     0.074 A 
ATOM     57  C   UNL A   1      45.695  24.698  30.065  1.00  0.00     0.031 C 
ATOM     58  C   UNL A   1      45.793  26.511  31.755  1.00  0.00     0.034 A 
BRANCH  45  59
ATOM     59  C   UNL A   1      42.695  31.441  33.895  1.00  0.00     0.023 A 
ATOM     60  C   UNL A   1      42.091  31.370  35.162  1.00  0.00     0.031 A 
ATOM     61  C   UNL A   1      43.273  32.665  33.511  1.00  0.00     0.131 A 
ATOM     62  C   UNL A   1      42.013  32.516  35.967  1.00  0.00     0.055 A 
ATOM     63  C   UNL A   1      43.269  33.779  34.354  1.00  0.00     0.041 A 
ATOM     64  F   UNL A   1      43.845  32.803  32.306  1.00  0.00    -0.206 F 
ATOM     65  C   UNL A   1      42.622  33.713  35.584  1.00  0.00     0.022 A 
BRANCH  62  66
ATOM     66  S   UNL A   1      40.975  32.461  37.453  1.00  0.00     0.124 S 
ATOM     67  O   UNL A   1      39.794  31.754  36.962  1.00  0.00    -0.237 OA
ATOM     68  O   UNL A   1      41.812  31.730  38.396  1.00  0.00    -0.237 OA
ATOM     69  O   UNL A   1      40.758  33.871  37.773  1.00  0.00    -0.744 OA
ENDBRANCH  62  66
ENDBRANCH  45  59
BRANCH  46  70
ATOM     70  C   UNL A   1      42.646  23.949  27.246  1.00  0.00     0.023 A 
ATOM     71  C   UNL A   1      42.041  22.708  27.502  1.00  0.00     0.031 A 
ATOM     72  C   UNL A   1      43.328  24.107  26.026  1.00  0.00     0.131 A 
ATOM     73  C   UNL A   1      42.175  21.659  26.580  1.00  0.00     0.055 A 
ATOM     74  C   UNL A   1      43.405  23.081  25.083  1.00  0.00     0.041 A 
ATOM     75  F   UNL A   1      43.926  25.272  25.728  1.00  0.00    -0.206 F 
ATOM     76  C   UNL A   1      42.839  21.841  25.365  1.00  0.00     0.022 A 
BRANCH  73  77
ATOM     77  S   UNL A   1      41.557  20.015  27.037  1.00  0.00     0.124 S 
ATOM     78  O   UNL A   1      42.771  19.367  27.519  1.00  0.00    -0.237 OA
ATOM     79  O   UNL A   1      40.556  20.339  28.048  1.00  0.00    -0.237 OA
ATOM     80  O   UNL A   1      41.025  19.491  25.782  1.00  0.00    -0.744 OA
ENDBRANCH  73  77
ENDBRANCH  46  70
BRANCH  58  81
ATOM     81  C   UNL A   1      47.101  25.928  32.239  1.00  0.00     0.023 A 
ATOM     82  C   UNL A   1      47.163  25.031  33.319  1.00  0.00     0.031 A 
ATOM     83  C   UNL A   1      48.309  26.288  31.612  1.00  0.00     0.131 A 
ATOM     84  C   UNL A   1      48.407  24.570  33.777  1.00  0.00     0.055 A 
ATOM     85  C   UNL A   1      49.536  25.772  32.027  1.00  0.00     0.041 A 
ATOM     86  F   UNL A   1      48.313  27.145  30.578  1.00  0.00    -0.206 F 
ATOM     87  C   UNL A   1      49.592  24.920  33.125  1.00  0.00     0.022 A 
BRANCH  84  88
ATOM     88  S   UNL A   1      48.466  23.589  35.303  1.00  0.00     0.124 S 
ATOM     89  O   UNL A   1      47.097  23.092  35.396  1.00  0.00    -0.237 OA
ATOM     90  O   UNL A   1      49.486  22.594  34.993  1.00  0.00    -0.237 OA
ATOM     91  O   UNL A   1      48.843  24.565  36.323  1.00  0.00    -0.744 OA
ENDBRANCH  84  88
ENDBRANCH  58  81
ENDBRANCH  32  33
ENDBRANCH  24  27
ENDBRANCH  22  23
ENDBRANCH   1  22
TORSDOF 16
ENDMDL
MODEL 2
REMARK VINA RESULT:      -9.9      4.314     11.626
REMARK SMILES O=C(C[N@@H+]1CCC[C@@H]1c1ccccc1Cl)NCCCCNC(=O)c1ccc(-c2c3nc(c(-c4cc(S(=O)(=O)[O-])ccc4F)c4ccc([nH]4)c(-c4cc(S(=O)(=O)[O-])ccc4F)c4nc(c(-c5cc(S(=O)(=O)[O-])ccc5F)c5ccc2[nH]5)C=C4)C=C3)cc1
REMARK SMILES IDX 19 1 18 2 17 3 16 4 1 5 2 6 3 8 4 9 5 10 8 11 6 13 7 14 9 15
REMARK SMILES IDX 10 16 14 17 11 18 13 19 15 20 12 21 20 22 21 23 22 24 23 26
REMARK SMILES IDX 24 27 25 28 86 29 26 30 85 31 27 32 28 33 29 34 79 35 30 36
REMARK SMILES IDX 84 37 78 38 80 39 31 40 83 41 77 42 76 43 32 45 64 46 44 47
REMARK SMILES IDX 63 48 45 49 48 50 62 51 81 52 46 53 47 54 61 56 82 57 49 58
REMARK SMILES IDX 33 59 34 60 42 61 35 62 41 63 43 64 40 65 36 66 37 67 38 68
REMARK SMILES IDX 39 69 65 70 66 71 74 72 67 73 73 74 75 75 72 76 68 77 69 78
REMARK SMILES IDX 70 79 71 80 50 81 51 82 59 83 52 84 58 85 60 86 57 87 53 88
REMARK SMILES IDX 54 89 55 90 56 91
REMARK H PARENT 16 7 4 12 21 25 80 44 48 55
REMARK Flexibility Score: inf
ROOT
ATOM      1  C   UNL A   1      41.050  20.220  26.125  1.00  0.00     0.023 C 
ENDROOT
BRANCH   1   2
ATOM      2  C   UNL A   1      42.497  20.006  26.576  1.00  0.00     0.023 C 
BRANCH   2   3
ATOM      3  C   UNL A   1      43.506  19.826  25.448  1.00  0.00     0.116 C 
BRANCH   3   4
ATOM      4  N   UNL A   1      44.684  20.653  25.603  1.00  0.00    -0.351 N 
ATOM      5  O   UNL A   1      44.600  21.591  23.515  1.00  0.00    -0.269 OA
ATOM      6  C   UNL A   1      45.060  21.578  24.656  1.00  0.00     0.275 C 
ATOM      7  H   UNL A   1      45.233  20.551  26.413  1.00  0.00     0.163 HD
BRANCH   6   8
ATOM      8  C   UNL A   1      46.173  22.530  25.080  1.00  0.00     0.364 C 
BRANCH   8   9
ATOM      9  N   UNL A   1      45.893  23.981  25.293  1.00  0.00    -0.321 N 
ATOM     10  C   UNL A   1      47.035  24.760  24.761  1.00  0.00     0.263 C 
ATOM     11  C   UNL A   1      45.649  24.606  26.629  1.00  0.00     0.217 C 
ATOM     12  H   UNL A   1      44.978  24.012  24.843  1.00  0.00     0.349 HD
ATOM     13  C   UNL A   1      47.989  24.823  25.936  1.00  0.00     0.068 C 
ATOM     14  C   UNL A   1      47.061  24.979  27.132  1.00  0.00     0.076 C 
BRANCH  11  15
ATOM     15  C   UNL A   1      44.650  23.971  27.588  1.00  0.00     0.028 A 
ATOM     16  C   UNL A   1      45.069  23.617  28.887  1.00  0.00     0.011 A 
ATOM     17  C   UNL A   1      43.315  23.663  27.261  1.00  0.00     0.050 A 
ATOM     18  C   UNL A   1      44.160  23.231  29.877  1.00  0.00     0.001 A 
ATOM     19  C   UNL A   1      42.403  23.257  28.248  1.00  0.00     0.021 A 
ATOM     20  Cl  UNL A   1      42.692  23.694  25.648  1.00  0.00    -0.084 Cl
ATOM     21  C   UNL A   1      42.816  23.089  29.566  1.00  0.00     0.002 A 
ENDBRANCH  11  15
ENDBRANCH   8   9
ENDBRANCH   6   8
ENDBRANCH   3   4
ENDBRANCH   2   3
ENDBRANCH   1   2
BRANCH   1  22
ATOM     22  C   UNL A   1      40.296  21.341  26.837  1.00  0.00     0.116 C 
BRANCH  22  23
ATOM     23  N   UNL A   1      39.082  21.733  26.144  1.00  0.00    -0.352 N 
ATOM     24  C   UNL A   1      38.435  22.948  26.111  1.00  0.00     0.251 C 
ATOM     25  H   UNL A   1      38.654  21.021  25.615  1.00  0.00     0.163 HD
ATOM     26  O   UNL A   1      37.325  23.026  25.597  1.00  0.00    -0.269 OA
BRANCH  24  27
ATOM     27  C   UNL A   1      39.057  24.147  26.724  1.00  0.00     0.039 A 
ATOM     28  C   UNL A   1      39.797  25.009  25.910  1.00  0.00     0.014 A 
ATOM     29  C   UNL A   1      38.924  24.421  28.087  1.00  0.00     0.014 A 
ATOM     30  C   UNL A   1      40.336  26.182  26.448  1.00  0.00     0.010 A 
ATOM     31  C   UNL A   1      39.396  25.629  28.604  1.00  0.00     0.010 A 
ATOM     32  C   UNL A   1      40.103  26.528  27.789  1.00  0.00    -0.014 A 
BRANCH  32  33
ATOM     33  C   UNL A   1      40.579  27.826  28.345  1.00  0.00     0.031 A 
ATOM     34  C   UNL A   1      42.051  28.085  28.528  1.00  0.00     0.074 A 
ATOM     35  C   UNL A   1      39.683  28.756  28.734  1.00  0.00     0.049 A 
ATOM     36  N   UNL A   1      42.651  29.124  29.052  1.00  0.00    -0.248 NA
ATOM     37  C   UNL A   1      42.968  27.024  28.085  1.00  0.00     0.031 C 
ATOM     38  C   UNL A   1      38.228  28.618  28.637  1.00  0.00     0.029 A 
ATOM     39  N   UNL A   1      39.857  29.999  29.293  1.00  0.00    -0.354 N 
ATOM     40  C   UNL A   1      44.013  28.839  29.012  1.00  0.00     0.074 A 
ATOM     41  C   UNL A   1      44.141  27.503  28.467  1.00  0.00     0.031 C 
ATOM     42  C   UNL A   1      37.646  29.740  29.090  1.00  0.00     0.029 A 
ATOM     43  C   UNL A   1      38.678  30.657  29.563  1.00  0.00     0.049 A 
ATOM     44  H   UNL A   1      40.743  30.383  29.484  1.00  0.00     0.167 HD
ATOM     45  C   UNL A   1      45.057  29.625  29.377  1.00  0.00     0.034 A 
ATOM     46  C   UNL A   1      38.449  31.855  30.139  1.00  0.00     0.034 A 
ATOM     47  C   UNL A   1      44.913  30.957  29.913  1.00  0.00     0.049 A 
ATOM     48  C   UNL A   1      39.626  32.690  30.581  1.00  0.00     0.074 A 
ATOM     49  C   UNL A   1      45.907  31.856  30.263  1.00  0.00     0.029 A 
ATOM     50  N   UNL A   1      43.703  31.581  30.191  1.00  0.00    -0.354 N 
ATOM     51  N   UNL A   1      40.910  32.424  30.490  1.00  0.00    -0.248 NA
ATOM     52  C   UNL A   1      39.324  33.989  31.196  1.00  0.00     0.031 C 
ATOM     53  C   UNL A   1      45.302  32.984  30.828  1.00  0.00     0.029 A 
ATOM     54  C   UNL A   1      43.929  32.833  30.746  1.00  0.00     0.049 A 
ATOM     55  H   UNL A   1      42.815  31.192  30.020  1.00  0.00     0.167 HD
ATOM     56  C   UNL A   1      41.565  33.542  31.001  1.00  0.00     0.074 A 
ATOM     57  C   UNL A   1      40.538  34.487  31.385  1.00  0.00     0.031 C 
ATOM     58  C   UNL A   1      42.898  33.767  31.136  1.00  0.00     0.034 A 
BRANCH  45  59
ATOM     59  C   UNL A   1      46.448  29.048  29.237  1.00  0.00     0.023 A 
ATOM     60  C   UNL A   1      47.206  29.214  28.065  1.00  0.00     0.031 A 
ATOM     61  C   UNL A   1      47.019  28.308  30.288  1.00  0.00     0.131 A 
ATOM     62  C   UNL A   1      48.456  28.590  27.943  1.00  0.00     0.055 A 
ATOM     63  C   UNL A   1      48.301  27.761  30.193  1.00  0.00     0.041 A 
ATOM     64  F   UNL A   1      46.338  28.095  31.424  1.00  0.00    -0.206 F 
ATOM     65  C   UNL A   1      49.021  27.886  29.009  1.00  0.00     0.022 A 
BRANCH  62  66
ATOM     66  S   UNL A   1      49.264  28.580  26.320  1.00  0.00     0.124 S 
ATOM     67  O   UNL A   1      48.129  28.363  25.425  1.00  0.00    -0.237 OA
ATOM     68  O   UNL A   1      49.877  29.902  26.265  1.00  0.00    -0.237 OA
ATOM     69  O   UNL A   1      50.200  27.461  26.408  1.00  0.00    -0.744 OA
ENDBRANCH  62  66
ENDBRANCH  45  59
BRANCH  46  70
ATOM     70  C   UNL A   1      37.054  32.341  30.354  1.00  0.00     0.023 A 
ATOM     71  C   UNL A   1      36.332  32.951  29.315  1.00  0.00     0.031 A 
ATOM     72  C   UNL A   1      36.441  32.255  31.617  1.00  0.00     0.131 A 
ATOM     73  C   UNL A   1      35.065  33.499  29.570  1.00  0.00     0.055 A 
ATOM     74  C   UNL A   1      35.154  32.744  31.850  1.00  0.00     0.041 A 
ATOM     75  F   UNL A   1      37.084  31.683  32.647  1.00  0.00    -0.206 F 
ATOM     76  C   UNL A   1      34.464  33.385  30.825  1.00  0.00     0.022 A 
BRANCH  73  77
ATOM     77  S   UNL A   1      34.253  34.456  28.259  1.00  0.00     0.124 S 
ATOM     78  O   UNL A   1      34.087  35.754  28.903  1.00  0.00    -0.237 OA
ATOM     79  O   UNL A   1      35.238  34.394  27.184  1.00  0.00    -0.237 OA
ATOM     80  O   UNL A   1      33.018  33.717  28.014  1.00  0.00    -0.744 OA
ENDBRANCH  73  77
ENDBRANCH  46  70
BRANCH  58  81
ATOM     81  C   UNL A   1      43.319  35.115  31.676  1.00  0.00     0.023 A 
ATOM     82  C   UNL A   1      43.414  35.368  33.055  1.00  0.00     0.031 A 
ATOM     83  C   UNL A   1      43.621  36.166  30.791  1.00  0.00     0.131 A 
ATOM     84  C   UNL A   1      43.743  36.655  33.510  1.00  0.00     0.055 A 
ATOM     85  C   UNL A   1      44.015  37.424  31.247  1.00  0.00     0.041 A 
ATOM     86  F   UNL A   1      43.543  35.985  29.462  1.00  0.00    -0.206 F 
ATOM     87  C   UNL A   1      44.063  37.679  32.614  1.00  0.00     0.022 A 
BRANCH  84  88
ATOM     88  S   UNL A   1      43.645  37.003  35.288  1.00  0.00     0.124 S 
ATOM     89  O   UNL A   1      44.833  36.323  35.795  1.00  0.00    -0.237 OA
ATOM     90  O   UNL A   1      43.682  38.461  35.322  1.00  0.00    -0.237 OA
ATOM     91  O   UNL A   1      42.371  36.406  35.685  1.00  0.00    -0.744 OA
ENDBRANCH  84  88
ENDBRANCH  58  81
ENDBRANCH  32  33
ENDBRANCH  24  27
ENDBRANCH  22  23
ENDBRANCH   1  22
TORSDOF 16
ENDMDL
MODEL 3
REMARK VINA RESULT:      -9.9      4.240     10.427
REMARK SMILES O=C(C[N@@H+]1CCC[C@@H]1c1ccccc1Cl)NCCCCNC(=O)c1ccc(-c2c3nc(c(-c4cc(S(=O)(=O)[O-])ccc4F)c4ccc([nH]4)c(-c4cc(S(=O)(=O)[O-])ccc4F)c4nc(c(-c5cc(S(=O)(=O)[O-])ccc5F)c5ccc2[nH]5)C=C4)C=C3)cc1
REMARK SMILES IDX 19 1 18 2 17 3 16 4 1 5 2 6 3 8 4 9 5 10 8 11 6 13 7 14 9 15
REMARK SMILES IDX 10 16 14 17 11 18 13 19 15 20 12 21 20 22 21 23 22 24 23 26
REMARK SMILES IDX 24 27 25 28 86 29 26 30 85 31 27 32 28 33 29 34 79 35 30 36
REMARK SMILES IDX 84 37 78 38 80 39 31 40 83 41 77 42 76 43 32 45 64 46 44 47
REMARK SMILES IDX 63 48 45 49 48 50 62 51 81 52 46 53 47 54 61 56 82 57 49 58
REMARK SMILES IDX 33 59 34 60 42 61 35 62 41 63 43 64 40 65 36 66 37 67 38 68
REMARK SMILES IDX 39 69 65 70 66 71 74 72 67 73 73 74 75 75 72 76 68 77 69 78
REMARK SMILES IDX 70 79 71 80 50 81 51 82 59 83 52 84 58 85 60 86 57 87 53 88
REMARK SMILES IDX 54 89 55 90 56 91
REMARK H PARENT 16 7 4 12 21 25 80 44 48 55
REMARK Flexibility Score: inf
ROOT
ATOM      1  C   UNL A   1      31.625  31.674  26.706  1.00  0.00     0.023 C 
ENDROOT
BRANCH   1   2
ATOM      2  C   UNL A   1      31.903  30.276  26.145  1.00  0.00     0.023 C 
BRANCH   2   3
ATOM      3  C   UNL A   1      32.458  29.274  27.150  1.00  0.00     0.116 C 
BRANCH   3   4
ATOM      4  N   UNL A   1      32.883  28.033  26.538  1.00  0.00    -0.351 N 
ATOM      5  O   UNL A   1      30.954  26.875  26.972  1.00  0.00    -0.269 OA
ATOM      6  C   UNL A   1      32.031  26.964  26.383  1.00  0.00     0.275 C 
ATOM      7  H   UNL A   1      33.811  27.952  26.223  1.00  0.00     0.163 HD
BRANCH   6   8
ATOM      8  C   UNL A   1      32.558  25.832  25.507  1.00  0.00     0.364 C 
BRANCH   8   9
ATOM      9  N   UNL A   1      31.650  25.112  24.566  1.00  0.00    -0.321 N 
ATOM     10  C   UNL A   1      32.248  23.793  24.257  1.00  0.00     0.263 C 
ATOM     11  C   UNL A   1      31.249  25.626  23.221  1.00  0.00     0.217 C 
ATOM     12  H   UNL A   1      30.794  25.186  25.116  1.00  0.00     0.349 HD
ATOM     13  C   UNL A   1      33.153  24.090  23.078  1.00  0.00     0.068 C 
ATOM     14  C   UNL A   1      32.357  25.111  22.276  1.00  0.00     0.076 C 
BRANCH  11  15
ATOM     15  C   UNL A   1      30.743  27.056  23.080  1.00  0.00     0.028 A 
ATOM     16  C   UNL A   1      31.652  28.081  22.745  1.00  0.00     0.011 A 
ATOM     17  C   UNL A   1      29.410  27.457  23.302  1.00  0.00     0.050 A 
ATOM     18  C   UNL A   1      31.221  29.364  22.395  1.00  0.00     0.001 A 
ATOM     19  C   UNL A   1      28.978  28.750  22.969  1.00  0.00     0.021 A 
ATOM     20  Cl  UNL A   1      28.217  26.447  24.041  1.00  0.00    -0.084 Cl
ATOM     21  C   UNL A   1      29.875  29.688  22.469  1.00  0.00     0.002 A 
ENDBRANCH  11  15
ENDBRANCH   8   9
ENDBRANCH   6   8
ENDBRANCH   3   4
ENDBRANCH   2   3
ENDBRANCH   1   2
BRANCH   1  22
ATOM     22  C   UNL A   1      32.846  32.434  27.218  1.00  0.00     0.116 C 
BRANCH  22  23
ATOM     23  N   UNL A   1      32.549  33.812  27.565  1.00  0.00    -0.352 N 
ATOM     24  C   UNL A   1      33.100  34.619  28.534  1.00  0.00     0.251 C 
ATOM     25  H   UNL A   1      31.844  34.235  27.024  1.00  0.00     0.163 HD
ATOM     26  O   UNL A   1      32.588  35.707  28.775  1.00  0.00    -0.269 OA
BRANCH  24  27
ATOM     27  C   UNL A   1      34.281  34.166  29.308  1.00  0.00     0.039 A 
ATOM     28  C   UNL A   1      34.073  33.451  30.491  1.00  0.00     0.014 A 
ATOM     29  C   UNL A   1      35.582  34.444  28.884  1.00  0.00     0.014 A 
ATOM     30  C   UNL A   1      35.167  32.952  31.204  1.00  0.00     0.010 A 
ATOM     31  C   UNL A   1      36.669  33.880  29.555  1.00  0.00     0.010 A 
ATOM     32  C   UNL A   1      36.475  33.122  30.720  1.00  0.00    -0.014 A 
BRANCH  32  33
ATOM     33  C   UNL A   1      37.640  32.502  31.412  1.00  0.00     0.031 A 
ATOM     34  C   UNL A   1      38.383  31.355  30.779  1.00  0.00     0.074 A 
ATOM     35  C   UNL A   1      38.001  32.938  32.636  1.00  0.00     0.049 A 
ATOM     36  N   UNL A   1      39.377  30.648  31.254  1.00  0.00    -0.248 NA
ATOM     37  C   UNL A   1      37.930  30.931  29.445  1.00  0.00     0.031 C 
ATOM     38  C   UNL A   1      37.347  34.023  33.371  1.00  0.00     0.029 A 
ATOM     39  N   UNL A   1      39.000  32.524  33.483  1.00  0.00    -0.354 N 
ATOM     40  C   UNL A   1      39.663  29.690  30.286  1.00  0.00     0.074 A 
ATOM     41  C   UNL A   1      38.695  29.873  29.224  1.00  0.00     0.031 C 
ATOM     42  C   UNL A   1      37.979  34.207  34.541  1.00  0.00     0.029 A 
ATOM     43  C   UNL A   1      39.047  33.221  34.670  1.00  0.00     0.049 A 
ATOM     44  H   UNL A   1      39.625  31.796  33.263  1.00  0.00     0.167 HD
ATOM     45  C   UNL A   1      40.651  28.761  30.274  1.00  0.00     0.034 A 
ATOM     46  C   UNL A   1      39.847  33.077  35.747  1.00  0.00     0.034 A 
ATOM     47  C   UNL A   1      41.613  28.595  31.338  1.00  0.00     0.049 A 
ATOM     48  C   UNL A   1      40.908  32.003  35.729  1.00  0.00     0.074 A 
ATOM     49  C   UNL A   1      42.685  27.722  31.399  1.00  0.00     0.029 A 
ATOM     50  N   UNL A   1      41.615  29.306  32.531  1.00  0.00    -0.354 N 
ATOM     51  N   UNL A   1      41.194  31.139  34.782  1.00  0.00    -0.248 NA
ATOM     52  C   UNL A   1      41.757  31.891  36.922  1.00  0.00     0.031 C 
ATOM     53  C   UNL A   1      43.282  27.844  32.659  1.00  0.00     0.029 A 
ATOM     54  C   UNL A   1      42.644  28.860  33.350  1.00  0.00     0.049 A 
ATOM     55  H   UNL A   1      40.980  30.022  32.763  1.00  0.00     0.167 HD
ATOM     56  C   UNL A   1      42.283  30.408  35.254  1.00  0.00     0.074 A 
ATOM     57  C   UNL A   1      42.608  30.942  36.560  1.00  0.00     0.031 C 
ATOM     58  C   UNL A   1      42.956  29.391  34.657  1.00  0.00     0.034 A 
BRANCH  45  59
ATOM     59  C   UNL A   1      40.720  27.829  29.085  1.00  0.00     0.023 A 
ATOM     60  C   UNL A   1      41.656  28.013  28.052  1.00  0.00     0.031 A 
ATOM     61  C   UNL A   1      39.827  26.748  28.976  1.00  0.00     0.131 A 
ATOM     62  C   UNL A   1      41.629  27.178  26.925  1.00  0.00     0.055 A 
ATOM     63  C   UNL A   1      39.862  25.868  27.892  1.00  0.00     0.041 A 
ATOM     64  F   UNL A   1      38.896  26.533  29.918  1.00  0.00    -0.206 F 
ATOM     65  C   UNL A   1      40.757  26.090  26.849  1.00  0.00     0.022 A 
BRANCH  62  66
ATOM     66  S   UNL A   1      42.646  27.626  25.492  1.00  0.00     0.124 S 
ATOM     67  O   UNL A   1      42.527  26.430  24.660  1.00  0.00    -0.237 OA
ATOM     68  O   UNL A   1      41.976  28.821  24.991  1.00  0.00    -0.237 OA
ATOM     69  O   UNL A   1      43.971  27.846  26.066  1.00  0.00    -0.744 OA
ENDBRANCH  62  66
ENDBRANCH  45  59
BRANCH  46  70
ATOM     70  C   UNL A   1      39.675  33.951  36.944  1.00  0.00     0.023 A 
ATOM     71  C   UNL A   1      39.095  33.458  38.124  1.00  0.00     0.031 A 
ATOM     72  C   UNL A   1      40.037  35.311  36.909  1.00  0.00     0.131 A 
ATOM     73  C   UNL A   1      38.843  34.326  39.197  1.00  0.00     0.055 A 
ATOM     74  C   UNL A   1      39.843  36.156  38.003  1.00  0.00     0.041 A 
ATOM     75  F   UNL A   1      40.596  35.837  35.807  1.00  0.00    -0.206 F 
ATOM     76  C   UNL A   1      39.228  35.668  39.151  1.00  0.00     0.022 A 
BRANCH  73  77
ATOM     77  S   UNL A   1      37.908  33.700  40.621  1.00  0.00     0.124 S 
ATOM     78  O   UNL A   1      36.742  33.113  39.972  1.00  0.00    -0.237 OA
ATOM     79  O   UNL A   1      38.854  32.760  41.214  1.00  0.00    -0.237 OA
ATOM     80  O   UNL A   1      37.646  34.900  41.410  1.00  0.00    -0.744 OA
ENDBRANCH  73  77
ENDBRANCH  46  70
BRANCH  58  81
ATOM     81  C   UNL A   1      44.148  28.824  35.394  1.00  0.00     0.023 A 
ATOM     82  C   UNL A   1      44.012  27.825  36.373  1.00  0.00     0.031 A 
ATOM     83  C   UNL A   1      45.441  29.303  35.117  1.00  0.00     0.131 A 
ATOM     84  C   UNL A   1      45.140  27.379  37.079  1.00  0.00     0.055 A 
ATOM     85  C   UNL A   1      46.568  28.807  35.773  1.00  0.00     0.041 A 
ATOM     86  F   UNL A   1      45.632  30.262  34.195  1.00  0.00    -0.206 F 
ATOM     87  C   UNL A   1      46.419  27.850  36.772  1.00  0.00     0.022 A 
BRANCH  84  88
ATOM     88  S   UNL A   1      44.902  26.250  38.480  1.00  0.00     0.124 S 
ATOM     89  O   UNL A   1      45.816  26.805  39.475  1.00  0.00    -0.237 OA
ATOM     90  O   UNL A   1      43.480  26.403  38.766  1.00  0.00    -0.237 OA
ATOM     91  O   UNL A   1      45.288  24.948  37.941  1.00  0.00    -0.744 OA
ENDBRANCH  84  88
ENDBRANCH  58  81
ENDBRANCH  32  33
ENDBRANCH  24  27
ENDBRANCH  22  23
ENDBRANCH   1  22
TORSDOF 16
ENDMDL
