MODEL 1
REMARK VINA RESULT:     -12.6      0.000      0.000
REMARK SMILES Cc1cc(C)c2nc(NS(=O)(=O)c3cc(C(=O)NCCCCNC(=O)c4ccc(-c5c6nc(c(-c7cc(S(=O)(=O)[O-])ccc7F)c7ccc([nH]7)c(-c7cc(S(=O)(=O)[O-])ccc7F)c7nc(c(-c8cc(S(=O)(=O)[O-])ccc8F)c8ccc5[nH]8)C=C7)C=C6)cc4)ccc3Cl)sc2c1
REMARK SMILES IDX 20 1 19 2 18 3 16 4 17 5 15 7 13 8 14 9 91 10 90 11 92 12
REMARK SMILES IDX 89 13 10 14 11 15 12 16 9 17 8 19 1 20 2 21 3 22 95 23 4 24
REMARK SMILES IDX 94 25 5 26 6 27 93 28 7 29 21 30 22 31 23 32 24 33 25 35
REMARK SMILES IDX 26 36 27 37 88 38 28 39 87 40 29 41 30 42 31 43 81 44 32 45
REMARK SMILES IDX 86 46 80 47 82 48 33 49 85 50 79 51 78 52 34 54 66 55 46 56
REMARK SMILES IDX 65 57 47 58 50 59 64 60 83 61 48 62 49 63 63 65 84 66 51 67
REMARK SMILES IDX 35 68 36 69 44 70 37 71 43 72 45 73 42 74 38 75 39 76 40 77
REMARK SMILES IDX 41 78 67 79 68 80 76 81 69 82 75 83 77 84 74 85 70 86 71 87
REMARK SMILES IDX 72 88 73 89 52 90 53 91 61 92 54 93 60 94 62 95 59 96 55 97
REMARK SMILES IDX 56 98 57 99 58 100
REMARK H PARENT 18 6 9 18 23 34 82 53 50 64
REMARK Flexibility Score: inf
ROOT
ATOM      1  C   UNL A   1      35.829  22.709  25.510  1.00  0.00     0.023 C 
ENDROOT
BRANCH   1   2
ATOM      2  C   UNL A   1      34.623  22.857  24.577  1.00  0.00     0.116 C 
BRANCH   2   3
ATOM      3  N   UNL A   1      33.443  22.118  24.999  1.00  0.00    -0.352 N 
ATOM      4  C   UNL A   1      32.096  22.385  25.093  1.00  0.00     0.251 C 
ATOM      5  O   UNL A   1      31.368  21.438  25.399  1.00  0.00    -0.269 OA
ATOM      6  H   UNL A   1      33.661  21.204  25.289  1.00  0.00     0.163 HD
BRANCH   4   7
ATOM      7  C   UNL A   1      31.468  23.740  24.971  1.00  0.00     0.041 A 
ATOM      8  C   UNL A   1      31.011  25.672  23.531  1.00  0.00     0.107 A 
ATOM      9  C   UNL A   1      31.740  24.497  23.816  1.00  0.00     0.037 A 
ATOM     10  C   UNL A   1      29.899  25.986  24.299  1.00  0.00     0.061 A 
ATOM     11  C   UNL A   1      29.765  25.367  25.536  1.00  0.00     0.023 A 
ATOM     12  Cl  UNL A   1      28.681  27.108  23.831  1.00  0.00    -0.083 Cl
ATOM     13  C   UNL A   1      30.600  24.306  25.895  1.00  0.00     0.015 A 
BRANCH   8  14
ATOM     14  S   UNL A   1      31.708  26.818  22.367  1.00  0.00     0.265 S 
ATOM     15  O   UNL A   1      30.615  27.668  21.942  1.00  0.00    -0.201 OA
ATOM     16  O   UNL A   1      32.452  26.037  21.399  1.00  0.00    -0.201 OA
BRANCH  14  17
ATOM     17  N   UNL A   1      32.816  27.820  23.112  1.00  0.00    -0.255 N 
ATOM     18  H   UNL A   1      33.657  28.009  22.636  1.00  0.00     0.182 HD
BRANCH  17  19
ATOM     19  C   UNL A   1      32.628  28.411  24.378  1.00  0.00     0.197 A 
ATOM     20  C   UNL A   1      33.089  33.292  27.992  1.00  0.00     0.044 C 
ATOM     21  C   UNL A   1      33.202  31.918  27.394  1.00  0.00    -0.049 A 
ATOM     22  C   UNL A   1      34.326  31.126  27.652  1.00  0.00     0.009 A 
ATOM     23  C   UNL A   1      32.155  31.406  26.615  1.00  0.00     0.024 A 
ATOM     24  C   UNL A   1      34.500  29.862  27.048  1.00  0.00    -0.024 A 
ATOM     25  C   UNL A   1      32.345  30.168  25.982  1.00  0.00     0.057 A 
ATOM     26  C   UNL A   1      35.714  29.042  27.379  1.00  0.00     0.047 C 
ATOM     27  C   UNL A   1      33.531  29.441  26.105  1.00  0.00     0.087 A 
ATOM     28  S   UNL A   1      31.273  29.268  24.962  1.00  0.00    -0.096 S 
ATOM     29  N   UNL A   1      33.655  28.394  25.198  1.00  0.00    -0.219 NA
ENDBRANCH  17  19
ENDBRANCH  14  17
ENDBRANCH   8  14
ENDBRANCH   4   7
ENDBRANCH   2   3
ENDBRANCH   1   2
BRANCH   1  30
ATOM     30  C   UNL A   1      37.093  23.467  25.079  1.00  0.00     0.023 C 
BRANCH  30  31
ATOM     31  C   UNL A   1      37.879  24.121  26.214  1.00  0.00     0.116 C 
BRANCH  31  32
ATOM     32  N   UNL A   1      39.313  23.842  26.169  1.00  0.00    -0.352 N 
ATOM     33  C   UNL A   1      40.347  24.722  26.471  1.00  0.00     0.251 C 
ATOM     34  H   UNL A   1      39.575  22.933  25.897  1.00  0.00     0.163 HD
ATOM     35  O   UNL A   1      41.461  24.551  26.024  1.00  0.00    -0.269 OA
BRANCH  33  36
ATOM     36  C   UNL A   1      40.045  25.856  27.370  1.00  0.00     0.039 A 
ATOM     37  C   UNL A   1      39.555  25.662  28.663  1.00  0.00     0.014 A 
ATOM     38  C   UNL A   1      40.316  27.136  26.891  1.00  0.00     0.014 A 
ATOM     39  C   UNL A   1      39.429  26.768  29.505  1.00  0.00     0.010 A 
ATOM     40  C   UNL A   1      40.313  28.203  27.756  1.00  0.00     0.010 A 
ATOM     41  C   UNL A   1      39.836  28.036  29.053  1.00  0.00    -0.014 A 
BRANCH  41  42
ATOM     42  C   UNL A   1      39.962  29.165  29.978  1.00  0.00     0.031 A 
ATOM     43  C   UNL A   1      38.700  29.948  30.118  1.00  0.00     0.074 A 
ATOM     44  C   UNL A   1      41.020  29.319  30.813  1.00  0.00     0.049 A 
ATOM     45  N   UNL A   1      38.471  31.156  29.721  1.00  0.00    -0.248 NA
ATOM     46  C   UNL A   1      37.484  29.254  30.590  1.00  0.00     0.031 C 
ATOM     47  C   UNL A   1      42.176  28.422  30.952  1.00  0.00     0.029 A 
ATOM     48  N   UNL A   1      41.248  30.236  31.799  1.00  0.00    -0.354 N 
ATOM     49  C   UNL A   1      37.187  31.463  30.165  1.00  0.00     0.074 A 
ATOM     50  C   UNL A   1      36.557  30.207  30.465  1.00  0.00     0.031 C 
ATOM     51  C   UNL A   1      42.835  28.692  32.102  1.00  0.00     0.029 A 
ATOM     52  C   UNL A   1      42.268  29.890  32.694  1.00  0.00     0.049 A 
ATOM     53  H   UNL A   1      40.736  31.074  31.874  1.00  0.00     0.167 HD
ATOM     54  C   UNL A   1      36.876  32.731  30.558  1.00  0.00     0.034 A 
ATOM     55  C   UNL A   1      42.633  30.550  33.827  1.00  0.00     0.034 A 
ATOM     56  C   UNL A   1      37.908  33.650  30.146  1.00  0.00     0.049 A 
ATOM     57  C   UNL A   1      42.195  31.949  33.638  1.00  0.00     0.074 A 
ATOM     58  C   UNL A   1      38.319  34.233  28.968  1.00  0.00     0.029 A 
ATOM     59  N   UNL A   1      38.957  33.719  31.026  1.00  0.00    -0.354 N 
ATOM     60  N   UNL A   1      42.661  32.717  32.692  1.00  0.00    -0.248 NA
ATOM     61  C   UNL A   1      40.951  32.393  34.253  1.00  0.00     0.031 C 
ATOM     62  C   UNL A   1      39.721  34.465  29.113  1.00  0.00     0.029 A 
ATOM     63  C   UNL A   1      40.116  34.085  30.394  1.00  0.00     0.049 A 
ATOM     64  H   UNL A   1      38.886  33.531  31.990  1.00  0.00     0.167 HD
ATOM     65  C   UNL A   1      41.575  33.471  32.303  1.00  0.00     0.074 A 
ATOM     66  C   UNL A   1      40.617  33.363  33.399  1.00  0.00     0.031 C 
ATOM     67  C   UNL A   1      41.410  33.839  31.001  1.00  0.00     0.034 A 
BRANCH  54  68
ATOM     68  C   UNL A   1      35.942  33.085  31.700  1.00  0.00     0.023 A 
ATOM     69  C   UNL A   1      34.876  33.975  31.445  1.00  0.00     0.031 A 
ATOM     70  C   UNL A   1      36.214  32.833  33.066  1.00  0.00     0.131 A 
ATOM     71  C   UNL A   1      34.166  34.578  32.502  1.00  0.00     0.055 A 
ATOM     72  C   UNL A   1      35.475  33.396  34.110  1.00  0.00     0.041 A 
ATOM     73  F   UNL A   1      37.268  32.113  33.468  1.00  0.00    -0.206 F 
ATOM     74  C   UNL A   1      34.456  34.288  33.833  1.00  0.00     0.022 A 
BRANCH  71  75
ATOM     75  S   UNL A   1      32.912  35.835  32.123  1.00  0.00     0.124 S 
ATOM     76  O   UNL A   1      33.068  35.995  30.683  1.00  0.00    -0.237 OA
ATOM     77  O   UNL A   1      31.686  35.182  32.571  1.00  0.00    -0.237 OA
ATOM     78  O   UNL A   1      33.329  36.983  32.926  1.00  0.00    -0.744 OA
ENDBRANCH  71  75
ENDBRANCH  54  68
BRANCH  55  79
ATOM     79  C   UNL A   1      43.069  30.028  35.157  1.00  0.00     0.023 A 
ATOM     80  C   UNL A   1      42.691  28.740  35.614  1.00  0.00     0.031 A 
ATOM     81  C   UNL A   1      44.120  30.657  35.857  1.00  0.00     0.131 A 
ATOM     82  C   UNL A   1      43.382  28.121  36.683  1.00  0.00     0.055 A 
ATOM     83  C   UNL A   1      44.803  30.037  36.910  1.00  0.00     0.041 A 
ATOM     84  F   UNL A   1      44.584  31.857  35.478  1.00  0.00    -0.206 F 
ATOM     85  C   UNL A   1      44.452  28.757  37.313  1.00  0.00     0.022 A 
BRANCH  82  86
ATOM     86  S   UNL A   1      42.996  26.407  37.180  1.00  0.00     0.124 S 
ATOM     87  O   UNL A   1      43.123  25.688  35.916  1.00  0.00    -0.237 OA
ATOM     88  O   UNL A   1      44.013  26.128  38.187  1.00  0.00    -0.237 OA
ATOM     89  O   UNL A   1      41.632  26.504  37.700  1.00  0.00    -0.744 OA
ENDBRANCH  82  86
ENDBRANCH  55  79
BRANCH  67  90
ATOM     90  C   UNL A   1      42.634  33.913  30.124  1.00  0.00     0.023 A 
ATOM     91  C   UNL A   1      43.094  32.905  29.247  1.00  0.00     0.031 A 
ATOM     92  C   UNL A   1      43.324  35.138  30.141  1.00  0.00     0.131 A 
ATOM     93  C   UNL A   1      44.211  33.159  28.421  1.00  0.00     0.055 A 
ATOM     94  C   UNL A   1      44.411  35.389  29.311  1.00  0.00     0.041 A 
ATOM     95  F   UNL A   1      42.920  36.131  30.950  1.00  0.00    -0.206 F 
ATOM     96  C   UNL A   1      44.860  34.399  28.448  1.00  0.00     0.022 A 
BRANCH  93  97
ATOM     97  S   UNL A   1      44.838  31.881  27.279  1.00  0.00     0.124 S 
ATOM     98  O   UNL A   1      44.071  32.114  26.061  1.00  0.00    -0.237 OA
ATOM     99  O   UNL A   1      46.264  32.187  27.206  1.00  0.00    -0.237 OA
ATOM    100  O   UNL A   1      44.524  30.625  27.963  1.00  0.00    -0.744 OA
ENDBRANCH  93  97
ENDBRANCH  67  90
ENDBRANCH  41  42
ENDBRANCH  33  36
ENDBRANCH  31  32
ENDBRANCH  30  31
ENDBRANCH   1  30
TORSDOF 17
ENDMDL
MODEL 2
REMARK VINA RESULT:     -12.5      3.542      8.978
REMARK SMILES Cc1cc(C)c2nc(NS(=O)(=O)c3cc(C(=O)NCCCCNC(=O)c4ccc(-c5c6nc(c(-c7cc(S(=O)(=O)[O-])ccc7F)c7ccc([nH]7)c(-c7cc(S(=O)(=O)[O-])ccc7F)c7nc(c(-c8cc(S(=O)(=O)[O-])ccc8F)c8ccc5[nH]8)C=C7)C=C6)cc4)ccc3Cl)sc2c1
REMARK SMILES IDX 20 1 19 2 18 3 16 4 17 5 15 7 13 8 14 9 91 10 90 11 92 12
REMARK SMILES IDX 89 13 10 14 11 15 12 16 9 17 8 19 1 20 2 21 3 22 95 23 4 24
REMARK SMILES IDX 94 25 5 26 6 27 93 28 7 29 21 30 22 31 23 32 24 33 25 35
REMARK SMILES IDX 26 36 27 37 88 38 28 39 87 40 29 41 30 42 31 43 81 44 32 45
REMARK SMILES IDX 86 46 80 47 82 48 33 49 85 50 79 51 78 52 34 54 66 55 46 56
REMARK SMILES IDX 65 57 47 58 50 59 64 60 83 61 48 62 49 63 63 65 84 66 51 67
REMARK SMILES IDX 35 68 36 69 44 70 37 71 43 72 45 73 42 74 38 75 39 76 40 77
REMARK SMILES IDX 41 78 67 79 68 80 76 81 69 82 75 83 77 84 74 85 70 86 71 87
REMARK SMILES IDX 72 88 73 89 52 90 53 91 61 92 54 93 60 94 62 95 59 96 55 97
REMARK SMILES IDX 56 98 57 99 58 100
REMARK H PARENT 18 6 9 18 23 34 82 53 50 64
REMARK Flexibility Score: inf
ROOT
ATOM      1  C   UNL A   1      35.885  30.646  27.604  1.00  0.00     0.023 C 
ENDROOT
BRANCH   1   2
ATOM      2  C   UNL A   1      35.137  29.313  27.709  1.00  0.00     0.116 C 
BRANCH   2   3
ATOM      3  N   UNL A   1      33.689  29.430  27.640  1.00  0.00    -0.352 N 
ATOM      4  C   UNL A   1      32.663  28.670  27.126  1.00  0.00     0.251 C 
ATOM      5  O   UNL A   1      31.517  29.056  27.368  1.00  0.00    -0.269 OA
ATOM      6  H   UNL A   1      33.361  30.255  28.065  1.00  0.00     0.163 HD
BRANCH   4   7
ATOM      7  C   UNL A   1      32.827  27.496  26.209  1.00  0.00     0.041 A 
ATOM      8  C   UNL A   1      31.975  25.309  25.497  1.00  0.00     0.107 A 
ATOM      9  C   UNL A   1      32.039  26.354  26.444  1.00  0.00     0.037 A 
ATOM     10  C   UNL A   1      32.549  25.489  24.247  1.00  0.00     0.061 A 
ATOM     11  C   UNL A   1      33.483  26.507  24.097  1.00  0.00     0.023 A 
ATOM     12  Cl  UNL A   1      32.195  24.521  22.868  1.00  0.00    -0.083 Cl
ATOM     13  C   UNL A   1      33.673  27.452  25.109  1.00  0.00     0.015 A 
BRANCH   8  14
ATOM     14  S   UNL A   1      31.387  23.726  26.047  1.00  0.00     0.265 S 
ATOM     15  O   UNL A   1      30.857  23.068  24.871  1.00  0.00    -0.201 OA
ATOM     16  O   UNL A   1      30.542  23.966  27.199  1.00  0.00    -0.201 OA
BRANCH  14  17
ATOM     17  N   UNL A   1      32.652  22.778  26.584  1.00  0.00    -0.255 N 
ATOM     18  H   UNL A   1      32.607  22.431  27.504  1.00  0.00     0.182 HD
BRANCH  17  19
ATOM     19  C   UNL A   1      33.780  22.442  25.806  1.00  0.00     0.197 A 
ATOM     20  C   UNL A   1      39.043  19.428  25.255  1.00  0.00     0.044 C 
ATOM     21  C   UNL A   1      37.982  20.491  25.305  1.00  0.00    -0.049 A 
ATOM     22  C   UNL A   1      38.311  21.800  25.672  1.00  0.00     0.009 A 
ATOM     23  C   UNL A   1      36.667  20.185  24.932  1.00  0.00     0.024 A 
ATOM     24  C   UNL A   1      37.330  22.806  25.801  1.00  0.00    -0.024 A 
ATOM     25  C   UNL A   1      35.683  21.171  25.099  1.00  0.00     0.057 A 
ATOM     26  C   UNL A   1      37.741  24.202  26.175  1.00  0.00     0.047 C 
ATOM     27  C   UNL A   1      35.976  22.434  25.618  1.00  0.00     0.087 A 
ATOM     28  S   UNL A   1      33.988  21.119  24.749  1.00  0.00    -0.096 S 
ATOM     29  N   UNL A   1      34.855  23.177  25.977  1.00  0.00    -0.219 NA
ENDBRANCH  17  19
ENDBRANCH  14  17
ENDBRANCH   8  14
ENDBRANCH   4   7
ENDBRANCH   2   3
ENDBRANCH   1   2
BRANCH   1  30
ATOM     30  C   UNL A   1      35.091  31.885  28.046  1.00  0.00     0.023 C 
BRANCH  30  31
ATOM     31  C   UNL A   1      35.931  33.031  28.605  1.00  0.00     0.116 C 
BRANCH  31  32
ATOM     32  N   UNL A   1      35.820  33.185  30.054  1.00  0.00    -0.352 N 
ATOM     33  C   UNL A   1      36.380  32.364  31.028  1.00  0.00     0.251 C 
ATOM     34  H   UNL A   1      35.293  33.951  30.376  1.00  0.00     0.163 HD
ATOM     35  O   UNL A   1      35.915  32.317  32.147  1.00  0.00    -0.269 OA
BRANCH  33  36
ATOM     36  C   UNL A   1      37.572  31.572  30.657  1.00  0.00     0.039 A 
ATOM     37  C   UNL A   1      38.820  32.167  30.454  1.00  0.00     0.014 A 
ATOM     38  C   UNL A   1      37.415  30.190  30.566  1.00  0.00     0.014 A 
ATOM     39  C   UNL A   1      39.928  31.345  30.248  1.00  0.00     0.010 A 
ATOM     40  C   UNL A   1      38.521  29.381  30.491  1.00  0.00     0.010 A 
ATOM     41  C   UNL A   1      39.777  29.948  30.294  1.00  0.00    -0.014 A 
BRANCH  41  42
ATOM     42  C   UNL A   1      40.942  29.061  30.342  1.00  0.00     0.031 A 
ATOM     43  C   UNL A   1      41.426  28.808  31.730  1.00  0.00     0.074 A 
ATOM     44  C   UNL A   1      41.364  28.341  29.273  1.00  0.00     0.049 A 
ATOM     45  N   UNL A   1      42.534  29.201  32.265  1.00  0.00    -0.248 NA
ATOM     46  C   UNL A   1      40.496  28.202  32.705  1.00  0.00     0.031 C 
ATOM     47  C   UNL A   1      40.758  28.304  27.934  1.00  0.00     0.029 A 
ATOM     48  N   UNL A   1      42.349  27.401  29.167  1.00  0.00    -0.354 N 
ATOM     49  C   UNL A   1      42.561  28.634  33.538  1.00  0.00     0.074 A 
ATOM     50  C   UNL A   1      41.209  28.249  33.833  1.00  0.00     0.031 C 
ATOM     51  C   UNL A   1      41.216  27.233  27.248  1.00  0.00     0.029 A 
ATOM     52  C   UNL A   1      42.278  26.608  28.015  1.00  0.00     0.049 A 
ATOM     53  H   UNL A   1      43.052  27.289  29.847  1.00  0.00     0.167 HD
ATOM     54  C   UNL A   1      43.742  28.235  34.091  1.00  0.00     0.034 A 
ATOM     55  C   UNL A   1      43.050  25.530  27.705  1.00  0.00     0.034 A 
ATOM     56  C   UNL A   1      44.853  28.766  33.340  1.00  0.00     0.049 A 
ATOM     57  C   UNL A   1      44.305  25.699  28.466  1.00  0.00     0.074 A 
ATOM     58  C   UNL A   1      45.464  29.991  33.187  1.00  0.00     0.029 A 
ATOM     59  N   UNL A   1      45.192  27.999  32.256  1.00  0.00    -0.354 N 
ATOM     60  N   UNL A   1      45.119  26.701  28.280  1.00  0.00    -0.248 NA
ATOM     61  C   UNL A   1      44.482  24.969  29.714  1.00  0.00     0.031 C 
ATOM     62  C   UNL A   1      46.012  29.993  31.867  1.00  0.00     0.029 A 
ATOM     63  C   UNL A   1      45.783  28.753  31.277  1.00  0.00     0.049 A 
ATOM     64  H   UNL A   1      45.032  27.030  32.190  1.00  0.00     0.167 HD
ATOM     65  C   UNL A   1      45.592  26.992  29.541  1.00  0.00     0.074 A 
ATOM     66  C   UNL A   1      45.316  25.802  30.341  1.00  0.00     0.031 C 
ATOM     67  C   UNL A   1      45.861  28.276  29.909  1.00  0.00     0.034 A 
BRANCH  54  68
ATOM     68  C   UNL A   1      43.923  27.010  34.968  1.00  0.00     0.023 A 
ATOM     69  C   UNL A   1      44.346  25.807  34.363  1.00  0.00     0.031 A 
ATOM     70  C   UNL A   1      43.427  26.889  36.288  1.00  0.00     0.131 A 
ATOM     71  C   UNL A   1      44.242  24.577  35.043  1.00  0.00     0.055 A 
ATOM     72  C   UNL A   1      43.372  25.674  36.976  1.00  0.00     0.041 A 
ATOM     73  F   UNL A   1      42.875  27.915  36.945  1.00  0.00    -0.206 F 
ATOM     74  C   UNL A   1      43.764  24.506  36.349  1.00  0.00     0.022 A 
BRANCH  71  75
ATOM     75  S   UNL A   1      44.649  23.042  34.165  1.00  0.00     0.124 S 
ATOM     76  O   UNL A   1      44.289  22.026  35.145  1.00  0.00    -0.237 OA
ATOM     77  O   UNL A   1      43.794  23.134  32.986  1.00  0.00    -0.237 OA
ATOM     78  O   UNL A   1      46.080  23.172  33.899  1.00  0.00    -0.744 OA
ENDBRANCH  71  75
ENDBRANCH  54  68
BRANCH  55  79
ATOM     79  C   UNL A   1      42.694  24.242  27.036  1.00  0.00     0.023 A 
ATOM     80  C   UNL A   1      43.585  23.594  26.143  1.00  0.00     0.031 A 
ATOM     81  C   UNL A   1      41.610  23.472  27.507  1.00  0.00     0.131 A 
ATOM     82  C   UNL A   1      43.402  22.232  25.802  1.00  0.00     0.055 A 
ATOM     83  C   UNL A   1      41.438  22.125  27.170  1.00  0.00     0.041 A 
ATOM     84  F   UNL A   1      40.735  23.976  28.390  1.00  0.00    -0.206 F 
ATOM     85  C   UNL A   1      42.346  21.493  26.333  1.00  0.00     0.022 A 
BRANCH  82  86
ATOM     86  S   UNL A   1      44.625  21.353  24.770  1.00  0.00     0.124 S 
ATOM     87  O   UNL A   1      45.848  21.505  25.552  1.00  0.00    -0.237 OA
ATOM     88  O   UNL A   1      44.071  20.007  24.693  1.00  0.00    -0.237 OA
ATOM     89  O   UNL A   1      44.602  22.097  23.510  1.00  0.00    -0.744 OA
ENDBRANCH  82  86
ENDBRANCH  55  79
BRANCH  67  90
ATOM     90  C   UNL A   1      46.172  29.275  28.823  1.00  0.00     0.023 A 
ATOM     91  C   UNL A   1      45.247  30.136  28.191  1.00  0.00     0.031 A 
ATOM     92  C   UNL A   1      47.529  29.394  28.476  1.00  0.00     0.131 A 
ATOM     93  C   UNL A   1      45.709  31.083  27.251  1.00  0.00     0.055 A 
ATOM     94  C   UNL A   1      47.981  30.342  27.564  1.00  0.00     0.041 A 
ATOM     95  F   UNL A   1      48.449  28.605  29.055  1.00  0.00    -0.206 F 
ATOM     96  C   UNL A   1      47.071  31.190  26.946  1.00  0.00     0.022 A 
BRANCH  93  97
ATOM     97  S   UNL A   1      44.546  32.210  26.410  1.00  0.00     0.124 S 
ATOM     98  O   UNL A   1      43.450  31.331  26.020  1.00  0.00    -0.237 OA
ATOM     99  O   UNL A   1      44.242  33.191  27.447  1.00  0.00    -0.237 OA
ATOM    100  O   UNL A   1      45.329  32.738  25.290  1.00  0.00    -0.744 OA
ENDBRANCH  93  97
ENDBRANCH  67  90
ENDBRANCH  41  42
ENDBRANCH  33  36
ENDBRANCH  31  32
ENDBRANCH  30  31
ENDBRANCH   1  30
TORSDOF 17
ENDMDL
MODEL 3
REMARK VINA RESULT:     -12.5      3.573      9.088
REMARK SMILES Cc1cc(C)c2nc(NS(=O)(=O)c3cc(C(=O)NCCCCNC(=O)c4ccc(-c5c6nc(c(-c7cc(S(=O)(=O)[O-])ccc7F)c7ccc([nH]7)c(-c7cc(S(=O)(=O)[O-])ccc7F)c7nc(c(-c8cc(S(=O)(=O)[O-])ccc8F)c8ccc5[nH]8)C=C7)C=C6)cc4)ccc3Cl)sc2c1
REMARK SMILES IDX 20 1 19 2 18 3 16 4 17 5 15 7 13 8 14 9 91 10 90 11 92 12
REMARK SMILES IDX 89 13 10 14 11 15 12 16 9 17 8 19 1 20 2 21 3 22 95 23 4 24
REMARK SMILES IDX 94 25 5 26 6 27 93 28 7 29 21 30 22 31 23 32 24 33 25 35
REMARK SMILES IDX 26 36 27 37 88 38 28 39 87 40 29 41 30 42 31 43 81 44 32 45
REMARK SMILES IDX 86 46 80 47 82 48 33 49 85 50 79 51 78 52 34 54 66 55 46 56
REMARK SMILES IDX 65 57 47 58 50 59 64 60 83 61 48 62 49 63 63 65 84 66 51 67
REMARK SMILES IDX 35 68 36 69 44 70 37 71 43 72 45 73 42 74 38 75 39 76 40 77
REMARK SMILES IDX 41 78 67 79 68 80 76 81 69 82 75 83 77 84 74 85 70 86 71 87
REMARK SMILES IDX 72 88 73 89 52 90 53 91 61 92 54 93 60 94 62 95 59 96 55 97
REMARK SMILES IDX 56 98 57 99 58 100
REMARK H PARENT 18 6 9 18 23 34 82 53 50 64
REMARK Flexibility Score: inf
ROOT
ATOM      1  C   UNL A   1      35.814  31.237  27.669  1.00  0.00     0.023 C 
ENDROOT
BRANCH   1   2
ATOM      2  C   UNL A   1      34.613  30.314  27.898  1.00  0.00     0.116 C 
BRANCH   2   3
ATOM      3  N   UNL A   1      33.329  30.901  27.551  1.00  0.00    -0.352 N 
ATOM      4  C   UNL A   1      32.281  30.559  26.727  1.00  0.00     0.251 C 
ATOM      5  O   UNL A   1      31.280  31.277  26.784  1.00  0.00    -0.269 OA
ATOM      6  H   UNL A   1      33.170  31.751  28.019  1.00  0.00     0.163 HD
BRANCH   4   7
ATOM      7  C   UNL A   1      32.305  29.472  25.696  1.00  0.00     0.041 A 
ATOM      8  C   UNL A   1      31.153  27.539  24.719  1.00  0.00     0.107 A 
ATOM      9  C   UNL A   1      31.331  28.458  25.776  1.00  0.00     0.037 A 
ATOM     10  C   UNL A   1      31.819  27.744  23.520  1.00  0.00     0.061 A 
ATOM     11  C   UNL A   1      32.912  28.603  23.518  1.00  0.00     0.023 A 
ATOM     12  Cl  UNL A   1      31.393  26.992  22.032  1.00  0.00    -0.083 Cl
ATOM     13  C   UNL A   1      33.194  29.397  24.632  1.00  0.00     0.015 A 
BRANCH   8  14
ATOM     14  S   UNL A   1      30.287  26.029  25.072  1.00  0.00     0.265 S 
ATOM     15  O   UNL A   1      29.018  26.128  24.382  1.00  0.00    -0.201 OA
ATOM     16  O   UNL A   1      30.332  25.842  26.508  1.00  0.00    -0.201 OA
BRANCH  14  17
ATOM     17  N   UNL A   1      31.081  24.721  24.405  1.00  0.00    -0.255 N 
ATOM     18  H   UNL A   1      30.824  24.441  23.496  1.00  0.00     0.182 HD
BRANCH  17  19
ATOM     19  C   UNL A   1      32.096  23.989  25.056  1.00  0.00     0.197 A 
ATOM     20  C   UNL A   1      37.436  21.073  24.791  1.00  0.00     0.044 C 
ATOM     21  C   UNL A   1      35.992  21.432  24.999  1.00  0.00    -0.049 A 
ATOM     22  C   UNL A   1      34.999  20.452  24.900  1.00  0.00     0.009 A 
ATOM     23  C   UNL A   1      35.640  22.744  25.345  1.00  0.00     0.024 A 
ATOM     24  C   UNL A   1      33.628  20.766  25.016  1.00  0.00    -0.024 A 
ATOM     25  C   UNL A   1      34.276  23.066  25.420  1.00  0.00     0.057 A 
ATOM     26  C   UNL A   1      32.604  19.670  24.926  1.00  0.00     0.047 C 
ATOM     27  C   UNL A   1      33.274  22.129  25.165  1.00  0.00     0.087 A 
ATOM     28  S   UNL A   1      33.512  24.571  25.809  1.00  0.00    -0.096 S 
ATOM     29  N   UNL A   1      32.005  22.679  25.006  1.00  0.00    -0.219 NA
ENDBRANCH  17  19
ENDBRANCH  14  17
ENDBRANCH   8  14
ENDBRANCH   4   7
ENDBRANCH   2   3
ENDBRANCH   1   2
BRANCH   1  30
ATOM     30  C   UNL A   1      35.576  32.720  27.990  1.00  0.00     0.023 C 
BRANCH  30  31
ATOM     31  C   UNL A   1      36.472  33.303  29.081  1.00  0.00     0.116 C 
BRANCH  31  32
ATOM     32  N   UNL A   1      36.024  32.988  30.436  1.00  0.00    -0.352 N 
ATOM     33  C   UNL A   1      36.328  31.849  31.173  1.00  0.00     0.251 C 
ATOM     34  H   UNL A   1      35.446  33.654  30.873  1.00  0.00     0.163 HD
ATOM     35  O   UNL A   1      35.610  31.484  32.081  1.00  0.00    -0.269 OA
BRANCH  33  36
ATOM     36  C   UNL A   1      37.563  31.114  30.827  1.00  0.00     0.039 A 
ATOM     37  C   UNL A   1      38.823  31.714  30.897  1.00  0.00     0.014 A 
ATOM     38  C   UNL A   1      37.428  29.773  30.474  1.00  0.00     0.014 A 
ATOM     39  C   UNL A   1      39.954  30.922  30.696  1.00  0.00     0.010 A 
ATOM     40  C   UNL A   1      38.539  28.970  30.402  1.00  0.00     0.010 A 
ATOM     41  C   UNL A   1      39.806  29.541  30.474  1.00  0.00    -0.014 A 
BRANCH  41  42
ATOM     42  C   UNL A   1      40.961  28.640  30.516  1.00  0.00     0.031 A 
ATOM     43  C   UNL A   1      41.419  28.345  31.904  1.00  0.00     0.074 A 
ATOM     44  C   UNL A   1      41.392  27.945  29.435  1.00  0.00     0.049 A 
ATOM     45  N   UNL A   1      42.523  28.711  32.467  1.00  0.00    -0.248 NA
ATOM     46  C   UNL A   1      40.467  27.723  32.848  1.00  0.00     0.031 C 
ATOM     47  C   UNL A   1      40.807  27.951  28.086  1.00  0.00     0.029 A 
ATOM     48  N   UNL A   1      42.368  26.996  29.319  1.00  0.00    -0.354 N 
ATOM     49  C   UNL A   1      42.524  28.109  33.724  1.00  0.00     0.074 A 
ATOM     50  C   UNL A   1      41.163  27.732  33.987  1.00  0.00     0.031 C 
ATOM     51  C   UNL A   1      41.264  26.893  27.378  1.00  0.00     0.029 A 
ATOM     52  C   UNL A   1      42.307  26.236  28.145  1.00  0.00     0.049 A 
ATOM     53  H   UNL A   1      43.059  26.858  30.007  1.00  0.00     0.167 HD
ATOM     54  C   UNL A   1      43.691  27.682  34.285  1.00  0.00     0.034 A 
ATOM     55  C   UNL A   1      43.072  25.158  27.817  1.00  0.00     0.034 A 
ATOM     56  C   UNL A   1      44.819  28.220  33.566  1.00  0.00     0.049 A 
ATOM     57  C   UNL A   1      44.316  25.292  28.602  1.00  0.00     0.074 A 
ATOM     58  C   UNL A   1      45.447  29.441  33.455  1.00  0.00     0.029 A 
ATOM     59  N   UNL A   1      45.167  27.478  32.467  1.00  0.00    -0.354 N 
ATOM     60  N   UNL A   1      45.144  26.289  28.456  1.00  0.00    -0.248 NA
ATOM     61  C   UNL A   1      44.465  24.526  29.833  1.00  0.00     0.031 C 
ATOM     62  C   UNL A   1      46.016  29.473  32.145  1.00  0.00     0.029 A 
ATOM     63  C   UNL A   1      45.783  28.252  31.518  1.00  0.00     0.049 A 
ATOM     64  H   UNL A   1      44.998  26.513  32.372  1.00  0.00     0.167 HD
ATOM     65  C   UNL A   1      45.600  26.540  29.733  1.00  0.00     0.074 A 
ATOM     66  C   UNL A   1      45.298  25.332  30.495  1.00  0.00     0.031 C 
ATOM     67  C   UNL A   1      45.877  27.811  30.139  1.00  0.00     0.034 A 
BRANCH  54  68
ATOM     68  C   UNL A   1      43.845  26.432  35.131  1.00  0.00     0.023 A 
ATOM     69  C   UNL A   1      44.191  26.581  36.492  1.00  0.00     0.031 A 
ATOM     70  C   UNL A   1      43.957  25.120  34.612  1.00  0.00     0.131 A 
ATOM     71  C   UNL A   1      44.642  25.482  37.250  1.00  0.00     0.055 A 
ATOM     72  C   UNL A   1      44.359  24.025  35.381  1.00  0.00     0.041 A 
ATOM     73  F   UNL A   1      43.787  24.844  33.313  1.00  0.00    -0.206 F 
ATOM     74  C   UNL A   1      44.722  24.203  36.703  1.00  0.00     0.022 A 
BRANCH  71  75
ATOM     75  S   UNL A   1      45.225  25.756  38.946  1.00  0.00     0.124 S 
ATOM     76  O   UNL A   1      46.601  26.186  38.729  1.00  0.00    -0.237 OA
ATOM     77  O   UNL A   1      44.298  26.776  39.423  1.00  0.00    -0.237 OA
ATOM     78  O   UNL A   1      45.074  24.444  39.574  1.00  0.00    -0.744 OA
ENDBRANCH  71  75
ENDBRANCH  54  68
BRANCH  55  79
ATOM     79  C   UNL A   1      42.712  23.892  27.108  1.00  0.00     0.023 A 
ATOM     80  C   UNL A   1      43.610  23.258  26.213  1.00  0.00     0.031 A 
ATOM     81  C   UNL A   1      41.612  23.123  27.541  1.00  0.00     0.131 A 
ATOM     82  C   UNL A   1      43.418  21.908  25.832  1.00  0.00     0.055 A 
ATOM     83  C   UNL A   1      41.430  21.787  27.165  1.00  0.00     0.041 A 
ATOM     84  F   UNL A   1      40.728  23.614  28.423  1.00  0.00    -0.206 F 
ATOM     85  C   UNL A   1      42.344  21.167  26.327  1.00  0.00     0.022 A 
BRANCH  82  86
ATOM     86  S   UNL A   1      44.648  21.042  24.798  1.00  0.00     0.124 S 
ATOM     87  O   UNL A   1      44.073  19.705  24.695  1.00  0.00    -0.237 OA
ATOM     88  O   UNL A   1      44.656  21.838  23.576  1.00  0.00    -0.237 OA
ATOM     89  O   UNL A   1      45.876  21.127  25.590  1.00  0.00    -0.744 OA
ENDBRANCH  82  86
ENDBRANCH  55  79
BRANCH  67  90
ATOM     90  C   UNL A   1      46.217  28.835  29.085  1.00  0.00     0.023 A 
ATOM     91  C   UNL A   1      45.302  29.680  28.418  1.00  0.00     0.031 A 
ATOM     92  C   UNL A   1      47.586  28.998  28.813  1.00  0.00     0.131 A 
ATOM     93  C   UNL A   1      45.786  30.654  27.517  1.00  0.00     0.055 A 
ATOM     94  C   UNL A   1      48.058  29.972  27.940  1.00  0.00     0.041 A 
ATOM     95  F   UNL A   1      48.496  28.226  29.429  1.00  0.00    -0.206 F 
ATOM     96  C   UNL A   1      47.158  30.804  27.287  1.00  0.00     0.022 A 
BRANCH  93  97
ATOM     97  S   UNL A   1      44.637  31.761  26.631  1.00  0.00     0.124 S 
ATOM     98  O   UNL A   1      43.528  30.882  26.279  1.00  0.00    -0.237 OA
ATOM     99  O   UNL A   1      44.348  32.788  27.627  1.00  0.00    -0.237 OA
ATOM    100  O   UNL A   1      45.425  32.232  25.490  1.00  0.00    -0.744 OA
ENDBRANCH  93  97
ENDBRANCH  67  90
ENDBRANCH  41  42
ENDBRANCH  33  36
ENDBRANCH  31  32
ENDBRANCH  30  31
ENDBRANCH   1  30
TORSDOF 17
ENDMDL
