MODEL 1
REMARK VINA RESULT:     -12.5      0.000      0.000
REMARK SMILES Cc1cc(NC(=O)COc2cc(C)c(Cl)c(C)c2)cc(C(=O)NCCCCNC(=O)c2ccc(-c3c4nc(c(-c5cc(S(=O)(=O)[O-])ccc5F)c5ccc([nH]5)c(-c5cc(S(=O)(=O)[O-])ccc5F)c5nc(c(-c6cc(S(=O)(=O)[O-])ccc6F)c6ccc3[nH]6)C=C5)C=C4)cc2)c1O
REMARK SMILES IDX 25 1 24 2 23 3 21 4 22 5 20 7 1 8 2 9 3 10 94 11 4 12 19 13
REMARK SMILES IDX 95 14 5 16 6 17 7 19 8 20 9 21 10 22 11 23 18 24 12 25 16 26
REMARK SMILES IDX 13 27 14 28 17 29 15 30 26 31 27 32 28 33 29 34 30 36 31 37
REMARK SMILES IDX 32 38 93 39 33 40 92 41 34 42 35 43 36 44 86 45 37 46 91 47
REMARK SMILES IDX 85 48 87 49 38 50 90 51 84 52 83 53 39 55 71 56 51 57 70 58
REMARK SMILES IDX 52 59 55 60 69 61 88 62 53 63 54 64 68 66 89 67 56 68 40 69
REMARK SMILES IDX 41 70 49 71 42 72 48 73 50 74 47 75 43 76 44 77 45 78 46 79
REMARK SMILES IDX 72 80 73 81 81 82 74 83 80 84 82 85 79 86 75 87 76 88 77 89
REMARK SMILES IDX 78 90 57 91 58 92 66 93 59 94 65 95 67 96 64 97 60 98 61 99
REMARK SMILES IDX 62 100 63 101
REMARK H PARENT 23 6 95 15 5 18 28 35 87 54 55 65
REMARK Flexibility Score: inf
ROOT
ATOM      1  C   UNL A   1      31.413  29.375  25.449  1.00  0.00     0.023 C 
ENDROOT
BRANCH   1   2
ATOM      2  C   UNL A   1      32.407  29.025  24.347  1.00  0.00     0.116 C 
BRANCH   2   3
ATOM      3  N   UNL A   1      31.745  28.601  23.130  1.00  0.00    -0.352 N 
ATOM      4  C   UNL A   1      31.357  27.416  22.555  1.00  0.00     0.255 C 
ATOM      5  O   UNL A   1      30.732  27.580  21.504  1.00  0.00    -0.269 OA
ATOM      6  H   UNL A   1      31.509  29.370  22.562  1.00  0.00     0.163 HD
BRANCH   4   7
ATOM      7  C   UNL A   1      31.601  26.022  23.097  1.00  0.00     0.083 A 
ATOM      8  C   UNL A   1      33.972  23.059  22.371  1.00  0.00     0.048 C 
ATOM      9  C   UNL A   1      32.870  23.907  22.944  1.00  0.00    -0.006 A 
ATOM     10  C   UNL A   1      32.024  23.349  23.905  1.00  0.00     0.033 A 
ATOM     11  C   UNL A   1      32.661  25.246  22.560  1.00  0.00     0.131 A 
ATOM     12  C   UNL A   1      31.013  24.101  24.510  1.00  0.00     0.042 A 
ATOM     13  C   UNL A   1      30.802  25.418  24.084  1.00  0.00     0.043 A 
BRANCH  11  14
ATOM     14  O   UNL A   1      33.530  25.810  21.664  1.00  0.00    -0.507 OA
ATOM     15  H   UNL A   1      34.201  25.288  21.270  1.00  0.00     0.293 HD
ENDBRANCH  11  14
BRANCH  12  16
ATOM     16  N   UNL A   1      30.260  23.423  25.485  1.00  0.00    -0.323 N 
ATOM     17  C   UNL A   1      30.420  23.174  26.815  1.00  0.00     0.262 C 
ATOM     18  H   UNL A   1      29.426  23.043  25.125  1.00  0.00     0.170 HD
ATOM     19  O   UNL A   1      29.486  22.603  27.393  1.00  0.00    -0.271 OA
BRANCH  17  20
ATOM     20  C   UNL A   1      31.687  23.525  27.583  1.00  0.00     0.329 C 
BRANCH  20  21
ATOM     21  O   UNL A   1      32.510  22.434  27.964  1.00  0.00    -0.484 OA
BRANCH  21  22
ATOM     22  C   UNL A   1      33.513  22.084  27.110  1.00  0.00     0.120 A 
ATOM     23  C   UNL A   1      33.529  20.926  26.342  1.00  0.00     0.051 A 
ATOM     24  C   UNL A   1      34.541  23.018  26.975  1.00  0.00     0.051 A 
ATOM     25  C   UNL A   1      34.582  20.683  25.443  1.00  0.00    -0.029 A 
ATOM     26  C   UNL A   1      35.617  22.796  26.105  1.00  0.00    -0.029 A 
ATOM     27  C   UNL A   1      34.548  19.429  24.612  1.00  0.00     0.046 C 
ATOM     28  C   UNL A   1      35.629  21.621  25.335  1.00  0.00     0.047 A 
ATOM     29  C   UNL A   1      36.713  23.823  26.029  1.00  0.00     0.046 C 
ATOM     30  Cl  UNL A   1      36.935  21.329  24.231  1.00  0.00    -0.084 Cl
ENDBRANCH  21  22
ENDBRANCH  20  21
ENDBRANCH  17  20
ENDBRANCH  12  16
ENDBRANCH   4   7
ENDBRANCH   2   3
ENDBRANCH   1   2
BRANCH   1  31
ATOM     31  C   UNL A   1      31.449  30.832  25.919  1.00  0.00     0.023 C 
BRANCH  31  32
ATOM     32  C   UNL A   1      32.566  31.162  26.908  1.00  0.00     0.116 C 
BRANCH  32  33
ATOM     33  N   UNL A   1      32.649  32.570  27.273  1.00  0.00    -0.352 N 
ATOM     34  C   UNL A   1      33.713  33.228  27.857  1.00  0.00     0.251 C 
ATOM     35  H   UNL A   1      31.853  33.117  27.081  1.00  0.00     0.163 HD
ATOM     36  O   UNL A   1      33.625  34.409  28.161  1.00  0.00    -0.269 OA
BRANCH  34  37
ATOM     37  C   UNL A   1      34.933  32.449  28.167  1.00  0.00     0.039 A 
ATOM     38  C   UNL A   1      36.158  33.117  28.236  1.00  0.00     0.014 A 
ATOM     39  C   UNL A   1      34.838  31.100  28.511  1.00  0.00     0.014 A 
ATOM     40  C   UNL A   1      37.272  32.454  28.757  1.00  0.00     0.010 A 
ATOM     41  C   UNL A   1      35.926  30.469  29.103  1.00  0.00     0.010 A 
ATOM     42  C   UNL A   1      37.148  31.145  29.252  1.00  0.00    -0.014 A 
BRANCH  42  43
ATOM     43  C   UNL A   1      38.266  30.469  29.959  1.00  0.00     0.031 A 
ATOM     44  C   UNL A   1      38.585  30.835  31.383  1.00  0.00     0.074 A 
ATOM     45  C   UNL A   1      39.060  29.611  29.287  1.00  0.00     0.049 A 
ATOM     46  N   UNL A   1      39.599  30.473  32.125  1.00  0.00    -0.248 NA
ATOM     47  C   UNL A   1      37.659  31.772  32.037  1.00  0.00     0.031 C 
ATOM     48  C   UNL A   1      38.894  29.223  27.883  1.00  0.00     0.029 A 
ATOM     49  N   UNL A   1      40.178  28.923  29.687  1.00  0.00    -0.354 N 
ATOM     50  C   UNL A   1      39.452  31.163  33.324  1.00  0.00     0.074 A 
ATOM     51  C   UNL A   1      38.283  32.007  33.181  1.00  0.00     0.031 C 
ATOM     52  C   UNL A   1      39.860  28.353  27.548  1.00  0.00     0.029 A 
ATOM     53  C   UNL A   1      40.739  28.149  28.695  1.00  0.00     0.049 A 
ATOM     54  H   UNL A   1      40.545  28.976  30.598  1.00  0.00     0.167 HD
ATOM     55  C   UNL A   1      40.208  31.083  34.448  1.00  0.00     0.034 A 
ATOM     56  C   UNL A   1      41.841  27.375  28.705  1.00  0.00     0.034 A 
ATOM     57  C   UNL A   1      41.349  30.212  34.585  1.00  0.00     0.049 A 
ATOM     58  C   UNL A   1      42.647  27.274  29.974  1.00  0.00     0.074 A 
ATOM     59  C   UNL A   1      42.148  30.000  35.695  1.00  0.00     0.029 A 
ATOM     60  N   UNL A   1      41.854  29.403  33.574  1.00  0.00    -0.354 N 
ATOM     61  N   UNL A   1      42.469  27.896  31.116  1.00  0.00    -0.248 NA
ATOM     62  C   UNL A   1      43.796  26.358  29.958  1.00  0.00     0.031 C 
ATOM     63  C   UNL A   1      43.161  29.100  35.343  1.00  0.00     0.029 A 
ATOM     64  C   UNL A   1      42.960  28.704  34.030  1.00  0.00     0.049 A 
ATOM     65  H   UNL A   1      41.481  29.336  32.665  1.00  0.00     0.167 HD
ATOM     66  C   UNL A   1      43.465  27.422  31.964  1.00  0.00     0.074 A 
ATOM     67  C   UNL A   1      44.235  26.459  31.205  1.00  0.00     0.031 C 
ATOM     68  C   UNL A   1      43.716  27.748  33.258  1.00  0.00     0.034 A 
BRANCH  55  69
ATOM     69  C   UNL A   1      39.825  31.979  35.601  1.00  0.00     0.023 A 
ATOM     70  C   UNL A   1      39.004  31.522  36.646  1.00  0.00     0.031 A 
ATOM     71  C   UNL A   1      40.239  33.322  35.630  1.00  0.00     0.131 A 
ATOM     72  C   UNL A   1      38.545  32.420  37.620  1.00  0.00     0.055 A 
ATOM     73  C   UNL A   1      39.851  34.190  36.653  1.00  0.00     0.041 A 
ATOM     74  F   UNL A   1      41.010  33.823  34.651  1.00  0.00    -0.206 F 
ATOM     75  C   UNL A   1      38.983  33.745  37.646  1.00  0.00     0.022 A 
BRANCH  72  76
ATOM     76  S   UNL A   1      37.240  31.867  38.754  1.00  0.00     0.124 S 
ATOM     77  O   UNL A   1      37.886  32.044  40.052  1.00  0.00    -0.237 OA
ATOM     78  O   UNL A   1      36.149  32.786  38.451  1.00  0.00    -0.237 OA
ATOM     79  O   UNL A   1      37.013  30.478  38.362  1.00  0.00    -0.744 OA
ENDBRANCH  72  76
ENDBRANCH  55  69
BRANCH  56  80
ATOM     80  C   UNL A   1      42.250  26.629  27.484  1.00  0.00     0.023 A 
ATOM     81  C   UNL A   1      41.966  25.261  27.347  1.00  0.00     0.031 A 
ATOM     82  C   UNL A   1      42.956  27.265  26.448  1.00  0.00     0.131 A 
ATOM     83  C   UNL A   1      42.423  24.561  26.220  1.00  0.00     0.055 A 
ATOM     84  C   UNL A   1      43.372  26.573  25.308  1.00  0.00     0.041 A 
ATOM     85  F   UNL A   1      43.242  28.574  26.526  1.00  0.00    -0.206 F 
ATOM     86  C   UNL A   1      43.116  25.210  25.195  1.00  0.00     0.022 A 
BRANCH  83  87
ATOM     87  S   UNL A   1      42.155  22.769  26.144  1.00  0.00     0.124 S 
ATOM     88  O   UNL A   1      42.845  22.314  27.346  1.00  0.00    -0.237 OA
ATOM     89  O   UNL A   1      40.699  22.680  26.167  1.00  0.00    -0.237 OA
ATOM     90  O   UNL A   1      42.782  22.385  24.881  1.00  0.00    -0.744 OA
ENDBRANCH  83  87
ENDBRANCH  56  80
BRANCH  68  91
ATOM     91  C   UNL A   1      44.835  27.009  33.943  1.00  0.00     0.023 A 
ATOM     92  C   UNL A   1      44.628  25.776  34.583  1.00  0.00     0.031 A 
ATOM     93  C   UNL A   1      46.131  27.556  33.954  1.00  0.00     0.131 A 
ATOM     94  C   UNL A   1      45.693  25.147  35.246  1.00  0.00     0.055 A 
ATOM     95  C   UNL A   1      47.196  26.904  34.575  1.00  0.00     0.041 A 
ATOM     96  F   UNL A   1      46.381  28.732  33.358  1.00  0.00    -0.206 F 
ATOM     97  C   UNL A   1      46.978  25.697  35.234  1.00  0.00     0.022 A 
BRANCH  94  98
ATOM     98  S   UNL A   1      45.363  23.630  36.183  1.00  0.00     0.124 S 
ATOM     99  O   UNL A   1      44.987  24.156  37.491  1.00  0.00    -0.237 OA
ATOM    100  O   UNL A   1      44.289  23.013  35.411  1.00  0.00    -0.237 OA
ATOM    101  O   UNL A   1      46.639  22.919  36.144  1.00  0.00    -0.744 OA
ENDBRANCH  94  98
ENDBRANCH  68  91
ENDBRANCH  42  43
ENDBRANCH  34  37
ENDBRANCH  32  33
ENDBRANCH  31  32
ENDBRANCH   1  31
TORSDOF 19
ENDMDL
MODEL 2
REMARK VINA RESULT:     -12.5      4.894      7.427
REMARK SMILES Cc1cc(NC(=O)COc2cc(C)c(Cl)c(C)c2)cc(C(=O)NCCCCNC(=O)c2ccc(-c3c4nc(c(-c5cc(S(=O)(=O)[O-])ccc5F)c5ccc([nH]5)c(-c5cc(S(=O)(=O)[O-])ccc5F)c5nc(c(-c6cc(S(=O)(=O)[O-])ccc6F)c6ccc3[nH]6)C=C5)C=C4)cc2)c1O
REMARK SMILES IDX 25 1 24 2 23 3 21 4 22 5 20 7 1 8 2 9 3 10 94 11 4 12 19 13
REMARK SMILES IDX 95 14 5 16 6 17 7 19 8 20 9 21 10 22 11 23 18 24 12 25 16 26
REMARK SMILES IDX 13 27 14 28 17 29 15 30 26 31 27 32 28 33 29 34 30 36 31 37
REMARK SMILES IDX 32 38 93 39 33 40 92 41 34 42 35 43 36 44 86 45 37 46 91 47
REMARK SMILES IDX 85 48 87 49 38 50 90 51 84 52 83 53 39 55 71 56 51 57 70 58
REMARK SMILES IDX 52 59 55 60 69 61 88 62 53 63 54 64 68 66 89 67 56 68 40 69
REMARK SMILES IDX 41 70 49 71 42 72 48 73 50 74 47 75 43 76 44 77 45 78 46 79
REMARK SMILES IDX 72 80 73 81 81 82 74 83 80 84 82 85 79 86 75 87 76 88 77 89
REMARK SMILES IDX 78 90 57 91 58 92 66 93 59 94 65 95 67 96 64 97 60 98 61 99
REMARK SMILES IDX 62 100 63 101
REMARK H PARENT 23 6 95 15 5 18 28 35 87 54 55 65
REMARK Flexibility Score: inf
ROOT
ATOM      1  C   UNL A   1      35.171  23.703  23.977  1.00  0.00     0.023 C 
ENDROOT
BRANCH   1   2
ATOM      2  C   UNL A   1      34.264  23.712  22.750  1.00  0.00     0.116 C 
BRANCH   2   3
ATOM      3  N   UNL A   1      34.108  25.042  22.198  1.00  0.00    -0.352 N 
ATOM      4  C   UNL A   1      33.196  26.065  22.278  1.00  0.00     0.255 C 
ATOM      5  O   UNL A   1      33.555  27.072  21.662  1.00  0.00    -0.269 OA
ATOM      6  H   UNL A   1      34.858  25.275  21.605  1.00  0.00     0.163 HD
BRANCH   4   7
ATOM      7  C   UNL A   1      31.886  26.055  23.040  1.00  0.00     0.083 A 
ATOM      8  C   UNL A   1      28.644  28.152  23.157  1.00  0.00     0.048 C 
ATOM      9  C   UNL A   1      29.700  27.127  23.463  1.00  0.00    -0.006 A 
ATOM     10  C   UNL A   1      29.489  26.240  24.521  1.00  0.00     0.033 A 
ATOM     11  C   UNL A   1      30.891  27.015  22.720  1.00  0.00     0.131 A 
ATOM     12  C   UNL A   1      30.411  25.234  24.825  1.00  0.00     0.042 A 
ATOM     13  C   UNL A   1      31.604  25.168  24.095  1.00  0.00     0.043 A 
BRANCH  11  14
ATOM     14  O   UNL A   1      31.068  27.844  21.644  1.00  0.00    -0.507 OA
ATOM     15  H   UNL A   1      30.324  28.180  21.185  1.00  0.00     0.293 HD
ENDBRANCH  11  14
BRANCH  12  16
ATOM     16  N   UNL A   1      30.054  24.392  25.892  1.00  0.00    -0.323 N 
ATOM     17  C   UNL A   1      30.739  23.564  26.728  1.00  0.00     0.262 C 
ATOM     18  H   UNL A   1      29.086  24.404  26.078  1.00  0.00     0.170 HD
ATOM     19  O   UNL A   1      30.093  23.027  27.637  1.00  0.00    -0.271 OA
BRANCH  17  20
ATOM     20  C   UNL A   1      32.221  23.251  26.563  1.00  0.00     0.329 C 
BRANCH  20  21
ATOM     21  O   UNL A   1      32.602  21.900  26.769  1.00  0.00    -0.484 OA
BRANCH  21  22
ATOM     22  C   UNL A   1      32.523  21.062  25.697  1.00  0.00     0.120 A 
ATOM     23  C   UNL A   1      32.218  21.462  24.401  1.00  0.00     0.051 A 
ATOM     24  C   UNL A   1      32.849  19.729  25.951  1.00  0.00     0.051 A 
ATOM     25  C   UNL A   1      32.220  20.530  23.349  1.00  0.00    -0.029 A 
ATOM     26  C   UNL A   1      32.839  18.770  24.929  1.00  0.00    -0.029 A 
ATOM     27  C   UNL A   1      31.909  21.009  21.958  1.00  0.00     0.046 C 
ATOM     28  C   UNL A   1      32.525  19.181  23.623  1.00  0.00     0.047 A 
ATOM     29  C   UNL A   1      33.165  17.342  25.271  1.00  0.00     0.046 C 
ATOM     30  Cl  UNL A   1      32.527  18.021  22.333  1.00  0.00    -0.084 Cl
ENDBRANCH  21  22
ENDBRANCH  20  21
ENDBRANCH  17  20
ENDBRANCH  12  16
ENDBRANCH   4   7
ENDBRANCH   2   3
ENDBRANCH   1   2
BRANCH   1  31
ATOM     31  C   UNL A   1      36.267  22.634  23.967  1.00  0.00     0.023 C 
BRANCH  31  32
ATOM     32  C   UNL A   1      36.669  22.109  25.344  1.00  0.00     0.116 C 
BRANCH  32  33
ATOM     33  N   UNL A   1      37.648  21.031  25.316  1.00  0.00    -0.352 N 
ATOM     34  C   UNL A   1      38.930  21.043  25.827  1.00  0.00     0.251 C 
ATOM     35  H   UNL A   1      37.362  20.195  24.881  1.00  0.00     0.163 HD
ATOM     36  O   UNL A   1      39.667  20.078  25.684  1.00  0.00    -0.269 OA
BRANCH  34  37
ATOM     37  C   UNL A   1      39.408  22.277  26.489  1.00  0.00     0.039 A 
ATOM     38  C   UNL A   1      40.438  22.181  27.428  1.00  0.00     0.014 A 
ATOM     39  C   UNL A   1      38.929  23.523  26.085  1.00  0.00     0.014 A 
ATOM     40  C   UNL A   1      41.062  23.345  27.883  1.00  0.00     0.010 A 
ATOM     41  C   UNL A   1      39.604  24.673  26.477  1.00  0.00     0.010 A 
ATOM     42  C   UNL A   1      40.691  24.596  27.363  1.00  0.00    -0.014 A 
BRANCH  42  43
ATOM     43  C   UNL A   1      41.439  25.835  27.700  1.00  0.00     0.031 A 
ATOM     44  C   UNL A   1      40.776  26.914  28.511  1.00  0.00     0.074 A 
ATOM     45  C   UNL A   1      42.668  26.034  27.183  1.00  0.00     0.049 A 
ATOM     46  N   UNL A   1      41.198  28.121  28.788  1.00  0.00    -0.248 NA
ATOM     47  C   UNL A   1      39.440  26.604  29.039  1.00  0.00     0.031 C 
ATOM     48  C   UNL A   1      43.393  25.090  26.327  1.00  0.00     0.029 A 
ATOM     49  N   UNL A   1      43.521  27.105  27.285  1.00  0.00    -0.354 N 
ATOM     50  C   UNL A   1      40.165  28.727  29.495  1.00  0.00     0.074 A 
ATOM     51  C   UNL A   1      39.078  27.771  29.550  1.00  0.00     0.031 C 
ATOM     52  C   UNL A   1      44.585  25.615  26.002  1.00  0.00     0.029 A 
ATOM     53  C   UNL A   1      44.697  26.946  26.588  1.00  0.00     0.049 A 
ATOM     54  H   UNL A   1      43.312  27.911  27.809  1.00  0.00     0.167 HD
ATOM     55  C   UNL A   1      40.136  29.957  30.066  1.00  0.00     0.034 A 
ATOM     56  C   UNL A   1      45.742  27.782  26.429  1.00  0.00     0.034 A 
ATOM     57  C   UNL A   1      41.240  30.884  30.030  1.00  0.00     0.049 A 
ATOM     58  C   UNL A   1      45.702  29.131  27.099  1.00  0.00     0.074 A 
ATOM     59  C   UNL A   1      41.345  32.128  30.627  1.00  0.00     0.029 A 
ATOM     60  N   UNL A   1      42.436  30.665  29.358  1.00  0.00    -0.354 N 
ATOM     61  N   UNL A   1      44.737  29.673  27.806  1.00  0.00    -0.248 NA
ATOM     62  C   UNL A   1      46.895  29.976  26.960  1.00  0.00     0.031 C 
ATOM     63  C   UNL A   1      42.584  32.679  30.280  1.00  0.00     0.029 A 
ATOM     64  C   UNL A   1      43.277  31.755  29.515  1.00  0.00     0.049 A 
ATOM     65  H   UNL A   1      42.655  29.853  28.846  1.00  0.00     0.167 HD
ATOM     66  C   UNL A   1      45.222  30.909  28.221  1.00  0.00     0.074 A 
ATOM     67  C   UNL A   1      46.565  31.030  27.692  1.00  0.00     0.031 C 
ATOM     68  C   UNL A   1      44.613  31.857  28.979  1.00  0.00     0.034 A 
BRANCH  55  69
ATOM     69  C   UNL A   1      38.856  30.365  30.756  1.00  0.00     0.023 A 
ATOM     70  C   UNL A   1      37.875  31.125  30.096  1.00  0.00     0.031 A 
ATOM     71  C   UNL A   1      38.636  30.038  32.105  1.00  0.00     0.131 A 
ATOM     72  C   UNL A   1      36.770  31.613  30.808  1.00  0.00     0.055 A 
ATOM     73  C   UNL A   1      37.489  30.453  32.785  1.00  0.00     0.041 A 
ATOM     74  F   UNL A   1      39.545  29.330  32.795  1.00  0.00    -0.206 F 
ATOM     75  C   UNL A   1      36.556  31.262  32.142  1.00  0.00     0.022 A 
BRANCH  72  76
ATOM     76  S   UNL A   1      35.707  32.847  30.008  1.00  0.00     0.124 S 
ATOM     77  O   UNL A   1      36.258  34.093  30.532  1.00  0.00    -0.237 OA
ATOM     78  O   UNL A   1      35.937  32.591  28.591  1.00  0.00    -0.237 OA
ATOM     79  O   UNL A   1      34.369  32.512  30.494  1.00  0.00    -0.744 OA
ENDBRANCH  72  76
ENDBRANCH  55  69
BRANCH  56  80
ATOM     80  C   UNL A   1      46.916  27.376  25.609  1.00  0.00     0.023 A 
ATOM     81  C   UNL A   1      47.053  27.814  24.282  1.00  0.00     0.031 A 
ATOM     82  C   UNL A   1      47.903  26.521  26.129  1.00  0.00     0.131 A 
ATOM     83  C   UNL A   1      48.130  27.362  23.504  1.00  0.00     0.055 A 
ATOM     84  C   UNL A   1      48.996  26.107  25.364  1.00  0.00     0.041 A 
ATOM     85  F   UNL A   1      47.823  26.083  27.396  1.00  0.00    -0.206 F 
ATOM     86  C   UNL A   1      49.107  26.519  24.039  1.00  0.00     0.022 A 
BRANCH  83  87
ATOM     87  S   UNL A   1      48.199  27.841  21.756  1.00  0.00     0.124 S 
ATOM     88  O   UNL A   1      46.880  28.432  21.558  1.00  0.00    -0.237 OA
ATOM     89  O   UNL A   1      49.326  28.766  21.741  1.00  0.00    -0.237 OA
ATOM     90  O   UNL A   1      48.425  26.573  21.066  1.00  0.00    -0.744 OA
ENDBRANCH  83  87
ENDBRANCH  56  80
BRANCH  68  91
ATOM     91  C   UNL A   1      45.425  33.078  29.325  1.00  0.00     0.023 A 
ATOM     92  C   UNL A   1      45.441  34.215  28.499  1.00  0.00     0.031 A 
ATOM     93  C   UNL A   1      46.197  33.097  30.500  1.00  0.00     0.131 A 
ATOM     94  C   UNL A   1      46.247  35.311  28.840  1.00  0.00     0.055 A 
ATOM     95  C   UNL A   1      46.960  34.208  30.857  1.00  0.00     0.041 A 
ATOM     96  F   UNL A   1      46.216  32.035  31.321  1.00  0.00    -0.206 F 
ATOM     97  C   UNL A   1      46.996  35.320  30.020  1.00  0.00     0.022 A 
BRANCH  94  98
ATOM     98  S   UNL A   1      46.357  36.705  27.685  1.00  0.00     0.124 S 
ATOM     99  O   UNL A   1      45.976  37.831  28.531  1.00  0.00    -0.237 OA
ATOM    100  O   UNL A   1      47.757  36.662  27.275  1.00  0.00    -0.237 OA
ATOM    101  O   UNL A   1      45.395  36.361  26.640  1.00  0.00    -0.744 OA
ENDBRANCH  94  98
ENDBRANCH  68  91
ENDBRANCH  42  43
ENDBRANCH  34  37
ENDBRANCH  32  33
ENDBRANCH  31  32
ENDBRANCH   1  31
TORSDOF 19
ENDMDL
MODEL 3
REMARK VINA RESULT:     -12.5      2.565      7.910
REMARK SMILES Cc1cc(NC(=O)COc2cc(C)c(Cl)c(C)c2)cc(C(=O)NCCCCNC(=O)c2ccc(-c3c4nc(c(-c5cc(S(=O)(=O)[O-])ccc5F)c5ccc([nH]5)c(-c5cc(S(=O)(=O)[O-])ccc5F)c5nc(c(-c6cc(S(=O)(=O)[O-])ccc6F)c6ccc3[nH]6)C=C5)C=C4)cc2)c1O
REMARK SMILES IDX 25 1 24 2 23 3 21 4 22 5 20 7 1 8 2 9 3 10 94 11 4 12 19 13
REMARK SMILES IDX 95 14 5 16 6 17 7 19 8 20 9 21 10 22 11 23 18 24 12 25 16 26
REMARK SMILES IDX 13 27 14 28 17 29 15 30 26 31 27 32 28 33 29 34 30 36 31 37
REMARK SMILES IDX 32 38 93 39 33 40 92 41 34 42 35 43 36 44 86 45 37 46 91 47
REMARK SMILES IDX 85 48 87 49 38 50 90 51 84 52 83 53 39 55 71 56 51 57 70 58
REMARK SMILES IDX 52 59 55 60 69 61 88 62 53 63 54 64 68 66 89 67 56 68 40 69
REMARK SMILES IDX 41 70 49 71 42 72 48 73 50 74 47 75 43 76 44 77 45 78 46 79
REMARK SMILES IDX 72 80 73 81 81 82 74 83 80 84 82 85 79 86 75 87 76 88 77 89
REMARK SMILES IDX 78 90 57 91 58 92 66 93 59 94 65 95 67 96 64 97 60 98 61 99
REMARK SMILES IDX 62 100 63 101
REMARK H PARENT 23 6 95 15 5 18 28 35 87 54 55 65
REMARK Flexibility Score: inf
ROOT
ATOM      1  C   UNL A   1      32.915  29.478  27.408  1.00  0.00     0.023 C 
ENDROOT
BRANCH   1   2
ATOM      2  C   UNL A   1      34.287  28.948  27.004  1.00  0.00     0.116 C 
BRANCH   2   3
ATOM      3  N   UNL A   1      34.431  28.849  25.565  1.00  0.00    -0.352 N 
ATOM      4  C   UNL A   1      33.688  28.384  24.508  1.00  0.00     0.255 C 
ATOM      5  O   UNL A   1      34.226  28.600  23.418  1.00  0.00    -0.269 OA
ATOM      6  H   UNL A   1      35.295  29.214  25.265  1.00  0.00     0.163 HD
BRANCH   4   7
ATOM      7  C   UNL A   1      32.338  27.700  24.580  1.00  0.00     0.083 A 
ATOM      8  C   UNL A   1      28.837  28.139  23.006  1.00  0.00     0.048 C 
ATOM      9  C   UNL A   1      29.977  27.645  23.854  1.00  0.00    -0.006 A 
ATOM     10  C   UNL A   1      29.736  26.618  24.770  1.00  0.00     0.033 A 
ATOM     11  C   UNL A   1      31.281  28.166  23.755  1.00  0.00     0.131 A 
ATOM     12  C   UNL A   1      30.764  26.083  25.551  1.00  0.00     0.042 A 
ATOM     13  C   UNL A   1      32.044  26.644  25.460  1.00  0.00     0.043 A 
BRANCH  11  14
ATOM     14  O   UNL A   1      31.529  29.129  22.812  1.00  0.00    -0.507 OA
ATOM     15  H   UNL A   1      32.237  29.730  22.932  1.00  0.00     0.293 HD
ENDBRANCH  11  14
BRANCH  12  16
ATOM     16  N   UNL A   1      30.388  25.031  26.404  1.00  0.00    -0.323 N 
ATOM     17  C   UNL A   1      30.570  23.681  26.397  1.00  0.00     0.262 C 
ATOM     18  H   UNL A   1      29.876  25.341  27.186  1.00  0.00     0.170 HD
ATOM     19  O   UNL A   1      30.163  23.057  27.385  1.00  0.00    -0.271 OA
BRANCH  17  20
ATOM     20  C   UNL A   1      31.200  22.931  25.231  1.00  0.00     0.329 C 
BRANCH  20  21
ATOM     21  O   UNL A   1      31.315  21.524  25.381  1.00  0.00    -0.484 OA
BRANCH  21  22
ATOM     22  C   UNL A   1      32.563  20.988  25.270  1.00  0.00     0.120 A 
ATOM     23  C   UNL A   1      32.830  19.684  24.868  1.00  0.00     0.051 A 
ATOM     24  C   UNL A   1      33.619  21.865  25.519  1.00  0.00     0.051 A 
ATOM     25  C   UNL A   1      34.156  19.241  24.725  1.00  0.00    -0.029 A 
ATOM     26  C   UNL A   1      34.953  21.449  25.409  1.00  0.00    -0.029 A 
ATOM     27  C   UNL A   1      34.401  17.831  24.263  1.00  0.00     0.046 C 
ATOM     28  C   UNL A   1      35.215  20.129  25.005  1.00  0.00     0.047 A 
ATOM     29  C   UNL A   1      36.048  22.431  25.723  1.00  0.00     0.046 C 
ATOM     30  Cl  UNL A   1      36.856  19.591  24.836  1.00  0.00    -0.084 Cl
ENDBRANCH  21  22
ENDBRANCH  20  21
ENDBRANCH  17  20
ENDBRANCH  12  16
ENDBRANCH   4   7
ENDBRANCH   2   3
ENDBRANCH   1   2
BRANCH   1  31
ATOM     31  C   UNL A   1      32.606  30.904  26.943  1.00  0.00     0.023 C 
BRANCH  31  32
ATOM     32  C   UNL A   1      33.546  31.977  27.490  1.00  0.00     0.116 C 
BRANCH  32  33
ATOM     33  N   UNL A   1      32.927  33.284  27.667  1.00  0.00    -0.352 N 
ATOM     34  C   UNL A   1      33.290  34.274  28.559  1.00  0.00     0.251 C 
ATOM     35  H   UNL A   1      32.161  33.486  27.083  1.00  0.00     0.163 HD
ATOM     36  O   UNL A   1      32.643  35.309  28.637  1.00  0.00    -0.269 OA
BRANCH  34  37
ATOM     37  C   UNL A   1      34.435  34.019  29.461  1.00  0.00     0.039 A 
ATOM     38  C   UNL A   1      34.212  33.330  30.654  1.00  0.00     0.014 A 
ATOM     39  C   UNL A   1      35.732  34.348  29.062  1.00  0.00     0.014 A 
ATOM     40  C   UNL A   1      35.303  32.873  31.397  1.00  0.00     0.010 A 
ATOM     41  C   UNL A   1      36.813  33.824  29.759  1.00  0.00     0.010 A 
ATOM     42  C   UNL A   1      36.611  33.063  30.922  1.00  0.00    -0.014 A 
BRANCH  42  43
ATOM     43  C   UNL A   1      37.785  32.451  31.598  1.00  0.00     0.031 A 
ATOM     44  C   UNL A   1      38.533  31.329  30.934  1.00  0.00     0.074 A 
ATOM     45  C   UNL A   1      38.105  32.830  32.852  1.00  0.00     0.049 A 
ATOM     46  N   UNL A   1      39.484  30.569  31.412  1.00  0.00    -0.248 NA
ATOM     47  C   UNL A   1      38.120  30.991  29.564  1.00  0.00     0.031 C 
ATOM     48  C   UNL A   1      37.413  33.863  33.630  1.00  0.00     0.029 A 
ATOM     49  N   UNL A   1      39.081  32.378  33.704  1.00  0.00    -0.354 N 
ATOM     50  C   UNL A   1      39.761  29.640  30.414  1.00  0.00     0.074 A 
ATOM     51  C   UNL A   1      38.835  29.901  29.332  1.00  0.00     0.031 C 
ATOM     52  C   UNL A   1      38.001  33.978  34.832  1.00  0.00     0.029 A 
ATOM     53  C   UNL A   1      39.082  33.003  34.930  1.00  0.00     0.049 A 
ATOM     54  H   UNL A   1      39.722  31.672  33.461  1.00  0.00     0.167 HD
ATOM     55  C   UNL A   1      40.715  28.676  30.394  1.00  0.00     0.034 A 
ATOM     56  C   UNL A   1      39.857  32.806  36.015  1.00  0.00     0.034 A 
ATOM     57  C   UNL A   1      41.652  28.452  31.467  1.00  0.00     0.049 A 
ATOM     58  C   UNL A   1      40.932  31.752  35.958  1.00  0.00     0.074 A 
ATOM     59  C   UNL A   1      42.699  27.549  31.527  1.00  0.00     0.029 A 
ATOM     60  N   UNL A   1      41.655  29.143  32.673  1.00  0.00    -0.354 N 
ATOM     61  N   UNL A   1      41.214  30.912  34.989  1.00  0.00    -0.248 NA
ATOM     62  C   UNL A   1      41.800  31.627  37.136  1.00  0.00     0.031 C 
ATOM     63  C   UNL A   1      43.305  27.663  32.784  1.00  0.00     0.029 A 
ATOM     64  C   UNL A   1      42.674  28.677  33.487  1.00  0.00     0.049 A 
ATOM     65  H   UNL A   1      41.024  29.860  32.914  1.00  0.00     0.167 HD
ATOM     66  C   UNL A   1      42.312  30.182  35.429  1.00  0.00     0.074 A 
ATOM     67  C   UNL A   1      42.645  30.683  36.747  1.00  0.00     0.031 C 
ATOM     68  C   UNL A   1      42.991  29.190  34.798  1.00  0.00     0.034 A 
BRANCH  55  69
ATOM     69  C   UNL A   1      40.768  27.786  29.175  1.00  0.00     0.023 A 
ATOM     70  C   UNL A   1      41.709  27.995  28.152  1.00  0.00     0.031 A 
ATOM     71  C   UNL A   1      39.832  26.751  29.005  1.00  0.00     0.131 A 
ATOM     72  C   UNL A   1      41.635  27.248  26.968  1.00  0.00     0.055 A 
ATOM     73  C   UNL A   1      39.820  25.951  27.861  1.00  0.00     0.041 A 
ATOM     74  F   UNL A   1      38.896  26.513  29.938  1.00  0.00    -0.206 F 
ATOM     75  C   UNL A   1      40.713  26.209  26.825  1.00  0.00     0.022 A 
BRANCH  72  76
ATOM     76  S   UNL A   1      42.653  27.765  25.558  1.00  0.00     0.124 S 
ATOM     77  O   UNL A   1      42.603  26.577  24.709  1.00  0.00    -0.237 OA
ATOM     78  O   UNL A   1      41.938  28.936  25.064  1.00  0.00    -0.237 OA
ATOM     79  O   UNL A   1      43.957  28.037  26.160  1.00  0.00    -0.744 OA
ENDBRANCH  72  76
ENDBRANCH  55  69
BRANCH  56  80
ATOM     80  C   UNL A   1      39.655  33.620  37.244  1.00  0.00     0.023 A 
ATOM     81  C   UNL A   1      40.427  34.768  37.482  1.00  0.00     0.031 A 
ATOM     82  C   UNL A   1      38.708  33.248  38.214  1.00  0.00     0.131 A 
ATOM     83  C   UNL A   1      40.271  35.481  38.681  1.00  0.00     0.055 A 
ATOM     84  C   UNL A   1      38.527  33.984  39.387  1.00  0.00     0.041 A 
ATOM     85  F   UNL A   1      37.937  32.165  38.028  1.00  0.00    -0.206 F 
ATOM     86  C   UNL A   1      39.319  35.102  39.630  1.00  0.00     0.022 A 
BRANCH  83  87
ATOM     87  S   UNL A   1      41.381  36.877  39.011  1.00  0.00     0.124 S 
ATOM     88  O   UNL A   1      42.122  36.971  37.758  1.00  0.00    -0.237 OA
ATOM     89  O   UNL A   1      40.437  37.956  39.280  1.00  0.00    -0.237 OA
ATOM     90  O   UNL A   1      42.157  36.428  40.164  1.00  0.00    -0.744 OA
ENDBRANCH  83  87
ENDBRANCH  56  80
BRANCH  68  91
ATOM     91  C   UNL A   1      44.194  28.627  35.508  1.00  0.00     0.023 A 
ATOM     92  C   UNL A   1      44.081  27.596  36.456  1.00  0.00     0.031 A 
ATOM     93  C   UNL A   1      45.474  29.139  35.230  1.00  0.00     0.131 A 
ATOM     94  C   UNL A   1      45.226  27.136  37.124  1.00  0.00     0.055 A 
ATOM     95  C   UNL A   1      46.614  28.645  35.863  1.00  0.00     0.041 A 
ATOM     96  F   UNL A   1      45.635  30.125  34.333  1.00  0.00    -0.206 F 
ATOM     97  C   UNL A   1      46.493  27.644  36.824  1.00  0.00     0.022 A 
BRANCH  94  98
ATOM     98  S   UNL A   1      45.030  25.906  38.443  1.00  0.00     0.124 S 
ATOM     99  O   UNL A   1      44.471  26.708  39.526  1.00  0.00    -0.237 OA
ATOM    100  O   UNL A   1      44.125  24.936  37.834  1.00  0.00    -0.237 OA
ATOM    101  O   UNL A   1      46.392  25.425  38.666  1.00  0.00    -0.744 OA
ENDBRANCH  94  98
ENDBRANCH  68  91
ENDBRANCH  42  43
ENDBRANCH  34  37
ENDBRANCH  32  33
ENDBRANCH  31  32
ENDBRANCH   1  31
TORSDOF 19
ENDMDL
