MODEL 1
REMARK VINA RESULT:     -11.4      0.000      0.000
REMARK SMILES C[C@@H](C(=O)NCCCCNC(=O)c1ccc(-c2c3nc(c(-c4cc(S(=O)(=O)[O-])ccc4F)c4ccc([nH]4)c(-c4cc(S(=O)(=O)[O-])ccc4F)c4nc(c(-c5cc(S(=O)(=O)[O-])ccc5F)c5ccc2[nH]5)C=C4)C=C3)cc1)c1cccn(C(F)F)c1=O
REMARK SMILES IDX 8 1 7 2 6 3 5 4 3 5 4 6 2 8 1 9 76 10 77 11 84 12 78 13
REMARK SMILES IDX 80 14 85 15 79 16 81 17 82 18 83 19 9 20 10 21 11 22 12 24
REMARK SMILES IDX 13 25 14 26 75 27 15 28 74 29 16 30 17 31 18 32 68 33 19 34
REMARK SMILES IDX 73 35 67 36 69 37 20 38 72 39 66 40 65 41 21 43 53 44 33 45
REMARK SMILES IDX 52 46 34 47 37 48 51 49 70 50 35 51 36 52 50 54 71 55 38 56
REMARK SMILES IDX 22 57 23 58 31 59 24 60 30 61 32 62 29 63 25 64 26 65 27 66
REMARK SMILES IDX 28 67 54 68 55 69 63 70 56 71 62 72 64 73 61 74 57 75 58 76
REMARK SMILES IDX 59 77 60 78 39 79 40 80 48 81 41 82 47 83 49 84 46 85 42 86
REMARK SMILES IDX 43 87 44 88 45 89
REMARK H PARENT 5 7 10 23 69 42 37 53
REMARK Flexibility Score: inf
ROOT
ATOM      1  C   UNL A   1      31.708  28.870  25.200  1.00  0.00     0.023 C 
ENDROOT
BRANCH   1   2
ATOM      2  C   UNL A   1      31.304  27.611  25.971  1.00  0.00     0.023 C 
BRANCH   2   3
ATOM      3  C   UNL A   1      32.407  26.557  26.124  1.00  0.00     0.116 C 
BRANCH   3   4
ATOM      4  N   UNL A   1      31.935  25.416  26.886  1.00  0.00    -0.356 N 
ATOM      5  C   UNL A   1      31.605  24.159  26.468  1.00  0.00     0.227 C 
ATOM      6  O   UNL A   1      30.934  23.483  27.250  1.00  0.00    -0.274 OA
ATOM      7  H   UNL A   1      31.838  25.573  27.853  1.00  0.00     0.163 HD
BRANCH   5   8
ATOM      8  C   UNL A   1      32.060  23.652  25.075  1.00  0.00     0.111 C 
ATOM      9  C   UNL A   1      30.836  23.712  24.148  1.00  0.00     0.023 C 
BRANCH   8  10
ATOM     10  C   UNL A   1      32.718  22.267  25.103  1.00  0.00     0.030 A 
ATOM     11  C   UNL A   1      32.068  21.089  25.000  1.00  0.00     0.012 A 
ATOM     12  C   UNL A   1      34.221  22.190  25.260  1.00  0.00     0.258 A 
ATOM     13  C   UNL A   1      32.757  19.832  24.867  1.00  0.00     0.019 A 
ATOM     14  N   UNL A   1      34.816  20.963  25.020  1.00  0.00    -0.258 N 
ATOM     15  O   UNL A   1      34.874  23.180  25.588  1.00  0.00    -0.269 OA
ATOM     16  C   UNL A   1      34.091  19.806  24.839  1.00  0.00     0.095 A 
BRANCH  14  17
ATOM     17  C   UNL A   1      36.254  20.905  25.029  1.00  0.00     0.451 C 
ATOM     18  F   UNL A   1      36.660  19.605  25.000  1.00  0.00    -0.185 F 
ATOM     19  F   UNL A   1      36.743  21.474  23.893  1.00  0.00    -0.185 F 
ENDBRANCH  14  17
ENDBRANCH   8  10
ENDBRANCH   5   8
ENDBRANCH   3   4
ENDBRANCH   2   3
ENDBRANCH   1   2
BRANCH   1  20
ATOM     20  C   UNL A   1      32.942  29.584  25.735  1.00  0.00     0.116 C 
BRANCH  20  21
ATOM     21  N   UNL A   1      32.643  30.925  26.209  1.00  0.00    -0.352 N 
ATOM     22  C   UNL A   1      33.265  31.665  27.181  1.00  0.00     0.251 C 
ATOM     23  H   UNL A   1      31.882  31.366  25.767  1.00  0.00     0.163 HD
ATOM     24  O   UNL A   1      32.747  32.719  27.552  1.00  0.00    -0.269 OA
BRANCH  22  25
ATOM     25  C   UNL A   1      34.522  31.191  27.799  1.00  0.00     0.039 A 
ATOM     26  C   UNL A   1      35.553  32.110  28.001  1.00  0.00     0.014 A 
ATOM     27  C   UNL A   1      34.692  29.855  28.176  1.00  0.00     0.014 A 
ATOM     28  C   UNL A   1      36.729  31.703  28.633  1.00  0.00     0.010 A 
ATOM     29  C   UNL A   1      35.833  29.470  28.881  1.00  0.00     0.010 A 
ATOM     30  C   UNL A   1      36.864  30.389  29.116  1.00  0.00    -0.014 A 
BRANCH  30  31
ATOM     31  C   UNL A   1      38.075  29.990  29.881  1.00  0.00     0.031 A 
ATOM     32  C   UNL A   1      38.325  30.535  31.262  1.00  0.00     0.074 A 
ATOM     33  C   UNL A   1      38.958  29.141  29.318  1.00  0.00     0.049 A 
ATOM     34  N   UNL A   1      39.319  30.291  32.077  1.00  0.00    -0.248 NA
ATOM     35  C   UNL A   1      37.345  31.500  31.785  1.00  0.00     0.031 C 
ATOM     36  C   UNL A   1      38.848  28.587  27.964  1.00  0.00     0.029 A 
ATOM     37  N   UNL A   1      40.114  28.588  29.805  1.00  0.00    -0.354 N 
ATOM     38  C   UNL A   1      39.079  31.059  33.211  1.00  0.00     0.074 A 
ATOM     39  C   UNL A   1      37.886  31.834  32.947  1.00  0.00     0.031 C 
ATOM     40  C   UNL A   1      39.871  27.747  27.747  1.00  0.00     0.029 A 
ATOM     41  C   UNL A   1      40.737  27.735  28.921  1.00  0.00     0.049 A 
ATOM     42  H   UNL A   1      40.467  28.783  30.704  1.00  0.00     0.167 HD
ATOM     43  C   UNL A   1      39.772  31.091  34.377  1.00  0.00     0.034 A 
ATOM     44  C   UNL A   1      41.879  27.029  29.039  1.00  0.00     0.034 A 
ATOM     45  C   UNL A   1      40.962  30.314  34.626  1.00  0.00     0.049 A 
ATOM     46  C   UNL A   1      42.645  27.107  30.336  1.00  0.00     0.074 A 
ATOM     47  C   UNL A   1      41.723  30.249  35.780  1.00  0.00     0.029 A 
ATOM     48  N   UNL A   1      41.570  29.469  33.705  1.00  0.00    -0.354 N 
ATOM     49  N   UNL A   1      42.369  27.797  31.420  1.00  0.00    -0.248 NA
ATOM     50  C   UNL A   1      43.864  26.296  30.433  1.00  0.00     0.031 C 
ATOM     51  C   UNL A   1      42.827  29.425  35.535  1.00  0.00     0.029 A 
ATOM     52  C   UNL A   1      42.711  28.904  34.257  1.00  0.00     0.049 A 
ATOM     53  H   UNL A   1      41.239  29.296  32.794  1.00  0.00     0.167 HD
ATOM     54  C   UNL A   1      43.370  27.480  32.334  1.00  0.00     0.074 A 
ATOM     55  C   UNL A   1      44.228  26.509  31.688  1.00  0.00     0.031 C 
ATOM     56  C   UNL A   1      43.570  27.951  33.592  1.00  0.00     0.034 A 
BRANCH  43  57
ATOM     57  C   UNL A   1      39.263  32.004  35.468  1.00  0.00     0.023 A 
ATOM     58  C   UNL A   1      39.703  33.336  35.578  1.00  0.00     0.031 A 
ATOM     59  C   UNL A   1      38.323  31.544  36.407  1.00  0.00     0.131 A 
ATOM     60  C   UNL A   1      39.250  34.140  36.633  1.00  0.00     0.055 A 
ATOM     61  C   UNL A   1      37.816  32.375  37.408  1.00  0.00     0.041 A 
ATOM     62  F   UNL A   1      37.882  30.276  36.369  1.00  0.00    -0.206 F 
ATOM     63  C   UNL A   1      38.286  33.679  37.533  1.00  0.00     0.022 A 
BRANCH  60  64
ATOM     64  S   UNL A   1      40.026  35.760  36.885  1.00  0.00     0.124 S 
ATOM     65  O   UNL A   1      39.654  36.459  35.657  1.00  0.00    -0.237 OA
ATOM     66  O   UNL A   1      39.388  36.231  38.108  1.00  0.00    -0.237 OA
ATOM     67  O   UNL A   1      41.448  35.443  37.006  1.00  0.00    -0.744 OA
ENDBRANCH  60  64
ENDBRANCH  43  57
BRANCH  44  68
ATOM     68  C   UNL A   1      42.388  26.204  27.903  1.00  0.00     0.023 A 
ATOM     69  C   UNL A   1      41.918  24.900  27.681  1.00  0.00     0.031 A 
ATOM     70  C   UNL A   1      43.410  26.684  27.064  1.00  0.00     0.131 A 
ATOM     71  C   UNL A   1      42.515  24.098  26.696  1.00  0.00     0.055 A 
ATOM     72  C   UNL A   1      43.952  25.907  26.039  1.00  0.00     0.041 A 
ATOM     73  F   UNL A   1      43.898  27.925  27.227  1.00  0.00    -0.206 F 
ATOM     74  C   UNL A   1      43.518  24.598  25.863  1.00  0.00     0.022 A 
BRANCH  71  75
ATOM     75  S   UNL A   1      42.050  22.346  26.604  1.00  0.00     0.124 S 
ATOM     76  O   UNL A   1      42.653  21.816  27.821  1.00  0.00    -0.237 OA
ATOM     77  O   UNL A   1      40.593  22.421  26.589  1.00  0.00    -0.237 OA
ATOM     78  O   UNL A   1      42.663  21.898  25.355  1.00  0.00    -0.744 OA
ENDBRANCH  71  75
ENDBRANCH  44  68
BRANCH  56  79
ATOM     79  C   UNL A   1      44.749  27.388  34.350  1.00  0.00     0.023 A 
ATOM     80  C   UNL A   1      44.634  26.226  35.134  1.00  0.00     0.031 A 
ATOM     81  C   UNL A   1      45.991  28.047  34.330  1.00  0.00     0.131 A 
ATOM     82  C   UNL A   1      45.708  25.811  35.935  1.00  0.00     0.055 A 
ATOM     83  C   UNL A   1      47.083  27.583  35.067  1.00  0.00     0.041 A 
ATOM     84  F   UNL A   1      46.163  29.162  33.602  1.00  0.00    -0.206 F 
ATOM     85  C   UNL A   1      46.938  26.472  35.892  1.00  0.00     0.022 A 
BRANCH  82  86
ATOM     86  S   UNL A   1      45.429  24.484  37.140  1.00  0.00     0.124 S 
ATOM     87  O   UNL A   1      46.584  24.627  38.021  1.00  0.00    -0.237 OA
ATOM     88  O   UNL A   1      44.139  24.851  37.714  1.00  0.00    -0.237 OA
ATOM     89  O   UNL A   1      45.421  23.274  36.319  1.00  0.00    -0.744 OA
ENDBRANCH  82  86
ENDBRANCH  56  79
ENDBRANCH  30  31
ENDBRANCH  22  25
ENDBRANCH  20  21
ENDBRANCH   1  20
TORSDOF 16
ENDMDL
MODEL 2
REMARK VINA RESULT:     -11.3      2.469      3.001
REMARK SMILES C[C@@H](C(=O)NCCCCNC(=O)c1ccc(-c2c3nc(c(-c4cc(S(=O)(=O)[O-])ccc4F)c4ccc([nH]4)c(-c4cc(S(=O)(=O)[O-])ccc4F)c4nc(c(-c5cc(S(=O)(=O)[O-])ccc5F)c5ccc2[nH]5)C=C4)C=C3)cc1)c1cccn(C(F)F)c1=O
REMARK SMILES IDX 8 1 7 2 6 3 5 4 3 5 4 6 2 8 1 9 76 10 77 11 84 12 78 13
REMARK SMILES IDX 80 14 85 15 79 16 81 17 82 18 83 19 9 20 10 21 11 22 12 24
REMARK SMILES IDX 13 25 14 26 75 27 15 28 74 29 16 30 17 31 18 32 68 33 19 34
REMARK SMILES IDX 73 35 67 36 69 37 20 38 72 39 66 40 65 41 21 43 53 44 33 45
REMARK SMILES IDX 52 46 34 47 37 48 51 49 70 50 35 51 36 52 50 54 71 55 38 56
REMARK SMILES IDX 22 57 23 58 31 59 24 60 30 61 32 62 29 63 25 64 26 65 27 66
REMARK SMILES IDX 28 67 54 68 55 69 63 70 56 71 62 72 64 73 61 74 57 75 58 76
REMARK SMILES IDX 59 77 60 78 39 79 40 80 48 81 41 82 47 83 49 84 46 85 42 86
REMARK SMILES IDX 43 87 44 88 45 89
REMARK H PARENT 5 7 10 23 69 42 37 53
REMARK Flexibility Score: inf
ROOT
ATOM      1  C   UNL A   1      33.324  27.996  26.908  1.00  0.00     0.023 C 
ENDROOT
BRANCH   1   2
ATOM      2  C   UNL A   1      32.933  26.867  25.951  1.00  0.00     0.023 C 
BRANCH   2   3
ATOM      3  C   UNL A   1      31.482  26.385  26.069  1.00  0.00     0.116 C 
BRANCH   3   4
ATOM      4  N   UNL A   1      31.398  25.181  26.875  1.00  0.00    -0.356 N 
ATOM      5  C   UNL A   1      31.467  23.870  26.501  1.00  0.00     0.227 C 
ATOM      6  O   UNL A   1      31.050  23.048  27.319  1.00  0.00    -0.274 OA
ATOM      7  H   UNL A   1      31.273  25.334  27.839  1.00  0.00     0.163 HD
BRANCH   5   8
ATOM      8  C   UNL A   1      32.034  23.481  25.111  1.00  0.00     0.111 C 
ATOM      9  C   UNL A   1      30.877  23.578  24.105  1.00  0.00     0.023 C 
BRANCH   8  10
ATOM     10  C   UNL A   1      32.732  22.115  25.087  1.00  0.00     0.030 A 
ATOM     11  C   UNL A   1      32.126  20.930  24.864  1.00  0.00     0.012 A 
ATOM     12  C   UNL A   1      34.225  22.069  25.330  1.00  0.00     0.258 A 
ATOM     13  C   UNL A   1      32.861  19.705  24.690  1.00  0.00     0.019 A 
ATOM     14  N   UNL A   1      34.871  20.878  25.045  1.00  0.00    -0.258 N 
ATOM     15  O   UNL A   1      34.826  23.050  25.763  1.00  0.00    -0.269 OA
ATOM     16  C   UNL A   1      34.194  19.717  24.742  1.00  0.00     0.095 A 
BRANCH  14  17
ATOM     17  C   UNL A   1      36.307  20.857  25.138  1.00  0.00     0.451 C 
ATOM     18  F   UNL A   1      36.753  19.573  25.062  1.00  0.00    -0.185 F 
ATOM     19  F   UNL A   1      36.844  21.503  24.067  1.00  0.00    -0.185 F 
ENDBRANCH  14  17
ENDBRANCH   8  10
ENDBRANCH   5   8
ENDBRANCH   3   4
ENDBRANCH   2   3
ENDBRANCH   1   2
BRANCH   1  20
ATOM     20  C   UNL A   1      34.170  29.101  26.291  1.00  0.00     0.116 C 
BRANCH  20  21
ATOM     21  N   UNL A   1      33.816  30.417  26.795  1.00  0.00    -0.352 N 
ATOM     22  C   UNL A   1      34.415  31.168  27.773  1.00  0.00     0.251 C 
ATOM     23  H   UNL A   1      33.028  30.830  26.371  1.00  0.00     0.163 HD
ATOM     24  O   UNL A   1      33.854  32.189  28.171  1.00  0.00    -0.269 OA
BRANCH  22  25
ATOM     25  C   UNL A   1      35.702  30.742  28.364  1.00  0.00     0.039 A 
ATOM     26  C   UNL A   1      35.689  29.739  29.336  1.00  0.00     0.014 A 
ATOM     27  C   UNL A   1      36.914  31.321  27.974  1.00  0.00     0.014 A 
ATOM     28  C   UNL A   1      36.892  29.279  29.871  1.00  0.00     0.010 A 
ATOM     29  C   UNL A   1      38.119  30.803  28.448  1.00  0.00     0.010 A 
ATOM     30  C   UNL A   1      38.121  29.777  29.402  1.00  0.00    -0.014 A 
BRANCH  30  31
ATOM     31  C   UNL A   1      39.403  29.208  29.899  1.00  0.00     0.031 A 
ATOM     32  C   UNL A   1      40.086  29.795  31.105  1.00  0.00     0.074 A 
ATOM     33  C   UNL A   1      39.955  28.166  29.247  1.00  0.00     0.049 A 
ATOM     34  N   UNL A   1      41.199  29.424  31.684  1.00  0.00    -0.248 NA
ATOM     35  C   UNL A   1      39.450  30.966  31.728  1.00  0.00     0.031 C 
ATOM     36  C   UNL A   1      39.411  27.546  28.034  1.00  0.00     0.029 A 
ATOM     37  N   UNL A   1      41.087  27.437  29.507  1.00  0.00    -0.354 N 
ATOM     38  C   UNL A   1      41.391  30.305  32.743  1.00  0.00     0.074 A 
ATOM     39  C   UNL A   1      40.318  31.274  32.679  1.00  0.00     0.031 C 
ATOM     40  C   UNL A   1      40.187  26.510  27.682  1.00  0.00     0.029 A 
ATOM     41  C   UNL A   1      41.310  26.417  28.609  1.00  0.00     0.049 A 
ATOM     42  H   UNL A   1      41.686  27.625  30.267  1.00  0.00     0.167 HD
ATOM     43  C   UNL A   1      42.354  30.287  33.698  1.00  0.00     0.034 A 
ATOM     44  C   UNL A   1      42.307  25.514  28.535  1.00  0.00     0.034 A 
ATOM     45  C   UNL A   1      43.420  29.315  33.747  1.00  0.00     0.049 A 
ATOM     46  C   UNL A   1      43.382  25.538  29.594  1.00  0.00     0.074 A 
ATOM     47  C   UNL A   1      44.429  29.189  34.686  1.00  0.00     0.029 A 
ATOM     48  N   UNL A   1      43.620  28.303  32.815  1.00  0.00    -0.354 N 
ATOM     49  N   UNL A   1      43.513  26.346  30.622  1.00  0.00    -0.248 NA
ATOM     50  C   UNL A   1      44.430  24.515  29.494  1.00  0.00     0.031 C 
ATOM     51  C   UNL A   1      45.277  28.151  34.285  1.00  0.00     0.029 A 
ATOM     52  C   UNL A   1      44.751  27.571  33.143  1.00  0.00     0.049 A 
ATOM     53  H   UNL A   1      43.042  28.132  32.037  1.00  0.00     0.167 HD
ATOM     54  C   UNL A   1      44.646  25.909  31.303  1.00  0.00     0.074 A 
ATOM     55  C   UNL A   1      45.133  24.745  30.592  1.00  0.00     0.031 C 
ATOM     56  C   UNL A   1      45.238  26.423  32.412  1.00  0.00     0.034 A 
BRANCH  43  57
ATOM     57  C   UNL A   1      42.303  31.359  34.762  1.00  0.00     0.023 A 
ATOM     58  C   UNL A   1      42.951  32.596  34.591  1.00  0.00     0.031 A 
ATOM     59  C   UNL A   1      41.596  31.149  35.958  1.00  0.00     0.131 A 
ATOM     60  C   UNL A   1      42.927  33.549  35.620  1.00  0.00     0.055 A 
ATOM     61  C   UNL A   1      41.509  32.132  36.945  1.00  0.00     0.041 A 
ATOM     62  F   UNL A   1      40.976  29.980  36.189  1.00  0.00    -0.206 F 
ATOM     63  C   UNL A   1      42.186  33.337  36.785  1.00  0.00     0.022 A 
BRANCH  60  64
ATOM     64  S   UNL A   1      43.977  35.020  35.465  1.00  0.00     0.124 S 
ATOM     65  O   UNL A   1      45.228  34.439  34.984  1.00  0.00    -0.237 OA
ATOM     66  O   UNL A   1      43.240  35.836  34.508  1.00  0.00    -0.237 OA
ATOM     67  O   UNL A   1      44.028  35.549  36.827  1.00  0.00    -0.744 OA
ENDBRANCH  60  64
ENDBRANCH  43  57
BRANCH  44  68
ATOM     68  C   UNL A   1      42.362  24.526  27.417  1.00  0.00     0.023 A 
ATOM     69  C   UNL A   1      41.623  23.333  27.463  1.00  0.00     0.031 A 
ATOM     70  C   UNL A   1      43.215  24.727  26.317  1.00  0.00     0.131 A 
ATOM     71  C   UNL A   1      41.802  22.359  26.468  1.00  0.00     0.055 A 
ATOM     72  C   UNL A   1      43.337  23.786  25.293  1.00  0.00     0.041 A 
ATOM     73  F   UNL A   1      43.945  25.850  26.218  1.00  0.00    -0.206 F 
ATOM     74  C   UNL A   1      42.643  22.584  25.376  1.00  0.00     0.022 A 
BRANCH  71  75
ATOM     75  S   UNL A   1      41.019  20.737  26.690  1.00  0.00     0.124 S 
ATOM     76  O   UNL A   1      39.761  20.916  25.975  1.00  0.00    -0.237 OA
ATOM     77  O   UNL A   1      41.991  19.845  26.066  1.00  0.00    -0.237 OA
ATOM     78  O   UNL A   1      40.903  20.612  28.142  1.00  0.00    -0.744 OA
ENDBRANCH  71  75
ENDBRANCH  44  68
BRANCH  56  79
ATOM     79  C   UNL A   1      46.459  25.700  32.929  1.00  0.00     0.023 A 
ATOM     80  C   UNL A   1      47.735  25.925  32.382  1.00  0.00     0.031 A 
ATOM     81  C   UNL A   1      46.341  24.736  33.946  1.00  0.00     0.131 A 
ATOM     82  C   UNL A   1      48.821  25.135  32.788  1.00  0.00     0.055 A 
ATOM     83  C   UNL A   1      47.442  24.009  34.404  1.00  0.00     0.041 A 
ATOM     84  F   UNL A   1      45.149  24.475  34.507  1.00  0.00    -0.206 F 
ATOM     85  C   UNL A   1      48.686  24.191  33.809  1.00  0.00     0.022 A 
BRANCH  82  86
ATOM     86  S   UNL A   1      50.377  25.260  31.863  1.00  0.00     0.124 S 
ATOM     87  O   UNL A   1      49.942  25.899  30.625  1.00  0.00    -0.237 OA
ATOM     88  O   UNL A   1      51.199  26.077  32.748  1.00  0.00    -0.237 OA
ATOM     89  O   UNL A   1      50.805  23.869  31.726  1.00  0.00    -0.744 OA
ENDBRANCH  82  86
ENDBRANCH  56  79
ENDBRANCH  30  31
ENDBRANCH  22  25
ENDBRANCH  20  21
ENDBRANCH   1  20
TORSDOF 16
ENDMDL
MODEL 3
REMARK VINA RESULT:     -11.3      4.018      6.850
REMARK SMILES C[C@@H](C(=O)NCCCCNC(=O)c1ccc(-c2c3nc(c(-c4cc(S(=O)(=O)[O-])ccc4F)c4ccc([nH]4)c(-c4cc(S(=O)(=O)[O-])ccc4F)c4nc(c(-c5cc(S(=O)(=O)[O-])ccc5F)c5ccc2[nH]5)C=C4)C=C3)cc1)c1cccn(C(F)F)c1=O
REMARK SMILES IDX 8 1 7 2 6 3 5 4 3 5 4 6 2 8 1 9 76 10 77 11 84 12 78 13
REMARK SMILES IDX 80 14 85 15 79 16 81 17 82 18 83 19 9 20 10 21 11 22 12 24
REMARK SMILES IDX 13 25 14 26 75 27 15 28 74 29 16 30 17 31 18 32 68 33 19 34
REMARK SMILES IDX 73 35 67 36 69 37 20 38 72 39 66 40 65 41 21 43 53 44 33 45
REMARK SMILES IDX 52 46 34 47 37 48 51 49 70 50 35 51 36 52 50 54 71 55 38 56
REMARK SMILES IDX 22 57 23 58 31 59 24 60 30 61 32 62 29 63 25 64 26 65 27 66
REMARK SMILES IDX 28 67 54 68 55 69 63 70 56 71 62 72 64 73 61 74 57 75 58 76
REMARK SMILES IDX 59 77 60 78 39 79 40 80 48 81 41 82 47 83 49 84 46 85 42 86
REMARK SMILES IDX 43 87 44 88 45 89
REMARK H PARENT 5 7 10 23 69 42 37 53
REMARK Flexibility Score: inf
ROOT
ATOM      1  C   UNL A   1      34.512  34.970  28.077  1.00  0.00     0.023 C 
ENDROOT
BRANCH   1   2
ATOM      2  C   UNL A   1      33.223  35.202  28.869  1.00  0.00     0.023 C 
BRANCH   2   3
ATOM      3  C   UNL A   1      33.304  36.295  29.941  1.00  0.00     0.116 C 
BRANCH   3   4
ATOM      4  N   UNL A   1      32.222  36.166  30.898  1.00  0.00    -0.356 N 
ATOM      5  C   UNL A   1      32.248  35.754  32.200  1.00  0.00     0.227 C 
ATOM      6  O   UNL A   1      31.165  35.429  32.691  1.00  0.00    -0.274 OA
ATOM      7  H   UNL A   1      31.332  36.414  30.557  1.00  0.00     0.163 HD
BRANCH   5   8
ATOM      8  C   UNL A   1      33.588  35.702  32.978  1.00  0.00     0.111 C 
ATOM      9  C   UNL A   1      34.432  36.897  32.506  1.00  0.00     0.023 C 
BRANCH   8  10
ATOM     10  C   UNL A   1      34.327  34.364  32.853  1.00  0.00     0.030 A 
ATOM     11  C   UNL A   1      34.211  33.499  31.825  1.00  0.00     0.012 A 
ATOM     12  C   UNL A   1      35.271  33.960  33.965  1.00  0.00     0.258 A 
ATOM     13  C   UNL A   1      35.055  32.341  31.688  1.00  0.00     0.019 A 
ATOM     14  N   UNL A   1      36.116  32.894  33.715  1.00  0.00    -0.258 N 
ATOM     15  O   UNL A   1      35.275  34.559  35.040  1.00  0.00    -0.269 OA
ATOM     16  C   UNL A   1      35.998  32.095  32.598  1.00  0.00     0.095 A 
BRANCH  14  17
ATOM     17  C   UNL A   1      37.114  32.584  34.705  1.00  0.00     0.451 C 
ATOM     18  F   UNL A   1      37.677  31.376  34.427  1.00  0.00    -0.185 F 
ATOM     19  F   UNL A   1      38.125  33.492  34.637  1.00  0.00    -0.185 F 
ENDBRANCH  14  17
ENDBRANCH   8  10
ENDBRANCH   5   8
ENDBRANCH   3   4
ENDBRANCH   2   3
ENDBRANCH   1   2
BRANCH   1  20
ATOM     20  C   UNL A   1      35.090  33.566  28.181  1.00  0.00     0.116 C 
BRANCH  20  21
ATOM     21  N   UNL A   1      34.101  32.538  27.907  1.00  0.00    -0.352 N 
ATOM     22  C   UNL A   1      34.246  31.175  27.867  1.00  0.00     0.251 C 
ATOM     23  H   UNL A   1      33.192  32.869  27.724  1.00  0.00     0.163 HD
ATOM     24  O   UNL A   1      33.316  30.487  27.445  1.00  0.00    -0.269 OA
BRANCH  22  25
ATOM     25  C   UNL A   1      35.513  30.541  28.292  1.00  0.00     0.039 A 
ATOM     26  C   UNL A   1      36.637  30.688  27.478  1.00  0.00     0.014 A 
ATOM     27  C   UNL A   1      35.600  29.806  29.479  1.00  0.00     0.014 A 
ATOM     28  C   UNL A   1      37.859  30.148  27.882  1.00  0.00     0.010 A 
ATOM     29  C   UNL A   1      36.838  29.340  29.921  1.00  0.00     0.010 A 
ATOM     30  C   UNL A   1      37.981  29.505  29.127  1.00  0.00    -0.014 A 
BRANCH  30  31
ATOM     31  C   UNL A   1      39.307  29.025  29.599  1.00  0.00     0.031 A 
ATOM     32  C   UNL A   1      40.013  29.717  30.734  1.00  0.00     0.074 A 
ATOM     33  C   UNL A   1      39.879  27.968  28.989  1.00  0.00     0.049 A 
ATOM     34  N   UNL A   1      41.166  29.433  31.284  1.00  0.00    -0.248 NA
ATOM     35  C   UNL A   1      39.350  30.897  31.312  1.00  0.00     0.031 C 
ATOM     36  C   UNL A   1      39.313  27.250  27.842  1.00  0.00     0.029 A 
ATOM     37  N   UNL A   1      41.054  27.308  29.241  1.00  0.00    -0.354 N 
ATOM     38  C   UNL A   1      41.361  30.386  32.277  1.00  0.00     0.074 A 
ATOM     39  C   UNL A   1      40.243  31.302  32.202  1.00  0.00     0.031 C 
ATOM     40  C   UNL A   1      40.121  26.228  27.519  1.00  0.00     0.029 A 
ATOM     41  C   UNL A   1      41.285  26.244  28.398  1.00  0.00     0.049 A 
ATOM     42  H   UNL A   1      41.675  27.570  29.960  1.00  0.00     0.167 HD
ATOM     43  C   UNL A   1      42.364  30.472  33.186  1.00  0.00     0.034 A 
ATOM     44  C   UNL A   1      42.319  25.382  28.335  1.00  0.00     0.034 A 
ATOM     45  C   UNL A   1      43.475  29.552  33.246  1.00  0.00     0.049 A 
ATOM     46  C   UNL A   1      43.436  25.520  29.340  1.00  0.00     0.074 A 
ATOM     47  C   UNL A   1      44.528  29.531  34.145  1.00  0.00     0.029 A 
ATOM     48  N   UNL A   1      43.682  28.493  32.371  1.00  0.00    -0.354 N 
ATOM     49  N   UNL A   1      43.573  26.397  30.310  1.00  0.00    -0.248 NA
ATOM     50  C   UNL A   1      44.525  24.540  29.256  1.00  0.00     0.031 C 
ATOM     51  C   UNL A   1      45.406  28.508  33.771  1.00  0.00     0.029 A 
ATOM     52  C   UNL A   1      44.860  27.833  32.691  1.00  0.00     0.049 A 
ATOM     53  H   UNL A   1      43.081  28.247  31.632  1.00  0.00     0.167 HD
ATOM     54  C   UNL A   1      44.753  26.054  30.964  1.00  0.00     0.074 A 
ATOM     55  C   UNL A   1      45.263  24.870  30.304  1.00  0.00     0.031 C 
ATOM     56  C   UNL A   1      45.367  26.664  32.011  1.00  0.00     0.034 A 
BRANCH  43  57
ATOM     57  C   UNL A   1      42.309  31.606  34.183  1.00  0.00     0.023 A 
ATOM     58  C   UNL A   1      41.493  31.542  35.327  1.00  0.00     0.031 A 
ATOM     59  C   UNL A   1      43.085  32.764  33.995  1.00  0.00     0.131 A 
ATOM     60  C   UNL A   1      41.427  32.633  36.204  1.00  0.00     0.055 A 
ATOM     61  C   UNL A   1      43.074  33.814  34.914  1.00  0.00     0.041 A 
ATOM     62  F   UNL A   1      43.866  32.895  32.911  1.00  0.00    -0.206 F 
ATOM     63  C   UNL A   1      42.233  33.758  36.022  1.00  0.00     0.022 A 
BRANCH  60  64
ATOM     64  S   UNL A   1      40.181  32.612  37.523  1.00  0.00     0.124 S 
ATOM     65  O   UNL A   1      39.305  31.528  37.082  1.00  0.00    -0.237 OA
ATOM     66  O   UNL A   1      40.982  32.344  38.711  1.00  0.00    -0.237 OA
ATOM     67  O   UNL A   1      39.589  33.947  37.456  1.00  0.00    -0.744 OA
ENDBRANCH  60  64
ENDBRANCH  43  57
BRANCH  44  68
ATOM     68  C   UNL A   1      42.372  24.328  27.279  1.00  0.00     0.023 A 
ATOM     69  C   UNL A   1      41.594  23.163  27.373  1.00  0.00     0.031 A 
ATOM     70  C   UNL A   1      43.260  24.438  26.194  1.00  0.00     0.131 A 
ATOM     71  C   UNL A   1      41.769  22.127  26.443  1.00  0.00     0.055 A 
ATOM     72  C   UNL A   1      43.379  23.434  25.230  1.00  0.00     0.041 A 
ATOM     73  F   UNL A   1      44.027  25.530  26.050  1.00  0.00    -0.206 F 
ATOM     74  C   UNL A   1      42.645  22.261  25.363  1.00  0.00     0.022 A 
BRANCH  71  75
ATOM     75  S   UNL A   1      40.929  20.545  26.737  1.00  0.00     0.124 S 
ATOM     76  O   UNL A   1      39.663  20.749  26.043  1.00  0.00    -0.237 OA
ATOM     77  O   UNL A   1      41.852  19.595  26.123  1.00  0.00    -0.237 OA
ATOM     78  O   UNL A   1      40.841  20.474  28.195  1.00  0.00    -0.744 OA
ENDBRANCH  71  75
ENDBRANCH  44  68
BRANCH  56  79
ATOM     79  C   UNL A   1      46.642  26.028  32.516  1.00  0.00     0.023 A 
ATOM     80  C   UNL A   1      46.623  25.010  33.486  1.00  0.00     0.031 A 
ATOM     81  C   UNL A   1      47.893  26.479  32.060  1.00  0.00     0.131 A 
ATOM     82  C   UNL A   1      47.827  24.543  34.034  1.00  0.00     0.055 A 
ATOM     83  C   UNL A   1      49.089  25.952  32.551  1.00  0.00     0.041 A 
ATOM     84  F   UNL A   1      47.976  27.450  31.135  1.00  0.00    -0.206 F 
ATOM     85  C   UNL A   1      49.060  24.994  33.559  1.00  0.00     0.022 A 
BRANCH  82  86
ATOM     86  S   UNL A   1      47.753  23.443  35.475  1.00  0.00     0.124 S 
ATOM     87  O   UNL A   1      48.903  23.889  36.255  1.00  0.00    -0.237 OA
ATOM     88  O   UNL A   1      46.443  23.754  36.037  1.00  0.00    -0.237 OA
ATOM     89  O   UNL A   1      47.877  22.108  34.893  1.00  0.00    -0.744 OA
ENDBRANCH  82  86
ENDBRANCH  56  79
ENDBRANCH  30  31
ENDBRANCH  22  25
ENDBRANCH  20  21
ENDBRANCH   1  20
TORSDOF 16
ENDMDL
