MODEL 1
REMARK VINA RESULT:     -10.9      0.000      0.000
REMARK SMILES CC1(C)CCC(CCCO)(C(=O)NCCCCNC(=O)c2ccc(-c3c4nc(c(-c5cc(S(=O)(=O)[O-])ccc5F)c5ccc([nH]5)c(-c5cc(S(=O)(=O)[O-])ccc5F)c5nc(c(-c6cc(S(=O)(=O)[O-])ccc6F)c6ccc3[nH]6)C=C5)C=C4)cc2)CC1
REMARK SMILES IDX 15 1 14 2 13 3 11 4 12 5 6 7 1 8 2 9 3 10 4 11 85 12 5 13
REMARK SMILES IDX 84 14 7 15 8 16 9 17 10 18 16 20 17 21 18 22 19 23 20 25
REMARK SMILES IDX 21 26 22 27 83 28 23 29 82 30 24 31 25 32 26 33 76 34 27 35
REMARK SMILES IDX 81 36 75 37 77 38 28 39 80 40 74 41 73 42 29 44 61 45 41 46
REMARK SMILES IDX 60 47 42 48 45 49 59 50 78 51 43 52 44 53 58 55 79 56 46 57
REMARK SMILES IDX 30 58 31 59 39 60 32 61 38 62 40 63 37 64 33 65 34 66 35 67
REMARK SMILES IDX 36 68 62 69 63 70 71 71 64 72 70 73 72 74 69 75 65 76 66 77
REMARK SMILES IDX 67 78 68 79 47 80 48 81 56 82 49 83 55 84 57 85 54 86 50 87
REMARK SMILES IDX 51 88 52 89 53 90
REMARK H PARENT 13 6 10 19 18 24 77 43 45 54
REMARK Flexibility Score: inf
ROOT
ATOM      1  C   UNL A   1      31.758  27.938  26.727  1.00  0.00     0.023 C 
ENDROOT
BRANCH   1   2
ATOM      2  C   UNL A   1      32.977  27.064  26.461  1.00  0.00     0.116 C 
BRANCH   2   3
ATOM      3  N   UNL A   1      33.123  26.687  25.068  1.00  0.00    -0.356 N 
ATOM      4  C   UNL A   1      32.935  25.516  24.401  1.00  0.00     0.226 C 
ATOM      5  O   UNL A   1      32.793  25.626  23.178  1.00  0.00    -0.274 OA
ATOM      6  H   UNL A   1      33.418  27.427  24.488  1.00  0.00     0.163 HD
BRANCH   4   7
ATOM      7  C   UNL A   1      32.837  24.130  25.084  1.00  0.00     0.049 C 
ATOM      8  C   UNL A   1      35.523  21.353  24.738  1.00  0.00     0.011 C 
ATOM      9  C   UNL A   1      35.441  22.770  24.135  1.00  0.00    -0.035 C 
ATOM     10  C   UNL A   1      36.715  23.000  23.299  1.00  0.00     0.011 C 
ATOM     11  C   UNL A   1      34.211  22.905  23.216  1.00  0.00     0.007 C 
ATOM     12  C   UNL A   1      35.372  23.821  25.261  1.00  0.00     0.007 C 
ATOM     13  C   UNL A   1      32.875  23.027  23.960  1.00  0.00     0.017 C 
ATOM     14  C   UNL A   1      34.032  23.789  26.008  1.00  0.00     0.017 C 
BRANCH   7  15
ATOM     15  C   UNL A   1      31.457  23.924  25.790  1.00  0.00     0.019 C 
BRANCH  15  16
ATOM     16  C   UNL A   1      30.851  22.529  25.984  1.00  0.00     0.029 C 
BRANCH  16  17
ATOM     17  C   UNL A   1      29.512  22.473  26.722  1.00  0.00     0.156 C 
BRANCH  17  18
ATOM     18  O   UNL A   1      29.279  23.675  27.440  1.00  0.00    -0.396 OA
ATOM     19  H   UNL A   1      29.229  24.419  26.819  1.00  0.00     0.210 HD
ENDBRANCH  17  18
ENDBRANCH  16  17
ENDBRANCH  15  16
ENDBRANCH   7  15
ENDBRANCH   4   7
ENDBRANCH   2   3
ENDBRANCH   1   2
BRANCH   1  20
ATOM     20  C   UNL A   1      31.578  29.099  25.748  1.00  0.00     0.023 C 
BRANCH  20  21
ATOM     21  C   UNL A   1      32.674  30.160  25.777  1.00  0.00     0.116 C 
BRANCH  21  22
ATOM     22  N   UNL A   1      32.228  31.438  26.314  1.00  0.00    -0.352 N 
ATOM     23  C   UNL A   1      32.860  32.251  27.230  1.00  0.00     0.251 C 
ATOM     24  H   UNL A   1      31.361  31.764  25.978  1.00  0.00     0.163 HD
ATOM     25  O   UNL A   1      32.309  33.252  27.659  1.00  0.00    -0.269 OA
BRANCH  23  26
ATOM     26  C   UNL A   1      34.199  31.853  27.710  1.00  0.00     0.039 A 
ATOM     27  C   UNL A   1      35.198  32.823  27.815  1.00  0.00     0.014 A 
ATOM     28  C   UNL A   1      34.421  30.546  28.148  1.00  0.00     0.014 A 
ATOM     29  C   UNL A   1      36.401  32.500  28.448  1.00  0.00     0.010 A 
ATOM     30  C   UNL A   1      35.589  30.249  28.839  1.00  0.00     0.010 A 
ATOM     31  C   UNL A   1      36.586  31.226  29.007  1.00  0.00    -0.014 A 
BRANCH  31  32
ATOM     32  C   UNL A   1      37.814  30.866  29.760  1.00  0.00     0.031 A 
ATOM     33  C   UNL A   1      38.767  29.865  29.170  1.00  0.00     0.074 A 
ATOM     34  C   UNL A   1      38.017  31.349  31.002  1.00  0.00     0.049 A 
ATOM     35  N   UNL A   1      39.781  29.255  29.727  1.00  0.00    -0.248 NA
ATOM     36  C   UNL A   1      38.512  29.470  27.777  1.00  0.00     0.031 C 
ATOM     37  C   UNL A   1      37.154  32.312  31.690  1.00  0.00     0.029 A 
ATOM     38  N   UNL A   1      39.002  31.076  31.918  1.00  0.00    -0.354 N 
ATOM     39  C   UNL A   1      40.267  28.380  28.761  1.00  0.00     0.074 A 
ATOM     40  C   UNL A   1      39.401  28.503  27.608  1.00  0.00     0.031 C 
ATOM     41  C   UNL A   1      37.655  32.556  32.913  1.00  0.00     0.029 A 
ATOM     42  C   UNL A   1      38.839  31.729  33.119  1.00  0.00     0.049 A 
ATOM     43  H   UNL A   1      39.756  30.470  31.734  1.00  0.00     0.167 HD
ATOM     44  C   UNL A   1      41.349  27.563  28.825  1.00  0.00     0.034 A 
ATOM     45  C   UNL A   1      39.549  31.649  34.263  1.00  0.00     0.034 A 
ATOM     46  C   UNL A   1      42.213  27.473  29.974  1.00  0.00     0.049 A 
ATOM     47  C   UNL A   1      40.735  30.718  34.323  1.00  0.00     0.074 A 
ATOM     48  C   UNL A   1      43.357  26.711  30.138  1.00  0.00     0.029 A 
ATOM     49  N   UNL A   1      42.029  28.172  31.161  1.00  0.00    -0.354 N 
ATOM     50  N   UNL A   1      41.193  29.905  33.398  1.00  0.00    -0.248 NA
ATOM     51  C   UNL A   1      41.502  30.695  35.575  1.00  0.00     0.031 C 
ATOM     52  C   UNL A   1      43.833  26.908  31.438  1.00  0.00     0.029 A 
ATOM     53  C   UNL A   1      43.027  27.845  32.064  1.00  0.00     0.049 A 
ATOM     54  H   UNL A   1      41.297  28.806  31.336  1.00  0.00     0.167 HD
ATOM     55  C   UNL A   1      42.325  29.309  33.943  1.00  0.00     0.074 A 
ATOM     56  C   UNL A   1      42.478  29.848  35.278  1.00  0.00     0.031 C 
ATOM     57  C   UNL A   1      43.171  28.406  33.386  1.00  0.00     0.034 A 
BRANCH  44  58
ATOM     58  C   UNL A   1      41.626  26.693  27.625  1.00  0.00     0.023 A 
ATOM     59  C   UNL A   1      41.285  25.330  27.609  1.00  0.00     0.031 A 
ATOM     60  C   UNL A   1      42.285  27.219  26.498  1.00  0.00     0.131 A 
ATOM     61  C   UNL A   1      41.686  24.519  26.537  1.00  0.00     0.055 A 
ATOM     62  C   UNL A   1      42.600  26.425  25.395  1.00  0.00     0.041 A 
ATOM     63  F   UNL A   1      42.654  28.509  26.462  1.00  0.00    -0.206 F 
ATOM     64  C   UNL A   1      42.318  25.062  25.418  1.00  0.00     0.022 A 
BRANCH  61  65
ATOM     65  S   UNL A   1      41.512  22.721  26.705  1.00  0.00     0.124 S 
ATOM     66  O   UNL A   1      40.085  22.590  26.988  1.00  0.00    -0.237 OA
ATOM     67  O   UNL A   1      41.952  22.239  25.400  1.00  0.00    -0.237 OA
ATOM     68  O   UNL A   1      42.395  22.395  27.822  1.00  0.00    -0.744 OA
ENDBRANCH  61  65
ENDBRANCH  44  58
BRANCH  45  69
ATOM     69  C   UNL A   1      39.160  32.458  35.453  1.00  0.00     0.023 A 
ATOM     70  C   UNL A   1      39.636  33.767  35.621  1.00  0.00     0.031 A 
ATOM     71  C   UNL A   1      38.337  31.921  36.460  1.00  0.00     0.131 A 
ATOM     72  C   UNL A   1      39.324  34.481  36.788  1.00  0.00     0.055 A 
ATOM     73  C   UNL A   1      37.990  32.653  37.597  1.00  0.00     0.041 A 
ATOM     74  F   UNL A   1      37.850  30.676  36.346  1.00  0.00    -0.206 F 
ATOM     75  C   UNL A   1      38.495  33.938  37.772  1.00  0.00     0.022 A 
BRANCH  72  76
ATOM     76  S   UNL A   1      40.085  36.110  37.039  1.00  0.00     0.124 S 
ATOM     77  O   UNL A   1      39.385  36.582  38.228  1.00  0.00    -0.237 OA
ATOM     78  O   UNL A   1      41.491  35.762  37.215  1.00  0.00    -0.237 OA
ATOM     79  O   UNL A   1      39.771  36.825  35.804  1.00  0.00    -0.744 OA
ENDBRANCH  72  76
ENDBRANCH  45  69
BRANCH  57  80
ATOM     80  C   UNL A   1      44.383  28.007  34.187  1.00  0.00     0.023 A 
ATOM     81  C   UNL A   1      44.376  26.900  35.051  1.00  0.00     0.031 A 
ATOM     82  C   UNL A   1      45.577  28.738  34.050  1.00  0.00     0.131 A 
ATOM     83  C   UNL A   1      45.535  26.572  35.770  1.00  0.00     0.055 A 
ATOM     84  C   UNL A   1      46.739  28.381  34.733  1.00  0.00     0.041 A 
ATOM     85  F   UNL A   1      45.634  29.805  33.235  1.00  0.00    -0.206 F 
ATOM     86  C   UNL A   1      46.720  27.295  35.604  1.00  0.00     0.022 A 
BRANCH  83  87
ATOM     87  S   UNL A   1      45.470  25.206  36.962  1.00  0.00     0.124 S 
ATOM     88  O   UNL A   1      44.033  25.031  37.143  1.00  0.00    -0.237 OA
ATOM     89  O   UNL A   1      46.158  24.135  36.250  1.00  0.00    -0.237 OA
ATOM     90  O   UNL A   1      46.183  25.731  38.126  1.00  0.00    -0.744 OA
ENDBRANCH  83  87
ENDBRANCH  57  80
ENDBRANCH  31  32
ENDBRANCH  23  26
ENDBRANCH  21  22
ENDBRANCH  20  21
ENDBRANCH   1  20
TORSDOF 18
ENDMDL
MODEL 2
REMARK VINA RESULT:     -10.8      2.560      3.677
REMARK SMILES CC1(C)CCC(CCCO)(C(=O)NCCCCNC(=O)c2ccc(-c3c4nc(c(-c5cc(S(=O)(=O)[O-])ccc5F)c5ccc([nH]5)c(-c5cc(S(=O)(=O)[O-])ccc5F)c5nc(c(-c6cc(S(=O)(=O)[O-])ccc6F)c6ccc3[nH]6)C=C5)C=C4)cc2)CC1
REMARK SMILES IDX 15 1 14 2 13 3 11 4 12 5 6 7 1 8 2 9 3 10 4 11 85 12 5 13
REMARK SMILES IDX 84 14 7 15 8 16 9 17 10 18 16 20 17 21 18 22 19 23 20 25
REMARK SMILES IDX 21 26 22 27 83 28 23 29 82 30 24 31 25 32 26 33 76 34 27 35
REMARK SMILES IDX 81 36 75 37 77 38 28 39 80 40 74 41 73 42 29 44 61 45 41 46
REMARK SMILES IDX 60 47 42 48 45 49 59 50 78 51 43 52 44 53 58 55 79 56 46 57
REMARK SMILES IDX 30 58 31 59 39 60 32 61 38 62 40 63 37 64 33 65 34 66 35 67
REMARK SMILES IDX 36 68 62 69 63 70 71 71 64 72 70 73 72 74 69 75 65 76 66 77
REMARK SMILES IDX 67 78 68 79 47 80 48 81 56 82 49 83 55 84 57 85 54 86 50 87
REMARK SMILES IDX 51 88 52 89 53 90
REMARK H PARENT 13 6 10 19 18 24 77 43 45 54
REMARK Flexibility Score: inf
ROOT
ATOM      1  C   UNL A   1      34.303  31.052  27.554  1.00  0.00     0.023 C 
ENDROOT
BRANCH   1   2
ATOM      2  C   UNL A   1      34.053  29.597  27.177  1.00  0.00     0.116 C 
BRANCH   2   3
ATOM      3  N   UNL A   1      32.792  29.081  27.674  1.00  0.00    -0.356 N 
ATOM      4  C   UNL A   1      31.864  28.238  27.145  1.00  0.00     0.226 C 
ATOM      5  O   UNL A   1      31.097  27.720  27.965  1.00  0.00    -0.274 OA
ATOM      6  H   UNL A   1      32.562  29.404  28.575  1.00  0.00     0.163 HD
BRANCH   4   7
ATOM      7  C   UNL A   1      31.771  27.877  25.643  1.00  0.00     0.049 C 
ATOM      8  C   UNL A   1      32.810  24.439  24.177  1.00  0.00     0.011 C 
ATOM      9  C   UNL A   1      32.840  24.980  25.621  1.00  0.00    -0.035 C 
ATOM     10  C   UNL A   1      33.366  23.857  26.534  1.00  0.00     0.011 C 
ATOM     11  C   UNL A   1      33.782  26.196  25.733  1.00  0.00     0.007 C 
ATOM     12  C   UNL A   1      31.418  25.377  26.066  1.00  0.00     0.007 C 
ATOM     13  C   UNL A   1      33.214  27.493  25.142  1.00  0.00     0.017 C 
ATOM     14  C   UNL A   1      30.907  26.628  25.340  1.00  0.00     0.017 C 
BRANCH   7  15
ATOM     15  C   UNL A   1      31.368  29.109  24.769  1.00  0.00     0.019 C 
BRANCH  15  16
ATOM     16  C   UNL A   1      31.212  29.004  23.248  1.00  0.00     0.029 C 
BRANCH  16  17
ATOM     17  C   UNL A   1      30.020  29.745  22.639  1.00  0.00     0.156 C 
BRANCH  17  18
ATOM     18  O   UNL A   1      30.219  29.971  21.252  1.00  0.00    -0.396 OA
ATOM     19  H   UNL A   1      30.291  29.120  20.793  1.00  0.00     0.210 HD
ENDBRANCH  17  18
ENDBRANCH  16  17
ENDBRANCH  15  16
ENDBRANCH   7  15
ENDBRANCH   4   7
ENDBRANCH   2   3
ENDBRANCH   1   2
BRANCH   1  20
ATOM     20  C   UNL A   1      33.044  31.915  27.642  1.00  0.00     0.023 C 
BRANCH  20  21
ATOM     21  C   UNL A   1      33.203  33.359  27.178  1.00  0.00     0.116 C 
BRANCH  21  22
ATOM     22  N   UNL A   1      32.735  34.335  28.152  1.00  0.00    -0.352 N 
ATOM     23  C   UNL A   1      33.246  34.612  29.402  1.00  0.00     0.251 C 
ATOM     24  H   UNL A   1      31.951  34.866  27.883  1.00  0.00     0.163 HD
ATOM     25  O   UNL A   1      32.679  35.395  30.146  1.00  0.00    -0.269 OA
BRANCH  23  26
ATOM     26  C   UNL A   1      34.468  33.902  29.829  1.00  0.00     0.039 A 
ATOM     27  C   UNL A   1      35.707  34.329  29.344  1.00  0.00     0.014 A 
ATOM     28  C   UNL A   1      34.386  32.889  30.786  1.00  0.00     0.014 A 
ATOM     29  C   UNL A   1      36.877  33.796  29.889  1.00  0.00     0.010 A 
ATOM     30  C   UNL A   1      35.551  32.412  31.375  1.00  0.00     0.010 A 
ATOM     31  C   UNL A   1      36.807  32.869  30.941  1.00  0.00    -0.014 A 
BRANCH  31  32
ATOM     32  C   UNL A   1      38.025  32.339  31.606  1.00  0.00     0.031 A 
ATOM     33  C   UNL A   1      38.797  31.233  30.944  1.00  0.00     0.074 A 
ATOM     34  C   UNL A   1      38.370  32.768  32.837  1.00  0.00     0.049 A 
ATOM     35  N   UNL A   1      39.757  30.486  31.424  1.00  0.00    -0.248 NA
ATOM     36  C   UNL A   1      38.402  30.900  29.567  1.00  0.00     0.031 C 
ATOM     37  C   UNL A   1      37.688  33.822  33.590  1.00  0.00     0.029 A 
ATOM     38  N   UNL A   1      39.370  32.353  33.681  1.00  0.00    -0.354 N 
ATOM     39  C   UNL A   1      40.060  29.573  30.420  1.00  0.00     0.074 A 
ATOM     40  C   UNL A   1      39.143  29.829  29.329  1.00  0.00     0.031 C 
ATOM     41  C   UNL A   1      38.296  33.977  34.778  1.00  0.00     0.029 A 
ATOM     42  C   UNL A   1      39.373  32.999  34.896  1.00  0.00     0.049 A 
ATOM     43  H   UNL A   1      40.024  31.657  33.440  1.00  0.00     0.167 HD
ATOM     44  C   UNL A   1      41.027  28.622  30.402  1.00  0.00     0.034 A 
ATOM     45  C   UNL A   1      40.140  32.807  35.988  1.00  0.00     0.034 A 
ATOM     46  C   UNL A   1      41.946  28.399  31.489  1.00  0.00     0.049 A 
ATOM     47  C   UNL A   1      41.195  31.728  35.959  1.00  0.00     0.074 A 
ATOM     48  C   UNL A   1      42.988  27.492  31.568  1.00  0.00     0.029 A 
ATOM     49  N   UNL A   1      41.933  29.094  32.693  1.00  0.00    -0.354 N 
ATOM     50  N   UNL A   1      41.481  30.880  34.997  1.00  0.00    -0.248 NA
ATOM     51  C   UNL A   1      42.033  31.582  37.156  1.00  0.00     0.031 C 
ATOM     52  C   UNL A   1      43.571  27.601  32.835  1.00  0.00     0.029 A 
ATOM     53  C   UNL A   1      42.938  28.624  33.523  1.00  0.00     0.049 A 
ATOM     54  H   UNL A   1      41.304  29.814  32.922  1.00  0.00     0.167 HD
ATOM     55  C   UNL A   1      42.558  30.132  35.459  1.00  0.00     0.074 A 
ATOM     56  C   UNL A   1      42.869  30.622  36.786  1.00  0.00     0.031 C 
ATOM     57  C   UNL A   1      43.240  29.137  34.837  1.00  0.00     0.034 A 
BRANCH  44  58
ATOM     58  C   UNL A   1      41.108  27.745  29.177  1.00  0.00     0.023 A 
ATOM     59  C   UNL A   1      42.085  27.952  28.188  1.00  0.00     0.031 A 
ATOM     60  C   UNL A   1      40.167  26.721  28.969  1.00  0.00     0.131 A 
ATOM     61  C   UNL A   1      42.042  27.212  26.997  1.00  0.00     0.055 A 
ATOM     62  C   UNL A   1      40.186  25.927  27.821  1.00  0.00     0.041 A 
ATOM     63  F   UNL A   1      39.198  26.489  29.868  1.00  0.00    -0.206 F 
ATOM     64  C   UNL A   1      41.116  26.184  26.817  1.00  0.00     0.022 A 
BRANCH  61  65
ATOM     65  S   UNL A   1      43.111  27.728  25.625  1.00  0.00     0.124 S 
ATOM     66  O   UNL A   1      43.663  26.447  25.187  1.00  0.00    -0.237 OA
ATOM     67  O   UNL A   1      42.168  28.362  24.711  1.00  0.00    -0.237 OA
ATOM     68  O   UNL A   1      44.072  28.628  26.258  1.00  0.00    -0.744 OA
ENDBRANCH  61  65
ENDBRANCH  44  58
BRANCH  45  69
ATOM     69  C   UNL A   1      39.939  33.637  37.210  1.00  0.00     0.023 A 
ATOM     70  C   UNL A   1      39.169  33.164  38.284  1.00  0.00     0.031 A 
ATOM     71  C   UNL A   1      40.481  34.931  37.307  1.00  0.00     0.131 A 
ATOM     72  C   UNL A   1      38.924  33.993  39.389  1.00  0.00     0.055 A 
ATOM     73  C   UNL A   1      40.275  35.734  38.431  1.00  0.00     0.041 A 
ATOM     74  F   UNL A   1      41.231  35.430  36.312  1.00  0.00    -0.206 F 
ATOM     75  C   UNL A   1      39.481  35.270  39.475  1.00  0.00     0.022 A 
BRANCH  72  76
ATOM     76  S   UNL A   1      37.797  33.404  40.683  1.00  0.00     0.124 S 
ATOM     77  O   UNL A   1      37.449  34.647  41.361  1.00  0.00    -0.237 OA
ATOM     78  O   UNL A   1      36.736  32.780  39.899  1.00  0.00    -0.237 OA
ATOM     79  O   UNL A   1      38.623  32.480  41.458  1.00  0.00    -0.744 OA
ENDBRANCH  72  76
ENDBRANCH  45  69
BRANCH  57  80
ATOM     80  C   UNL A   1      44.440  28.569  35.550  1.00  0.00     0.023 A 
ATOM     81  C   UNL A   1      44.320  27.591  36.551  1.00  0.00     0.031 A 
ATOM     82  C   UNL A   1      45.730  28.999  35.189  1.00  0.00     0.131 A 
ATOM     83  C   UNL A   1      45.472  27.095  37.180  1.00  0.00     0.055 A 
ATOM     84  C   UNL A   1      46.874  28.470  35.786  1.00  0.00     0.041 A 
ATOM     85  F   UNL A   1      45.896  29.931  34.236  1.00  0.00    -0.206 F 
ATOM     86  C   UNL A   1      46.748  27.516  36.792  1.00  0.00     0.022 A 
BRANCH  83  87
ATOM     87  S   UNL A   1      45.287  25.916  38.545  1.00  0.00     0.124 S 
ATOM     88  O   UNL A   1      46.604  25.967  39.171  1.00  0.00    -0.237 OA
ATOM     89  O   UNL A   1      44.192  26.498  39.316  1.00  0.00    -0.237 OA
ATOM     90  O   UNL A   1      44.968  24.658  37.872  1.00  0.00    -0.744 OA
ENDBRANCH  83  87
ENDBRANCH  57  80
ENDBRANCH  31  32
ENDBRANCH  23  26
ENDBRANCH  21  22
ENDBRANCH  20  21
ENDBRANCH   1  20
TORSDOF 18
ENDMDL
MODEL 3
REMARK VINA RESULT:     -10.8      1.833      2.616
REMARK SMILES CC1(C)CCC(CCCO)(C(=O)NCCCCNC(=O)c2ccc(-c3c4nc(c(-c5cc(S(=O)(=O)[O-])ccc5F)c5ccc([nH]5)c(-c5cc(S(=O)(=O)[O-])ccc5F)c5nc(c(-c6cc(S(=O)(=O)[O-])ccc6F)c6ccc3[nH]6)C=C5)C=C4)cc2)CC1
REMARK SMILES IDX 15 1 14 2 13 3 11 4 12 5 6 7 1 8 2 9 3 10 4 11 85 12 5 13
REMARK SMILES IDX 84 14 7 15 8 16 9 17 10 18 16 20 17 21 18 22 19 23 20 25
REMARK SMILES IDX 21 26 22 27 83 28 23 29 82 30 24 31 25 32 26 33 76 34 27 35
REMARK SMILES IDX 81 36 75 37 77 38 28 39 80 40 74 41 73 42 29 44 61 45 41 46
REMARK SMILES IDX 60 47 42 48 45 49 59 50 78 51 43 52 44 53 58 55 79 56 46 57
REMARK SMILES IDX 30 58 31 59 39 60 32 61 38 62 40 63 37 64 33 65 34 66 35 67
REMARK SMILES IDX 36 68 62 69 63 70 71 71 64 72 70 73 72 74 69 75 65 76 66 77
REMARK SMILES IDX 67 78 68 79 47 80 48 81 56 82 49 83 55 84 57 85 54 86 50 87
REMARK SMILES IDX 51 88 52 89 53 90
REMARK H PARENT 13 6 10 19 18 24 77 43 45 54
REMARK Flexibility Score: inf
ROOT
ATOM      1  C   UNL A   1      31.130  27.593  26.172  1.00  0.00     0.023 C 
ENDROOT
BRANCH   1   2
ATOM      2  C   UNL A   1      31.056  26.095  26.432  1.00  0.00     0.116 C 
BRANCH   2   3
ATOM      3  N   UNL A   1      32.354  25.447  26.449  1.00  0.00    -0.356 N 
ATOM      4  C   UNL A   1      33.191  25.025  25.463  1.00  0.00     0.226 C 
ATOM      5  O   UNL A   1      34.365  24.851  25.810  1.00  0.00    -0.274 OA
ATOM      6  H   UNL A   1      32.698  25.279  27.356  1.00  0.00     0.163 HD
BRANCH   4   7
ATOM      7  C   UNL A   1      32.767  24.820  23.988  1.00  0.00     0.049 C 
ATOM      8  C   UNL A   1      32.076  21.351  22.396  1.00  0.00     0.011 C 
ATOM      9  C   UNL A   1      32.511  21.748  23.822  1.00  0.00    -0.035 C 
ATOM     10  C   UNL A   1      32.628  20.458  24.655  1.00  0.00     0.011 C 
ATOM     11  C   UNL A   1      33.881  22.454  23.801  1.00  0.00     0.007 C 
ATOM     12  C   UNL A   1      31.454  22.673  24.458  1.00  0.00     0.007 C 
ATOM     13  C   UNL A   1      33.840  23.901  23.293  1.00  0.00     0.017 C 
ATOM     14  C   UNL A   1      31.428  24.063  23.809  1.00  0.00     0.017 C 
BRANCH   7  15
ATOM     15  C   UNL A   1      32.811  26.157  23.177  1.00  0.00     0.019 C 
BRANCH  15  16
ATOM     16  C   UNL A   1      33.354  26.214  21.745  1.00  0.00     0.029 C 
BRANCH  16  17
ATOM     17  C   UNL A   1      32.403  25.742  20.644  1.00  0.00     0.156 C 
BRANCH  17  18
ATOM     18  O   UNL A   1      33.026  25.816  19.371  1.00  0.00    -0.396 OA
ATOM     19  H   UNL A   1      33.356  26.716  19.224  1.00  0.00     0.210 HD
ENDBRANCH  17  18
ENDBRANCH  16  17
ENDBRANCH  15  16
ENDBRANCH   7  15
ENDBRANCH   4   7
ENDBRANCH   2   3
ENDBRANCH   1   2
BRANCH   1  20
ATOM     20  C   UNL A   1      31.978  28.375  27.176  1.00  0.00     0.023 C 
BRANCH  20  21
ATOM     21  C   UNL A   1      32.997  29.335  26.569  1.00  0.00     0.116 C 
BRANCH  21  22
ATOM     22  N   UNL A   1      32.681  30.738  26.804  1.00  0.00    -0.352 N 
ATOM     23  C   UNL A   1      33.457  31.701  27.413  1.00  0.00     0.251 C 
ATOM     24  H   UNL A   1      31.798  31.036  26.487  1.00  0.00     0.163 HD
ATOM     25  O   UNL A   1      33.010  32.816  27.625  1.00  0.00    -0.269 OA
BRANCH  23  26
ATOM     26  C   UNL A   1      34.822  31.332  27.839  1.00  0.00     0.039 A 
ATOM     27  C   UNL A   1      35.804  32.322  27.905  1.00  0.00     0.014 A 
ATOM     28  C   UNL A   1      35.088  30.030  28.268  1.00  0.00     0.014 A 
ATOM     29  C   UNL A   1      37.037  32.026  28.489  1.00  0.00     0.010 A 
ATOM     30  C   UNL A   1      36.289  29.759  28.913  1.00  0.00     0.010 A 
ATOM     31  C   UNL A   1      37.271  30.757  29.040  1.00  0.00    -0.014 A 
BRANCH  31  32
ATOM     32  C   UNL A   1      38.535  30.423  29.745  1.00  0.00     0.031 A 
ATOM     33  C   UNL A   1      39.479  29.433  29.123  1.00  0.00     0.074 A 
ATOM     34  C   UNL A   1      38.782  30.920  30.973  1.00  0.00     0.049 A 
ATOM     35  N   UNL A   1      40.526  28.844  29.641  1.00  0.00    -0.248 NA
ATOM     36  C   UNL A   1      39.174  29.022  27.745  1.00  0.00     0.031 C 
ATOM     37  C   UNL A   1      37.932  31.874  31.689  1.00  0.00     0.029 A 
ATOM     38  N   UNL A   1      39.809  30.671  31.849  1.00  0.00    -0.354 N 
ATOM     39  C   UNL A   1      40.986  27.969  28.664  1.00  0.00     0.074 A 
ATOM     40  C   UNL A   1      40.070  28.068  27.547  1.00  0.00     0.031 C 
ATOM     41  C   UNL A   1      38.479  32.138  32.887  1.00  0.00     0.029 A 
ATOM     42  C   UNL A   1      39.685  31.332  33.050  1.00  0.00     0.049 A 
ATOM     43  H   UNL A   1      40.564  30.076  31.638  1.00  0.00     0.167 HD
ATOM     44  C   UNL A   1      42.082  27.171  28.688  1.00  0.00     0.034 A 
ATOM     45  C   UNL A   1      40.443  31.273  34.164  1.00  0.00     0.034 A 
ATOM     46  C   UNL A   1      42.995  27.105  29.801  1.00  0.00     0.049 A 
ATOM     47  C   UNL A   1      41.646  30.362  34.182  1.00  0.00     0.074 A 
ATOM     48  C   UNL A   1      44.157  26.362  29.923  1.00  0.00     0.029 A 
ATOM     49  N   UNL A   1      42.849  27.810  30.989  1.00  0.00    -0.354 N 
ATOM     50  N   UNL A   1      42.078  29.549  33.245  1.00  0.00    -0.248 NA
ATOM     51  C   UNL A   1      42.465  30.362  35.401  1.00  0.00     0.031 C 
ATOM     52  C   UNL A   1      44.684  26.579  31.201  1.00  0.00     0.029 A 
ATOM     53  C   UNL A   1      43.890  27.508  31.852  1.00  0.00     0.049 A 
ATOM     54  H   UNL A   1      42.115  28.434  31.189  1.00  0.00     0.167 HD
ATOM     55  C   UNL A   1      43.242  28.976  33.747  1.00  0.00     0.074 A 
ATOM     56  C   UNL A   1      43.442  29.529  35.071  1.00  0.00     0.031 C 
ATOM     57  C   UNL A   1      44.079  28.083  33.163  1.00  0.00     0.034 A 
BRANCH  44  58
ATOM     58  C   UNL A   1      42.324  26.295  27.484  1.00  0.00     0.023 A 
ATOM     59  C   UNL A   1      41.837  24.978  27.423  1.00  0.00     0.031 A 
ATOM     60  C   UNL A   1      43.093  26.763  26.403  1.00  0.00     0.131 A 
ATOM     61  C   UNL A   1      42.202  24.145  26.354  1.00  0.00     0.055 A 
ATOM     62  C   UNL A   1      43.375  25.957  25.299  1.00  0.00     0.041 A 
ATOM     63  F   UNL A   1      43.601  28.005  26.413  1.00  0.00    -0.206 F 
ATOM     64  C   UNL A   1      42.945  24.633  25.279  1.00  0.00     0.022 A 
BRANCH  61  65
ATOM     65  S   UNL A   1      41.825  22.375  26.474  1.00  0.00     0.124 S 
ATOM     66  O   UNL A   1      42.467  21.857  25.268  1.00  0.00    -0.237 OA
ATOM     67  O   UNL A   1      42.450  22.005  27.739  1.00  0.00    -0.237 OA
ATOM     68  O   UNL A   1      40.365  22.333  26.462  1.00  0.00    -0.744 OA
ENDBRANCH  61  65
ENDBRANCH  44  58
BRANCH  45  69
ATOM     69  C   UNL A   1      40.090  32.086  35.363  1.00  0.00     0.023 A 
ATOM     70  C   UNL A   1      39.147  31.623  36.294  1.00  0.00     0.031 A 
ATOM     71  C   UNL A   1      40.661  33.354  35.577  1.00  0.00     0.131 A 
ATOM     72  C   UNL A   1      38.769  32.439  37.371  1.00  0.00     0.055 A 
ATOM     73  C   UNL A   1      40.317  34.141  36.678  1.00  0.00     0.041 A 
ATOM     74  F   UNL A   1      41.572  33.841  34.721  1.00  0.00    -0.206 F 
ATOM     75  C   UNL A   1      39.355  33.689  37.576  1.00  0.00     0.022 A 
BRANCH  72  76
ATOM     76  S   UNL A   1      37.435  31.871  38.463  1.00  0.00     0.124 S 
ATOM     77  O   UNL A   1      36.368  32.810  38.139  1.00  0.00    -0.237 OA
ATOM     78  O   UNL A   1      37.242  30.496  38.014  1.00  0.00    -0.237 OA
ATOM     79  O   UNL A   1      38.008  32.013  39.801  1.00  0.00    -0.744 OA
ENDBRANCH  72  76
ENDBRANCH  45  69
BRANCH  57  80
ATOM     80  C   UNL A   1      45.330  27.710  33.915  1.00  0.00     0.023 A 
ATOM     81  C   UNL A   1      45.388  26.590  34.760  1.00  0.00     0.031 A 
ATOM     82  C   UNL A   1      46.495  28.482  33.750  1.00  0.00     0.131 A 
ATOM     83  C   UNL A   1      46.581  26.289  35.434  1.00  0.00     0.055 A 
ATOM     84  C   UNL A   1      47.690  28.151  34.387  1.00  0.00     0.041 A 
ATOM     85  F   UNL A   1      46.490  29.562  32.951  1.00  0.00    -0.206 F 
ATOM     86  C   UNL A   1      47.736  27.052  35.240  1.00  0.00     0.022 A 
BRANCH  83  87
ATOM     87  S   UNL A   1      46.600  24.904  36.606  1.00  0.00     0.124 S 
ATOM     88  O   UNL A   1      47.404  23.916  35.893  1.00  0.00    -0.237 OA
ATOM     89  O   UNL A   1      47.219  25.499  37.786  1.00  0.00    -0.237 OA
ATOM     90  O   UNL A   1      45.186  24.561  36.756  1.00  0.00    -0.744 OA
ENDBRANCH  83  87
ENDBRANCH  57  80
ENDBRANCH  31  32
ENDBRANCH  23  26
ENDBRANCH  21  22
ENDBRANCH  20  21
ENDBRANCH   1  20
TORSDOF 18
ENDMDL
