MODEL 1
REMARK VINA RESULT:     -13.5      0.000      0.000
REMARK SMILES CC1=C(C)C[C@H](C(=O)NNC(=O)c2cccc(C)c2)[C@@H](C(=O)NCCCCNC(=O)c2ccc(-c3c4nc(c(-c5cc(S(=O)(=O)[O-])ccc5F)c5ccc([nH]5)c(-c5cc(S(=O)(=O)[O-])ccc5F)c5nc(c(-c6cc(S(=O)(=O)[O-])ccc6F)c6ccc3[nH]6)C=C5)C=C4)cc2)C1
REMARK SMILES IDX 25 1 24 2 23 3 21 4 22 5 20 7 1 8 2 9 3 10 94 11 4 12 5 13
REMARK SMILES IDX 6 14 7 15 8 16 9 17 10 19 11 20 12 22 13 23 14 24 19 25
REMARK SMILES IDX 15 26 17 27 16 28 18 29 26 30 27 31 28 32 29 33 30 35 31 36
REMARK SMILES IDX 32 37 93 38 33 39 92 40 34 41 35 42 36 43 86 44 37 45 91 46
REMARK SMILES IDX 85 47 87 48 38 49 90 50 84 51 83 52 39 54 71 55 51 56 70 57
REMARK SMILES IDX 52 58 55 59 69 60 88 61 53 62 54 63 68 65 89 66 56 67 40 68
REMARK SMILES IDX 41 69 49 70 42 71 48 72 50 73 47 74 43 75 44 76 45 77 46 78
REMARK SMILES IDX 72 79 73 80 81 81 74 82 80 83 82 84 79 85 75 86 76 87 77 88
REMARK SMILES IDX 78 89 57 90 58 91 66 92 59 93 65 94 67 95 64 96 60 97 61 98
REMARK SMILES IDX 62 99 63 100
REMARK H PARENT 23 6 9 18 10 21 28 34 87 53 55 64
REMARK Flexibility Score: inf
ROOT
ATOM      1  C   UNL A   1      33.650  28.189  27.099  1.00  0.00     0.023 C 
ENDROOT
BRANCH   1   2
ATOM      2  C   UNL A   1      32.358  27.685  26.442  1.00  0.00     0.116 C 
BRANCH   2   3
ATOM      3  N   UNL A   1      32.027  26.319  26.816  1.00  0.00    -0.356 N 
ATOM      4  C   UNL A   1      32.353  25.119  26.278  1.00  0.00     0.224 C 
ATOM      5  O   UNL A   1      31.925  24.117  26.863  1.00  0.00    -0.275 OA
ATOM      6  H   UNL A   1      31.457  26.254  27.615  1.00  0.00     0.163 HD
BRANCH   4   7
ATOM      7  C   UNL A   1      33.228  24.942  25.035  1.00  0.00     0.095 C 
ATOM      8  C   UNL A   1      36.895  23.956  25.963  1.00  0.00     0.039 C 
ATOM      9  C   UNL A   1      35.554  23.843  25.280  1.00  0.00    -0.074 C 
ATOM     10  C   UNL A   1      35.123  22.707  24.698  1.00  0.00    -0.074 C 
ATOM     11  C   UNL A   1      34.721  25.093  25.315  1.00  0.00     0.045 C 
ATOM     12  C   UNL A   1      35.918  21.421  24.682  1.00  0.00     0.039 C 
ATOM     13  C   UNL A   1      33.778  22.587  24.021  1.00  0.00     0.045 C 
ATOM     14  C   UNL A   1      32.779  23.743  24.182  1.00  0.00     0.097 C 
BRANCH  14  15
ATOM     15  C   UNL A   1      32.393  24.245  22.787  1.00  0.00     0.242 C 
ATOM     16  O   UNL A   1      33.173  24.184  21.831  1.00  0.00    -0.273 OA
ATOM     17  N   UNL A   1      31.136  24.756  22.574  1.00  0.00    -0.267 N 
ATOM     18  H   UNL A   1      30.929  25.100  21.674  1.00  0.00     0.191 HD
BRANCH  17  19
ATOM     19  N   UNL A   1      30.135  24.824  23.532  1.00  0.00    -0.263 N 
ATOM     20  C   UNL A   1      29.556  25.987  23.999  1.00  0.00     0.269 C 
ATOM     21  H   UNL A   1      29.811  23.973  23.908  1.00  0.00     0.191 HD
ATOM     22  O   UNL A   1      28.858  25.938  25.010  1.00  0.00    -0.267 OA
BRANCH  20  23
ATOM     23  C   UNL A   1      29.803  27.305  23.353  1.00  0.00     0.041 A 
ATOM     24  C   UNL A   1      31.137  27.718  23.223  1.00  0.00     0.014 A 
ATOM     25  C   UNL A   1      28.777  28.157  22.925  1.00  0.00     0.017 A 
ATOM     26  C   UNL A   1      31.444  28.947  22.642  1.00  0.00     0.001 A 
ATOM     27  C   UNL A   1      29.081  29.384  22.315  1.00  0.00    -0.050 A 
ATOM     28  C   UNL A   1      30.421  29.774  22.182  1.00  0.00     0.003 A 
ATOM     29  C   UNL A   1      27.991  30.300  21.841  1.00  0.00     0.044 C 
ENDBRANCH  20  23
ENDBRANCH  17  19
ENDBRANCH  14  15
ENDBRANCH   4   7
ENDBRANCH   2   3
ENDBRANCH   1   2
BRANCH   1  30
ATOM     30  C   UNL A   1      33.582  29.611  27.663  1.00  0.00     0.023 C 
BRANCH  30  31
ATOM     31  C   UNL A   1      34.549  30.590  27.007  1.00  0.00     0.116 C 
BRANCH  31  32
ATOM     32  N   UNL A   1      35.224  31.500  27.922  1.00  0.00    -0.352 N 
ATOM     33  C   UNL A   1      36.271  31.235  28.793  1.00  0.00     0.251 C 
ATOM     34  H   UNL A   1      34.893  32.427  27.923  1.00  0.00     0.163 HD
ATOM     35  O   UNL A   1      36.622  32.061  29.622  1.00  0.00    -0.269 OA
BRANCH  33  36
ATOM     36  C   UNL A   1      37.042  29.975  28.635  1.00  0.00     0.039 A 
ATOM     37  C   UNL A   1      37.088  29.106  29.734  1.00  0.00     0.014 A 
ATOM     38  C   UNL A   1      37.876  29.766  27.541  1.00  0.00     0.014 A 
ATOM     39  C   UNL A   1      38.138  28.196  29.842  1.00  0.00     0.010 A 
ATOM     40  C   UNL A   1      38.969  28.935  27.690  1.00  0.00     0.010 A 
ATOM     41  C   UNL A   1      39.141  28.210  28.876  1.00  0.00    -0.014 A 
BRANCH  41  42
ATOM     42  C   UNL A   1      40.482  27.678  29.098  1.00  0.00     0.031 A 
ATOM     43  C   UNL A   1      40.827  26.287  28.747  1.00  0.00     0.074 A 
ATOM     44  C   UNL A   1      41.460  28.534  29.477  1.00  0.00     0.049 A 
ATOM     45  N   UNL A   1      41.946  25.724  29.056  1.00  0.00    -0.248 NA
ATOM     46  C   UNL A   1      39.900  25.377  28.080  1.00  0.00     0.031 C 
ATOM     47  C   UNL A   1      42.905  28.345  29.383  1.00  0.00     0.029 A 
ATOM     48  N   UNL A   1      41.312  29.647  30.303  1.00  0.00    -0.354 N 
ATOM     49  C   UNL A   1      42.024  24.546  28.360  1.00  0.00     0.074 A 
ATOM     50  C   UNL A   1      40.680  24.304  27.901  1.00  0.00     0.031 C 
ATOM     51  C   UNL A   1      43.504  29.113  30.306  1.00  0.00     0.029 A 
ATOM     52  C   UNL A   1      42.457  29.692  31.126  1.00  0.00     0.049 A 
ATOM     53  H   UNL A   1      40.557  30.278  30.312  1.00  0.00     0.167 HD
ATOM     54  C   UNL A   1      43.251  24.000  28.138  1.00  0.00     0.034 A 
ATOM     55  C   UNL A   1      42.335  29.539  32.479  1.00  0.00     0.034 A 
ATOM     56  C   UNL A   1      44.255  24.557  29.052  1.00  0.00     0.049 A 
ATOM     57  C   UNL A   1      43.039  28.313  33.036  1.00  0.00     0.074 A 
ATOM     58  C   UNL A   1      45.360  25.381  28.936  1.00  0.00     0.029 A 
ATOM     59  N   UNL A   1      44.026  24.428  30.414  1.00  0.00    -0.354 N 
ATOM     60  N   UNL A   1      43.701  27.447  32.317  1.00  0.00    -0.248 NA
ATOM     61  C   UNL A   1      42.970  27.923  34.444  1.00  0.00     0.031 C 
ATOM     62  C   UNL A   1      45.729  25.810  30.252  1.00  0.00     0.029 A 
ATOM     63  C   UNL A   1      44.878  25.210  31.165  1.00  0.00     0.049 A 
ATOM     64  H   UNL A   1      43.334  23.845  30.800  1.00  0.00     0.167 HD
ATOM     65  C   UNL A   1      44.064  26.383  33.102  1.00  0.00     0.074 A 
ATOM     66  C   UNL A   1      43.594  26.733  34.431  1.00  0.00     0.031 C 
ATOM     67  C   UNL A   1      44.675  25.266  32.607  1.00  0.00     0.034 A 
BRANCH  54  68
ATOM     68  C   UNL A   1      43.591  23.056  27.001  1.00  0.00     0.023 A 
ATOM     69  C   UNL A   1      42.954  21.796  26.948  1.00  0.00     0.031 A 
ATOM     70  C   UNL A   1      44.605  23.251  26.034  1.00  0.00     0.131 A 
ATOM     71  C   UNL A   1      43.326  20.821  25.998  1.00  0.00     0.055 A 
ATOM     72  C   UNL A   1      44.930  22.306  25.052  1.00  0.00     0.041 A 
ATOM     73  F   UNL A   1      45.395  24.329  26.017  1.00  0.00    -0.206 F 
ATOM     74  C   UNL A   1      44.295  21.080  25.035  1.00  0.00     0.022 A 
BRANCH  71  75
ATOM     75  S   UNL A   1      42.591  19.166  26.086  1.00  0.00     0.124 S 
ATOM     76  O   UNL A   1      43.545  18.364  25.330  1.00  0.00    -0.237 OA
ATOM     77  O   UNL A   1      42.536  18.928  27.524  1.00  0.00    -0.237 OA
ATOM     78  O   UNL A   1      41.289  19.340  25.441  1.00  0.00    -0.744 OA
ENDBRANCH  71  75
ENDBRANCH  54  68
BRANCH  55  79
ATOM     79  C   UNL A   1      41.075  30.149  33.002  1.00  0.00     0.023 A 
ATOM     80  C   UNL A   1      41.043  31.558  33.079  1.00  0.00     0.031 A 
ATOM     81  C   UNL A   1      39.853  29.466  33.015  1.00  0.00     0.131 A 
ATOM     82  C   UNL A   1      39.827  32.242  32.955  1.00  0.00     0.055 A 
ATOM     83  C   UNL A   1      38.633  30.157  33.001  1.00  0.00     0.041 A 
ATOM     84  F   UNL A   1      39.810  28.130  32.906  1.00  0.00    -0.206 F 
ATOM     85  C   UNL A   1      38.617  31.551  32.921  1.00  0.00     0.022 A 
BRANCH  82  86
ATOM     86  S   UNL A   1      39.902  34.010  32.542  1.00  0.00     0.124 S 
ATOM     87  O   UNL A   1      41.155  34.100  31.801  1.00  0.00    -0.237 OA
ATOM     88  O   UNL A   1      38.683  34.192  31.753  1.00  0.00    -0.237 OA
ATOM     89  O   UNL A   1      39.896  34.671  33.843  1.00  0.00    -0.744 OA
ENDBRANCH  82  86
ENDBRANCH  55  79
BRANCH  67  90
ATOM     90  C   UNL A   1      45.074  24.106  33.483  1.00  0.00     0.023 A 
ATOM     91  C   UNL A   1      46.402  23.923  33.901  1.00  0.00     0.031 A 
ATOM     92  C   UNL A   1      44.151  23.113  33.877  1.00  0.00     0.131 A 
ATOM     93  C   UNL A   1      46.752  22.842  34.730  1.00  0.00     0.055 A 
ATOM     94  C   UNL A   1      44.521  21.990  34.622  1.00  0.00     0.041 A 
ATOM     95  F   UNL A   1      42.843  23.215  33.596  1.00  0.00    -0.206 F 
ATOM     96  C   UNL A   1      45.827  21.855  35.067  1.00  0.00     0.022 A 
BRANCH  93  97
ATOM     97  S   UNL A   1      48.419  22.797  35.436  1.00  0.00     0.124 S 
ATOM     98  O   UNL A   1      48.313  21.751  36.446  1.00  0.00    -0.237 OA
ATOM     99  O   UNL A   1      49.226  22.467  34.263  1.00  0.00    -0.237 OA
ATOM    100  O   UNL A   1      48.612  24.149  35.958  1.00  0.00    -0.744 OA
ENDBRANCH  93  97
ENDBRANCH  67  90
ENDBRANCH  41  42
ENDBRANCH  33  36
ENDBRANCH  31  32
ENDBRANCH  30  31
ENDBRANCH   1  30
TORSDOF 17
ENDMDL
MODEL 2
REMARK VINA RESULT:     -13.5      3.983     10.055
REMARK SMILES CC1=C(C)C[C@H](C(=O)NNC(=O)c2cccc(C)c2)[C@@H](C(=O)NCCCCNC(=O)c2ccc(-c3c4nc(c(-c5cc(S(=O)(=O)[O-])ccc5F)c5ccc([nH]5)c(-c5cc(S(=O)(=O)[O-])ccc5F)c5nc(c(-c6cc(S(=O)(=O)[O-])ccc6F)c6ccc3[nH]6)C=C5)C=C4)cc2)C1
REMARK SMILES IDX 25 1 24 2 23 3 21 4 22 5 20 7 1 8 2 9 3 10 94 11 4 12 5 13
REMARK SMILES IDX 6 14 7 15 8 16 9 17 10 19 11 20 12 22 13 23 14 24 19 25
REMARK SMILES IDX 15 26 17 27 16 28 18 29 26 30 27 31 28 32 29 33 30 35 31 36
REMARK SMILES IDX 32 37 93 38 33 39 92 40 34 41 35 42 36 43 86 44 37 45 91 46
REMARK SMILES IDX 85 47 87 48 38 49 90 50 84 51 83 52 39 54 71 55 51 56 70 57
REMARK SMILES IDX 52 58 55 59 69 60 88 61 53 62 54 63 68 65 89 66 56 67 40 68
REMARK SMILES IDX 41 69 49 70 42 71 48 72 50 73 47 74 43 75 44 76 45 77 46 78
REMARK SMILES IDX 72 79 73 80 81 81 74 82 80 83 82 84 79 85 75 86 76 87 77 88
REMARK SMILES IDX 78 89 57 90 58 91 66 92 59 93 65 94 67 95 64 96 60 97 61 98
REMARK SMILES IDX 62 99 63 100
REMARK H PARENT 23 6 9 18 10 21 28 34 87 53 55 64
REMARK Flexibility Score: inf
ROOT
ATOM      1  C   UNL A   1      36.390  21.641  24.407  1.00  0.00     0.023 C 
ENDROOT
BRANCH   1   2
ATOM      2  C   UNL A   1      35.820  23.066  24.413  1.00  0.00     0.116 C 
BRANCH   2   3
ATOM      3  N   UNL A   1      35.178  23.425  23.158  1.00  0.00    -0.356 N 
ATOM      4  C   UNL A   1      33.879  23.591  22.810  1.00  0.00     0.224 C 
ATOM      5  O   UNL A   1      33.660  23.934  21.642  1.00  0.00    -0.275 OA
ATOM      6  H   UNL A   1      35.810  23.580  22.420  1.00  0.00     0.163 HD
BRANCH   4   7
ATOM      7  C   UNL A   1      32.701  23.412  23.770  1.00  0.00     0.095 C 
ATOM      8  C   UNL A   1      33.010  20.122  25.859  1.00  0.00     0.039 C 
ATOM      9  C   UNL A   1      32.840  21.600  25.608  1.00  0.00    -0.074 C 
ATOM     10  C   UNL A   1      33.016  22.530  26.568  1.00  0.00    -0.074 C 
ATOM     11  C   UNL A   1      32.477  21.963  24.195  1.00  0.00     0.045 C 
ATOM     12  C   UNL A   1      33.421  22.202  27.986  1.00  0.00     0.039 C 
ATOM     13  C   UNL A   1      32.854  24.011  26.319  1.00  0.00     0.045 C 
ATOM     14  C   UNL A   1      32.686  24.489  24.868  1.00  0.00     0.097 C 
BRANCH  14  15
ATOM     15  C   UNL A   1      31.375  25.278  24.769  1.00  0.00     0.242 C 
ATOM     16  O   UNL A   1      30.403  25.021  25.485  1.00  0.00    -0.273 OA
ATOM     17  N   UNL A   1      31.278  26.320  23.880  1.00  0.00    -0.267 N 
ATOM     18  H   UNL A   1      30.412  26.786  23.818  1.00  0.00     0.191 HD
BRANCH  17  19
ATOM     19  N   UNL A   1      32.306  26.766  23.063  1.00  0.00    -0.263 N 
ATOM     20  C   UNL A   1      33.112  27.857  23.320  1.00  0.00     0.269 C 
ATOM     21  H   UNL A   1      32.476  26.262  22.234  1.00  0.00     0.191 HD
ATOM     22  O   UNL A   1      33.823  28.295  22.418  1.00  0.00    -0.267 OA
BRANCH  20  23
ATOM     23  C   UNL A   1      33.098  28.556  24.634  1.00  0.00     0.041 A 
ATOM     24  C   UNL A   1      33.947  28.061  25.635  1.00  0.00     0.014 A 
ATOM     25  C   UNL A   1      32.251  29.633  24.925  1.00  0.00     0.017 A 
ATOM     26  C   UNL A   1      33.977  28.655  26.896  1.00  0.00     0.001 A 
ATOM     27  C   UNL A   1      32.295  30.252  26.184  1.00  0.00    -0.050 A 
ATOM     28  C   UNL A   1      33.160  29.752  27.167  1.00  0.00     0.003 A 
ATOM     29  C   UNL A   1      31.402  31.415  26.503  1.00  0.00     0.044 C 
ENDBRANCH  20  23
ENDBRANCH  17  19
ENDBRANCH  14  15
ENDBRANCH   4   7
ENDBRANCH   2   3
ENDBRANCH   1   2
BRANCH   1  30
ATOM     30  C   UNL A   1      37.698  21.460  25.184  1.00  0.00     0.023 C 
BRANCH  30  31
ATOM     31  C   UNL A   1      38.252  22.748  25.783  1.00  0.00     0.116 C 
BRANCH  31  32
ATOM     32  N   UNL A   1      39.491  22.599  26.531  1.00  0.00    -0.352 N 
ATOM     33  C   UNL A   1      40.302  23.587  27.071  1.00  0.00     0.251 C 
ATOM     34  H   UNL A   1      39.795  21.674  26.673  1.00  0.00     0.163 HD
ATOM     35  O   UNL A   1      41.403  23.316  27.529  1.00  0.00    -0.269 OA
BRANCH  33  36
ATOM     36  C   UNL A   1      39.774  24.970  27.192  1.00  0.00     0.039 A 
ATOM     37  C   UNL A   1      40.365  25.958  26.394  1.00  0.00     0.014 A 
ATOM     38  C   UNL A   1      38.899  25.327  28.214  1.00  0.00     0.014 A 
ATOM     39  C   UNL A   1      40.281  27.294  26.782  1.00  0.00     0.010 A 
ATOM     40  C   UNL A   1      38.894  26.635  28.656  1.00  0.00     0.010 A 
ATOM     41  C   UNL A   1      39.650  27.603  27.985  1.00  0.00    -0.014 A 
BRANCH  41  42
ATOM     42  C   UNL A   1      39.891  28.837  28.727  1.00  0.00     0.031 A 
ATOM     43  C   UNL A   1      38.928  29.956  28.696  1.00  0.00     0.074 A 
ATOM     44  C   UNL A   1      40.936  28.878  29.587  1.00  0.00     0.049 A 
ATOM     45  N   UNL A   1      39.159  31.116  29.209  1.00  0.00    -0.248 NA
ATOM     46  C   UNL A   1      37.642  29.885  28.008  1.00  0.00     0.031 C 
ATOM     47  C   UNL A   1      41.151  29.806  30.695  1.00  0.00     0.029 A 
ATOM     48  N   UNL A   1      42.166  28.243  29.426  1.00  0.00    -0.354 N 
ATOM     49  C   UNL A   1      37.975  31.806  29.225  1.00  0.00     0.074 A 
ATOM     50  C   UNL A   1      37.112  31.070  28.336  1.00  0.00     0.031 C 
ATOM     51  C   UNL A   1      42.467  29.885  30.944  1.00  0.00     0.029 A 
ATOM     52  C   UNL A   1      43.146  29.139  29.902  1.00  0.00     0.049 A 
ATOM     53  H   UNL A   1      42.321  27.346  29.053  1.00  0.00     0.167 HD
ATOM     54  C   UNL A   1      37.830  32.834  30.106  1.00  0.00     0.034 A 
ATOM     55  C   UNL A   1      44.082  29.649  29.045  1.00  0.00     0.034 A 
ATOM     56  C   UNL A   1      39.131  33.297  30.602  1.00  0.00     0.049 A 
ATOM     57  C   UNL A   1      44.019  31.156  28.875  1.00  0.00     0.074 A 
ATOM     58  C   UNL A   1      39.807  33.264  31.809  1.00  0.00     0.029 A 
ATOM     59  N   UNL A   1      40.058  33.731  29.666  1.00  0.00    -0.354 N 
ATOM     60  N   UNL A   1      43.153  31.935  29.465  1.00  0.00    -0.248 NA
ATOM     61  C   UNL A   1      44.880  31.893  27.949  1.00  0.00     0.031 C 
ATOM     62  C   UNL A   1      41.176  33.602  31.556  1.00  0.00     0.029 A 
ATOM     63  C   UNL A   1      41.317  33.884  30.207  1.00  0.00     0.049 A 
ATOM     64  H   UNL A   1      39.842  33.909  28.722  1.00  0.00     0.167 HD
ATOM     65  C   UNL A   1      43.265  33.207  28.967  1.00  0.00     0.074 A 
ATOM     66  C   UNL A   1      44.370  33.134  28.027  1.00  0.00     0.031 C 
ATOM     67  C   UNL A   1      42.417  34.221  29.313  1.00  0.00     0.034 A 
BRANCH  54  68
ATOM     68  C   UNL A   1      36.504  33.344  30.637  1.00  0.00     0.023 A 
ATOM     69  C   UNL A   1      35.601  33.957  29.740  1.00  0.00     0.031 A 
ATOM     70  C   UNL A   1      36.119  33.396  31.997  1.00  0.00     0.131 A 
ATOM     71  C   UNL A   1      34.416  34.574  30.195  1.00  0.00     0.055 A 
ATOM     72  C   UNL A   1      34.912  33.953  32.440  1.00  0.00     0.041 A 
ATOM     73  F   UNL A   1      36.910  32.981  32.992  1.00  0.00    -0.206 F 
ATOM     74  C   UNL A   1      34.056  34.554  31.538  1.00  0.00     0.022 A 
BRANCH  71  75
ATOM     75  S   UNL A   1      33.382  35.488  29.019  1.00  0.00     0.124 S 
ATOM     76  O   UNL A   1      34.373  36.055  28.112  1.00  0.00    -0.237 OA
ATOM     77  O   UNL A   1      32.529  34.438  28.475  1.00  0.00    -0.237 OA
ATOM     78  O   UNL A   1      32.693  36.465  29.863  1.00  0.00    -0.744 OA
ENDBRANCH  71  75
ENDBRANCH  54  68
BRANCH  55  79
ATOM     79  C   UNL A   1      44.489  28.658  28.003  1.00  0.00     0.023 A 
ATOM     80  C   UNL A   1      45.280  27.573  28.440  1.00  0.00     0.031 A 
ATOM     81  C   UNL A   1      43.816  28.525  26.782  1.00  0.00     0.131 A 
ATOM     82  C   UNL A   1      45.213  26.341  27.778  1.00  0.00     0.055 A 
ATOM     83  C   UNL A   1      43.841  27.320  26.065  1.00  0.00     0.041 A 
ATOM     84  F   UNL A   1      43.017  29.501  26.327  1.00  0.00    -0.206 F 
ATOM     85  C   UNL A   1      44.501  26.206  26.587  1.00  0.00     0.022 A 
BRANCH  82  86
ATOM     86  S   UNL A   1      45.824  24.880  28.669  1.00  0.00     0.124 S 
ATOM     87  O   UNL A   1      47.166  25.297  29.061  1.00  0.00    -0.237 OA
ATOM     88  O   UNL A   1      44.853  24.758  29.758  1.00  0.00    -0.237 OA
ATOM     89  O   UNL A   1      45.766  23.816  27.672  1.00  0.00    -0.744 OA
ENDBRANCH  82  86
ENDBRANCH  55  79
BRANCH  67  90
ATOM     90  C   UNL A   1      42.558  35.617  28.762  1.00  0.00     0.023 A 
ATOM     91  C   UNL A   1      42.963  36.691  29.572  1.00  0.00     0.031 A 
ATOM     92  C   UNL A   1      42.230  35.930  27.425  1.00  0.00     0.131 A 
ATOM     93  C   UNL A   1      43.101  37.982  29.035  1.00  0.00     0.055 A 
ATOM     94  C   UNL A   1      42.279  37.232  26.919  1.00  0.00     0.041 A 
ATOM     95  F   UNL A   1      41.896  34.978  26.539  1.00  0.00    -0.206 F 
ATOM     96  C   UNL A   1      42.730  38.268  27.722  1.00  0.00     0.022 A 
BRANCH  93  97
ATOM     97  S   UNL A   1      43.861  39.269  30.060  1.00  0.00     0.124 S 
ATOM     98  O   UNL A   1      42.877  40.343  30.010  1.00  0.00    -0.237 OA
ATOM     99  O   UNL A   1      43.989  38.583  31.345  1.00  0.00    -0.237 OA
ATOM    100  O   UNL A   1      45.125  39.550  29.382  1.00  0.00    -0.744 OA
ENDBRANCH  93  97
ENDBRANCH  67  90
ENDBRANCH  41  42
ENDBRANCH  33  36
ENDBRANCH  31  32
ENDBRANCH  30  31
ENDBRANCH   1  30
TORSDOF 17
ENDMDL
MODEL 3
REMARK VINA RESULT:     -13.4      4.090     10.108
REMARK SMILES CC1=C(C)C[C@H](C(=O)NNC(=O)c2cccc(C)c2)[C@@H](C(=O)NCCCCNC(=O)c2ccc(-c3c4nc(c(-c5cc(S(=O)(=O)[O-])ccc5F)c5ccc([nH]5)c(-c5cc(S(=O)(=O)[O-])ccc5F)c5nc(c(-c6cc(S(=O)(=O)[O-])ccc6F)c6ccc3[nH]6)C=C5)C=C4)cc2)C1
REMARK SMILES IDX 25 1 24 2 23 3 21 4 22 5 20 7 1 8 2 9 3 10 94 11 4 12 5 13
REMARK SMILES IDX 6 14 7 15 8 16 9 17 10 19 11 20 12 22 13 23 14 24 19 25
REMARK SMILES IDX 15 26 17 27 16 28 18 29 26 30 27 31 28 32 29 33 30 35 31 36
REMARK SMILES IDX 32 37 93 38 33 39 92 40 34 41 35 42 36 43 86 44 37 45 91 46
REMARK SMILES IDX 85 47 87 48 38 49 90 50 84 51 83 52 39 54 71 55 51 56 70 57
REMARK SMILES IDX 52 58 55 59 69 60 88 61 53 62 54 63 68 65 89 66 56 67 40 68
REMARK SMILES IDX 41 69 49 70 42 71 48 72 50 73 47 74 43 75 44 76 45 77 46 78
REMARK SMILES IDX 72 79 73 80 81 81 74 82 80 83 82 84 79 85 75 86 76 87 77 88
REMARK SMILES IDX 78 89 57 90 58 91 66 92 59 93 65 94 67 95 64 96 60 97 61 98
REMARK SMILES IDX 62 99 63 100
REMARK H PARENT 23 6 9 18 10 21 28 34 87 53 55 64
REMARK Flexibility Score: inf
ROOT
ATOM      1  C   UNL A   1      37.016  23.405  25.030  1.00  0.00     0.023 C 
ENDROOT
BRANCH   1   2
ATOM      2  C   UNL A   1      35.967  24.058  25.940  1.00  0.00     0.116 C 
BRANCH   2   3
ATOM      3  N   UNL A   1      35.304  23.106  26.817  1.00  0.00    -0.356 N 
ATOM      4  C   UNL A   1      34.544  22.011  26.571  1.00  0.00     0.224 C 
ATOM      5  O   UNL A   1      34.143  21.384  27.558  1.00  0.00    -0.275 OA
ATOM      6  H   UNL A   1      35.434  23.292  27.775  1.00  0.00     0.163 HD
BRANCH   4   7
ATOM      7  C   UNL A   1      34.193  21.505  25.171  1.00  0.00     0.095 C 
ATOM      8  C   UNL A   1      35.346  17.810  24.625  1.00  0.00     0.039 C 
ATOM      9  C   UNL A   1      34.395  18.980  24.658  1.00  0.00    -0.074 C 
ATOM     10  C   UNL A   1      33.055  18.832  24.657  1.00  0.00    -0.074 C 
ATOM     11  C   UNL A   1      35.053  20.329  24.715  1.00  0.00     0.045 C 
ATOM     12  C   UNL A   1      32.361  17.490  24.643  1.00  0.00     0.039 C 
ATOM     13  C   UNL A   1      32.097  20.000  24.699  1.00  0.00     0.045 C 
ATOM     14  C   UNL A   1      32.673  21.401  24.962  1.00  0.00     0.097 C 
BRANCH  14  15
ATOM     15  C   UNL A   1      32.269  22.314  23.799  1.00  0.00     0.242 C 
ATOM     16  O   UNL A   1      32.835  22.265  22.703  1.00  0.00    -0.273 OA
ATOM     17  N   UNL A   1      31.231  23.198  23.961  1.00  0.00    -0.267 N 
ATOM     18  H   UNL A   1      31.016  23.793  23.206  1.00  0.00     0.191 HD
BRANCH  17  19
ATOM     19  N   UNL A   1      30.460  23.316  25.109  1.00  0.00    -0.263 N 
ATOM     20  C   UNL A   1      30.539  24.352  26.019  1.00  0.00     0.269 C 
ATOM     21  H   UNL A   1      29.805  22.603  25.288  1.00  0.00     0.191 HD
ATOM     22  O   UNL A   1      29.984  24.227  27.108  1.00  0.00    -0.267 OA
BRANCH  20  23
ATOM     23  C   UNL A   1      31.325  25.584  25.744  1.00  0.00     0.041 A 
ATOM     24  C   UNL A   1      32.669  25.595  26.149  1.00  0.00     0.014 A 
ATOM     25  C   UNL A   1      30.779  26.732  25.156  1.00  0.00     0.017 A 
ATOM     26  C   UNL A   1      33.463  26.721  25.938  1.00  0.00     0.001 A 
ATOM     27  C   UNL A   1      31.581  27.859  24.916  1.00  0.00    -0.050 A 
ATOM     28  C   UNL A   1      32.924  27.846  25.316  1.00  0.00     0.003 A 
ATOM     29  C   UNL A   1      31.009  29.090  24.275  1.00  0.00     0.044 C 
ENDBRANCH  20  23
ENDBRANCH  17  19
ENDBRANCH  14  15
ENDBRANCH   4   7
ENDBRANCH   2   3
ENDBRANCH   1   2
BRANCH   1  30
ATOM     30  C   UNL A   1      38.471  23.610  25.462  1.00  0.00     0.023 C 
BRANCH  30  31
ATOM     31  C   UNL A   1      38.927  22.681  26.581  1.00  0.00     0.116 C 
BRANCH  31  32
ATOM     32  N   UNL A   1      40.333  22.789  26.941  1.00  0.00    -0.352 N 
ATOM     33  C   UNL A   1      41.079  23.932  27.192  1.00  0.00     0.251 C 
ATOM     34  H   UNL A   1      40.821  21.938  27.015  1.00  0.00     0.163 HD
ATOM     35  O   UNL A   1      42.294  23.875  27.318  1.00  0.00    -0.269 OA
BRANCH  33  36
ATOM     36  C   UNL A   1      40.374  25.219  27.421  1.00  0.00     0.039 A 
ATOM     37  C   UNL A   1      40.648  26.270  26.535  1.00  0.00     0.014 A 
ATOM     38  C   UNL A   1      39.658  25.458  28.590  1.00  0.00     0.014 A 
ATOM     39  C   UNL A   1      40.431  27.585  26.944  1.00  0.00     0.010 A 
ATOM     40  C   UNL A   1      39.532  26.758  29.037  1.00  0.00     0.010 A 
ATOM     41  C   UNL A   1      39.992  27.818  28.246  1.00  0.00    -0.014 A 
BRANCH  41  42
ATOM     42  C   UNL A   1      40.171  29.089  28.942  1.00  0.00     0.031 A 
ATOM     43  C   UNL A   1      39.151  30.153  28.878  1.00  0.00     0.074 A 
ATOM     44  C   UNL A   1      41.218  29.217  29.791  1.00  0.00     0.049 A 
ATOM     45  N   UNL A   1      39.322  31.342  29.347  1.00  0.00    -0.248 NA
ATOM     46  C   UNL A   1      37.866  29.990  28.203  1.00  0.00     0.031 C 
ATOM     47  C   UNL A   1      41.391  30.194  30.863  1.00  0.00     0.029 A 
ATOM     48  N   UNL A   1      42.479  28.641  29.642  1.00  0.00    -0.354 N 
ATOM     49  C   UNL A   1      38.103  31.968  29.348  1.00  0.00     0.074 A 
ATOM     50  C   UNL A   1      37.276  31.155  28.493  1.00  0.00     0.031 C 
ATOM     51  C   UNL A   1      42.702  30.351  31.098  1.00  0.00     0.029 A 
ATOM     52  C   UNL A   1      43.413  29.605  30.078  1.00  0.00     0.049 A 
ATOM     53  H   UNL A   1      42.679  27.741  29.301  1.00  0.00     0.167 HD
ATOM     54  C   UNL A   1      37.909  33.018  30.192  1.00  0.00     0.034 A 
ATOM     55  C   UNL A   1      44.316  30.132  29.196  1.00  0.00     0.034 A 
ATOM     56  C   UNL A   1      39.187  33.567  30.660  1.00  0.00     0.049 A 
ATOM     57  C   UNL A   1      44.172  31.627  28.972  1.00  0.00     0.074 A 
ATOM     58  C   UNL A   1      39.871  33.614  31.862  1.00  0.00     0.029 A 
ATOM     59  N   UNL A   1      40.084  34.015  29.703  1.00  0.00    -0.354 N 
ATOM     60  N   UNL A   1      43.268  32.380  29.541  1.00  0.00    -0.248 NA
ATOM     61  C   UNL A   1      44.986  32.375  28.013  1.00  0.00     0.031 C 
ATOM     62  C   UNL A   1      41.218  34.015  31.586  1.00  0.00     0.029 A 
ATOM     63  C   UNL A   1      41.336  34.254  30.228  1.00  0.00     0.049 A 
ATOM     64  H   UNL A   1      39.852  34.147  28.754  1.00  0.00     0.167 HD
ATOM     65  C   UNL A   1      43.310  33.637  28.997  1.00  0.00     0.074 A 
ATOM     66  C   UNL A   1      44.411  33.589  28.051  1.00  0.00     0.031 C 
ATOM     67  C   UNL A   1      42.411  34.616  29.313  1.00  0.00     0.034 A 
BRANCH  54  68
ATOM     68  C   UNL A   1      36.561  33.476  30.716  1.00  0.00     0.023 A 
ATOM     69  C   UNL A   1      35.648  34.070  29.817  1.00  0.00     0.031 A 
ATOM     70  C   UNL A   1      36.161  33.497  32.072  1.00  0.00     0.131 A 
ATOM     71  C   UNL A   1      34.438  34.641  30.267  1.00  0.00     0.055 A 
ATOM     72  C   UNL A   1      34.932  34.007  32.509  1.00  0.00     0.041 A 
ATOM     73  F   UNL A   1      36.955  33.096  33.070  1.00  0.00    -0.206 F 
ATOM     74  C   UNL A   1      34.065  34.591  31.605  1.00  0.00     0.022 A 
BRANCH  71  75
ATOM     75  S   UNL A   1      33.385  35.535  29.091  1.00  0.00     0.124 S 
ATOM     76  O   UNL A   1      32.630  36.423  29.968  1.00  0.00    -0.237 OA
ATOM     77  O   UNL A   1      34.366  36.165  28.215  1.00  0.00    -0.237 OA
ATOM     78  O   UNL A   1      32.596  34.472  28.468  1.00  0.00    -0.744 OA
ENDBRANCH  71  75
ENDBRANCH  54  68
BRANCH  55  79
ATOM     79  C   UNL A   1      44.768  29.127  28.187  1.00  0.00     0.023 A 
ATOM     80  C   UNL A   1      45.679  28.148  28.638  1.00  0.00     0.031 A 
ATOM     81  C   UNL A   1      44.056  28.864  27.010  1.00  0.00     0.131 A 
ATOM     82  C   UNL A   1      45.701  26.880  28.044  1.00  0.00     0.055 A 
ATOM     83  C   UNL A   1      44.164  27.628  26.355  1.00  0.00     0.041 A 
ATOM     84  F   UNL A   1      43.147  29.734  26.546  1.00  0.00    -0.206 F 
ATOM     85  C   UNL A   1      44.952  26.612  26.899  1.00  0.00     0.022 A 
BRANCH  82  86
ATOM     86  S   UNL A   1      46.490  25.534  28.977  1.00  0.00     0.124 S 
ATOM     87  O   UNL A   1      46.419  24.423  28.035  1.00  0.00    -0.237 OA
ATOM     88  O   UNL A   1      47.827  26.076  29.222  1.00  0.00    -0.237 OA
ATOM     89  O   UNL A   1      45.654  25.400  30.166  1.00  0.00    -0.744 OA
ENDBRANCH  82  86
ENDBRANCH  55  79
BRANCH  67  90
ATOM     90  C   UNL A   1      42.474  35.997  28.711  1.00  0.00     0.023 A 
ATOM     91  C   UNL A   1      42.856  37.115  29.471  1.00  0.00     0.031 A 
ATOM     92  C   UNL A   1      42.092  36.249  27.375  1.00  0.00     0.131 A 
ATOM     93  C   UNL A   1      42.921  38.392  28.887  1.00  0.00     0.055 A 
ATOM     94  C   UNL A   1      42.068  37.534  26.825  1.00  0.00     0.041 A 
ATOM     95  F   UNL A   1      41.773  35.254  26.533  1.00  0.00    -0.206 F 
ATOM     96  C   UNL A   1      42.499  38.616  27.577  1.00  0.00     0.022 A 
BRANCH  93  97
ATOM     97  S   UNL A   1      43.656  39.744  29.843  1.00  0.00     0.124 S 
ATOM     98  O   UNL A   1      42.550  40.686  29.971  1.00  0.00    -0.237 OA
ATOM     99  O   UNL A   1      44.049  39.056  31.071  1.00  0.00    -0.237 OA
ATOM    100  O   UNL A   1      44.765  40.197  29.006  1.00  0.00    -0.744 OA
ENDBRANCH  93  97
ENDBRANCH  67  90
ENDBRANCH  41  42
ENDBRANCH  33  36
ENDBRANCH  31  32
ENDBRANCH  30  31
ENDBRANCH   1  30
TORSDOF 17
ENDMDL
