MODEL 1
REMARK VINA RESULT:     -10.1      0.000      0.000
REMARK SMILES O=C(CCCNc1ccccc1SC(F)F)NCCCCNC(=O)c1ccc(-c2c3nc(c(-c4cc(S(=O)(=O)[O-])ccc4F)c4ccc([nH]4)c(-c4cc(S(=O)(=O)[O-])ccc4F)c4nc(c(-c5cc(S(=O)(=O)[O-])ccc5F)c5ccc2[nH]5)C=C4)C=C3)cc1
REMARK SMILES IDX 18 1 17 2 1 3 2 4 3 6 4 7 5 8 6 9 7 11 8 12 12 13 9 14 11 15
REMARK SMILES IDX 10 16 13 17 14 18 15 19 16 20 19 21 20 22 21 23 22 24 23 25
REMARK SMILES IDX 24 27 25 28 26 29 87 30 27 31 86 32 28 33 29 34 30 35 80 36
REMARK SMILES IDX 31 37 85 38 79 39 81 40 32 41 84 42 78 43 77 44 33 46 65 47
REMARK SMILES IDX 45 48 64 49 46 50 49 51 63 52 82 53 47 54 48 55 62 57 83 58
REMARK SMILES IDX 50 59 34 60 35 61 43 62 36 63 42 64 44 65 41 66 37 67 38 68
REMARK SMILES IDX 39 69 40 70 66 71 67 72 75 73 68 74 74 75 76 76 73 77 69 78
REMARK SMILES IDX 70 79 71 80 72 81 51 82 52 83 60 84 53 85 59 86 61 87 58 88
REMARK SMILES IDX 54 89 55 90 56 91 57 92
REMARK H PARENT 17 5 6 10 22 26 81 45 49 56
REMARK Flexibility Score: inf
ROOT
ATOM      1  C   UNL A   1      31.134  28.424  23.710  1.00  0.00     0.116 C 
ENDROOT
BRANCH   1   2
ATOM      2  N   UNL A   1      31.989  27.345  24.170  1.00  0.00    -0.356 N 
ATOM      3  O   UNL A   1      33.420  27.392  22.371  1.00  0.00    -0.275 OA
ATOM      4  C   UNL A   1      33.066  26.899  23.437  1.00  0.00     0.220 C 
ATOM      5  H   UNL A   1      31.791  26.918  25.036  1.00  0.00     0.163 HD
BRANCH   4   6
ATOM      6  C   UNL A   1      33.779  25.700  24.029  1.00  0.00     0.102 C 
BRANCH   6   7
ATOM      7  C   UNL A   1      33.102  25.102  25.263  1.00  0.00     0.031 C 
BRANCH   7   8
ATOM      8  C   UNL A   1      32.190  23.898  25.008  1.00  0.00     0.113 C 
BRANCH   8   9
ATOM      9  N   UNL A   1      32.753  23.032  23.991  1.00  0.00    -0.384 N 
ATOM     10  H   UNL A   1      32.882  23.407  23.089  1.00  0.00     0.160 HD
BRANCH   9  11
ATOM     11  C   UNL A   1      33.122  21.707  24.200  1.00  0.00     0.048 A 
ATOM     12  C   UNL A   1      32.285  20.759  23.560  1.00  0.00     0.027 A 
ATOM     13  C   UNL A   1      34.251  21.220  24.896  1.00  0.00     0.036 A 
ATOM     14  C   UNL A   1      32.526  19.385  23.603  1.00  0.00     0.002 A 
ATOM     15  C   UNL A   1      34.451  19.818  24.964  1.00  0.00     0.017 A 
ATOM     16  C   UNL A   1      33.604  18.912  24.326  1.00  0.00     0.001 A 
BRANCH  13  17
ATOM     17  S   UNL A   1      35.611  22.141  25.619  1.00  0.00    -0.053 SA
BRANCH  17  18
ATOM     18  C   UNL A   1      36.709  22.579  24.268  1.00  0.00     0.405 C 
ATOM     19  F   UNL A   1      37.704  21.653  24.177  1.00  0.00    -0.198 F 
ATOM     20  F   UNL A   1      36.116  22.634  23.052  1.00  0.00    -0.198 F 
ENDBRANCH  17  18
ENDBRANCH  13  17
ENDBRANCH   9  11
ENDBRANCH   8   9
ENDBRANCH   7   8
ENDBRANCH   6   7
ENDBRANCH   4   6
ENDBRANCH   1   2
BRANCH   1  21
ATOM     21  C   UNL A   1      31.068  29.586  24.703  1.00  0.00     0.023 C 
BRANCH  21  22
ATOM     22  C   UNL A   1      31.753  29.334  26.050  1.00  0.00     0.023 C 
BRANCH  22  23
ATOM     23  C   UNL A   1      33.101  30.023  26.231  1.00  0.00     0.116 C 
BRANCH  23  24
ATOM     24  N   UNL A   1      33.000  31.367  26.770  1.00  0.00    -0.352 N 
ATOM     25  C   UNL A   1      33.828  32.035  27.644  1.00  0.00     0.251 C 
ATOM     26  H   UNL A   1      32.217  31.880  26.463  1.00  0.00     0.163 HD
ATOM     27  O   UNL A   1      33.507  33.148  28.040  1.00  0.00    -0.269 OA
BRANCH  25  28
ATOM     28  C   UNL A   1      35.077  31.401  28.139  1.00  0.00     0.039 A 
ATOM     29  C   UNL A   1      36.243  32.171  28.164  1.00  0.00     0.014 A 
ATOM     30  C   UNL A   1      35.116  30.072  28.567  1.00  0.00     0.014 A 
ATOM     31  C   UNL A   1      37.424  31.634  28.688  1.00  0.00     0.010 A 
ATOM     32  C   UNL A   1      36.274  29.562  29.159  1.00  0.00     0.010 A 
ATOM     33  C   UNL A   1      37.442  30.340  29.232  1.00  0.00    -0.014 A 
BRANCH  33  34
ATOM     34  C   UNL A   1      38.666  29.799  29.885  1.00  0.00     0.031 A 
ATOM     35  C   UNL A   1      39.099  30.306  31.235  1.00  0.00     0.074 A 
ATOM     36  C   UNL A   1      39.415  28.878  29.244  1.00  0.00     0.049 A 
ATOM     37  N   UNL A   1      40.165  30.001  31.932  1.00  0.00    -0.248 NA
ATOM     38  C   UNL A   1      38.232  31.308  31.872  1.00  0.00     0.031 C 
ATOM     39  C   UNL A   1      39.121  28.328  27.920  1.00  0.00     0.029 A 
ATOM     40  N   UNL A   1      40.578  28.247  29.613  1.00  0.00    -0.354 N 
ATOM     41  C   UNL A   1      40.100  30.776  33.087  1.00  0.00     0.074 A 
ATOM     42  C   UNL A   1      38.924  31.611  32.960  1.00  0.00     0.031 C 
ATOM     43  C   UNL A   1      40.061  27.425  27.600  1.00  0.00     0.029 A 
ATOM     44  C   UNL A   1      41.055  27.368  28.666  1.00  0.00     0.049 A 
ATOM     45  H   UNL A   1      41.028  28.407  30.473  1.00  0.00     0.167 HD
ATOM     46  C   UNL A   1      40.929  30.772  34.161  1.00  0.00     0.034 A 
ATOM     47  C   UNL A   1      42.174  26.615  28.649  1.00  0.00     0.034 A 
ATOM     48  C   UNL A   1      42.097  29.932  34.274  1.00  0.00     0.049 A 
ATOM     49  C   UNL A   1      43.107  26.662  29.833  1.00  0.00     0.074 A 
ATOM     50  C   UNL A   1      42.980  29.821  35.335  1.00  0.00     0.029 A 
ATOM     51  N   UNL A   1      42.557  29.065  33.290  1.00  0.00    -0.354 N 
ATOM     52  N   UNL A   1      43.006  27.369  30.936  1.00  0.00    -0.248 NA
ATOM     53  C   UNL A   1      44.297  25.805  29.776  1.00  0.00     0.031 C 
ATOM     54  C   UNL A   1      44.011  28.951  34.964  1.00  0.00     0.029 A 
ATOM     55  C   UNL A   1      43.728  28.447  33.705  1.00  0.00     0.049 A 
ATOM     56  H   UNL A   1      42.116  28.913  32.423  1.00  0.00     0.167 HD
ATOM     57  C   UNL A   1      44.104  27.014  31.716  1.00  0.00     0.074 A 
ATOM     58  C   UNL A   1      44.842  26.020  30.964  1.00  0.00     0.031 C 
ATOM     59  C   UNL A   1      44.466  27.465  32.944  1.00  0.00     0.034 A 
BRANCH  46  60
ATOM     60  C   UNL A   1      40.612  31.730  35.286  1.00  0.00     0.023 A 
ATOM     61  C   UNL A   1      39.532  31.512  36.160  1.00  0.00     0.031 A 
ATOM     62  C   UNL A   1      41.386  32.890  35.479  1.00  0.00     0.131 A 
ATOM     63  C   UNL A   1      39.206  32.474  37.129  1.00  0.00     0.055 A 
ATOM     64  C   UNL A   1      41.109  33.799  36.502  1.00  0.00     0.041 A 
ATOM     65  F   UNL A   1      42.417  33.166  34.665  1.00  0.00    -0.206 F 
ATOM     66  C   UNL A   1      40.004  33.603  37.324  1.00  0.00     0.022 A 
BRANCH  63  67
ATOM     67  S   UNL A   1      37.636  32.306  38.020  1.00  0.00     0.124 S 
ATOM     68  O   UNL A   1      36.755  33.163  37.229  1.00  0.00    -0.237 OA
ATOM     69  O   UNL A   1      37.377  30.874  37.936  1.00  0.00    -0.237 OA
ATOM     70  O   UNL A   1      37.945  32.809  39.357  1.00  0.00    -0.744 OA
ENDBRANCH  63  67
ENDBRANCH  46  60
BRANCH  47  71
ATOM     71  C   UNL A   1      42.493  25.765  27.464  1.00  0.00     0.023 A 
ATOM     72  C   UNL A   1      42.047  24.436  27.380  1.00  0.00     0.031 A 
ATOM     73  C   UNL A   1      43.295  26.255  26.417  1.00  0.00     0.131 A 
ATOM     74  C   UNL A   1      42.444  23.631  26.301  1.00  0.00     0.055 A 
ATOM     75  C   UNL A   1      43.636  25.469  25.316  1.00  0.00     0.041 A 
ATOM     76  F   UNL A   1      43.751  27.518  26.446  1.00  0.00    -0.206 F 
ATOM     77  C   UNL A   1      43.221  24.143  25.261  1.00  0.00     0.022 A 
BRANCH  74  78
ATOM     78  S   UNL A   1      42.008  21.869  26.324  1.00  0.00     0.124 S 
ATOM     79  O   UNL A   1      42.855  21.340  25.262  1.00  0.00    -0.237 OA
ATOM     80  O   UNL A   1      42.369  21.486  27.685  1.00  0.00    -0.237 OA
ATOM     81  O   UNL A   1      40.575  21.871  26.039  1.00  0.00    -0.744 OA
ENDBRANCH  74  78
ENDBRANCH  47  71
BRANCH  59  82
ATOM     82  C   UNL A   1      45.693  26.847  33.571  1.00  0.00     0.023 A 
ATOM     83  C   UNL A   1      46.977  27.390  33.389  1.00  0.00     0.031 A 
ATOM     84  C   UNL A   1      45.576  25.687  34.359  1.00  0.00     0.131 A 
ATOM     85  C   UNL A   1      48.096  26.743  33.935  1.00  0.00     0.055 A 
ATOM     86  C   UNL A   1      46.684  25.085  34.956  1.00  0.00     0.041 A 
ATOM     87  F   UNL A   1      44.376  25.120  34.566  1.00  0.00    -0.206 F 
ATOM     88  C   UNL A   1      47.956  25.605  34.734  1.00  0.00     0.022 A 
BRANCH  85  89
ATOM     89  S   UNL A   1      49.751  27.350  33.506  1.00  0.00     0.124 S 
ATOM     90  O   UNL A   1      50.416  26.128  33.066  1.00  0.00    -0.237 OA
ATOM     91  O   UNL A   1      49.463  28.330  32.462  1.00  0.00    -0.237 OA
ATOM     92  O   UNL A   1      50.247  27.910  34.761  1.00  0.00    -0.744 OA
ENDBRANCH  85  89
ENDBRANCH  59  82
ENDBRANCH  33  34
ENDBRANCH  25  28
ENDBRANCH  23  24
ENDBRANCH  22  23
ENDBRANCH  21  22
ENDBRANCH   1  21
TORSDOF 20
ENDMDL
MODEL 2
REMARK VINA RESULT:      -9.9      2.171      7.984
REMARK SMILES O=C(CCCNc1ccccc1SC(F)F)NCCCCNC(=O)c1ccc(-c2c3nc(c(-c4cc(S(=O)(=O)[O-])ccc4F)c4ccc([nH]4)c(-c4cc(S(=O)(=O)[O-])ccc4F)c4nc(c(-c5cc(S(=O)(=O)[O-])ccc5F)c5ccc2[nH]5)C=C4)C=C3)cc1
REMARK SMILES IDX 18 1 17 2 1 3 2 4 3 6 4 7 5 8 6 9 7 11 8 12 12 13 9 14 11 15
REMARK SMILES IDX 10 16 13 17 14 18 15 19 16 20 19 21 20 22 21 23 22 24 23 25
REMARK SMILES IDX 24 27 25 28 26 29 87 30 27 31 86 32 28 33 29 34 30 35 80 36
REMARK SMILES IDX 31 37 85 38 79 39 81 40 32 41 84 42 78 43 77 44 33 46 65 47
REMARK SMILES IDX 45 48 64 49 46 50 49 51 63 52 82 53 47 54 48 55 62 57 83 58
REMARK SMILES IDX 50 59 34 60 35 61 43 62 36 63 42 64 44 65 41 66 37 67 38 68
REMARK SMILES IDX 39 69 40 70 66 71 67 72 75 73 68 74 74 75 76 76 73 77 69 78
REMARK SMILES IDX 70 79 71 80 72 81 51 82 52 83 60 84 53 85 59 86 61 87 58 88
REMARK SMILES IDX 54 89 55 90 56 91 57 92
REMARK H PARENT 17 5 6 10 22 26 81 45 49 56
REMARK Flexibility Score: inf
ROOT
ATOM      1  C   UNL A   1      32.349  26.899  23.184  1.00  0.00     0.116 C 
ENDROOT
BRANCH   1   2
ATOM      2  N   UNL A   1      31.593  26.375  24.307  1.00  0.00    -0.356 N 
ATOM      3  O   UNL A   1      33.422  25.814  25.583  1.00  0.00    -0.275 OA
ATOM      4  C   UNL A   1      32.206  25.848  25.421  1.00  0.00     0.220 C 
ATOM      5  H   UNL A   1      30.609  26.397  24.270  1.00  0.00     0.163 HD
BRANCH   4   6
ATOM      6  C   UNL A   1      31.257  25.258  26.445  1.00  0.00     0.102 C 
BRANCH   6   7
ATOM      7  C   UNL A   1      31.235  23.729  26.486  1.00  0.00     0.031 C 
BRANCH   7   8
ATOM      8  C   UNL A   1      31.264  23.023  25.128  1.00  0.00     0.113 C 
BRANCH   8   9
ATOM      9  N   UNL A   1      31.800  21.682  25.255  1.00  0.00    -0.384 N 
ATOM     10  H   UNL A   1      31.161  20.942  25.368  1.00  0.00     0.160 HD
BRANCH   9  11
ATOM     11  C   UNL A   1      33.156  21.370  25.228  1.00  0.00     0.048 A 
ATOM     12  C   UNL A   1      34.011  22.448  25.571  1.00  0.00     0.027 A 
ATOM     13  C   UNL A   1      33.753  20.115  24.980  1.00  0.00     0.036 A 
ATOM     14  C   UNL A   1      35.397  22.317  25.657  1.00  0.00     0.002 A 
ATOM     15  C   UNL A   1      35.166  20.015  25.030  1.00  0.00     0.017 A 
ATOM     16  C   UNL A   1      35.979  21.098  25.366  1.00  0.00     0.001 A 
BRANCH  13  17
ATOM     17  S   UNL A   1      32.963  18.521  24.741  1.00  0.00    -0.053 SA
BRANCH  17  18
ATOM     18  C   UNL A   1      32.157  18.582  23.139  1.00  0.00     0.405 C 
ATOM     19  F   UNL A   1      32.363  19.806  22.577  1.00  0.00    -0.198 F 
ATOM     20  F   UNL A   1      32.599  17.665  22.247  1.00  0.00    -0.198 F 
ENDBRANCH  17  18
ENDBRANCH  13  17
ENDBRANCH   9  11
ENDBRANCH   8   9
ENDBRANCH   7   8
ENDBRANCH   6   7
ENDBRANCH   4   6
ENDBRANCH   1   2
BRANCH   1  21
ATOM     21  C   UNL A   1      32.333  28.429  23.128  1.00  0.00     0.023 C 
BRANCH  21  22
ATOM     22  C   UNL A   1      31.663  29.119  24.320  1.00  0.00     0.023 C 
BRANCH  22  23
ATOM     23  C   UNL A   1      32.619  29.661  25.377  1.00  0.00     0.116 C 
BRANCH  23  24
ATOM     24  N   UNL A   1      32.188  30.918  25.960  1.00  0.00    -0.352 N 
ATOM     25  C   UNL A   1      32.747  31.662  26.975  1.00  0.00     0.251 C 
ATOM     26  H   UNL A   1      31.366  31.298  25.570  1.00  0.00     0.163 HD
ATOM     27  O   UNL A   1      32.167  32.662  27.375  1.00  0.00    -0.269 OA
BRANCH  25  28
ATOM     28  C   UNL A   1      34.020  31.237  27.612  1.00  0.00     0.039 A 
ATOM     29  C   UNL A   1      34.971  32.218  27.909  1.00  0.00     0.014 A 
ATOM     30  C   UNL A   1      34.292  29.899  27.912  1.00  0.00     0.014 A 
ATOM     31  C   UNL A   1      36.153  31.870  28.571  1.00  0.00     0.010 A 
ATOM     32  C   UNL A   1      35.435  29.564  28.640  1.00  0.00     0.010 A 
ATOM     33  C   UNL A   1      36.378  30.547  28.984  1.00  0.00    -0.014 A 
BRANCH  33  34
ATOM     34  C   UNL A   1      37.583  30.186  29.781  1.00  0.00     0.031 A 
ATOM     35  C   UNL A   1      38.625  29.259  29.213  1.00  0.00     0.074 A 
ATOM     36  C   UNL A   1      37.721  30.659  31.037  1.00  0.00     0.049 A 
ATOM     37  N   UNL A   1      39.707  28.784  29.777  1.00  0.00    -0.248 NA
ATOM     38  C   UNL A   1      38.407  28.785  27.839  1.00  0.00     0.031 C 
ATOM     39  C   UNL A   1      36.768  31.539  31.714  1.00  0.00     0.029 A 
ATOM     40  N   UNL A   1      38.710  30.464  31.970  1.00  0.00    -0.354 N 
ATOM     41  C   UNL A   1      40.296  27.951  28.830  1.00  0.00     0.074 A 
ATOM     42  C   UNL A   1      39.413  27.938  27.683  1.00  0.00     0.031 C 
ATOM     43  C   UNL A   1      37.229  31.829  32.940  1.00  0.00     0.029 A 
ATOM     44  C   UNL A   1      38.482  31.114  33.163  1.00  0.00     0.049 A 
ATOM     45  H   UNL A   1      39.506  29.911  31.803  1.00  0.00     0.167 HD
ATOM     46  C   UNL A   1      41.475  27.282  28.901  1.00  0.00     0.034 A 
ATOM     47  C   UNL A   1      39.190  31.122  34.310  1.00  0.00     0.034 A 
ATOM     48  C   UNL A   1      42.346  27.306  30.052  1.00  0.00     0.049 A 
ATOM     49  C   UNL A   1      40.473  30.331  34.384  1.00  0.00     0.074 A 
ATOM     50  C   UNL A   1      43.580  26.697  30.212  1.00  0.00     0.029 A 
ATOM     51  N   UNL A   1      42.076  27.964  31.245  1.00  0.00    -0.354 N 
ATOM     52  N   UNL A   1      41.036  29.584  33.462  1.00  0.00    -0.248 NA
ATOM     53  C   UNL A   1      41.219  30.393  35.647  1.00  0.00     0.031 C 
ATOM     54  C   UNL A   1      44.016  26.921  31.522  1.00  0.00     0.029 A 
ATOM     55  C   UNL A   1      43.101  27.744  32.156  1.00  0.00     0.049 A 
ATOM     56  H   UNL A   1      41.273  28.507  31.421  1.00  0.00     0.167 HD
ATOM     57  C   UNL A   1      42.221  29.115  34.027  1.00  0.00     0.074 A 
ATOM     58  C   UNL A   1      42.295  29.677  35.360  1.00  0.00     0.031 C 
ATOM     59  C   UNL A   1      43.163  28.298  33.489  1.00  0.00     0.034 A 
BRANCH  46  60
ATOM     60  C   UNL A   1      41.871  26.443  27.708  1.00  0.00     0.023 A 
ATOM     61  C   UNL A   1      41.490  25.094  27.594  1.00  0.00     0.031 A 
ATOM     62  C   UNL A   1      42.657  26.991  26.678  1.00  0.00     0.131 A 
ATOM     63  C   UNL A   1      41.961  24.320  26.522  1.00  0.00     0.055 A 
ATOM     64  C   UNL A   1      43.049  26.238  25.569  1.00  0.00     0.041 A 
ATOM     65  F   UNL A   1      43.071  28.266  26.739  1.00  0.00    -0.206 F 
ATOM     66  C   UNL A   1      42.716  24.889  25.494  1.00  0.00     0.022 A 
BRANCH  63  67
ATOM     67  S   UNL A   1      41.707  22.525  26.576  1.00  0.00     0.124 S 
ATOM     68  O   UNL A   1      42.408  22.166  27.807  1.00  0.00    -0.237 OA
ATOM     69  O   UNL A   1      40.254  22.413  26.611  1.00  0.00    -0.237 OA
ATOM     70  O   UNL A   1      42.341  22.052  25.347  1.00  0.00    -0.744 OA
ENDBRANCH  63  67
ENDBRANCH  46  60
BRANCH  47  71
ATOM     71  C   UNL A   1      38.698  31.883  35.496  1.00  0.00     0.023 A 
ATOM     72  C   UNL A   1      38.183  31.223  36.623  1.00  0.00     0.031 A 
ATOM     73  C   UNL A   1      38.692  33.290  35.500  1.00  0.00     0.131 A 
ATOM     74  C   UNL A   1      37.639  31.966  37.683  1.00  0.00     0.055 A 
ATOM     75  C   UNL A   1      38.205  34.025  36.582  1.00  0.00     0.041 A 
ATOM     76  F   UNL A   1      39.171  33.973  34.448  1.00  0.00    -0.206 F 
ATOM     77  C   UNL A   1      37.662  33.362  37.677  1.00  0.00     0.022 A 
BRANCH  74  78
ATOM     78  S   UNL A   1      36.810  31.079  39.031  1.00  0.00     0.124 S 
ATOM     79  O   UNL A   1      35.582  31.851  39.183  1.00  0.00    -0.237 OA
ATOM     80  O   UNL A   1      36.662  29.741  38.467  1.00  0.00    -0.237 OA
ATOM     81  O   UNL A   1      37.757  31.185  40.139  1.00  0.00    -0.744 OA
ENDBRANCH  74  78
ENDBRANCH  47  71
BRANCH  59  82
ATOM     82  C   UNL A   1      44.382  28.003  34.331  1.00  0.00     0.023 A 
ATOM     83  C   UNL A   1      44.448  26.885  35.179  1.00  0.00     0.031 A 
ATOM     84  C   UNL A   1      45.494  28.865  34.290  1.00  0.00     0.131 A 
ATOM     85  C   UNL A   1      45.574  26.689  35.994  1.00  0.00     0.055 A 
ATOM     86  C   UNL A   1      46.638  28.629  35.051  1.00  0.00     0.041 A 
ATOM     87  F   UNL A   1      45.486  29.953  33.501  1.00  0.00    -0.206 F 
ATOM     88  C   UNL A   1      46.678  27.543  35.921  1.00  0.00     0.022 A 
BRANCH  85  89
ATOM     89  S   UNL A   1      45.539  25.358  37.226  1.00  0.00     0.124 S 
ATOM     90  O   UNL A   1      46.625  24.496  36.770  1.00  0.00    -0.237 OA
ATOM     91  O   UNL A   1      45.778  26.079  38.473  1.00  0.00    -0.237 OA
ATOM     92  O   UNL A   1      44.199  24.794  37.084  1.00  0.00    -0.744 OA
ENDBRANCH  85  89
ENDBRANCH  59  82
ENDBRANCH  33  34
ENDBRANCH  25  28
ENDBRANCH  23  24
ENDBRANCH  22  23
ENDBRANCH  21  22
ENDBRANCH   1  21
TORSDOF 20
ENDMDL
MODEL 3
REMARK VINA RESULT:      -9.8      3.824      9.242
REMARK SMILES O=C(CCCNc1ccccc1SC(F)F)NCCCCNC(=O)c1ccc(-c2c3nc(c(-c4cc(S(=O)(=O)[O-])ccc4F)c4ccc([nH]4)c(-c4cc(S(=O)(=O)[O-])ccc4F)c4nc(c(-c5cc(S(=O)(=O)[O-])ccc5F)c5ccc2[nH]5)C=C4)C=C3)cc1
REMARK SMILES IDX 18 1 17 2 1 3 2 4 3 6 4 7 5 8 6 9 7 11 8 12 12 13 9 14 11 15
REMARK SMILES IDX 10 16 13 17 14 18 15 19 16 20 19 21 20 22 21 23 22 24 23 25
REMARK SMILES IDX 24 27 25 28 26 29 87 30 27 31 86 32 28 33 29 34 30 35 80 36
REMARK SMILES IDX 31 37 85 38 79 39 81 40 32 41 84 42 78 43 77 44 33 46 65 47
REMARK SMILES IDX 45 48 64 49 46 50 49 51 63 52 82 53 47 54 48 55 62 57 83 58
REMARK SMILES IDX 50 59 34 60 35 61 43 62 36 63 42 64 44 65 41 66 37 67 38 68
REMARK SMILES IDX 39 69 40 70 66 71 67 72 75 73 68 74 74 75 76 76 73 77 69 78
REMARK SMILES IDX 70 79 71 80 72 81 51 82 52 83 60 84 53 85 59 86 61 87 58 88
REMARK SMILES IDX 54 89 55 90 56 91 57 92
REMARK H PARENT 17 5 6 10 22 26 81 45 49 56
REMARK Flexibility Score: inf
ROOT
ATOM      1  C   UNL A   1      34.648  32.369  29.369  1.00  0.00     0.116 C 
ENDROOT
BRANCH   1   2
ATOM      2  N   UNL A   1      34.414  31.186  28.561  1.00  0.00    -0.356 N 
ATOM      3  O   UNL A   1      36.619  30.834  28.012  1.00  0.00    -0.275 OA
ATOM      4  C   UNL A   1      35.436  30.520  27.923  1.00  0.00     0.220 C 
ATOM      5  H   UNL A   1      33.493  30.848  28.467  1.00  0.00     0.163 HD
BRANCH   4   6
ATOM      6  C   UNL A   1      34.989  29.369  27.045  1.00  0.00     0.102 C 
BRANCH   6   7
ATOM      7  C   UNL A   1      33.601  28.817  27.377  1.00  0.00     0.031 C 
BRANCH   7   8
ATOM      8  C   UNL A   1      32.874  28.105  26.232  1.00  0.00     0.113 C 
BRANCH   8   9
ATOM      9  N   UNL A   1      33.812  27.667  25.219  1.00  0.00    -0.384 N 
ATOM     10  H   UNL A   1      34.709  28.074  25.217  1.00  0.00     0.160 HD
BRANCH   9  11
ATOM     11  C   UNL A   1      33.533  26.710  24.247  1.00  0.00     0.048 A 
ATOM     12  C   UNL A   1      34.179  25.464  24.452  1.00  0.00     0.027 A 
ATOM     13  C   UNL A   1      32.644  26.815  23.156  1.00  0.00     0.036 A 
ATOM     14  C   UNL A   1      33.979  24.363  23.620  1.00  0.00     0.002 A 
ATOM     15  C   UNL A   1      32.490  25.697  22.297  1.00  0.00     0.017 A 
ATOM     16  C   UNL A   1      33.146  24.486  22.525  1.00  0.00     0.001 A 
BRANCH  13  17
ATOM     17  S   UNL A   1      31.518  28.151  22.746  1.00  0.00    -0.053 SA
BRANCH  17  18
ATOM     18  C   UNL A   1      30.070  27.938  23.784  1.00  0.00     0.405 C 
ATOM     19  F   UNL A   1      28.954  27.911  23.004  1.00  0.00    -0.198 F 
ATOM     20  F   UNL A   1      30.060  26.798  24.516  1.00  0.00    -0.198 F 
ENDBRANCH  17  18
ENDBRANCH  13  17
ENDBRANCH   9  11
ENDBRANCH   8   9
ENDBRANCH   7   8
ENDBRANCH   6   7
ENDBRANCH   4   6
ENDBRANCH   1   2
BRANCH   1  21
ATOM     21  C   UNL A   1      34.485  33.665  28.572  1.00  0.00     0.023 C 
BRANCH  21  22
ATOM     22  C   UNL A   1      33.174  34.419  28.811  1.00  0.00     0.023 C 
BRANCH  22  23
ATOM     23  C   UNL A   1      33.330  35.853  29.304  1.00  0.00     0.116 C 
BRANCH  23  24
ATOM     24  N   UNL A   1      32.575  36.138  30.511  1.00  0.00    -0.352 N 
ATOM     25  C   UNL A   1      32.798  35.740  31.810  1.00  0.00     0.251 C 
ATOM     26  H   UNL A   1      31.779  36.704  30.379  1.00  0.00     0.163 HD
ATOM     27  O   UNL A   1      31.979  36.026  32.673  1.00  0.00    -0.269 OA
BRANCH  25  28
ATOM     28  C   UNL A   1      33.995  34.933  32.160  1.00  0.00     0.039 A 
ATOM     29  C   UNL A   1      35.255  35.446  31.837  1.00  0.00     0.014 A 
ATOM     30  C   UNL A   1      33.896  33.689  32.788  1.00  0.00     0.014 A 
ATOM     31  C   UNL A   1      36.410  34.751  32.211  1.00  0.00     0.010 A 
ATOM     32  C   UNL A   1      35.048  33.033  33.227  1.00  0.00     0.010 A 
ATOM     33  C   UNL A   1      36.320  33.560  32.949  1.00  0.00    -0.014 A 
BRANCH  33  34
ATOM     34  C   UNL A   1      37.544  32.868  33.442  1.00  0.00     0.031 A 
ATOM     35  C   UNL A   1      38.129  31.712  32.675  1.00  0.00     0.074 A 
ATOM     36  C   UNL A   1      38.107  33.253  34.605  1.00  0.00     0.049 A 
ATOM     37  N   UNL A   1      39.150  30.949  32.977  1.00  0.00    -0.248 NA
ATOM     38  C   UNL A   1      37.461  31.351  31.416  1.00  0.00     0.031 C 
ATOM     39  C   UNL A   1      37.620  34.338  35.459  1.00  0.00     0.029 A 
ATOM     40  N   UNL A   1      39.207  32.776  35.276  1.00  0.00    -0.354 N 
ATOM     41  C   UNL A   1      39.244  30.015  31.949  1.00  0.00     0.074 A 
ATOM     42  C   UNL A   1      38.135  30.269  31.054  1.00  0.00     0.031 C 
ATOM     43  C   UNL A   1      38.429  34.460  36.522  1.00  0.00     0.029 A 
ATOM     44  C   UNL A   1      39.461  33.431  36.460  1.00  0.00     0.049 A 
ATOM     45  H   UNL A   1      39.761  32.034  34.942  1.00  0.00     0.167 HD
ATOM     46  C   UNL A   1      40.182  29.052  31.758  1.00  0.00     0.034 A 
ATOM     47  C   UNL A   1      40.406  33.218  37.399  1.00  0.00     0.034 A 
ATOM     48  C   UNL A   1      41.283  28.812  32.658  1.00  0.00     0.049 A 
ATOM     49  C   UNL A   1      41.409  32.111  37.189  1.00  0.00     0.074 A 
ATOM     50  C   UNL A   1      42.311  27.891  32.537  1.00  0.00     0.029 A 
ATOM     51  N   UNL A   1      41.501  29.486  33.854  1.00  0.00    -0.354 N 
ATOM     52  N   UNL A   1      41.509  31.265  36.189  1.00  0.00    -0.248 NA
ATOM     53  C   UNL A   1      42.432  31.937  38.228  1.00  0.00     0.031 C 
ATOM     54  C   UNL A   1      43.100  27.954  33.691  1.00  0.00     0.029 A 
ATOM     55  C   UNL A   1      42.622  28.976  34.495  1.00  0.00     0.049 A 
ATOM     56  H   UNL A   1      40.940  30.219  34.198  1.00  0.00     0.167 HD
ATOM     57  C   UNL A   1      42.627  30.481  36.466  1.00  0.00     0.074 A 
ATOM     58  C   UNL A   1      43.174  30.967  37.716  1.00  0.00     0.031 C 
ATOM     59  C   UNL A   1      43.155  29.457  35.748  1.00  0.00     0.034 A 
BRANCH  46  60
ATOM     60  C   UNL A   1      40.034  28.171  30.539  1.00  0.00     0.023 A 
ATOM     61  C   UNL A   1      40.766  28.409  29.362  1.00  0.00     0.031 A 
ATOM     62  C   UNL A   1      39.134  27.090  30.543  1.00  0.00     0.131 A 
ATOM     63  C   UNL A   1      40.528  27.631  28.218  1.00  0.00     0.055 A 
ATOM     64  C   UNL A   1      38.967  26.265  29.428  1.00  0.00     0.041 A 
ATOM     65  F   UNL A   1      38.390  26.824  31.628  1.00  0.00    -0.206 F 
ATOM     66  C   UNL A   1      39.653  26.544  28.250  1.00  0.00     0.022 A 
BRANCH  63  67
ATOM     67  S   UNL A   1      41.259  28.163  26.645  1.00  0.00     0.124 S 
ATOM     68  O   UNL A   1      40.278  29.143  26.182  1.00  0.00    -0.237 OA
ATOM     69  O   UNL A   1      42.549  28.698  27.062  1.00  0.00    -0.237 OA
ATOM     70  O   UNL A   1      41.316  26.932  25.860  1.00  0.00    -0.744 OA
ENDBRANCH  63  67
ENDBRANCH  46  60
BRANCH  47  71
ATOM     71  C   UNL A   1      40.442  34.051  38.636  1.00  0.00     0.023 A 
ATOM     72  C   UNL A   1      39.657  33.729  39.755  1.00  0.00     0.031 A 
ATOM     73  C   UNL A   1      41.230  35.215  38.701  1.00  0.00     0.131 A 
ATOM     74  C   UNL A   1      39.638  34.584  40.868  1.00  0.00     0.055 A 
ATOM     75  C   UNL A   1      41.255  36.030  39.834  1.00  0.00     0.041 A 
ATOM     76  F   UNL A   1      42.000  35.572  37.661  1.00  0.00    -0.206 F 
ATOM     77  C   UNL A   1      40.444  35.723  40.922  1.00  0.00     0.022 A 
BRANCH  74  78
ATOM     78  S   UNL A   1      38.468  34.237  42.211  1.00  0.00     0.124 S 
ATOM     79  O   UNL A   1      37.793  33.043  41.715  1.00  0.00    -0.237 OA
ATOM     80  O   UNL A   1      39.360  34.046  43.349  1.00  0.00    -0.237 OA
ATOM     81  O   UNL A   1      37.645  35.444  42.263  1.00  0.00    -0.744 OA
ENDBRANCH  74  78
ENDBRANCH  47  71
BRANCH  59  82
ATOM     82  C   UNL A   1      44.420  28.824  36.278  1.00  0.00     0.023 A 
ATOM     83  C   UNL A   1      44.394  27.784  37.223  1.00  0.00     0.031 A 
ATOM     84  C   UNL A   1      45.676  29.278  35.835  1.00  0.00     0.131 A 
ATOM     85  C   UNL A   1      45.595  27.274  37.738  1.00  0.00     0.055 A 
ATOM     86  C   UNL A   1      46.868  28.721  36.300  1.00  0.00     0.041 A 
ATOM     87  F   UNL A   1      45.765  30.273  34.936  1.00  0.00    -0.206 F 
ATOM     88  C   UNL A   1      46.832  27.722  37.268  1.00  0.00     0.022 A 
BRANCH  85  89
ATOM     89  S   UNL A   1      45.523  26.083  39.104  1.00  0.00     0.124 S 
ATOM     90  O   UNL A   1      45.076  24.871  38.426  1.00  0.00    -0.237 OA
ATOM     91  O   UNL A   1      46.902  26.073  39.584  1.00  0.00    -0.237 OA
ATOM     92  O   UNL A   1      44.553  26.673  40.024  1.00  0.00    -0.744 OA
ENDBRANCH  85  89
ENDBRANCH  59  82
ENDBRANCH  33  34
ENDBRANCH  25  28
ENDBRANCH  23  24
ENDBRANCH  22  23
ENDBRANCH  21  22
ENDBRANCH   1  21
TORSDOF 20
ENDMDL
