MODEL 1
REMARK VINA RESULT:     -13.6      0.000      0.000
REMARK SMILES Cc1ccc([C@@H](C)Nc2ccc(N)cc2C(=O)NCCCCNC(=O)c2ccc(-c3c4nc(c(-c5cc(S(=O)(=O)[O-])ccc5F)c5ccc([nH]5)c(-c5cc(S(=O)(=O)[O-])ccc5F)c5nc(c(-c6cc(S(=O)(=O)[O-])ccc6F)c6ccc3[nH]6)C=C5)C=C4)cc2)cc1F
REMARK SMILES IDX 20 1 19 2 18 3 16 4 17 5 15 7 9 8 10 9 11 10 14 11 12 12
REMARK SMILES IDX 8 13 6 15 7 16 5 17 1 18 2 19 3 20 90 21 4 22 89 23 91 24
REMARK SMILES IDX 13 25 21 28 22 29 23 30 24 31 25 33 26 34 27 35 88 36 28 37
REMARK SMILES IDX 87 38 29 39 30 40 31 41 81 42 32 43 86 44 80 45 82 46 33 47
REMARK SMILES IDX 85 48 79 49 78 50 34 52 66 53 46 54 65 55 47 56 50 57 64 58
REMARK SMILES IDX 83 59 48 60 49 61 63 63 84 64 51 65 35 66 36 67 44 68 37 69
REMARK SMILES IDX 43 70 45 71 42 72 38 73 39 74 40 75 41 76 67 77 68 78 76 79
REMARK SMILES IDX 69 80 75 81 77 82 74 83 70 84 71 85 72 86 73 87 52 88 53 89
REMARK SMILES IDX 61 90 54 91 60 92 62 93 59 94 55 95 56 96 57 97 58 98
REMARK H PARENT 18 6 8 14 13 26 13 27 23 32 82 51 50 62
REMARK Flexibility Score: inf
ROOT
ATOM      1  C   UNL A   1      34.673  24.411  25.183  1.00  0.00     0.023 C 
ENDROOT
BRANCH   1   2
ATOM      2  C   UNL A   1      33.939  25.966  25.146  1.00  0.00     0.116 C 
BRANCH   2   3
ATOM      3  N   UNL A   1      34.030  26.793  23.946  1.00  0.00    -0.352 N 
ATOM      4  C   UNL A   1      33.661  28.100  23.741  1.00  0.00     0.253 C 
ATOM      5  O   UNL A   1      34.029  28.690  22.727  1.00  0.00    -0.269 OA
ATOM      6  H   UNL A   1      34.415  26.343  23.161  1.00  0.00     0.163 HD
BRANCH   4   7
ATOM      7  C   UNL A   1      32.661  28.719  24.633  1.00  0.00     0.065 A 
ATOM      8  C   UNL A   1      31.423  29.223  24.228  1.00  0.00     0.048 A 
ATOM      9  C   UNL A   1      30.953  30.313  24.981  1.00  0.00     0.028 A 
ATOM     10  C   UNL A   1      31.600  30.752  26.149  1.00  0.00     0.027 A 
ATOM     11  C   UNL A   1      33.213  29.035  25.889  1.00  0.00     0.041 A 
ATOM     12  C   UNL A   1      32.670  30.040  26.673  1.00  0.00     0.032 A 
BRANCH   8  13
ATOM     13  N   UNL A   1      30.654  28.797  23.163  1.00  0.00    -0.378 N 
ATOM     14  H   UNL A   1      30.817  29.276  22.319  1.00  0.00     0.161 HD
BRANCH  13  15
ATOM     15  C   UNL A   1      29.631  27.746  23.085  1.00  0.00     0.106 C 
ATOM     16  C   UNL A   1      28.205  28.234  23.295  1.00  0.00     0.036 C 
BRANCH  15  17
ATOM     17  C   UNL A   1      30.160  26.461  23.722  1.00  0.00    -0.023 A 
ATOM     18  C   UNL A   1      31.650  21.764  25.010  1.00  0.00     0.047 C 
ATOM     19  C   UNL A   1      31.495  23.241  24.783  1.00  0.00    -0.015 A 
ATOM     20  C   UNL A   1      31.685  23.787  23.080  1.00  0.00     0.007 A 
ATOM     21  C   UNL A   1      30.609  24.297  25.960  1.00  0.00     0.126 A 
ATOM     22  C   UNL A   1      31.071  25.407  22.565  1.00  0.00     0.006 A 
ATOM     23  C   UNL A   1      29.943  25.910  25.439  1.00  0.00     0.045 A 
ATOM     24  F   UNL A   1      30.368  23.848  27.197  1.00  0.00    -0.207 F 
ENDBRANCH  15  17
ENDBRANCH  13  15
ENDBRANCH   8  13
BRANCH  12  25
ATOM     25  N   UNL A   1      33.324  30.448  27.825  1.00  0.00    -0.399 N 
ATOM     26  H   UNL A   1      34.179  30.931  27.760  1.00  0.00     0.156 HD
ATOM     27  H   UNL A   1      32.932  30.254  28.707  1.00  0.00     0.156 HD
ENDBRANCH  12  25
ENDBRANCH   4   7
ENDBRANCH   2   3
ENDBRANCH   1   2
BRANCH   1  28
ATOM     28  C   UNL A   1      36.478  23.523  26.050  1.00  0.00     0.023 C 
BRANCH  28  29
ATOM     29  C   UNL A   1      38.002  23.317  25.601  1.00  0.00     0.116 C 
BRANCH  29  30
ATOM     30  N   UNL A   1      38.836  22.773  26.682  1.00  0.00    -0.352 N 
ATOM     31  C   UNL A   1      40.057  23.305  27.020  1.00  0.00     0.251 C 
ATOM     32  H   UNL A   1      38.505  21.995  27.186  1.00  0.00     0.163 HD
ATOM     33  O   UNL A   1      41.037  22.589  27.135  1.00  0.00    -0.269 OA
BRANCH  31  34
ATOM     34  C   UNL A   1      39.997  24.744  27.311  1.00  0.00     0.039 A 
ATOM     35  C   UNL A   1      40.440  25.745  26.458  1.00  0.00     0.014 A 
ATOM     36  C   UNL A   1      39.548  25.054  28.598  1.00  0.00     0.014 A 
ATOM     37  C   UNL A   1      40.598  27.007  27.008  1.00  0.00     0.010 A 
ATOM     38  C   UNL A   1      39.291  26.310  28.946  1.00  0.00     0.010 A 
ATOM     39  C   UNL A   1      40.093  27.213  28.289  1.00  0.00    -0.014 A 
BRANCH  39  40
ATOM     40  C   UNL A   1      40.273  28.351  29.146  1.00  0.00     0.031 A 
ATOM     41  C   UNL A   1      39.255  29.364  28.895  1.00  0.00     0.074 A 
ATOM     42  C   UNL A   1      41.104  28.085  30.191  1.00  0.00     0.049 A 
ATOM     43  N   UNL A   1      39.457  30.629  28.817  1.00  0.00    -0.248 NA
ATOM     44  C   UNL A   1      37.887  28.982  28.476  1.00  0.00     0.031 C 
ATOM     45  C   UNL A   1      41.191  28.598  31.546  1.00  0.00     0.029 A 
ATOM     46  N   UNL A   1      42.124  27.130  30.190  1.00  0.00    -0.354 N 
ATOM     47  C   UNL A   1      38.190  31.151  28.959  1.00  0.00     0.074 A 
ATOM     48  C   UNL A   1      37.303  30.177  28.375  1.00  0.00     0.031 C 
ATOM     49  C   UNL A   1      42.369  28.218  32.094  1.00  0.00     0.029 A 
ATOM     50  C   UNL A   1      43.122  27.472  31.092  1.00  0.00     0.049 A 
ATOM     51  H   UNL A   1      42.133  26.324  29.625  1.00  0.00     0.167 HD
ATOM     52  C   UNL A   1      37.955  31.995  30.006  1.00  0.00     0.034 A 
ATOM     53  C   UNL A   1      44.332  27.824  30.552  1.00  0.00     0.034 A 
ATOM     54  C   UNL A   1      39.168  32.096  30.840  1.00  0.00     0.049 A 
ATOM     55  C   UNL A   1      44.404  29.337  30.463  1.00  0.00     0.074 A 
ATOM     56  C   UNL A   1      39.509  31.592  32.084  1.00  0.00     0.029 A 
ATOM     57  N   UNL A   1      40.367  32.474  30.244  1.00  0.00    -0.354 N 
ATOM     58  N   UNL A   1      43.352  30.108  30.516  1.00  0.00    -0.248 NA
ATOM     59  C   UNL A   1      45.644  30.100  30.399  1.00  0.00     0.031 C 
ATOM     60  C   UNL A   1      40.930  31.640  32.207  1.00  0.00     0.029 A 
ATOM     61  C   UNL A   1      41.458  32.121  31.021  1.00  0.00     0.049 A 
ATOM     62  H   UNL A   1      40.432  32.934  29.377  1.00  0.00     0.167 HD
ATOM     63  C   UNL A   1      43.722  31.416  30.507  1.00  0.00     0.074 A 
ATOM     64  C   UNL A   1      45.172  31.360  30.444  1.00  0.00     0.031 C 
ATOM     65  C   UNL A   1      42.810  32.433  30.548  1.00  0.00     0.034 A 
BRANCH  52  66
ATOM     66  C   UNL A   1      36.585  32.475  30.436  1.00  0.00     0.023 A 
ATOM     67  C   UNL A   1      35.866  33.526  29.816  1.00  0.00     0.031 A 
ATOM     68  C   UNL A   1      35.973  31.918  31.577  1.00  0.00     0.131 A 
ATOM     69  C   UNL A   1      34.617  33.958  30.304  1.00  0.00     0.055 A 
ATOM     70  C   UNL A   1      34.749  32.369  32.081  1.00  0.00     0.041 A 
ATOM     71  F   UNL A   1      36.535  30.909  32.256  1.00  0.00    -0.206 F 
ATOM     72  C   UNL A   1      34.062  33.391  31.446  1.00  0.00     0.022 A 
BRANCH  69  73
ATOM     73  S   UNL A   1      33.662  35.259  29.466  1.00  0.00     0.124 S 
ATOM     74  O   UNL A   1      32.469  34.535  29.028  1.00  0.00    -0.237 OA
ATOM     75  O   UNL A   1      33.442  36.226  30.536  1.00  0.00    -0.237 OA
ATOM     76  O   UNL A   1      34.540  35.702  28.386  1.00  0.00    -0.744 OA
ENDBRANCH  69  73
ENDBRANCH  52  66
BRANCH  53  77
ATOM     77  C   UNL A   1      44.718  26.849  29.466  1.00  0.00     0.023 A 
ATOM     78  C   UNL A   1      44.676  27.192  28.105  1.00  0.00     0.031 A 
ATOM     79  C   UNL A   1      44.613  25.474  29.797  1.00  0.00     0.131 A 
ATOM     80  C   UNL A   1      44.345  26.204  27.155  1.00  0.00     0.055 A 
ATOM     81  C   UNL A   1      44.213  24.516  28.862  1.00  0.00     0.041 A 
ATOM     82  F   UNL A   1      44.722  25.078  31.079  1.00  0.00    -0.206 F 
ATOM     83  C   UNL A   1      44.027  24.894  27.539  1.00  0.00     0.022 A 
BRANCH  80  84
ATOM     84  S   UNL A   1      44.234  26.646  25.395  1.00  0.00     0.124 S 
ATOM     85  O   UNL A   1      43.404  25.561  24.881  1.00  0.00    -0.237 OA
ATOM     86  O   UNL A   1      43.586  27.953  25.412  1.00  0.00    -0.237 OA
ATOM     87  O   UNL A   1      45.625  26.646  24.959  1.00  0.00    -0.744 OA
ENDBRANCH  80  84
ENDBRANCH  53  77
BRANCH  65  88
ATOM     88  C   UNL A   1      43.104  33.864  30.181  1.00  0.00     0.023 A 
ATOM     89  C   UNL A   1      43.239  34.186  28.809  1.00  0.00     0.031 A 
ATOM     90  C   UNL A   1      43.448  34.875  31.090  1.00  0.00     0.131 A 
ATOM     91  C   UNL A   1      43.731  35.423  28.395  1.00  0.00     0.055 A 
ATOM     92  C   UNL A   1      43.817  36.155  30.671  1.00  0.00     0.041 A 
ATOM     93  F   UNL A   1      43.511  34.655  32.410  1.00  0.00    -0.206 F 
ATOM     94  C   UNL A   1      43.981  36.428  29.320  1.00  0.00     0.022 A 
BRANCH  91  95
ATOM     95  S   UNL A   1      44.227  35.682  26.671  1.00  0.00     0.124 S 
ATOM     96  O   UNL A   1      45.032  36.894  26.778  1.00  0.00    -0.237 OA
ATOM     97  O   UNL A   1      44.971  34.457  26.381  1.00  0.00    -0.237 OA
ATOM     98  O   UNL A   1      42.964  35.822  25.958  1.00  0.00    -0.744 OA
ENDBRANCH  91  95
ENDBRANCH  65  88
ENDBRANCH  39  40
ENDBRANCH  31  34
ENDBRANCH  29  30
ENDBRANCH  28  29
ENDBRANCH   1  28
TORSDOF 18
ENDMDL
MODEL 2
REMARK VINA RESULT:     -13.5      3.778      9.252
REMARK SMILES Cc1ccc([C@@H](C)Nc2ccc(N)cc2C(=O)NCCCCNC(=O)c2ccc(-c3c4nc(c(-c5cc(S(=O)(=O)[O-])ccc5F)c5ccc([nH]5)c(-c5cc(S(=O)(=O)[O-])ccc5F)c5nc(c(-c6cc(S(=O)(=O)[O-])ccc6F)c6ccc3[nH]6)C=C5)C=C4)cc2)cc1F
REMARK SMILES IDX 20 1 19 2 18 3 16 4 17 5 15 7 9 8 10 9 11 10 14 11 12 12
REMARK SMILES IDX 8 13 6 15 7 16 5 17 1 18 2 19 3 20 90 21 4 22 89 23 91 24
REMARK SMILES IDX 13 25 21 28 22 29 23 30 24 31 25 33 26 34 27 35 88 36 28 37
REMARK SMILES IDX 87 38 29 39 30 40 31 41 81 42 32 43 86 44 80 45 82 46 33 47
REMARK SMILES IDX 85 48 79 49 78 50 34 52 66 53 46 54 65 55 47 56 50 57 64 58
REMARK SMILES IDX 83 59 48 60 49 61 63 63 84 64 51 65 35 66 36 67 44 68 37 69
REMARK SMILES IDX 43 70 45 71 42 72 38 73 39 74 40 75 41 76 67 77 68 78 76 79
REMARK SMILES IDX 69 80 75 81 77 82 74 83 70 84 71 85 72 86 73 87 52 88 53 89
REMARK SMILES IDX 61 90 54 91 60 92 62 93 59 94 55 95 56 96 57 97 58 98
REMARK H PARENT 18 6 8 14 13 26 13 27 23 32 82 51 50 62
REMARK Flexibility Score: inf
ROOT
ATOM      1  C   UNL A   1      32.923  26.269  26.052  1.00  0.00     0.023 C 
ENDROOT
BRANCH   1   2
ATOM      2  C   UNL A   1      33.175  24.574  26.191  1.00  0.00     0.116 C 
BRANCH   2   3
ATOM      3  N   UNL A   1      34.521  24.045  26.389  1.00  0.00    -0.352 N 
ATOM      4  C   UNL A   1      35.178  23.029  25.739  1.00  0.00     0.253 C 
ATOM      5  O   UNL A   1      36.389  22.884  25.893  1.00  0.00    -0.269 OA
ATOM      6  H   UNL A   1      35.040  24.485  27.100  1.00  0.00     0.163 HD
BRANCH   4   7
ATOM      7  C   UNL A   1      34.396  21.999  25.029  1.00  0.00     0.065 A 
ATOM      8  C   UNL A   1      33.627  22.219  23.883  1.00  0.00     0.048 A 
ATOM      9  C   UNL A   1      32.491  21.399  23.767  1.00  0.00     0.028 A 
ATOM     10  C   UNL A   1      32.241  20.334  24.648  1.00  0.00     0.027 A 
ATOM     11  C   UNL A   1      34.250  20.833  25.804  1.00  0.00     0.041 A 
ATOM     12  C   UNL A   1      33.182  19.973  25.604  1.00  0.00     0.032 A 
BRANCH   8  13
ATOM     13  N   UNL A   1      33.841  23.166  22.901  1.00  0.00    -0.378 N 
ATOM     14  H   UNL A   1      34.768  23.492  22.838  1.00  0.00     0.161 HD
BRANCH  13  15
ATOM     15  C   UNL A   1      32.912  23.766  21.936  1.00  0.00     0.106 C 
ATOM     16  C   UNL A   1      33.243  23.483  20.478  1.00  0.00     0.036 C 
BRANCH  15  17
ATOM     17  C   UNL A   1      32.480  25.148  22.425  1.00  0.00    -0.023 A 
ATOM     18  C   UNL A   1      30.183  29.523  23.664  1.00  0.00     0.047 C 
ATOM     19  C   UNL A   1      30.997  28.261  23.604  1.00  0.00    -0.015 A 
ATOM     20  C   UNL A   1      30.057  26.729  23.656  1.00  0.00     0.007 A 
ATOM     21  C   UNL A   1      32.681  28.246  22.933  1.00  0.00     0.126 A 
ATOM     22  C   UNL A   1      30.809  25.175  23.123  1.00  0.00     0.006 A 
ATOM     23  C   UNL A   1      33.431  26.694  22.347  1.00  0.00     0.045 A 
ATOM     24  F   UNL A   1      33.343  29.399  22.788  1.00  0.00    -0.207 F 
ENDBRANCH  15  17
ENDBRANCH  13  15
ENDBRANCH   8  13
BRANCH  12  25
ATOM     25  N   UNL A   1      32.965  18.924  26.482  1.00  0.00    -0.399 N 
ATOM     26  H   UNL A   1      32.242  18.278  26.308  1.00  0.00     0.156 HD
ATOM     27  H   UNL A   1      33.533  18.825  27.280  1.00  0.00     0.156 HD
ENDBRANCH  12  25
ENDBRANCH   4   7
ENDBRANCH   2   3
ENDBRANCH   1   2
BRANCH   1  28
ATOM     28  C   UNL A   1      34.085  28.088  26.427  1.00  0.00     0.023 C 
BRANCH  28  29
ATOM     29  C   UNL A   1      34.149  29.212  27.567  1.00  0.00     0.116 C 
BRANCH  29  30
ATOM     30  N   UNL A   1      34.903  30.400  27.140  1.00  0.00    -0.352 N 
ATOM     31  C   UNL A   1      35.915  30.949  27.891  1.00  0.00     0.251 C 
ATOM     32  H   UNL A   1      34.674  30.819  26.280  1.00  0.00     0.163 HD
ATOM     33  O   UNL A   1      35.933  32.144  28.131  1.00  0.00    -0.269 OA
BRANCH  31  34
ATOM     34  C   UNL A   1      36.959  29.978  28.247  1.00  0.00     0.039 A 
ATOM     35  C   UNL A   1      37.014  29.277  29.444  1.00  0.00     0.014 A 
ATOM     36  C   UNL A   1      37.995  29.878  27.315  1.00  0.00     0.014 A 
ATOM     37  C   UNL A   1      38.214  28.650  29.742  1.00  0.00     0.010 A 
ATOM     38  C   UNL A   1      38.921  28.932  27.425  1.00  0.00     0.010 A 
ATOM     39  C   UNL A   1      39.171  28.587  28.732  1.00  0.00    -0.014 A 
BRANCH  39  40
ATOM     40  C   UNL A   1      40.538  28.159  28.824  1.00  0.00     0.031 A 
ATOM     41  C   UNL A   1      40.659  26.729  28.567  1.00  0.00     0.074 A 
ATOM     42  C   UNL A   1      41.410  29.203  28.787  1.00  0.00     0.049 A 
ATOM     43  N   UNL A   1      41.387  25.905  29.229  1.00  0.00    -0.248 NA
ATOM     44  C   UNL A   1      39.748  26.046  27.619  1.00  0.00     0.031 C 
ATOM     45  C   UNL A   1      42.773  29.342  28.308  1.00  0.00     0.029 A 
ATOM     46  N   UNL A   1      41.129  30.506  29.204  1.00  0.00    -0.354 N 
ATOM     47  C   UNL A   1      41.459  24.815  28.389  1.00  0.00     0.074 A 
ATOM     48  C   UNL A   1      40.207  24.794  27.676  1.00  0.00     0.031 C 
ATOM     49  C   UNL A   1      43.291  30.508  28.759  1.00  0.00     0.029 A 
ATOM     50  C   UNL A   1      42.289  31.162  29.595  1.00  0.00     0.049 A 
ATOM     51  H   UNL A   1      40.230  30.907  29.219  1.00  0.00     0.167 HD
ATOM     52  C   UNL A   1      42.691  24.417  27.956  1.00  0.00     0.034 A 
ATOM     53  C   UNL A   1      42.403  31.447  30.931  1.00  0.00     0.034 A 
ATOM     54  C   UNL A   1      43.716  25.351  28.457  1.00  0.00     0.049 A 
ATOM     55  C   UNL A   1      43.231  30.362  31.592  1.00  0.00     0.074 A 
ATOM     56  C   UNL A   1      44.473  26.343  27.853  1.00  0.00     0.029 A 
ATOM     57  N   UNL A   1      43.799  25.594  29.824  1.00  0.00    -0.354 N 
ATOM     58  N   UNL A   1      43.437  29.190  31.055  1.00  0.00    -0.248 NA
ATOM     59  C   UNL A   1      43.958  30.529  32.845  1.00  0.00     0.031 C 
ATOM     60  C   UNL A   1      44.977  27.201  28.877  1.00  0.00     0.029 A 
ATOM     61  C   UNL A   1      44.484  26.767  30.096  1.00  0.00     0.049 A 
ATOM     62  H   UNL A   1      43.416  25.005  30.513  1.00  0.00     0.167 HD
ATOM     63  C   UNL A   1      44.288  28.459  31.823  1.00  0.00     0.074 A 
ATOM     64  C   UNL A   1      44.596  29.347  32.931  1.00  0.00     0.031 C 
ATOM     65  C   UNL A   1      44.664  27.190  31.488  1.00  0.00     0.034 A 
BRANCH  52  66
ATOM     66  C   UNL A   1      42.932  23.393  26.866  1.00  0.00     0.023 A 
ATOM     67  C   UNL A   1      42.739  21.998  27.012  1.00  0.00     0.031 A 
ATOM     68  C   UNL A   1      43.461  23.802  25.625  1.00  0.00     0.131 A 
ATOM     69  C   UNL A   1      43.036  21.097  25.971  1.00  0.00     0.055 A 
ATOM     70  C   UNL A   1      43.787  22.904  24.604  1.00  0.00     0.041 A 
ATOM     71  F   UNL A   1      43.685  25.093  25.346  1.00  0.00    -0.206 F 
ATOM     72  C   UNL A   1      43.575  21.545  24.770  1.00  0.00     0.022 A 
BRANCH  69  73
ATOM     73  S   UNL A   1      42.720  19.313  26.133  1.00  0.00     0.124 S 
ATOM     74  O   UNL A   1      42.521  19.163  27.574  1.00  0.00    -0.237 OA
ATOM     75  O   UNL A   1      41.523  19.130  25.319  1.00  0.00    -0.237 OA
ATOM     76  O   UNL A   1      43.936  18.691  25.615  1.00  0.00    -0.744 OA
ENDBRANCH  69  73
ENDBRANCH  52  66
BRANCH  53  77
ATOM     77  C   UNL A   1      41.106  32.019  31.450  1.00  0.00     0.023 A 
ATOM     78  C   UNL A   1      40.268  31.301  32.318  1.00  0.00     0.031 A 
ATOM     79  C   UNL A   1      40.510  33.033  30.657  1.00  0.00     0.131 A 
ATOM     80  C   UNL A   1      38.872  31.477  32.231  1.00  0.00     0.055 A 
ATOM     81  C   UNL A   1      39.125  33.150  30.524  1.00  0.00     0.041 A 
ATOM     82  F   UNL A   1      41.275  33.804  29.862  1.00  0.00    -0.206 F 
ATOM     83  C   UNL A   1      38.297  32.329  31.279  1.00  0.00     0.022 A 
BRANCH  80  84
ATOM     84  S   UNL A   1      37.772  30.514  33.313  1.00  0.00     0.124 S 
ATOM     85  O   UNL A   1      38.421  29.207  33.289  1.00  0.00    -0.237 OA
ATOM     86  O   UNL A   1      37.854  31.213  34.591  1.00  0.00    -0.237 OA
ATOM     87  O   UNL A   1      36.481  30.597  32.640  1.00  0.00    -0.744 OA
ENDBRANCH  80  84
ENDBRANCH  53  77
BRANCH  65  88
ATOM     88  C   UNL A   1      45.291  26.202  32.439  1.00  0.00     0.023 A 
ATOM     89  C   UNL A   1      44.445  25.528  33.352  1.00  0.00     0.031 A 
ATOM     90  C   UNL A   1      46.669  26.031  32.630  1.00  0.00     0.131 A 
ATOM     91  C   UNL A   1      44.963  24.778  34.407  1.00  0.00     0.055 A 
ATOM     92  C   UNL A   1      47.182  25.176  33.607  1.00  0.00     0.041 A 
ATOM     93  F   UNL A   1      47.577  26.729  31.934  1.00  0.00    -0.206 F 
ATOM     94  C   UNL A   1      46.330  24.562  34.515  1.00  0.00     0.022 A 
BRANCH  91  95
ATOM     95  S   UNL A   1      43.884  24.228  35.756  1.00  0.00     0.124 S 
ATOM     96  O   UNL A   1      44.790  24.289  36.899  1.00  0.00    -0.237 OA
ATOM     97  O   UNL A   1      42.829  25.239  35.736  1.00  0.00    -0.237 OA
ATOM     98  O   UNL A   1      43.468  22.891  35.351  1.00  0.00    -0.744 OA
ENDBRANCH  91  95
ENDBRANCH  65  88
ENDBRANCH  39  40
ENDBRANCH  31  34
ENDBRANCH  29  30
ENDBRANCH  28  29
ENDBRANCH   1  28
TORSDOF 18
ENDMDL
MODEL 3
REMARK VINA RESULT:     -13.3      3.841      9.237
REMARK SMILES Cc1ccc([C@@H](C)Nc2ccc(N)cc2C(=O)NCCCCNC(=O)c2ccc(-c3c4nc(c(-c5cc(S(=O)(=O)[O-])ccc5F)c5ccc([nH]5)c(-c5cc(S(=O)(=O)[O-])ccc5F)c5nc(c(-c6cc(S(=O)(=O)[O-])ccc6F)c6ccc3[nH]6)C=C5)C=C4)cc2)cc1F
REMARK SMILES IDX 20 1 19 2 18 3 16 4 17 5 15 7 9 8 10 9 11 10 14 11 12 12
REMARK SMILES IDX 8 13 6 15 7 16 5 17 1 18 2 19 3 20 90 21 4 22 89 23 91 24
REMARK SMILES IDX 13 25 21 28 22 29 23 30 24 31 25 33 26 34 27 35 88 36 28 37
REMARK SMILES IDX 87 38 29 39 30 40 31 41 81 42 32 43 86 44 80 45 82 46 33 47
REMARK SMILES IDX 85 48 79 49 78 50 34 52 66 53 46 54 65 55 47 56 50 57 64 58
REMARK SMILES IDX 83 59 48 60 49 61 63 63 84 64 51 65 35 66 36 67 44 68 37 69
REMARK SMILES IDX 43 70 45 71 42 72 38 73 39 74 40 75 41 76 67 77 68 78 76 79
REMARK SMILES IDX 69 80 75 81 77 82 74 83 70 84 71 85 72 86 73 87 52 88 53 89
REMARK SMILES IDX 61 90 54 91 60 92 62 93 59 94 55 95 56 96 57 97 58 98
REMARK H PARENT 18 6 8 14 13 26 13 27 23 32 82 51 50 62
REMARK Flexibility Score: inf
ROOT
ATOM      1  C   UNL A   1      31.556  27.731  26.359  1.00  0.00     0.023 C 
ENDROOT
BRANCH   1   2
ATOM      2  C   UNL A   1      31.189  26.051  26.377  1.00  0.00     0.116 C 
BRANCH   2   3
ATOM      3  N   UNL A   1      30.388  25.462  25.308  1.00  0.00    -0.352 N 
ATOM      4  C   UNL A   1      30.731  25.145  24.016  1.00  0.00     0.253 C 
ATOM      5  O   UNL A   1      29.983  24.444  23.338  1.00  0.00    -0.269 OA
ATOM      6  H   UNL A   1      29.456  25.261  25.551  1.00  0.00     0.163 HD
BRANCH   4   7
ATOM      7  C   UNL A   1      31.887  25.814  23.389  1.00  0.00     0.065 A 
ATOM      8  C   UNL A   1      33.226  25.471  23.596  1.00  0.00     0.048 A 
ATOM      9  C   UNL A   1      34.130  26.544  23.513  1.00  0.00     0.028 A 
ATOM     10  C   UNL A   1      33.737  27.826  23.093  1.00  0.00     0.027 A 
ATOM     11  C   UNL A   1      31.520  27.039  22.801  1.00  0.00     0.041 A 
ATOM     12  C   UNL A   1      32.450  28.051  22.623  1.00  0.00     0.032 A 
BRANCH   8  13
ATOM     13  N   UNL A   1      33.732  24.225  23.909  1.00  0.00    -0.378 N 
ATOM     14  H   UNL A   1      34.165  23.756  23.159  1.00  0.00     0.161 HD
BRANCH  13  15
ATOM     15  C   UNL A   1      33.727  23.484  25.176  1.00  0.00     0.106 C 
ATOM     16  C   UNL A   1      34.334  24.238  26.351  1.00  0.00     0.036 C 
BRANCH  15  17
ATOM     17  C   UNL A   1      34.014  22.007  24.914  1.00  0.00    -0.023 A 
ATOM     18  C   UNL A   1      34.134  16.931  24.505  1.00  0.00     0.047 C 
ATOM     19  C   UNL A   1      34.215  18.419  24.310  1.00  0.00    -0.015 A 
ATOM     20  C   UNL A   1      32.636  19.272  24.199  1.00  0.00     0.007 A 
ATOM     21  C   UNL A   1      35.702  19.357  24.753  1.00  0.00     0.126 A 
ATOM     22  C   UNL A   1      32.543  21.060  24.444  1.00  0.00     0.006 A 
ATOM     23  C   UNL A   1      35.611  21.151  25.051  1.00  0.00     0.045 A 
ATOM     24  F   UNL A   1      36.857  18.710  24.947  1.00  0.00    -0.207 F 
ENDBRANCH  15  17
ENDBRANCH  13  15
ENDBRANCH   8  13
BRANCH  12  25
ATOM     25  N   UNL A   1      32.036  29.303  22.198  1.00  0.00    -0.399 N 
ATOM     26  H   UNL A   1      31.236  29.390  21.631  1.00  0.00     0.156 HD
ATOM     27  H   UNL A   1      32.542  30.104  22.463  1.00  0.00     0.156 HD
ENDBRANCH  12  25
ENDBRANCH   4   7
ENDBRANCH   2   3
ENDBRANCH   1   2
BRANCH   1  28
ATOM     28  C   UNL A   1      33.263  28.994  26.896  1.00  0.00     0.023 C 
BRANCH  28  29
ATOM     29  C   UNL A   1      34.858  28.839  26.930  1.00  0.00     0.116 C 
BRANCH  29  30
ATOM     30  N   UNL A   1      35.547  30.137  26.911  1.00  0.00    -0.352 N 
ATOM     31  C   UNL A   1      36.410  30.536  27.904  1.00  0.00     0.251 C 
ATOM     32  H   UNL A   1      35.385  30.746  26.155  1.00  0.00     0.163 HD
ATOM     33  O   UNL A   1      36.292  31.631  28.426  1.00  0.00    -0.269 OA
BRANCH  31  34
ATOM     34  C   UNL A   1      37.487  29.569  28.153  1.00  0.00     0.039 A 
ATOM     35  C   UNL A   1      37.503  28.651  29.194  1.00  0.00     0.014 A 
ATOM     36  C   UNL A   1      38.592  29.706  27.309  1.00  0.00     0.014 A 
ATOM     37  C   UNL A   1      38.717  28.039  29.466  1.00  0.00     0.010 A 
ATOM     38  C   UNL A   1      39.568  28.805  27.312  1.00  0.00     0.010 A 
ATOM     39  C   UNL A   1      39.746  28.224  28.545  1.00  0.00    -0.014 A 
BRANCH  39  40
ATOM     40  C   UNL A   1      41.128  27.855  28.667  1.00  0.00     0.031 A 
ATOM     41  C   UNL A   1      41.342  26.474  28.254  1.00  0.00     0.074 A 
ATOM     42  C   UNL A   1      41.941  28.939  28.800  1.00  0.00     0.049 A 
ATOM     43  N   UNL A   1      42.080  25.615  28.859  1.00  0.00    -0.248 NA
ATOM     44  C   UNL A   1      40.521  25.863  27.184  1.00  0.00     0.031 C 
ATOM     45  C   UNL A   1      43.318  29.200  28.421  1.00  0.00     0.029 A 
ATOM     46  N   UNL A   1      41.567  30.168  29.347  1.00  0.00    -0.354 N 
ATOM     47  C   UNL A   1      42.255  24.636  27.905  1.00  0.00     0.074 A 
ATOM     48  C   UNL A   1      41.046  24.637  27.123  1.00  0.00     0.031 C 
ATOM     49  C   UNL A   1      43.745  30.329  29.033  1.00  0.00     0.029 A 
ATOM     50  C   UNL A   1      42.667  30.830  29.878  1.00  0.00     0.049 A 
ATOM     51  H   UNL A   1      40.647  30.519  29.356  1.00  0.00     0.167 HD
ATOM     52  C   UNL A   1      43.529  24.353  27.502  1.00  0.00     0.034 A 
ATOM     53  C   UNL A   1      42.694  30.961  31.242  1.00  0.00     0.034 A 
ATOM     54  C   UNL A   1      44.473  25.271  28.165  1.00  0.00     0.049 A 
ATOM     55  C   UNL A   1      43.547  29.848  31.821  1.00  0.00     0.074 A 
ATOM     56  C   UNL A   1      45.203  26.363  27.725  1.00  0.00     0.029 A 
ATOM     57  N   UNL A   1      44.470  25.355  29.554  1.00  0.00    -0.354 N 
ATOM     58  N   UNL A   1      43.845  28.759  31.166  1.00  0.00    -0.248 NA
ATOM     59  C   UNL A   1      44.196  29.902  33.125  1.00  0.00     0.031 C 
ATOM     60  C   UNL A   1      45.604  27.118  28.868  1.00  0.00     0.029 A 
ATOM     61  C   UNL A   1      45.074  26.520  29.998  1.00  0.00     0.049 A 
ATOM     62  H   UNL A   1      44.085  24.670  30.147  1.00  0.00     0.167 HD
ATOM     63  C   UNL A   1      44.694  27.985  31.893  1.00  0.00     0.074 A 
ATOM     64  C   UNL A   1      44.894  28.751  33.112  1.00  0.00     0.031 C 
ATOM     65  C   UNL A   1      45.157  26.784  31.438  1.00  0.00     0.034 A 
BRANCH  52  66
ATOM     66  C   UNL A   1      43.883  23.477  26.318  1.00  0.00     0.023 A 
ATOM     67  C   UNL A   1      43.912  22.062  26.339  1.00  0.00     0.031 A 
ATOM     68  C   UNL A   1      44.295  24.070  25.107  1.00  0.00     0.131 A 
ATOM     69  C   UNL A   1      44.305  21.312  25.214  1.00  0.00     0.055 A 
ATOM     70  C   UNL A   1      44.717  23.326  24.000  1.00  0.00     0.041 A 
ATOM     71  F   UNL A   1      44.307  25.399  24.941  1.00  0.00    -0.206 F 
ATOM     72  C   UNL A   1      44.723  21.941  24.047  1.00  0.00     0.022 A 
BRANCH  69  73
ATOM     73  S   UNL A   1      44.273  19.493  25.220  1.00  0.00     0.124 S 
ATOM     74  O   UNL A   1      45.622  19.161  25.678  1.00  0.00    -0.237 OA
ATOM     75  O   UNL A   1      43.206  19.200  26.171  1.00  0.00    -0.237 OA
ATOM     76  O   UNL A   1      43.994  19.140  23.830  1.00  0.00    -0.744 OA
ENDBRANCH  69  73
ENDBRANCH  52  66
BRANCH  53  77
ATOM     77  C   UNL A   1      41.342  31.403  31.747  1.00  0.00     0.023 A 
ATOM     78  C   UNL A   1      40.480  30.532  32.432  1.00  0.00     0.031 A 
ATOM     79  C   UNL A   1      40.758  32.509  31.077  1.00  0.00     0.131 A 
ATOM     80  C   UNL A   1      39.086  30.674  32.272  1.00  0.00     0.055 A 
ATOM     81  C   UNL A   1      39.380  32.600  30.864  1.00  0.00     0.041 A 
ATOM     82  F   UNL A   1      41.540  33.418  30.467  1.00  0.00    -0.206 F 
ATOM     83  C   UNL A   1      38.540  31.646  31.422  1.00  0.00     0.022 A 
BRANCH  80  84
ATOM     84  S   UNL A   1      37.959  29.520  33.111  1.00  0.00     0.124 S 
ATOM     85  O   UNL A   1      38.036  29.998  34.488  1.00  0.00    -0.237 OA
ATOM     86  O   UNL A   1      36.679  29.757  32.453  1.00  0.00    -0.237 OA
ATOM     87  O   UNL A   1      38.559  28.216  32.854  1.00  0.00    -0.744 OA
ENDBRANCH  80  84
ENDBRANCH  53  77
BRANCH  65  88
ATOM     88  C   UNL A   1      45.788  25.724  32.303  1.00  0.00     0.023 A 
ATOM     89  C   UNL A   1      44.933  24.821  32.980  1.00  0.00     0.031 A 
ATOM     90  C   UNL A   1      47.145  25.670  32.652  1.00  0.00     0.131 A 
ATOM     91  C   UNL A   1      45.414  23.965  33.969  1.00  0.00     0.055 A 
ATOM     92  C   UNL A   1      47.643  24.723  33.549  1.00  0.00     0.041 A 
ATOM     93  F   UNL A   1      48.033  26.566  32.200  1.00  0.00    -0.206 F 
ATOM     94  C   UNL A   1      46.775  23.879  34.228  1.00  0.00     0.022 A 
BRANCH  91  95
ATOM     95  S   UNL A   1      44.262  23.086  35.060  1.00  0.00     0.124 S 
ATOM     96  O   UNL A   1      44.896  23.268  36.361  1.00  0.00    -0.237 OA
ATOM     97  O   UNL A   1      43.021  23.830  34.856  1.00  0.00    -0.237 OA
ATOM     98  O   UNL A   1      44.259  21.723  34.542  1.00  0.00    -0.744 OA
ENDBRANCH  91  95
ENDBRANCH  65  88
ENDBRANCH  39  40
ENDBRANCH  31  34
ENDBRANCH  29  30
ENDBRANCH  28  29
ENDBRANCH   1  28
TORSDOF 18
ENDMDL
