MODEL 1
REMARK VINA RESULT:     -11.1      0.000      0.000
REMARK SMILES CSCCC(=O)N1[C@H](C)CCC[C@@H]1C(=O)NCCCCNC(=O)c1ccc(-c2c3nc(c(-c4cc(S(=O)(=O)[O-])ccc4F)c4ccc([nH]4)c(-c4cc(S(=O)(=O)[O-])ccc4F)c4nc(c(-c5cc(S(=O)(=O)[O-])ccc5F)c5ccc2[nH]5)C=C4)C=C3)cc1
REMARK SMILES IDX 18 1 17 2 16 3 14 4 15 5 13 7 7 8 8 9 9 10 10 11 12 12 11 13
REMARK SMILES IDX 5 14 6 15 4 16 3 17 2 18 1 19 19 20 20 21 21 22 22 23 23 25
REMARK SMILES IDX 24 26 25 27 86 28 26 29 85 30 27 31 28 32 29 33 79 34 30 35
REMARK SMILES IDX 84 36 78 37 80 38 31 39 83 40 77 41 76 42 32 44 64 45 44 46
REMARK SMILES IDX 63 47 45 48 48 49 62 50 81 51 46 52 47 53 61 55 82 56 49 57
REMARK SMILES IDX 33 58 34 59 42 60 35 61 41 62 43 63 40 64 36 65 37 66 38 67
REMARK SMILES IDX 39 68 65 69 66 70 74 71 67 72 73 73 75 74 72 75 68 76 69 77
REMARK SMILES IDX 70 78 71 79 50 80 51 81 59 82 52 83 58 84 60 85 57 86 53 87
REMARK SMILES IDX 54 88 55 89 56 90
REMARK H PARENT 16 6 21 24 80 43 48 54
REMARK Flexibility Score: inf
ROOT
ATOM      1  C   UNL A   1      31.468  28.966  23.697  1.00  0.00     0.023 C 
ENDROOT
BRANCH   1   2
ATOM      2  C   UNL A   1      31.163  27.566  23.184  1.00  0.00     0.116 C 
BRANCH   2   3
ATOM      3  N   UNL A   1      31.936  27.126  22.046  1.00  0.00    -0.354 N 
ATOM      4  C   UNL A   1      32.968  26.236  21.974  1.00  0.00     0.242 C 
ATOM      5  O   UNL A   1      33.282  25.865  20.834  1.00  0.00    -0.273 OA
ATOM      6  H   UNL A   1      31.677  27.532  21.188  1.00  0.00     0.163 HD
BRANCH   4   7
ATOM      7  C   UNL A   1      33.667  25.585  23.209  1.00  0.00     0.174 C 
ATOM      8  N   UNL A   1      33.111  24.265  23.529  1.00  0.00    -0.328 N 
ATOM      9  C   UNL A   1      31.961  24.166  24.420  1.00  0.00     0.082 C 
ATOM     10  C   UNL A   1      30.643  24.010  23.661  1.00  0.00     0.031 C 
ATOM     11  C   UNL A   1      31.912  25.272  25.491  1.00  0.00     0.025 C 
ATOM     12  C   UNL A   1      33.952  26.443  24.437  1.00  0.00     0.035 C 
ATOM     13  C   UNL A   1      33.235  25.999  25.711  1.00  0.00     0.005 C 
BRANCH   8  14
ATOM     14  C   UNL A   1      33.880  23.139  23.264  1.00  0.00     0.224 C 
ATOM     15  O   UNL A   1      33.378  22.042  23.026  1.00  0.00    -0.275 OA
BRANCH  14  16
ATOM     16  C   UNL A   1      35.379  23.307  23.418  1.00  0.00     0.111 C 
BRANCH  16  17
ATOM     17  C   UNL A   1      35.876  23.229  24.855  1.00  0.00     0.079 C 
BRANCH  17  18
ATOM     18  S   UNL A   1      35.523  21.628  25.674  1.00  0.00    -0.165 SA
ATOM     19  C   UNL A   1      36.835  20.588  24.989  1.00  0.00     0.085 C 
ENDBRANCH  17  18
ENDBRANCH  16  17
ENDBRANCH  14  16
ENDBRANCH   8  14
ENDBRANCH   4   7
ENDBRANCH   2   3
ENDBRANCH   1   2
BRANCH   1  20
ATOM     20  C   UNL A   1      31.411  29.150  25.213  1.00  0.00     0.023 C 
BRANCH  20  21
ATOM     21  C   UNL A   1      32.618  29.813  25.875  1.00  0.00     0.116 C 
BRANCH  21  22
ATOM     22  N   UNL A   1      32.356  31.143  26.412  1.00  0.00    -0.352 N 
ATOM     23  C   UNL A   1      33.117  31.934  27.247  1.00  0.00     0.251 C 
ATOM     24  H   UNL A   1      31.499  31.541  26.135  1.00  0.00     0.163 HD
ATOM     25  O   UNL A   1      32.665  33.008  27.638  1.00  0.00    -0.269 OA
BRANCH  23  26
ATOM     26  C   UNL A   1      34.440  31.468  27.717  1.00  0.00     0.039 A 
ATOM     27  C   UNL A   1      35.469  32.400  27.876  1.00  0.00     0.014 A 
ATOM     28  C   UNL A   1      34.658  30.129  28.049  1.00  0.00     0.014 A 
ATOM     29  C   UNL A   1      36.665  32.016  28.490  1.00  0.00     0.010 A 
ATOM     30  C   UNL A   1      35.810  29.769  28.744  1.00  0.00     0.010 A 
ATOM     31  C   UNL A   1      36.818  30.714  28.995  1.00  0.00    -0.014 A 
BRANCH  31  32
ATOM     32  C   UNL A   1      37.998  30.330  29.820  1.00  0.00     0.031 A 
ATOM     33  C   UNL A   1      39.012  29.351  29.289  1.00  0.00     0.074 A 
ATOM     34  C   UNL A   1      38.105  30.788  31.086  1.00  0.00     0.049 A 
ATOM     35  N   UNL A   1      40.031  28.802  29.899  1.00  0.00    -0.248 NA
ATOM     36  C   UNL A   1      38.833  28.905  27.899  1.00  0.00     0.031 C 
ATOM     37  C   UNL A   1      37.159  31.696  31.742  1.00  0.00     0.029 A 
ATOM     38  N   UNL A   1      39.044  30.539  32.058  1.00  0.00    -0.354 N 
ATOM     39  C   UNL A   1      40.599  27.928  28.978  1.00  0.00     0.074 A 
ATOM     40  C   UNL A   1      39.776  27.982  27.788  1.00  0.00     0.031 C 
ATOM     41  C   UNL A   1      37.578  31.945  32.993  1.00  0.00     0.029 A 
ATOM     42  C   UNL A   1      38.792  31.176  33.253  1.00  0.00     0.049 A 
ATOM     43  H   UNL A   1      39.828  29.960  31.913  1.00  0.00     0.167 HD
ATOM     44  C   UNL A   1      41.713  27.165  29.106  1.00  0.00     0.034 A 
ATOM     45  C   UNL A   1      39.449  31.135  34.430  1.00  0.00     0.034 A 
ATOM     46  C   UNL A   1      42.542  27.143  30.286  1.00  0.00     0.049 A 
ATOM     47  C   UNL A   1      40.690  30.285  34.542  1.00  0.00     0.074 A 
ATOM     48  C   UNL A   1      43.733  26.464  30.489  1.00  0.00     0.029 A 
ATOM     49  N   UNL A   1      42.271  27.826  31.464  1.00  0.00    -0.354 N 
ATOM     50  N   UNL A   1      41.245  29.511  33.638  1.00  0.00    -0.248 NA
ATOM     51  C   UNL A   1      41.399  30.311  35.829  1.00  0.00     0.031 C 
ATOM     52  C   UNL A   1      44.147  26.687  31.807  1.00  0.00     0.029 A 
ATOM     53  C   UNL A   1      43.256  27.563  32.404  1.00  0.00     0.049 A 
ATOM     54  H   UNL A   1      41.493  28.412  31.610  1.00  0.00     0.167 HD
ATOM     55  C   UNL A   1      42.387  28.987  34.239  1.00  0.00     0.074 A 
ATOM     56  C   UNL A   1      42.448  29.544  35.574  1.00  0.00     0.031 C 
ATOM     57  C   UNL A   1      43.304  28.125  33.732  1.00  0.00     0.034 A 
BRANCH  44  58
ATOM     58  C   UNL A   1      42.089  26.278  27.943  1.00  0.00     0.023 A 
ATOM     59  C   UNL A   1      41.611  24.960  27.834  1.00  0.00     0.031 A 
ATOM     60  C   UNL A   1      42.942  26.754  26.932  1.00  0.00     0.131 A 
ATOM     61  C   UNL A   1      42.044  24.144  26.779  1.00  0.00     0.055 A 
ATOM     62  C   UNL A   1      43.307  25.962  25.842  1.00  0.00     0.041 A 
ATOM     63  F   UNL A   1      43.445  27.998  26.992  1.00  0.00    -0.206 F 
ATOM     64  C   UNL A   1      42.867  24.643  25.768  1.00  0.00     0.022 A 
BRANCH  61  65
ATOM     65  S   UNL A   1      41.612  22.383  26.815  1.00  0.00     0.124 S 
ATOM     66  O   UNL A   1      41.828  22.000  25.422  1.00  0.00    -0.237 OA
ATOM     67  O   UNL A   1      42.563  21.844  27.780  1.00  0.00    -0.237 OA
ATOM     68  O   UNL A   1      40.215  22.381  27.246  1.00  0.00    -0.744 OA
ENDBRANCH  61  65
ENDBRANCH  44  58
BRANCH  45  69
ATOM     69  C   UNL A   1      38.951  31.903  35.609  1.00  0.00     0.023 A 
ATOM     70  C   UNL A   1      38.354  31.248  36.698  1.00  0.00     0.031 A 
ATOM     71  C   UNL A   1      39.005  33.308  35.636  1.00  0.00     0.131 A 
ATOM     72  C   UNL A   1      37.781  31.997  37.738  1.00  0.00     0.055 A 
ATOM     73  C   UNL A   1      38.486  34.046  36.701  1.00  0.00     0.041 A 
ATOM     74  F   UNL A   1      39.570  33.985  34.624  1.00  0.00    -0.206 F 
ATOM     75  C   UNL A   1      37.853  33.392  37.753  1.00  0.00     0.022 A 
BRANCH  72  76
ATOM     76  S   UNL A   1      36.844  31.123  39.024  1.00  0.00     0.124 S 
ATOM     77  O   UNL A   1      37.761  31.188  40.156  1.00  0.00    -0.237 OA
ATOM     78  O   UNL A   1      35.639  31.940  39.125  1.00  0.00    -0.237 OA
ATOM     79  O   UNL A   1      36.647  29.792  38.454  1.00  0.00    -0.744 OA
ENDBRANCH  72  76
ENDBRANCH  45  69
BRANCH  57  80
ATOM     80  C   UNL A   1      44.480  27.779  34.612  1.00  0.00     0.023 A 
ATOM     81  C   UNL A   1      44.470  26.656  35.457  1.00  0.00     0.031 A 
ATOM     82  C   UNL A   1      45.627  28.595  34.609  1.00  0.00     0.131 A 
ATOM     83  C   UNL A   1      45.561  26.409  36.304  1.00  0.00     0.055 A 
ATOM     84  C   UNL A   1      46.732  28.311  35.410  1.00  0.00     0.041 A 
ATOM     85  F   UNL A   1      45.689  29.680  33.821  1.00  0.00    -0.206 F 
ATOM     86  C   UNL A   1      46.699  27.220  36.273  1.00  0.00     0.022 A 
BRANCH  83  87
ATOM     87  S   UNL A   1      45.440  25.060  37.511  1.00  0.00     0.124 S 
ATOM     88  O   UNL A   1      46.845  24.748  37.756  1.00  0.00    -0.237 OA
ATOM     89  O   UNL A   1      44.726  25.692  38.616  1.00  0.00    -0.237 OA
ATOM     90  O   UNL A   1      44.691  24.028  36.798  1.00  0.00    -0.744 OA
ENDBRANCH  83  87
ENDBRANCH  57  80
ENDBRANCH  31  32
ENDBRANCH  23  26
ENDBRANCH  21  22
ENDBRANCH  20  21
ENDBRANCH   1  20
TORSDOF 18
ENDMDL
MODEL 2
REMARK VINA RESULT:     -11.1      1.980      7.955
REMARK SMILES CSCCC(=O)N1[C@H](C)CCC[C@@H]1C(=O)NCCCCNC(=O)c1ccc(-c2c3nc(c(-c4cc(S(=O)(=O)[O-])ccc4F)c4ccc([nH]4)c(-c4cc(S(=O)(=O)[O-])ccc4F)c4nc(c(-c5cc(S(=O)(=O)[O-])ccc5F)c5ccc2[nH]5)C=C4)C=C3)cc1
REMARK SMILES IDX 18 1 17 2 16 3 14 4 15 5 13 7 7 8 8 9 9 10 10 11 12 12 11 13
REMARK SMILES IDX 5 14 6 15 4 16 3 17 2 18 1 19 19 20 20 21 21 22 22 23 23 25
REMARK SMILES IDX 24 26 25 27 86 28 26 29 85 30 27 31 28 32 29 33 79 34 30 35
REMARK SMILES IDX 84 36 78 37 80 38 31 39 83 40 77 41 76 42 32 44 64 45 44 46
REMARK SMILES IDX 63 47 45 48 48 49 62 50 81 51 46 52 47 53 61 55 82 56 49 57
REMARK SMILES IDX 33 58 34 59 42 60 35 61 41 62 43 63 40 64 36 65 37 66 38 67
REMARK SMILES IDX 39 68 65 69 66 70 74 71 67 72 73 73 75 74 72 75 68 76 69 77
REMARK SMILES IDX 70 78 71 79 50 80 51 81 59 82 52 83 58 84 60 85 57 86 53 87
REMARK SMILES IDX 54 88 55 89 56 90
REMARK H PARENT 16 6 21 24 80 43 48 54
REMARK Flexibility Score: inf
ROOT
ATOM      1  C   UNL A   1      31.892  27.833  27.273  1.00  0.00     0.023 C 
ENDROOT
BRANCH   1   2
ATOM      2  C   UNL A   1      32.120  26.686  26.299  1.00  0.00     0.116 C 
BRANCH   2   3
ATOM      3  N   UNL A   1      31.367  25.481  26.554  1.00  0.00    -0.354 N 
ATOM      4  C   UNL A   1      31.796  24.198  26.741  1.00  0.00     0.242 C 
ATOM      5  O   UNL A   1      30.951  23.407  27.184  1.00  0.00    -0.273 OA
ATOM      6  H   UNL A   1      30.392  25.604  26.599  1.00  0.00     0.163 HD
BRANCH   4   7
ATOM      7  C   UNL A   1      33.269  23.718  26.556  1.00  0.00     0.174 C 
ATOM      8  N   UNL A   1      33.505  23.156  25.222  1.00  0.00    -0.328 N 
ATOM      9  C   UNL A   1      33.259  21.738  24.985  1.00  0.00     0.082 C 
ATOM     10  C   UNL A   1      31.902  21.480  24.332  1.00  0.00     0.031 C 
ATOM     11  C   UNL A   1      33.511  20.853  26.220  1.00  0.00     0.025 C 
ATOM     12  C   UNL A   1      33.939  22.934  27.679  1.00  0.00     0.035 C 
ATOM     13  C   UNL A   1      34.353  21.510  27.309  1.00  0.00     0.005 C 
BRANCH   8  14
ATOM     14  C   UNL A   1      34.270  23.886  24.320  1.00  0.00     0.224 C 
ATOM     15  O   UNL A   1      34.251  25.115  24.288  1.00  0.00    -0.275 OA
BRANCH  14  16
ATOM     16  C   UNL A   1      35.027  23.078  23.284  1.00  0.00     0.111 C 
BRANCH  16  17
ATOM     17  C   UNL A   1      36.540  23.106  23.449  1.00  0.00     0.079 C 
BRANCH  17  18
ATOM     18  S   UNL A   1      37.137  22.267  24.964  1.00  0.00    -0.165 SA
ATOM     19  C   UNL A   1      37.446  23.682  26.048  1.00  0.00     0.085 C 
ENDBRANCH  17  18
ENDBRANCH  16  17
ENDBRANCH  14  16
ENDBRANCH   8  14
ENDBRANCH   4   7
ENDBRANCH   2   3
ENDBRANCH   1   2
BRANCH   1  20
ATOM     20  C   UNL A   1      31.444  29.158  26.654  1.00  0.00     0.023 C 
BRANCH  20  21
ATOM     21  C   UNL A   1      32.543  30.101  26.170  1.00  0.00     0.116 C 
BRANCH  21  22
ATOM     22  N   UNL A   1      32.420  31.470  26.654  1.00  0.00    -0.352 N 
ATOM     23  C   UNL A   1      33.286  32.231  27.410  1.00  0.00     0.251 C 
ATOM     24  H   UNL A   1      31.584  31.925  26.402  1.00  0.00     0.163 HD
ATOM     25  O   UNL A   1      32.945  33.355  27.773  1.00  0.00    -0.269 OA
BRANCH  23  26
ATOM     26  C   UNL A   1      34.592  31.677  27.834  1.00  0.00     0.039 A 
ATOM     27  C   UNL A   1      35.619  32.558  28.184  1.00  0.00     0.014 A 
ATOM     28  C   UNL A   1      34.792  30.299  27.938  1.00  0.00     0.014 A 
ATOM     29  C   UNL A   1      36.792  32.061  28.759  1.00  0.00     0.010 A 
ATOM     30  C   UNL A   1      35.919  29.813  28.596  1.00  0.00     0.010 A 
ATOM     31  C   UNL A   1      36.923  30.690  29.037  1.00  0.00    -0.014 A 
BRANCH  31  32
ATOM     32  C   UNL A   1      38.073  30.158  29.820  1.00  0.00     0.031 A 
ATOM     33  C   UNL A   1      38.308  30.616  31.236  1.00  0.00     0.074 A 
ATOM     34  C   UNL A   1      38.963  29.334  29.225  1.00  0.00     0.049 A 
ATOM     35  N   UNL A   1      39.316  30.365  32.032  1.00  0.00    -0.248 NA
ATOM     36  C   UNL A   1      37.291  31.505  31.818  1.00  0.00     0.031 C 
ATOM     37  C   UNL A   1      38.883  28.859  27.840  1.00  0.00     0.029 A 
ATOM     38  N   UNL A   1      40.121  28.764  29.698  1.00  0.00    -0.354 N 
ATOM     39  C   UNL A   1      39.069  31.083  33.197  1.00  0.00     0.074 A 
ATOM     40  C   UNL A   1      37.842  31.821  32.980  1.00  0.00     0.031 C 
ATOM     41  C   UNL A   1      39.929  28.056  27.586  1.00  0.00     0.029 A 
ATOM     42  C   UNL A   1      40.784  27.996  28.767  1.00  0.00     0.049 A 
ATOM     43  H   UNL A   1      40.445  28.891  30.619  1.00  0.00     0.167 HD
ATOM     44  C   UNL A   1      39.787  31.109  34.347  1.00  0.00     0.034 A 
ATOM     45  C   UNL A   1      41.956  27.333  28.846  1.00  0.00     0.034 A 
ATOM     46  C   UNL A   1      40.990  30.344  34.562  1.00  0.00     0.049 A 
ATOM     47  C   UNL A   1      42.730  27.372  30.139  1.00  0.00     0.074 A 
ATOM     48  C   UNL A   1      41.751  30.242  35.715  1.00  0.00     0.029 A 
ATOM     49  N   UNL A   1      41.614  29.553  33.606  1.00  0.00    -0.354 N 
ATOM     50  N   UNL A   1      42.447  28.009  31.252  1.00  0.00    -0.248 NA
ATOM     51  C   UNL A   1      43.976  26.594  30.192  1.00  0.00     0.031 C 
ATOM     52  C   UNL A   1      42.864  29.440  35.439  1.00  0.00     0.029 A 
ATOM     53  C   UNL A   1      42.761  28.982  34.135  1.00  0.00     0.049 A 
ATOM     54  H   UNL A   1      41.288  29.417  32.687  1.00  0.00     0.167 HD
ATOM     55  C   UNL A   1      43.464  27.679  32.146  1.00  0.00     0.074 A 
ATOM     56  C   UNL A   1      44.354  26.777  31.448  1.00  0.00     0.031 C 
ATOM     57  C   UNL A   1      43.642  28.084  33.428  1.00  0.00     0.034 A 
BRANCH  44  58
ATOM     58  C   UNL A   1      39.296  32.008  35.456  1.00  0.00     0.023 A 
ATOM     59  C   UNL A   1      39.713  33.347  35.562  1.00  0.00     0.031 A 
ATOM     60  C   UNL A   1      38.402  31.519  36.425  1.00  0.00     0.131 A 
ATOM     61  C   UNL A   1      39.294  34.127  36.649  1.00  0.00     0.055 A 
ATOM     62  C   UNL A   1      37.926  32.325  37.461  1.00  0.00     0.041 A 
ATOM     63  F   UNL A   1      37.983  30.244  36.387  1.00  0.00    -0.206 F 
ATOM     64  C   UNL A   1      38.382  33.635  37.585  1.00  0.00     0.022 A 
BRANCH  61  65
ATOM     65  S   UNL A   1      40.053  35.756  36.889  1.00  0.00     0.124 S 
ATOM     66  O   UNL A   1      39.660  36.447  35.663  1.00  0.00    -0.237 OA
ATOM     67  O   UNL A   1      39.420  36.223  38.117  1.00  0.00    -0.237 OA
ATOM     68  O   UNL A   1      41.480  35.456  36.997  1.00  0.00    -0.744 OA
ENDBRANCH  61  65
ENDBRANCH  44  58
BRANCH  45  69
ATOM     69  C   UNL A   1      42.489  26.585  27.669  1.00  0.00     0.023 A 
ATOM     70  C   UNL A   1      42.109  25.256  27.424  1.00  0.00     0.031 A 
ATOM     71  C   UNL A   1      43.438  27.167  26.809  1.00  0.00     0.131 A 
ATOM     72  C   UNL A   1      42.717  24.533  26.385  1.00  0.00     0.055 A 
ATOM     73  C   UNL A   1      43.997  26.462  25.741  1.00  0.00     0.041 A 
ATOM     74  F   UNL A   1      43.833  28.436  26.993  1.00  0.00    -0.206 F 
ATOM     75  C   UNL A   1      43.650  25.130  25.535  1.00  0.00     0.022 A 
BRANCH  72  76
ATOM     76  S   UNL A   1      42.348  22.763  26.227  1.00  0.00     0.124 S 
ATOM     77  O   UNL A   1      42.825  22.480  24.878  1.00  0.00    -0.237 OA
ATOM     78  O   UNL A   1      43.132  22.194  27.318  1.00  0.00    -0.237 OA
ATOM     79  O   UNL A   1      40.899  22.702  26.404  1.00  0.00    -0.744 OA
ENDBRANCH  72  76
ENDBRANCH  45  69
BRANCH  57  80
ATOM     80  C   UNL A   1      44.820  27.506  34.173  1.00  0.00     0.023 A 
ATOM     81  C   UNL A   1      44.750  26.262  34.824  1.00  0.00     0.031 A 
ATOM     82  C   UNL A   1      46.031  28.219  34.237  1.00  0.00     0.131 A 
ATOM     83  C   UNL A   1      45.851  25.794  35.557  1.00  0.00     0.055 A 
ATOM     84  C   UNL A   1      47.142  27.721  34.918  1.00  0.00     0.041 A 
ATOM     85  F   UNL A   1      46.153  29.412  33.634  1.00  0.00    -0.206 F 
ATOM     86  C   UNL A   1      47.051  26.508  35.593  1.00  0.00     0.022 A 
BRANCH  83  87
ATOM     87  S   UNL A   1      45.666  24.277  36.534  1.00  0.00     0.124 S 
ATOM     88  O   UNL A   1      47.001  23.692  36.439  1.00  0.00    -0.237 OA
ATOM     89  O   UNL A   1      45.289  24.793  37.845  1.00  0.00    -0.237 OA
ATOM     90  O   UNL A   1      44.617  23.542  35.832  1.00  0.00    -0.744 OA
ENDBRANCH  83  87
ENDBRANCH  57  80
ENDBRANCH  31  32
ENDBRANCH  23  26
ENDBRANCH  21  22
ENDBRANCH  20  21
ENDBRANCH   1  20
TORSDOF 18
ENDMDL
MODEL 3
REMARK VINA RESULT:     -11.0      1.423      7.970
REMARK SMILES CSCCC(=O)N1[C@H](C)CCC[C@@H]1C(=O)NCCCCNC(=O)c1ccc(-c2c3nc(c(-c4cc(S(=O)(=O)[O-])ccc4F)c4ccc([nH]4)c(-c4cc(S(=O)(=O)[O-])ccc4F)c4nc(c(-c5cc(S(=O)(=O)[O-])ccc5F)c5ccc2[nH]5)C=C4)C=C3)cc1
REMARK SMILES IDX 18 1 17 2 16 3 14 4 15 5 13 7 7 8 8 9 9 10 10 11 12 12 11 13
REMARK SMILES IDX 5 14 6 15 4 16 3 17 2 18 1 19 19 20 20 21 21 22 22 23 23 25
REMARK SMILES IDX 24 26 25 27 86 28 26 29 85 30 27 31 28 32 29 33 79 34 30 35
REMARK SMILES IDX 84 36 78 37 80 38 31 39 83 40 77 41 76 42 32 44 64 45 44 46
REMARK SMILES IDX 63 47 45 48 48 49 62 50 81 51 46 52 47 53 61 55 82 56 49 57
REMARK SMILES IDX 33 58 34 59 42 60 35 61 41 62 43 63 40 64 36 65 37 66 38 67
REMARK SMILES IDX 39 68 65 69 66 70 74 71 67 72 73 73 75 74 72 75 68 76 69 77
REMARK SMILES IDX 70 78 71 79 50 80 51 81 59 82 52 83 58 84 60 85 57 86 53 87
REMARK SMILES IDX 54 88 55 89 56 90
REMARK H PARENT 16 6 21 24 80 43 48 54
REMARK Flexibility Score: inf
ROOT
ATOM      1  C   UNL A   1      31.876  27.702  27.267  1.00  0.00     0.023 C 
ENDROOT
BRANCH   1   2
ATOM      2  C   UNL A   1      31.233  26.811  26.214  1.00  0.00     0.116 C 
BRANCH   2   3
ATOM      3  N   UNL A   1      31.377  25.389  26.413  1.00  0.00    -0.354 N 
ATOM      4  C   UNL A   1      32.344  24.532  25.972  1.00  0.00     0.242 C 
ATOM      5  O   UNL A   1      32.349  23.410  26.498  1.00  0.00    -0.273 OA
ATOM      6  H   UNL A   1      30.666  24.972  26.952  1.00  0.00     0.163 HD
BRANCH   4   7
ATOM      7  C   UNL A   1      33.479  24.913  24.973  1.00  0.00     0.174 C 
ATOM      8  N   UNL A   1      33.186  24.470  23.605  1.00  0.00    -0.328 N 
ATOM      9  C   UNL A   1      33.581  23.131  23.183  1.00  0.00     0.082 C 
ATOM     10  C   UNL A   1      32.427  22.131  23.245  1.00  0.00     0.031 C 
ATOM     11  C   UNL A   1      34.860  22.618  23.872  1.00  0.00     0.025 C 
ATOM     12  C   UNL A   1      34.932  24.702  25.386  1.00  0.00     0.035 C 
ATOM     13  C   UNL A   1      35.707  23.706  24.524  1.00  0.00     0.005 C 
BRANCH   8  14
ATOM     14  C   UNL A   1      32.857  25.427  22.653  1.00  0.00     0.224 C 
ATOM     15  O   UNL A   1      33.642  25.773  21.772  1.00  0.00    -0.275 OA
BRANCH  14  16
ATOM     16  C   UNL A   1      31.524  26.123  22.844  1.00  0.00     0.111 C 
BRANCH  16  17
ATOM     17  C   UNL A   1      31.389  27.441  22.094  1.00  0.00     0.079 C 
BRANCH  17  18
ATOM     18  S   UNL A   1      30.844  28.839  23.144  1.00  0.00    -0.165 SA
ATOM     19  C   UNL A   1      29.589  29.601  22.087  1.00  0.00     0.085 C 
ENDBRANCH  17  18
ENDBRANCH  16  17
ENDBRANCH  14  16
ENDBRANCH   8  14
ENDBRANCH   4   7
ENDBRANCH   2   3
ENDBRANCH   1   2
BRANCH   1  20
ATOM     20  C   UNL A   1      31.497  29.182  27.215  1.00  0.00     0.023 C 
BRANCH  20  21
ATOM     21  C   UNL A   1      32.406  30.100  26.399  1.00  0.00     0.116 C 
BRANCH  21  22
ATOM     22  N   UNL A   1      32.371  31.500  26.805  1.00  0.00    -0.352 N 
ATOM     23  C   UNL A   1      33.303  32.256  27.483  1.00  0.00     0.251 C 
ATOM     24  H   UNL A   1      31.550  31.982  26.556  1.00  0.00     0.163 HD
ATOM     25  O   UNL A   1      33.033  33.415  27.789  1.00  0.00    -0.269 OA
BRANCH  23  26
ATOM     26  C   UNL A   1      34.594  31.659  27.893  1.00  0.00     0.039 A 
ATOM     27  C   UNL A   1      35.689  32.500  28.112  1.00  0.00     0.014 A 
ATOM     28  C   UNL A   1      34.717  30.286  28.111  1.00  0.00     0.014 A 
ATOM     29  C   UNL A   1      36.859  31.982  28.674  1.00  0.00     0.010 A 
ATOM     30  C   UNL A   1      35.848  29.788  28.756  1.00  0.00     0.010 A 
ATOM     31  C   UNL A   1      36.923  30.635  29.068  1.00  0.00    -0.014 A 
BRANCH  31  32
ATOM     32  C   UNL A   1      38.080  30.101  29.841  1.00  0.00     0.031 A 
ATOM     33  C   UNL A   1      38.307  30.532  31.266  1.00  0.00     0.074 A 
ATOM     34  C   UNL A   1      38.980  29.302  29.229  1.00  0.00     0.049 A 
ATOM     35  N   UNL A   1      39.318  30.277  32.057  1.00  0.00    -0.248 NA
ATOM     36  C   UNL A   1      37.279  31.395  31.866  1.00  0.00     0.031 C 
ATOM     37  C   UNL A   1      38.908  28.856  27.834  1.00  0.00     0.029 A 
ATOM     38  N   UNL A   1      40.145  28.737  29.690  1.00  0.00    -0.354 N 
ATOM     39  C   UNL A   1      39.061  30.966  33.237  1.00  0.00     0.074 A 
ATOM     40  C   UNL A   1      37.825  31.693  33.035  1.00  0.00     0.031 C 
ATOM     41  C   UNL A   1      39.964  28.072  27.564  1.00  0.00     0.029 A 
ATOM     42  C   UNL A   1      40.819  27.998  28.744  1.00  0.00     0.049 A 
ATOM     43  H   UNL A   1      40.468  28.849  30.614  1.00  0.00     0.167 HD
ATOM     44  C   UNL A   1      39.778  30.977  34.388  1.00  0.00     0.034 A 
ATOM     45  C   UNL A   1      41.999  27.348  28.810  1.00  0.00     0.034 A 
ATOM     46  C   UNL A   1      40.991  30.224  34.588  1.00  0.00     0.049 A 
ATOM     47  C   UNL A   1      42.773  27.370  30.104  1.00  0.00     0.074 A 
ATOM     48  C   UNL A   1      41.752  30.106  35.740  1.00  0.00     0.029 A 
ATOM     49  N   UNL A   1      41.626  29.462  33.616  1.00  0.00    -0.354 N 
ATOM     50  N   UNL A   1      42.480  27.980  31.230  1.00  0.00    -0.248 NA
ATOM     51  C   UNL A   1      44.028  26.607  30.142  1.00  0.00     0.031 C 
ATOM     52  C   UNL A   1      42.876  29.326  35.447  1.00  0.00     0.029 A 
ATOM     53  C   UNL A   1      42.780  28.895  34.134  1.00  0.00     0.049 A 
ATOM     54  H   UNL A   1      41.303  29.341  32.694  1.00  0.00     0.167 HD
ATOM     55  C   UNL A   1      43.501  27.644  32.118  1.00  0.00     0.074 A 
ATOM     56  C   UNL A   1      44.403  26.768  31.402  1.00  0.00     0.031 C 
ATOM     57  C   UNL A   1      43.673  28.023  33.409  1.00  0.00     0.034 A 
BRANCH  44  58
ATOM     58  C   UNL A   1      39.274  31.846  35.516  1.00  0.00     0.023 A 
ATOM     59  C   UNL A   1      38.612  31.299  36.630  1.00  0.00     0.031 A 
ATOM     60  C   UNL A   1      39.453  33.239  35.476  1.00  0.00     0.131 A 
ATOM     61  C   UNL A   1      38.093  32.146  37.621  1.00  0.00     0.055 A 
ATOM     62  C   UNL A   1      39.003  34.070  36.503  1.00  0.00     0.041 A 
ATOM     63  F   UNL A   1      40.061  33.820  34.429  1.00  0.00    -0.206 F 
ATOM     64  C   UNL A   1      38.307  33.526  37.579  1.00  0.00     0.022 A 
BRANCH  61  65
ATOM     65  S   UNL A   1      37.029  31.429  38.901  1.00  0.00     0.124 S 
ATOM     66  O   UNL A   1      36.829  30.074  38.392  1.00  0.00    -0.237 OA
ATOM     67  O   UNL A   1      37.852  31.546  40.100  1.00  0.00    -0.237 OA
ATOM     68  O   UNL A   1      35.840  32.279  38.875  1.00  0.00    -0.744 OA
ENDBRANCH  61  65
ENDBRANCH  44  58
BRANCH  45  69
ATOM     69  C   UNL A   1      42.544  26.633  27.618  1.00  0.00     0.023 A 
ATOM     70  C   UNL A   1      42.220  25.290  27.370  1.00  0.00     0.031 A 
ATOM     71  C   UNL A   1      43.448  27.263  26.744  1.00  0.00     0.131 A 
ATOM     72  C   UNL A   1      42.840  24.602  26.315  1.00  0.00     0.055 A 
ATOM     73  C   UNL A   1      44.018  26.591  25.661  1.00  0.00     0.041 A 
ATOM     74  F   UNL A   1      43.789  28.548  26.929  1.00  0.00    -0.206 F 
ATOM     75  C   UNL A   1      43.728  25.246  25.451  1.00  0.00     0.022 A 
BRANCH  72  76
ATOM     76  S   UNL A   1      42.548  22.818  26.151  1.00  0.00     0.124 S 
ATOM     77  O   UNL A   1      43.029  22.561  24.798  1.00  0.00    -0.237 OA
ATOM     78  O   UNL A   1      43.364  22.280  27.235  1.00  0.00    -0.237 OA
ATOM     79  O   UNL A   1      41.105  22.691  26.337  1.00  0.00    -0.744 OA
ENDBRANCH  72  76
ENDBRANCH  45  69
BRANCH  57  80
ATOM     80  C   UNL A   1      44.858  27.444  34.142  1.00  0.00     0.023 A 
ATOM     81  C   UNL A   1      44.803  26.187  34.768  1.00  0.00     0.031 A 
ATOM     82  C   UNL A   1      46.060  28.171  34.220  1.00  0.00     0.131 A 
ATOM     83  C   UNL A   1      45.909  25.718  35.492  1.00  0.00     0.055 A 
ATOM     84  C   UNL A   1      47.177  27.673  34.891  1.00  0.00     0.041 A 
ATOM     85  F   UNL A   1      46.168  29.377  33.640  1.00  0.00    -0.206 F 
ATOM     86  C   UNL A   1      47.101  26.446  35.542  1.00  0.00     0.022 A 
BRANCH  83  87
ATOM     87  S   UNL A   1      45.743  24.180  36.439  1.00  0.00     0.124 S 
ATOM     88  O   UNL A   1      46.139  23.176  35.456  1.00  0.00    -0.237 OA
ATOM     89  O   UNL A   1      46.673  24.391  37.543  1.00  0.00    -0.237 OA
ATOM     90  O   UNL A   1      44.331  24.158  36.813  1.00  0.00    -0.744 OA
ENDBRANCH  83  87
ENDBRANCH  57  80
ENDBRANCH  31  32
ENDBRANCH  23  26
ENDBRANCH  21  22
ENDBRANCH  20  21
ENDBRANCH   1  20
TORSDOF 18
ENDMDL
