MODEL 1
REMARK VINA RESULT:     -12.0      0.000      0.000
REMARK SMILES O=C(CC1(NC(=O)C2(c3ccccc3)CC2)CCC1)NCCCCNC(=O)c1ccc(-c2c3nc(c(-c4cc(S(=O)(=O)[O-])ccc4F)c4ccc([nH]4)c(-c4cc(S(=O)(=O)[O-])ccc4F)c4nc(c(-c5cc(S(=O)(=O)[O-])ccc5F)c5ccc2[nH]5)C=C4)C=C3)cc1
REMARK SMILES IDX 22 1 21 2 20 3 1 4 2 5 3 7 4 8 17 9 19 10 18 11 5 12 6 13
REMARK SMILES IDX 7 15 8 16 15 17 16 18 9 19 10 20 14 21 11 22 13 23 12 24
REMARK SMILES IDX 23 25 24 26 25 27 26 28 27 30 28 31 29 32 90 33 30 34 89 35
REMARK SMILES IDX 31 36 32 37 33 38 83 39 34 40 88 41 82 42 84 43 35 44 87 45
REMARK SMILES IDX 81 46 80 47 36 49 68 50 48 51 67 52 49 53 52 54 66 55 85 56
REMARK SMILES IDX 50 57 51 58 65 60 86 61 53 62 37 63 38 64 46 65 39 66 45 67
REMARK SMILES IDX 47 68 44 69 40 70 41 71 42 72 43 73 69 74 70 75 78 76 71 77
REMARK SMILES IDX 77 78 79 79 76 80 72 81 73 82 74 83 75 84 54 85 55 86 63 87
REMARK SMILES IDX 56 88 62 89 64 90 61 91 57 92 58 93 59 94 60 95
REMARK H PARENT 20 6 5 14 25 29 84 48 52 59
REMARK Flexibility Score: inf
ROOT
ATOM      1  C   UNL A   1      31.186  30.778  25.663  1.00  0.00     0.023 C 
ENDROOT
BRANCH   1   2
ATOM      2  C   UNL A   1      31.924  29.598  26.291  1.00  0.00     0.116 C 
BRANCH   2   3
ATOM      3  N   UNL A   1      32.866  28.944  25.391  1.00  0.00    -0.356 N 
ATOM      4  O   UNL A   1      34.091  28.217  26.940  1.00  0.00    -0.275 OA
ATOM      5  C   UNL A   1      33.657  27.789  25.818  1.00  0.00     0.222 C 
ATOM      6  H   UNL A   1      32.971  29.287  24.473  1.00  0.00     0.163 HD
BRANCH   5   7
ATOM      7  C   UNL A   1      34.086  25.899  24.843  1.00  0.00     0.128 C 
BRANCH   7   8
ATOM      8  C   UNL A   1      34.734  24.462  24.834  1.00  0.00     0.049 C 
ATOM      9  C   UNL A   1      36.191  24.055  25.230  1.00  0.00     0.029 C 
ATOM     10  C   UNL A   1      34.204  23.243  25.653  1.00  0.00     0.029 C 
ATOM     11  C   UNL A   1      35.646  22.820  25.959  1.00  0.00     0.005 C 
BRANCH   8  12
ATOM     12  N   UNL A   1      34.515  24.152  23.224  1.00  0.00    -0.349 N 
ATOM     13  C   UNL A   1      33.525  23.346  22.546  1.00  0.00     0.231 C 
ATOM     14  H   UNL A   1      35.167  24.589  22.630  1.00  0.00     0.164 HD
ATOM     15  O   UNL A   1      33.604  23.353  21.313  1.00  0.00    -0.274 OA
BRANCH  13  16
ATOM     16  C   UNL A   1      32.314  22.420  23.198  1.00  0.00     0.074 C 
ATOM     17  C   UNL A   1      32.145  21.025  22.597  1.00  0.00     0.023 C 
ATOM     18  C   UNL A   1      32.789  21.172  23.944  1.00  0.00     0.023 C 
BRANCH  16  19
ATOM     19  C   UNL A   1      30.911  23.057  23.776  1.00  0.00    -0.032 A 
ATOM     20  C   UNL A   1      30.640  24.746  23.116  1.00  0.00     0.005 A 
ATOM     21  C   UNL A   1      30.735  22.749  25.568  1.00  0.00     0.005 A 
ATOM     22  C   UNL A   1      30.635  26.132  24.265  1.00  0.00     0.000 A 
ATOM     23  C   UNL A   1      30.764  24.158  26.702  1.00  0.00     0.000 A 
ATOM     24  C   UNL A   1      30.768  25.858  26.050  1.00  0.00     0.000 A 
ENDBRANCH  16  19
ENDBRANCH  13  16
ENDBRANCH   8  12
ENDBRANCH   7   8
ENDBRANCH   5   7
ENDBRANCH   2   3
ENDBRANCH   1   2
BRANCH   1  25
ATOM     25  C   UNL A   1      31.154  32.062  26.498  1.00  0.00     0.023 C 
BRANCH  25  26
ATOM     26  C   UNL A   1      32.513  32.524  27.018  1.00  0.00     0.116 C 
BRANCH  26  27
ATOM     27  N   UNL A   1      32.477  33.914  27.437  1.00  0.00    -0.352 N 
ATOM     28  C   UNL A   1      33.159  34.514  28.470  1.00  0.00     0.251 C 
ATOM     29  H   UNL A   1      31.888  34.504  26.913  1.00  0.00     0.163 HD
ATOM     30  O   UNL A   1      32.792  35.605  28.891  1.00  0.00    -0.269 OA
BRANCH  28  31
ATOM     31  C   UNL A   1      34.326  33.832  29.075  1.00  0.00     0.039 A 
ATOM     32  C   UNL A   1      35.614  34.257  28.743  1.00  0.00     0.014 A 
ATOM     33  C   UNL A   1      34.147  32.757  29.952  1.00  0.00     0.014 A 
ATOM     34  C   UNL A   1      36.721  33.634  29.329  1.00  0.00     0.010 A 
ATOM     35  C   UNL A   1      35.248  32.187  30.589  1.00  0.00     0.010 A 
ATOM     36  C   UNL A   1      36.548  32.613  30.279  1.00  0.00    -0.014 A 
BRANCH  36  37
ATOM     37  C   UNL A   1      37.717  31.970  30.941  1.00  0.00     0.031 A 
ATOM     38  C   UNL A   1      38.528  30.935  30.207  1.00  0.00     0.074 A 
ATOM     39  C   UNL A   1      38.020  32.284  32.216  1.00  0.00     0.049 A 
ATOM     40  N   UNL A   1      39.540  30.222  30.630  1.00  0.00    -0.248 NA
ATOM     41  C   UNL A   1      38.128  30.643  28.822  1.00  0.00     0.031 C 
ATOM     42  C   UNL A   1      37.294  33.251  33.043  1.00  0.00     0.029 A 
ATOM     43  N   UNL A   1      39.014  31.823  33.045  1.00  0.00    -0.354 N 
ATOM     44  C   UNL A   1      39.891  29.391  29.571  1.00  0.00     0.074 A 
ATOM     45  C   UNL A   1      38.942  29.647  28.509  1.00  0.00     0.031 C 
ATOM     46  C   UNL A   1      37.884  33.332  34.247  1.00  0.00     0.029 A 
ATOM     47  C   UNL A   1      38.997  32.390  34.300  1.00  0.00     0.049 A 
ATOM     48  H   UNL A   1      39.677  31.151  32.767  1.00  0.00     0.167 HD
ATOM     49  C   UNL A   1      40.922  28.514  29.485  1.00  0.00     0.034 A 
ATOM     50  C   UNL A   1      39.780  32.166  35.375  1.00  0.00     0.034 A 
ATOM     51  C   UNL A   1      41.868  28.279  30.550  1.00  0.00     0.049 A 
ATOM     52  C   UNL A   1      40.896  31.155  35.267  1.00  0.00     0.074 A 
ATOM     53  C   UNL A   1      42.982  27.456  30.546  1.00  0.00     0.029 A 
ATOM     54  N   UNL A   1      41.808  28.858  31.811  1.00  0.00    -0.354 N 
ATOM     55  N   UNL A   1      41.244  30.414  34.239  1.00  0.00    -0.248 NA
ATOM     56  C   UNL A   1      41.728  30.957  36.460  1.00  0.00     0.031 C 
ATOM     57  C   UNL A   1      43.544  27.474  31.827  1.00  0.00     0.029 A 
ATOM     58  C   UNL A   1      42.840  28.378  32.605  1.00  0.00     0.049 A 
ATOM     59  H   UNL A   1      41.133  29.513  32.100  1.00  0.00     0.167 HD
ATOM     60  C   UNL A   1      42.360  29.692  34.654  1.00  0.00     0.074 A 
ATOM     61  C   UNL A   1      42.633  30.096  36.018  1.00  0.00     0.031 C 
ATOM     62  C   UNL A   1      43.097  28.782  33.968  1.00  0.00     0.034 A 
BRANCH  49  63
ATOM     63  C   UNL A   1      41.061  27.719  28.205  1.00  0.00     0.023 A 
ATOM     64  C   UNL A   1      40.700  26.362  28.133  1.00  0.00     0.031 A 
ATOM     65  C   UNL A   1      41.575  28.324  27.044  1.00  0.00     0.131 A 
ATOM     66  C   UNL A   1      40.930  25.637  26.953  1.00  0.00     0.055 A 
ATOM     67  C   UNL A   1      41.719  27.619  25.848  1.00  0.00     0.041 A 
ATOM     68  F   UNL A   1      41.957  29.610  27.055  1.00  0.00    -0.206 F 
ATOM     69  C   UNL A   1      41.411  26.263  25.801  1.00  0.00     0.022 A 
BRANCH  66  70
ATOM     70  S   UNL A   1      40.736  23.834  26.993  1.00  0.00     0.124 S 
ATOM     71  O   UNL A   1      39.334  23.681  26.610  1.00  0.00    -0.237 OA
ATOM     72  O   UNL A   1      41.719  23.389  26.011  1.00  0.00    -0.237 OA
ATOM     73  O   UNL A   1      41.036  23.488  28.380  1.00  0.00    -0.744 OA
ENDBRANCH  66  70
ENDBRANCH  49  63
BRANCH  50  74
ATOM     74  C   UNL A   1      39.541  32.898  36.653  1.00  0.00     0.023 A 
ATOM     75  C   UNL A   1      38.687  32.373  37.637  1.00  0.00     0.031 A 
ATOM     76  C   UNL A   1      40.120  34.158  36.889  1.00  0.00     0.131 A 
ATOM     77  C   UNL A   1      38.393  33.128  38.784  1.00  0.00     0.055 A 
ATOM     78  C   UNL A   1      39.873  34.877  38.059  1.00  0.00     0.041 A 
ATOM     79  F   UNL A   1      40.944  34.707  35.983  1.00  0.00    -0.206 F 
ATOM     80  C   UNL A   1      38.993  34.369  39.009  1.00  0.00     0.022 A 
BRANCH  77  81
ATOM     81  S   UNL A   1      37.133  32.506  39.932  1.00  0.00     0.124 S 
ATOM     82  O   UNL A   1      37.658  31.186  40.260  1.00  0.00    -0.237 OA
ATOM     83  O   UNL A   1      37.179  33.499  40.999  1.00  0.00    -0.237 OA
ATOM     84  O   UNL A   1      35.912  32.512  39.129  1.00  0.00    -0.744 OA
ENDBRANCH  77  81
ENDBRANCH  50  74
BRANCH  62  85
ATOM     85  C   UNL A   1      44.301  28.197  34.671  1.00  0.00     0.023 A 
ATOM     86  C   UNL A   1      44.196  27.088  35.528  1.00  0.00     0.031 A 
ATOM     87  C   UNL A   1      45.572  28.771  34.486  1.00  0.00     0.131 A 
ATOM     88  C   UNL A   1      45.330  26.624  36.212  1.00  0.00     0.055 A 
ATOM     89  C   UNL A   1      46.708  28.262  35.116  1.00  0.00     0.041 A 
ATOM     90  F   UNL A   1      45.732  29.835  33.682  1.00  0.00    -0.206 F 
ATOM     91  C   UNL A   1      46.588  27.191  35.997  1.00  0.00     0.022 A 
BRANCH  88  92
ATOM     92  S   UNL A   1      45.120  25.332  37.469  1.00  0.00     0.124 S 
ATOM     93  O   UNL A   1      44.295  26.009  38.464  1.00  0.00    -0.237 OA
ATOM     94  O   UNL A   1      44.466  24.268  36.716  1.00  0.00    -0.237 OA
ATOM     95  O   UNL A   1      46.489  25.039  37.892  1.00  0.00    -0.744 OA
ENDBRANCH  88  92
ENDBRANCH  62  85
ENDBRANCH  36  37
ENDBRANCH  28  31
ENDBRANCH  26  27
ENDBRANCH  25  26
ENDBRANCH   1  25
TORSDOF 18
ENDMDL
MODEL 2
REMARK VINA RESULT:     -11.9      2.267      2.555
REMARK SMILES O=C(CC1(NC(=O)C2(c3ccccc3)CC2)CCC1)NCCCCNC(=O)c1ccc(-c2c3nc(c(-c4cc(S(=O)(=O)[O-])ccc4F)c4ccc([nH]4)c(-c4cc(S(=O)(=O)[O-])ccc4F)c4nc(c(-c5cc(S(=O)(=O)[O-])ccc5F)c5ccc2[nH]5)C=C4)C=C3)cc1
REMARK SMILES IDX 22 1 21 2 20 3 1 4 2 5 3 7 4 8 17 9 19 10 18 11 5 12 6 13
REMARK SMILES IDX 7 15 8 16 15 17 16 18 9 19 10 20 14 21 11 22 13 23 12 24
REMARK SMILES IDX 23 25 24 26 25 27 26 28 27 30 28 31 29 32 90 33 30 34 89 35
REMARK SMILES IDX 31 36 32 37 33 38 83 39 34 40 88 41 82 42 84 43 35 44 87 45
REMARK SMILES IDX 81 46 80 47 36 49 68 50 48 51 67 52 49 53 52 54 66 55 85 56
REMARK SMILES IDX 50 57 51 58 65 60 86 61 53 62 37 63 38 64 46 65 39 66 45 67
REMARK SMILES IDX 47 68 44 69 40 70 41 71 42 72 43 73 69 74 70 75 78 76 71 77
REMARK SMILES IDX 77 78 79 79 76 80 72 81 73 82 74 83 75 84 54 85 55 86 63 87
REMARK SMILES IDX 56 88 62 89 64 90 61 91 57 92 58 93 59 94 60 95
REMARK H PARENT 20 6 5 14 25 29 84 48 52 59
REMARK Flexibility Score: inf
ROOT
ATOM      1  C   UNL A   1      31.426  30.956  25.793  1.00  0.00     0.023 C 
ENDROOT
BRANCH   1   2
ATOM      2  C   UNL A   1      32.094  29.754  26.457  1.00  0.00     0.116 C 
BRANCH   2   3
ATOM      3  N   UNL A   1      32.827  28.900  25.530  1.00  0.00    -0.356 N 
ATOM      4  O   UNL A   1      34.316  28.390  26.928  1.00  0.00    -0.275 OA
ATOM      5  C   UNL A   1      33.663  27.796  26.004  1.00  0.00     0.222 C 
ATOM      6  H   UNL A   1      32.758  29.071  24.563  1.00  0.00     0.163 HD
BRANCH   5   7
ATOM      7  C   UNL A   1      33.854  25.744  25.330  1.00  0.00     0.128 C 
BRANCH   7   8
ATOM      8  C   UNL A   1      34.706  24.439  25.088  1.00  0.00     0.049 C 
ATOM      9  C   UNL A   1      36.220  24.201  25.401  1.00  0.00     0.029 C 
ATOM     10  C   UNL A   1      34.389  23.043  25.710  1.00  0.00     0.029 C 
ATOM     11  C   UNL A   1      35.887  22.800  25.931  1.00  0.00     0.005 C 
BRANCH   8  12
ATOM     12  N   UNL A   1      34.481  24.352  23.451  1.00  0.00    -0.349 N 
ATOM     13  C   UNL A   1      33.500  23.632  22.673  1.00  0.00     0.231 C 
ATOM     14  H   UNL A   1      35.122  24.878  22.921  1.00  0.00     0.164 HD
ATOM     15  O   UNL A   1      33.570  23.811  21.452  1.00  0.00    -0.274 OA
BRANCH  13  16
ATOM     16  C   UNL A   1      32.308  22.604  23.195  1.00  0.00     0.074 C 
ATOM     17  C   UNL A   1      32.178  21.289  22.428  1.00  0.00     0.023 C 
ATOM     18  C   UNL A   1      32.809  21.286  23.788  1.00  0.00     0.023 C 
BRANCH  16  19
ATOM     19  C   UNL A   1      30.885  23.132  23.833  1.00  0.00    -0.032 A 
ATOM     20  C   UNL A   1      30.446  24.783  23.168  1.00  0.00     0.005 A 
ATOM     21  C   UNL A   1      30.819  22.836  25.634  1.00  0.00     0.005 A 
ATOM     22  C   UNL A   1      30.379  26.180  24.303  1.00  0.00     0.000 A 
ATOM     23  C   UNL A   1      30.784  24.258  26.751  1.00  0.00     0.000 A 
ATOM     24  C   UNL A   1      30.617  25.943  26.082  1.00  0.00     0.000 A 
ENDBRANCH  16  19
ENDBRANCH  13  16
ENDBRANCH   8  12
ENDBRANCH   7   8
ENDBRANCH   5   7
ENDBRANCH   2   3
ENDBRANCH   1   2
BRANCH   1  25
ATOM     25  C   UNL A   1      31.347  32.227  26.646  1.00  0.00     0.023 C 
BRANCH  25  26
ATOM     26  C   UNL A   1      32.685  32.717  27.192  1.00  0.00     0.116 C 
BRANCH  26  27
ATOM     27  N   UNL A   1      32.604  34.098  27.635  1.00  0.00    -0.352 N 
ATOM     28  C   UNL A   1      33.223  34.688  28.712  1.00  0.00     0.251 C 
ATOM     29  H   UNL A   1      32.033  34.688  27.092  1.00  0.00     0.163 HD
ATOM     30  O   UNL A   1      32.816  35.765  29.133  1.00  0.00    -0.269 OA
BRANCH  28  31
ATOM     31  C   UNL A   1      34.368  34.013  29.363  1.00  0.00     0.039 A 
ATOM     32  C   UNL A   1      35.669  34.368  28.998  1.00  0.00     0.014 A 
ATOM     33  C   UNL A   1      34.157  33.013  30.317  1.00  0.00     0.014 A 
ATOM     34  C   UNL A   1      36.757  33.754  29.626  1.00  0.00     0.010 A 
ATOM     35  C   UNL A   1      35.241  32.454  30.993  1.00  0.00     0.010 A 
ATOM     36  C   UNL A   1      36.554  32.811  30.649  1.00  0.00    -0.014 A 
BRANCH  36  37
ATOM     37  C   UNL A   1      37.703  32.180  31.355  1.00  0.00     0.031 A 
ATOM     38  C   UNL A   1      38.454  31.044  30.710  1.00  0.00     0.074 A 
ATOM     39  C   UNL A   1      38.041  32.596  32.591  1.00  0.00     0.049 A 
ATOM     40  N   UNL A   1      39.441  30.328  31.187  1.00  0.00    -0.248 NA
ATOM     41  C   UNL A   1      38.020  30.644  29.365  1.00  0.00     0.031 C 
ATOM     42  C   UNL A   1      37.372  33.668  33.333  1.00  0.00     0.029 A 
ATOM     43  N   UNL A   1      39.026  32.169  33.447  1.00  0.00    -0.354 N 
ATOM     44  C   UNL A   1      39.737  29.387  30.206  1.00  0.00     0.074 A 
ATOM     45  C   UNL A   1      38.783  29.586  29.136  1.00  0.00     0.031 C 
ATOM     46  C   UNL A   1      37.985  33.833  34.516  1.00  0.00     0.029 A 
ATOM     47  C   UNL A   1      39.055  32.850  34.644  1.00  0.00     0.049 A 
ATOM     48  H   UNL A   1      39.653  31.444  33.225  1.00  0.00     0.167 HD
ATOM     49  C   UNL A   1      40.726  28.459  30.189  1.00  0.00     0.034 A 
ATOM     50  C   UNL A   1      39.845  32.692  35.725  1.00  0.00     0.034 A 
ATOM     51  C   UNL A   1      41.678  28.280  31.260  1.00  0.00     0.049 A 
ATOM     52  C   UNL A   1      40.912  31.624  35.699  1.00  0.00     0.074 A 
ATOM     53  C   UNL A   1      42.753  27.410  31.321  1.00  0.00     0.029 A 
ATOM     54  N   UNL A   1      41.664  28.976  32.463  1.00  0.00    -0.354 N 
ATOM     55  N   UNL A   1      41.210  30.776  34.741  1.00  0.00    -0.248 NA
ATOM     56  C   UNL A   1      41.754  31.499  36.896  1.00  0.00     0.031 C 
ATOM     57  C   UNL A   1      43.336  27.520  32.587  1.00  0.00     0.029 A 
ATOM     58  C   UNL A   1      42.686  28.525  33.286  1.00  0.00     0.049 A 
ATOM     59  H   UNL A   1      41.023  29.686  32.697  1.00  0.00     0.167 HD
ATOM     60  C   UNL A   1      42.299  30.045  35.209  1.00  0.00     0.074 A 
ATOM     61  C   UNL A   1      42.612  30.561  36.525  1.00  0.00     0.031 C 
ATOM     62  C   UNL A   1      42.983  29.041  34.602  1.00  0.00     0.034 A 
BRANCH  49  63
ATOM     63  C   UNL A   1      40.808  27.543  28.988  1.00  0.00     0.023 A 
ATOM     64  C   UNL A   1      41.760  27.737  27.972  1.00  0.00     0.031 A 
ATOM     65  C   UNL A   1      39.910  26.469  28.849  1.00  0.00     0.131 A 
ATOM     66  C   UNL A   1      41.742  26.921  26.830  1.00  0.00     0.055 A 
ATOM     67  C   UNL A   1      39.956  25.607  27.753  1.00  0.00     0.041 A 
ATOM     68  F   UNL A   1      38.964  26.246  29.775  1.00  0.00    -0.206 F 
ATOM     69  C   UNL A   1      40.865  25.839  26.726  1.00  0.00     0.022 A 
BRANCH  66  70
ATOM     70  S   UNL A   1      42.780  27.387  25.417  1.00  0.00     0.124 S 
ATOM     71  O   UNL A   1      42.061  28.546  24.894  1.00  0.00    -0.237 OA
ATOM     72  O   UNL A   1      44.066  27.664  26.048  1.00  0.00    -0.237 OA
ATOM     73  O   UNL A   1      42.745  26.205  24.561  1.00  0.00    -0.744 OA
ENDBRANCH  66  70
ENDBRANCH  49  63
BRANCH  50  74
ATOM     74  C   UNL A   1      39.659  33.549  36.932  1.00  0.00     0.023 A 
ATOM     75  C   UNL A   1      40.483  34.664  37.160  1.00  0.00     0.031 A 
ATOM     76  C   UNL A   1      38.691  33.237  37.904  1.00  0.00     0.131 A 
ATOM     77  C   UNL A   1      40.360  35.392  38.355  1.00  0.00     0.055 A 
ATOM     78  C   UNL A   1      38.532  34.002  39.060  1.00  0.00     0.041 A 
ATOM     79  F   UNL A   1      37.876  32.183  37.737  1.00  0.00    -0.206 F 
ATOM     80  C   UNL A   1      39.380  35.078  39.299  1.00  0.00     0.022 A 
BRANCH  77  81
ATOM     81  S   UNL A   1      41.572  36.697  38.702  1.00  0.00     0.124 S 
ATOM     82  O   UNL A   1      42.424  36.052  39.694  1.00  0.00    -0.237 OA
ATOM     83  O   UNL A   1      42.167  36.914  37.388  1.00  0.00    -0.237 OA
ATOM     84  O   UNL A   1      40.751  37.797  39.202  1.00  0.00    -0.744 OA
ENDBRANCH  77  81
ENDBRANCH  50  74
BRANCH  62  85
ATOM     85  C   UNL A   1      44.171  28.469  35.342  1.00  0.00     0.023 A 
ATOM     86  C   UNL A   1      45.470  28.977  35.167  1.00  0.00     0.031 A 
ATOM     87  C   UNL A   1      43.997  27.390  36.227  1.00  0.00     0.131 A 
ATOM     88  C   UNL A   1      46.552  28.369  35.822  1.00  0.00     0.055 A 
ATOM     89  C   UNL A   1      45.068  26.834  36.928  1.00  0.00     0.041 A 
ATOM     90  F   UNL A   1      42.780  26.860  36.430  1.00  0.00    -0.206 F 
ATOM     91  C   UNL A   1      46.357  27.314  36.716  1.00  0.00     0.022 A 
BRANCH  88  92
ATOM     92  S   UNL A   1      48.234  28.911  35.411  1.00  0.00     0.124 S 
ATOM     93  O   UNL A   1      48.923  28.753  36.689  1.00  0.00    -0.237 OA
ATOM     94  O   UNL A   1      48.617  27.974  34.361  1.00  0.00    -0.237 OA
ATOM     95  O   UNL A   1      48.052  30.294  34.971  1.00  0.00    -0.744 OA
ENDBRANCH  88  92
ENDBRANCH  62  85
ENDBRANCH  36  37
ENDBRANCH  28  31
ENDBRANCH  26  27
ENDBRANCH  25  26
ENDBRANCH   1  25
TORSDOF 18
ENDMDL
MODEL 3
REMARK VINA RESULT:     -11.9      1.816      7.966
REMARK SMILES O=C(CC1(NC(=O)C2(c3ccccc3)CC2)CCC1)NCCCCNC(=O)c1ccc(-c2c3nc(c(-c4cc(S(=O)(=O)[O-])ccc4F)c4ccc([nH]4)c(-c4cc(S(=O)(=O)[O-])ccc4F)c4nc(c(-c5cc(S(=O)(=O)[O-])ccc5F)c5ccc2[nH]5)C=C4)C=C3)cc1
REMARK SMILES IDX 22 1 21 2 20 3 1 4 2 5 3 7 4 8 17 9 19 10 18 11 5 12 6 13
REMARK SMILES IDX 7 15 8 16 15 17 16 18 9 19 10 20 14 21 11 22 13 23 12 24
REMARK SMILES IDX 23 25 24 26 25 27 26 28 27 30 28 31 29 32 90 33 30 34 89 35
REMARK SMILES IDX 31 36 32 37 33 38 83 39 34 40 88 41 82 42 84 43 35 44 87 45
REMARK SMILES IDX 81 46 80 47 36 49 68 50 48 51 67 52 49 53 52 54 66 55 85 56
REMARK SMILES IDX 50 57 51 58 65 60 86 61 53 62 37 63 38 64 46 65 39 66 45 67
REMARK SMILES IDX 47 68 44 69 40 70 41 71 42 72 43 73 69 74 70 75 78 76 71 77
REMARK SMILES IDX 77 78 79 79 76 80 72 81 73 82 74 83 75 84 54 85 55 86 63 87
REMARK SMILES IDX 56 88 62 89 64 90 61 91 57 92 58 93 59 94 60 95
REMARK H PARENT 20 6 5 14 25 29 84 48 52 59
REMARK Flexibility Score: inf
ROOT
ATOM      1  C   UNL A   1      35.209  31.838  27.812  1.00  0.00     0.023 C 
ENDROOT
BRANCH   1   2
ATOM      2  C   UNL A   1      34.104  30.812  27.573  1.00  0.00     0.116 C 
BRANCH   2   3
ATOM      3  N   UNL A   1      34.331  29.959  26.413  1.00  0.00    -0.356 N 
ATOM      4  O   UNL A   1      33.486  28.249  27.303  1.00  0.00    -0.275 OA
ATOM      5  C   UNL A   1      33.492  28.791  26.145  1.00  0.00     0.222 C 
ATOM      6  H   UNL A   1      35.067  30.176  25.795  1.00  0.00     0.163 HD
BRANCH   5   7
ATOM      7  C   UNL A   1      32.563  28.074  24.321  1.00  0.00     0.128 C 
BRANCH   7   8
ATOM      8  C   UNL A   1      31.293  27.821  23.421  1.00  0.00     0.049 C 
ATOM      9  C   UNL A   1      30.071  26.891  23.711  1.00  0.00     0.029 C 
ATOM     10  C   UNL A   1      30.299  28.932  22.956  1.00  0.00     0.029 C 
ATOM     11  C   UNL A   1      29.124  27.970  23.172  1.00  0.00     0.005 C 
BRANCH   8  12
ATOM     12  N   UNL A   1      32.098  27.244  22.095  1.00  0.00    -0.349 N 
ATOM     13  C   UNL A   1      32.745  25.973  21.866  1.00  0.00     0.231 C 
ATOM     14  H   UNL A   1      32.144  27.872  21.338  1.00  0.00     0.164 HD
ATOM     15  O   UNL A   1      33.226  25.830  20.736  1.00  0.00    -0.274 OA
BRANCH  13  16
ATOM     16  C   UNL A   1      32.930  24.697  22.908  1.00  0.00     0.074 C 
ATOM     17  C   UNL A   1      34.343  24.124  23.017  1.00  0.00     0.023 C 
ATOM     18  C   UNL A   1      33.812  24.983  24.125  1.00  0.00     0.023 C 
BRANCH  16  19
ATOM     19  C   UNL A   1      31.750  23.582  23.178  1.00  0.00    -0.032 A 
ATOM     20  C   UNL A   1      31.201  23.624  24.926  1.00  0.00     0.005 A 
ATOM     21  C   UNL A   1      32.164  21.982  22.399  1.00  0.00     0.005 A 
ATOM     22  C   UNL A   1      31.488  22.175  25.957  1.00  0.00     0.000 A 
ATOM     23  C   UNL A   1      32.477  20.551  23.459  1.00  0.00     0.000 A 
ATOM     24  C   UNL A   1      32.190  20.661  25.254  1.00  0.00     0.000 A 
ENDBRANCH  16  19
ENDBRANCH  13  16
ENDBRANCH   8  12
ENDBRANCH   7   8
ENDBRANCH   5   7
ENDBRANCH   2   3
ENDBRANCH   1   2
BRANCH   1  25
ATOM     25  C   UNL A   1      34.760  33.303  27.847  1.00  0.00     0.023 C 
BRANCH  25  26
ATOM     26  C   UNL A   1      33.265  33.510  28.068  1.00  0.00     0.116 C 
BRANCH  26  27
ATOM     27  N   UNL A   1      33.005  34.687  28.878  1.00  0.00    -0.352 N 
ATOM     28  C   UNL A   1      33.479  34.982  30.135  1.00  0.00     0.251 C 
ATOM     29  H   UNL A   1      32.413  35.362  28.474  1.00  0.00     0.163 HD
ATOM     30  O   UNL A   1      32.931  35.850  30.805  1.00  0.00    -0.269 OA
BRANCH  28  31
ATOM     31  C   UNL A   1      34.642  34.242  30.675  1.00  0.00     0.039 A 
ATOM     32  C   UNL A   1      34.426  33.103  31.453  1.00  0.00     0.014 A 
ATOM     33  C   UNL A   1      35.946  34.687  30.431  1.00  0.00     0.014 A 
ATOM     34  C   UNL A   1      35.519  32.383  31.947  1.00  0.00     0.010 A 
ATOM     35  C   UNL A   1      37.033  33.928  30.863  1.00  0.00     0.010 A 
ATOM     36  C   UNL A   1      36.833  32.773  31.633  1.00  0.00    -0.014 A 
BRANCH  36  37
ATOM     37  C   UNL A   1      38.004  31.992  32.117  1.00  0.00     0.031 A 
ATOM     38  C   UNL A   1      38.641  32.326  33.440  1.00  0.00     0.074 A 
ATOM     39  C   UNL A   1      38.523  31.015  31.347  1.00  0.00     0.049 A 
ATOM     40  N   UNL A   1      39.700  31.804  34.005  1.00  0.00    -0.248 NA
ATOM     41  C   UNL A   1      38.022  33.409  34.217  1.00  0.00     0.031 C 
ATOM     42  C   UNL A   1      38.012  30.615  30.033  1.00  0.00     0.029 A 
ATOM     43  N   UNL A   1      39.595  30.180  31.550  1.00  0.00    -0.354 N 
ATOM     44  C   UNL A   1      39.880  32.501  35.195  1.00  0.00     0.074 A 
ATOM     45  C   UNL A   1      38.857  33.523  35.238  1.00  0.00     0.031 C 
ATOM     46  C   UNL A   1      38.751  29.596  29.565  1.00  0.00     0.029 A 
ATOM     47  C   UNL A   1      39.818  29.301  30.515  1.00  0.00     0.049 A 
ATOM     48  H   UNL A   1      40.151  30.209  32.362  1.00  0.00     0.167 HD
ATOM     49  C   UNL A   1      40.798  32.293  36.172  1.00  0.00     0.034 A 
ATOM     50  C   UNL A   1      40.780  28.371  30.345  1.00  0.00     0.034 A 
ATOM     51  C   UNL A   1      41.806  31.260  36.120  1.00  0.00     0.049 A 
ATOM     52  C   UNL A   1      41.815  28.186  31.428  1.00  0.00     0.074 A 
ATOM     53  C   UNL A   1      42.746  30.926  37.079  1.00  0.00     0.029 A 
ATOM     54  N   UNL A   1      42.011  30.400  35.048  1.00  0.00    -0.354 N 
ATOM     55  N   UNL A   1      41.939  28.822  32.571  1.00  0.00    -0.248 NA
ATOM     56  C   UNL A   1      42.834  27.153  31.201  1.00  0.00     0.031 C 
ATOM     57  C   UNL A   1      43.571  29.925  36.556  1.00  0.00     0.029 A 
ATOM     58  C   UNL A   1      43.089  29.566  35.307  1.00  0.00     0.049 A 
ATOM     59  H   UNL A   1      41.471  30.385  34.226  1.00  0.00     0.167 HD
ATOM     60  C   UNL A   1      43.027  28.236  33.213  1.00  0.00     0.074 A 
ATOM     61  C   UNL A   1      43.513  27.190  32.337  1.00  0.00     0.031 C 
ATOM     62  C   UNL A   1      43.572  28.532  34.420  1.00  0.00     0.034 A 
BRANCH  49  63
ATOM     63  C   UNL A   1      40.775  33.222  37.365  1.00  0.00     0.023 A 
ATOM     64  C   UNL A   1      39.915  33.006  38.456  1.00  0.00     0.031 A 
ATOM     65  C   UNL A   1      41.614  34.350  37.405  1.00  0.00     0.131 A 
ATOM     66  C   UNL A   1      39.859  33.942  39.501  1.00  0.00     0.055 A 
ATOM     67  C   UNL A   1      41.617  35.230  38.489  1.00  0.00     0.041 A 
ATOM     68  F   UNL A   1      42.441  34.623  36.384  1.00  0.00    -0.206 F 
ATOM     69  C   UNL A   1      40.724  35.038  39.539  1.00  0.00     0.022 A 
BRANCH  66  70
ATOM     70  S   UNL A   1      38.535  33.788  40.731  1.00  0.00     0.124 S 
ATOM     71  O   UNL A   1      38.324  35.183  41.112  1.00  0.00    -0.237 OA
ATOM     72  O   UNL A   1      37.462  33.166  39.963  1.00  0.00    -0.237 OA
ATOM     73  O   UNL A   1      39.128  32.950  41.770  1.00  0.00    -0.744 OA
ENDBRANCH  66  70
ENDBRANCH  49  63
BRANCH  50  74
ATOM     74  C   UNL A   1      40.827  27.547  29.102  1.00  0.00     0.023 A 
ATOM     75  C   UNL A   1      41.745  27.834  28.078  1.00  0.00     0.031 A 
ATOM     76  C   UNL A   1      39.919  26.493  28.894  1.00  0.00     0.131 A 
ATOM     77  C   UNL A   1      41.699  27.113  26.874  1.00  0.00     0.055 A 
ATOM     78  C   UNL A   1      39.919  25.739  27.719  1.00  0.00     0.041 A 
ATOM     79  F   UNL A   1      39.020  26.174  29.839  1.00  0.00    -0.206 F 
ATOM     80  C   UNL A   1      40.803  26.058  26.694  1.00  0.00     0.022 A 
BRANCH  77  81
ATOM     81  S   UNL A   1      42.764  27.646  25.505  1.00  0.00     0.124 S 
ATOM     82  O   UNL A   1      44.015  27.930  26.197  1.00  0.00    -0.237 OA
ATOM     83  O   UNL A   1      42.759  26.469  24.643  1.00  0.00    -0.237 OA
ATOM     84  O   UNL A   1      42.067  28.813  24.968  1.00  0.00    -0.744 OA
ENDBRANCH  77  81
ENDBRANCH  50  74
BRANCH  62  85
ATOM     85  C   UNL A   1      44.728  27.676  34.885  1.00  0.00     0.023 A 
ATOM     86  C   UNL A   1      44.531  26.503  35.634  1.00  0.00     0.031 A 
ATOM     87  C   UNL A   1      46.050  28.051  34.581  1.00  0.00     0.131 A 
ATOM     88  C   UNL A   1      45.638  25.779  36.103  1.00  0.00     0.055 A 
ATOM     89  C   UNL A   1      47.144  27.289  34.991  1.00  0.00     0.041 A 
ATOM     90  F   UNL A   1      46.299  29.165  33.872  1.00  0.00    -0.206 F 
ATOM     91  C   UNL A   1      46.942  26.153  35.770  1.00  0.00     0.022 A 
BRANCH  88  92
ATOM     92  S   UNL A   1      45.354  24.395  37.241  1.00  0.00     0.124 S 
ATOM     93  O   UNL A   1      46.636  24.305  37.934  1.00  0.00    -0.237 OA
ATOM     94  O   UNL A   1      44.231  24.872  38.039  1.00  0.00    -0.237 OA
ATOM     95  O   UNL A   1      45.050  23.275  36.351  1.00  0.00    -0.744 OA
ENDBRANCH  88  92
ENDBRANCH  62  85
ENDBRANCH  36  37
ENDBRANCH  28  31
ENDBRANCH  26  27
ENDBRANCH  25  26
ENDBRANCH   1  25
TORSDOF 18
ENDMDL
