MODEL 1
REMARK VINA RESULT:     -11.3      0.000      0.000
REMARK SMILES Cc1ccc(OCC(=O)N[C@H](C)C(=O)NCCCCNC(=O)c2ccc(-c3c4nc(c(-c5cc(S(=O)(=O)[O-])ccc5F)c5ccc([nH]5)c(-c5cc(S(=O)(=O)[O-])ccc5F)c5nc(c(-c6cc(S(=O)(=O)[O-])ccc6F)c6ccc3[nH]6)C=C5)C=C4)cc2)c(Br)c1
REMARK SMILES IDX 17 1 16 2 15 3 13 4 14 5 11 7 12 8 10 9 8 10 9 11 7 13 6 14
REMARK SMILES IDX 5 15 1 16 2 17 3 18 88 19 4 20 86 21 87 22 18 23 19 24 20 25
REMARK SMILES IDX 21 26 22 28 23 29 24 30 85 31 25 32 84 33 26 34 27 35 28 36
REMARK SMILES IDX 78 37 29 38 83 39 77 40 79 41 30 42 82 43 76 44 75 45 31 47
REMARK SMILES IDX 63 48 43 49 62 50 44 51 47 52 61 53 80 54 45 55 46 56 60 58
REMARK SMILES IDX 81 59 48 60 32 61 33 62 41 63 34 64 40 65 42 66 39 67 35 68
REMARK SMILES IDX 36 69 37 70 38 71 64 72 65 73 73 74 66 75 72 76 74 77 71 78
REMARK SMILES IDX 67 79 68 80 69 81 70 82 49 83 50 84 58 85 51 86 57 87 59 88
REMARK SMILES IDX 56 89 52 90 53 91 54 92 55 93
REMARK H PARENT 15 6 10 12 20 27 79 46 47 57
REMARK Flexibility Score: inf
ROOT
ATOM      1  C   UNL A   1      32.386  30.288  26.864  1.00  0.00     0.023 C 
ENDROOT
BRANCH   1   2
ATOM      2  C   UNL A   1      31.808  29.188  25.966  1.00  0.00     0.116 C 
BRANCH   2   3
ATOM      3  N   UNL A   1      31.296  29.680  24.702  1.00  0.00    -0.354 N 
ATOM      4  C   UNL A   1      31.027  29.031  23.534  1.00  0.00     0.242 C 
ATOM      5  O   UNL A   1      30.548  29.702  22.614  1.00  0.00    -0.273 OA
ATOM      6  H   UNL A   1      31.110  30.647  24.684  1.00  0.00     0.163 HD
BRANCH   4   7
ATOM      7  C   UNL A   1      31.463  27.580  23.260  1.00  0.00     0.168 C 
ATOM      8  C   UNL A   1      30.240  26.662  23.250  1.00  0.00     0.041 C 
BRANCH   7   9
ATOM      9  N   UNL A   1      32.283  27.332  22.079  1.00  0.00    -0.342 N 
ATOM     10  C   UNL A   1      33.007  26.205  21.812  1.00  0.00     0.258 C 
ATOM     11  O   UNL A   1      33.151  25.897  20.625  1.00  0.00    -0.271 OA
ATOM     12  H   UNL A   1      32.317  28.051  21.407  1.00  0.00     0.164 HD
BRANCH  10  13
ATOM     13  C   UNL A   1      33.634  25.360  22.953  1.00  0.00     0.329 C 
BRANCH  13  14
ATOM     14  O   UNL A   1      34.443  24.210  22.718  1.00  0.00    -0.483 OA
BRANCH  14  15
ATOM     15  C   UNL A   1      33.981  23.064  23.296  1.00  0.00     0.134 A 
ATOM     16  C   UNL A   1      32.856  19.149  24.682  1.00  0.00     0.044 C 
ATOM     17  C   UNL A   1      33.184  20.547  24.247  1.00  0.00    -0.050 A 
ATOM     18  C   UNL A   1      32.345  21.276  23.408  1.00  0.00     0.007 A 
ATOM     19  C   UNL A   1      34.366  21.146  24.690  1.00  0.00     0.023 A 
ATOM     20  C   UNL A   1      32.736  22.536  22.947  1.00  0.00     0.048 A 
ATOM     21  C   UNL A   1      34.753  22.413  24.251  1.00  0.00     0.060 A 
ATOM     22  Br  UNL A   1      36.346  23.189  24.930  1.00  0.00    -0.047 Br
ENDBRANCH  14  15
ENDBRANCH  13  14
ENDBRANCH  10  13
ENDBRANCH   7   9
ENDBRANCH   4   7
ENDBRANCH   2   3
ENDBRANCH   1   2
BRANCH   1  23
ATOM     23  C   UNL A   1      31.684  31.659  26.904  1.00  0.00     0.023 C 
BRANCH  23  24
ATOM     24  C   UNL A   1      32.484  32.921  26.562  1.00  0.00     0.116 C 
BRANCH  24  25
ATOM     25  N   UNL A   1      32.301  34.039  27.471  1.00  0.00    -0.352 N 
ATOM     26  C   UNL A   1      33.079  34.399  28.553  1.00  0.00     0.251 C 
ATOM     27  H   UNL A   1      31.523  34.614  27.293  1.00  0.00     0.163 HD
ATOM     28  O   UNL A   1      32.739  35.352  29.252  1.00  0.00    -0.269 OA
BRANCH  26  29
ATOM     29  C   UNL A   1      34.283  33.611  28.908  1.00  0.00     0.039 A 
ATOM     30  C   UNL A   1      35.541  34.185  28.705  1.00  0.00     0.014 A 
ATOM     31  C   UNL A   1      34.191  32.325  29.445  1.00  0.00     0.014 A 
ATOM     32  C   UNL A   1      36.689  33.514  29.140  1.00  0.00     0.010 A 
ATOM     33  C   UNL A   1      35.330  31.670  29.909  1.00  0.00     0.010 A 
ATOM     34  C   UNL A   1      36.584  32.276  29.794  1.00  0.00    -0.014 A 
BRANCH  34  35
ATOM     35  C   UNL A   1      37.749  31.664  30.481  1.00  0.00     0.031 A 
ATOM     36  C   UNL A   1      38.571  30.598  29.818  1.00  0.00     0.074 A 
ATOM     37  C   UNL A   1      38.000  32.031  31.753  1.00  0.00     0.049 A 
ATOM     38  N   UNL A   1      39.596  29.937  30.291  1.00  0.00    -0.248 NA
ATOM     39  C   UNL A   1      38.179  30.211  28.455  1.00  0.00     0.031 C 
ATOM     40  C   UNL A   1      37.222  33.015  32.513  1.00  0.00     0.029 A 
ATOM     41  N   UNL A   1      38.964  31.621  32.637  1.00  0.00    -0.354 N 
ATOM     42  C   UNL A   1      39.989  29.069  29.280  1.00  0.00     0.074 A 
ATOM     43  C   UNL A   1      39.048  29.245  28.191  1.00  0.00     0.031 C 
ATOM     44  C   UNL A   1      37.758  33.152  33.735  1.00  0.00     0.029 A 
ATOM     45  C   UNL A   1      38.889  32.240  33.864  1.00  0.00     0.049 A 
ATOM     46  H   UNL A   1      39.646  30.946  32.415  1.00  0.00     0.167 HD
ATOM     47  C   UNL A   1      41.049  28.222  29.254  1.00  0.00     0.034 A 
ATOM     48  C   UNL A   1      39.646  32.088  34.968  1.00  0.00     0.034 A 
ATOM     49  C   UNL A   1      41.958  28.039  30.361  1.00  0.00     0.049 A 
ATOM     50  C   UNL A   1      40.798  31.116  34.925  1.00  0.00     0.074 A 
ATOM     51  C   UNL A   1      43.060  27.206  30.449  1.00  0.00     0.029 A 
ATOM     52  N   UNL A   1      41.865  28.698  31.581  1.00  0.00    -0.354 N 
ATOM     53  N   UNL A   1      41.184  30.340  33.939  1.00  0.00    -0.248 NA
ATOM     54  C   UNL A   1      41.623  31.011  36.135  1.00  0.00     0.031 C 
ATOM     55  C   UNL A   1      43.603  27.326  31.733  1.00  0.00     0.029 A 
ATOM     56  C   UNL A   1      42.879  28.281  32.428  1.00  0.00     0.049 A 
ATOM     57  H   UNL A   1      41.176  29.365  31.811  1.00  0.00     0.167 HD
ATOM     58  C   UNL A   1      42.326  29.689  34.397  1.00  0.00     0.074 A 
ATOM     59  C   UNL A   1      42.567  30.168  35.742  1.00  0.00     0.031 C 
ATOM     60  C   UNL A   1      43.109  28.783  33.762  1.00  0.00     0.034 A 
BRANCH  47  61
ATOM     61  C   UNL A   1      41.270  27.430  27.989  1.00  0.00     0.023 A 
ATOM     62  C   UNL A   1      40.955  26.061  27.925  1.00  0.00     0.031 A 
ATOM     63  C   UNL A   1      41.812  28.036  26.841  1.00  0.00     0.131 A 
ATOM     64  C   UNL A   1      41.243  25.329  26.764  1.00  0.00     0.055 A 
ATOM     65  C   UNL A   1      42.028  27.317  25.664  1.00  0.00     0.041 A 
ATOM     66  F   UNL A   1      42.148  29.335  26.848  1.00  0.00    -0.206 F 
ATOM     67  C   UNL A   1      41.756  25.952  25.625  1.00  0.00     0.022 A 
BRANCH  64  68
ATOM     68  S   UNL A   1      41.045  23.526  26.805  1.00  0.00     0.124 S 
ATOM     69  O   UNL A   1      41.487  23.214  28.162  1.00  0.00    -0.237 OA
ATOM     70  O   UNL A   1      39.621  23.357  26.543  1.00  0.00    -0.237 OA
ATOM     71  O   UNL A   1      41.935  23.059  25.745  1.00  0.00    -0.744 OA
ENDBRANCH  64  68
ENDBRANCH  47  61
BRANCH  48  72
ATOM     72  C   UNL A   1      39.360  32.876  36.200  1.00  0.00     0.023 A 
ATOM     73  C   UNL A   1      38.573  32.338  37.230  1.00  0.00     0.031 A 
ATOM     74  C   UNL A   1      39.821  34.197  36.345  1.00  0.00     0.131 A 
ATOM     75  C   UNL A   1      38.216  33.134  38.329  1.00  0.00     0.055 A 
ATOM     76  C   UNL A   1      39.512  34.966  37.468  1.00  0.00     0.041 A 
ATOM     77  F   UNL A   1      40.587  34.757  35.396  1.00  0.00    -0.206 F 
ATOM     78  C   UNL A   1      38.690  34.441  38.460  1.00  0.00     0.022 A 
BRANCH  75  79
ATOM     79  S   UNL A   1      37.028  32.472  39.529  1.00  0.00     0.124 S 
ATOM     80  O   UNL A   1      37.273  33.320  40.690  1.00  0.00    -0.237 OA
ATOM     81  O   UNL A   1      35.759  32.678  38.839  1.00  0.00    -0.237 OA
ATOM     82  O   UNL A   1      37.437  31.077  39.676  1.00  0.00    -0.744 OA
ENDBRANCH  75  79
ENDBRANCH  48  72
BRANCH  60  83
ATOM     83  C   UNL A   1      44.338  28.311  34.495  1.00  0.00     0.023 A 
ATOM     84  C   UNL A   1      44.308  27.200  35.354  1.00  0.00     0.031 A 
ATOM     85  C   UNL A   1      45.555  28.997  34.335  1.00  0.00     0.131 A 
ATOM     86  C   UNL A   1      45.465  26.834  36.059  1.00  0.00     0.055 A 
ATOM     87  C   UNL A   1      46.715  28.599  35.001  1.00  0.00     0.041 A 
ATOM     88  F   UNL A   1      45.634  30.066  33.527  1.00  0.00    -0.206 F 
ATOM     89  C   UNL A   1      46.670  27.519  35.877  1.00  0.00     0.022 A 
BRANCH  86  90
ATOM     90  S   UNL A   1      45.359  25.491  37.272  1.00  0.00     0.124 S 
ATOM     91  O   UNL A   1      45.389  24.307  36.419  1.00  0.00    -0.237 OA
ATOM     92  O   UNL A   1      46.546  25.714  38.092  1.00  0.00    -0.237 OA
ATOM     93  O   UNL A   1      44.087  25.737  37.948  1.00  0.00    -0.744 OA
ENDBRANCH  86  90
ENDBRANCH  60  83
ENDBRANCH  34  35
ENDBRANCH  26  29
ENDBRANCH  24  25
ENDBRANCH  23  24
ENDBRANCH   1  23
TORSDOF 18
ENDMDL
MODEL 2
REMARK VINA RESULT:     -11.3      2.417      8.231
REMARK SMILES Cc1ccc(OCC(=O)N[C@H](C)C(=O)NCCCCNC(=O)c2ccc(-c3c4nc(c(-c5cc(S(=O)(=O)[O-])ccc5F)c5ccc([nH]5)c(-c5cc(S(=O)(=O)[O-])ccc5F)c5nc(c(-c6cc(S(=O)(=O)[O-])ccc6F)c6ccc3[nH]6)C=C5)C=C4)cc2)c(Br)c1
REMARK SMILES IDX 17 1 16 2 15 3 13 4 14 5 11 7 12 8 10 9 8 10 9 11 7 13 6 14
REMARK SMILES IDX 5 15 1 16 2 17 3 18 88 19 4 20 86 21 87 22 18 23 19 24 20 25
REMARK SMILES IDX 21 26 22 28 23 29 24 30 85 31 25 32 84 33 26 34 27 35 28 36
REMARK SMILES IDX 78 37 29 38 83 39 77 40 79 41 30 42 82 43 76 44 75 45 31 47
REMARK SMILES IDX 63 48 43 49 62 50 44 51 47 52 61 53 80 54 45 55 46 56 60 58
REMARK SMILES IDX 81 59 48 60 32 61 33 62 41 63 34 64 40 65 42 66 39 67 35 68
REMARK SMILES IDX 36 69 37 70 38 71 64 72 65 73 73 74 66 75 72 76 74 77 71 78
REMARK SMILES IDX 67 79 68 80 69 81 70 82 49 83 50 84 58 85 51 86 57 87 59 88
REMARK SMILES IDX 56 89 52 90 53 91 54 92 55 93
REMARK H PARENT 15 6 10 12 20 27 79 46 47 57
REMARK Flexibility Score: inf
ROOT
ATOM      1  C   UNL A   1      32.020  26.731  26.638  1.00  0.00     0.023 C 
ENDROOT
BRANCH   1   2
ATOM      2  C   UNL A   1      31.144  25.843  25.746  1.00  0.00     0.116 C 
BRANCH   2   3
ATOM      3  N   UNL A   1      30.318  24.911  26.489  1.00  0.00    -0.354 N 
ATOM      4  C   UNL A   1      30.575  23.649  26.934  1.00  0.00     0.242 C 
ATOM      5  O   UNL A   1      29.689  23.091  27.590  1.00  0.00    -0.273 OA
ATOM      6  H   UNL A   1      29.419  25.246  26.708  1.00  0.00     0.163 HD
BRANCH   4   7
ATOM      7  C   UNL A   1      31.814  22.841  26.502  1.00  0.00     0.168 C 
ATOM      8  C   UNL A   1      32.735  22.621  27.702  1.00  0.00     0.041 C 
BRANCH   7   9
ATOM      9  N   UNL A   1      31.588  21.579  25.806  1.00  0.00    -0.342 N 
ATOM     10  C   UNL A   1      32.001  21.260  24.544  1.00  0.00     0.258 C 
ATOM     11  O   UNL A   1      32.259  20.073  24.320  1.00  0.00    -0.271 OA
ATOM     12  H   UNL A   1      31.086  20.888  26.297  1.00  0.00     0.164 HD
BRANCH  10  13
ATOM     13  C   UNL A   1      32.127  22.341  23.439  1.00  0.00     0.329 C 
BRANCH  13  14
ATOM     14  O   UNL A   1      33.380  22.813  22.946  1.00  0.00    -0.483 OA
BRANCH  14  15
ATOM     15  C   UNL A   1      33.448  24.164  22.770  1.00  0.00     0.134 A 
ATOM     16  C   UNL A   1      33.158  28.453  22.584  1.00  0.00     0.044 C 
ATOM     17  C   UNL A   1      33.314  26.960  22.580  1.00  0.00    -0.050 A 
ATOM     18  C   UNL A   1      32.785  26.164  21.568  1.00  0.00     0.007 A 
ATOM     19  C   UNL A   1      34.006  26.338  23.623  1.00  0.00     0.023 A 
ATOM     20  C   UNL A   1      32.867  24.772  21.655  1.00  0.00     0.048 A 
ATOM     21  C   UNL A   1      34.110  24.949  23.706  1.00  0.00     0.060 A 
ATOM     22  Br  UNL A   1      35.108  24.172  25.120  1.00  0.00    -0.047 Br
ENDBRANCH  14  15
ENDBRANCH  13  14
ENDBRANCH  10  13
ENDBRANCH   7   9
ENDBRANCH   4   7
ENDBRANCH   2   3
ENDBRANCH   1   2
BRANCH   1  23
ATOM     23  C   UNL A   1      31.667  28.224  26.774  1.00  0.00     0.023 C 
BRANCH  23  24
ATOM     24  C   UNL A   1      32.630  29.277  26.211  1.00  0.00     0.116 C 
BRANCH  24  25
ATOM     25  N   UNL A   1      32.340  30.649  26.588  1.00  0.00    -0.352 N 
ATOM     26  C   UNL A   1      33.154  31.543  27.255  1.00  0.00     0.251 C 
ATOM     27  H   UNL A   1      31.451  30.985  26.336  1.00  0.00     0.163 HD
ATOM     28  O   UNL A   1      32.719  32.657  27.543  1.00  0.00    -0.269 OA
BRANCH  26  29
ATOM     29  C   UNL A   1      34.519  31.149  27.674  1.00  0.00     0.039 A 
ATOM     30  C   UNL A   1      35.466  32.153  27.898  1.00  0.00     0.014 A 
ATOM     31  C   UNL A   1      34.878  29.812  27.858  1.00  0.00     0.014 A 
ATOM     32  C   UNL A   1      36.725  31.820  28.407  1.00  0.00     0.010 A 
ATOM     33  C   UNL A   1      36.119  29.480  28.396  1.00  0.00     0.010 A 
ATOM     34  C   UNL A   1      37.039  30.485  28.710  1.00  0.00    -0.014 A 
BRANCH  34  35
ATOM     35  C   UNL A   1      38.261  30.134  29.475  1.00  0.00     0.031 A 
ATOM     36  C   UNL A   1      38.494  30.669  30.858  1.00  0.00     0.074 A 
ATOM     37  C   UNL A   1      39.201  29.389  28.862  1.00  0.00     0.049 A 
ATOM     38  N   UNL A   1      39.522  30.489  31.647  1.00  0.00    -0.248 NA
ATOM     39  C   UNL A   1      37.445  31.533  31.418  1.00  0.00     0.031 C 
ATOM     40  C   UNL A   1      39.102  28.869  27.494  1.00  0.00     0.029 A 
ATOM     41  N   UNL A   1      40.424  28.944  29.294  1.00  0.00    -0.354 N 
ATOM     42  C   UNL A   1      39.239  31.198  32.808  1.00  0.00     0.074 A 
ATOM     43  C   UNL A   1      37.969  31.863  32.591  1.00  0.00     0.031 C 
ATOM     44  C   UNL A   1      40.203  28.155  27.213  1.00  0.00     0.029 A 
ATOM     45  C   UNL A   1      41.104  28.196  28.359  1.00  0.00     0.049 A 
ATOM     46  H   UNL A   1      40.784  29.142  30.189  1.00  0.00     0.167 HD
ATOM     47  C   UNL A   1      39.960  31.267  33.955  1.00  0.00     0.034 A 
ATOM     48  C   UNL A   1      42.316  27.613  28.419  1.00  0.00     0.034 A 
ATOM     49  C   UNL A   1      41.238  30.621  34.142  1.00  0.00     0.049 A 
ATOM     50  C   UNL A   1      43.112  27.733  29.693  1.00  0.00     0.074 A 
ATOM     51  C   UNL A   1      42.059  30.628  35.256  1.00  0.00     0.029 A 
ATOM     52  N   UNL A   1      41.886  29.855  33.181  1.00  0.00    -0.354 N 
ATOM     53  N   UNL A   1      42.804  28.367  30.800  1.00  0.00    -0.248 NA
ATOM     54  C   UNL A   1      44.410  27.048  29.732  1.00  0.00     0.031 C 
ATOM     55  C   UNL A   1      43.219  29.907  34.955  1.00  0.00     0.029 A 
ATOM     56  C   UNL A   1      43.098  29.396  33.673  1.00  0.00     0.049 A 
ATOM     57  H   UNL A   1      41.536  29.665  32.279  1.00  0.00     0.167 HD
ATOM     58  C   UNL A   1      43.851  28.117  31.683  1.00  0.00     0.074 A 
ATOM     59  C   UNL A   1      44.794  27.271  30.980  1.00  0.00     0.031 C 
ATOM     60  C   UNL A   1      44.016  28.541  32.960  1.00  0.00     0.034 A 
BRANCH  47  61
ATOM     61  C   UNL A   1      39.380  32.077  35.089  1.00  0.00     0.023 A 
ATOM     62  C   UNL A   1      39.781  33.407  35.312  1.00  0.00     0.031 A 
ATOM     63  C   UNL A   1      38.430  31.520  35.964  1.00  0.00     0.131 A 
ATOM     64  C   UNL A   1      39.286  34.112  36.418  1.00  0.00     0.055 A 
ATOM     65  C   UNL A   1      37.886  32.253  37.021  1.00  0.00     0.041 A 
ATOM     66  F   UNL A   1      38.021  30.251  35.811  1.00  0.00    -0.206 F 
ATOM     67  C   UNL A   1      38.324  33.553  37.261  1.00  0.00     0.022 A 
BRANCH  64  68
ATOM     68  S   UNL A   1      40.007  35.731  36.806  1.00  0.00     0.124 S 
ATOM     69  O   UNL A   1      39.635  36.508  35.627  1.00  0.00    -0.237 OA
ATOM     70  O   UNL A   1      39.331  36.090  38.046  1.00  0.00    -0.237 OA
ATOM     71  O   UNL A   1      41.435  35.448  36.933  1.00  0.00    -0.744 OA
ENDBRANCH  64  68
ENDBRANCH  47  61
BRANCH  48  72
ATOM     72  C   UNL A   1      42.852  26.852  27.255  1.00  0.00     0.023 A 
ATOM     73  C   UNL A   1      42.566  25.487  27.095  1.00  0.00     0.031 A 
ATOM     74  C   UNL A   1      43.701  27.461  26.314  1.00  0.00     0.131 A 
ATOM     75  C   UNL A   1      43.172  24.760  26.060  1.00  0.00     0.055 A 
ATOM     76  C   UNL A   1      44.257  26.747  25.251  1.00  0.00     0.041 A 
ATOM     77  F   UNL A   1      43.999  28.766  26.412  1.00  0.00    -0.206 F 
ATOM     78  C   UNL A   1      44.007  25.383  25.130  1.00  0.00     0.022 A 
BRANCH  75  79
ATOM     79  S   UNL A   1      42.944  22.961  26.016  1.00  0.00     0.124 S 
ATOM     80  O   UNL A   1      44.011  22.504  26.899  1.00  0.00    -0.237 OA
ATOM     81  O   UNL A   1      41.584  22.819  26.525  1.00  0.00    -0.237 OA
ATOM     82  O   UNL A   1      43.118  22.632  24.603  1.00  0.00    -0.744 OA
ENDBRANCH  75  79
ENDBRANCH  48  72
BRANCH  60  83
ATOM     83  C   UNL A   1      45.229  28.032  33.695  1.00  0.00     0.023 A 
ATOM     84  C   UNL A   1      45.155  26.949  34.587  1.00  0.00     0.031 A 
ATOM     85  C   UNL A   1      46.475  28.654  33.503  1.00  0.00     0.131 A 
ATOM     86  C   UNL A   1      46.301  26.549  35.292  1.00  0.00     0.055 A 
ATOM     87  C   UNL A   1      47.622  28.220  34.169  1.00  0.00     0.041 A 
ATOM     88  F   UNL A   1      46.597  29.694  32.663  1.00  0.00    -0.206 F 
ATOM     89  C   UNL A   1      47.536  27.169  35.077  1.00  0.00     0.022 A 
BRANCH  86  90
ATOM     90  S   UNL A   1      46.144  25.248  36.545  1.00  0.00     0.124 S 
ATOM     91  O   UNL A   1      47.148  24.282  36.109  1.00  0.00    -0.237 OA
ATOM     92  O   UNL A   1      46.445  25.965  37.780  1.00  0.00    -0.237 OA
ATOM     93  O   UNL A   1      44.758  24.806  36.410  1.00  0.00    -0.744 OA
ENDBRANCH  86  90
ENDBRANCH  60  83
ENDBRANCH  34  35
ENDBRANCH  26  29
ENDBRANCH  24  25
ENDBRANCH  23  24
ENDBRANCH   1  23
TORSDOF 18
ENDMDL
MODEL 3
REMARK VINA RESULT:     -11.2      1.694      7.824
REMARK SMILES Cc1ccc(OCC(=O)N[C@H](C)C(=O)NCCCCNC(=O)c2ccc(-c3c4nc(c(-c5cc(S(=O)(=O)[O-])ccc5F)c5ccc([nH]5)c(-c5cc(S(=O)(=O)[O-])ccc5F)c5nc(c(-c6cc(S(=O)(=O)[O-])ccc6F)c6ccc3[nH]6)C=C5)C=C4)cc2)c(Br)c1
REMARK SMILES IDX 17 1 16 2 15 3 13 4 14 5 11 7 12 8 10 9 8 10 9 11 7 13 6 14
REMARK SMILES IDX 5 15 1 16 2 17 3 18 88 19 4 20 86 21 87 22 18 23 19 24 20 25
REMARK SMILES IDX 21 26 22 28 23 29 24 30 85 31 25 32 84 33 26 34 27 35 28 36
REMARK SMILES IDX 78 37 29 38 83 39 77 40 79 41 30 42 82 43 76 44 75 45 31 47
REMARK SMILES IDX 63 48 43 49 62 50 44 51 47 52 61 53 80 54 45 55 46 56 60 58
REMARK SMILES IDX 81 59 48 60 32 61 33 62 41 63 34 64 40 65 42 66 39 67 35 68
REMARK SMILES IDX 36 69 37 70 38 71 64 72 65 73 73 74 66 75 72 76 74 77 71 78
REMARK SMILES IDX 67 79 68 80 69 81 70 82 49 83 50 84 58 85 51 86 57 87 59 88
REMARK SMILES IDX 56 89 52 90 53 91 54 92 55 93
REMARK H PARENT 15 6 10 12 20 27 79 46 47 57
REMARK Flexibility Score: inf
ROOT
ATOM      1  C   UNL A   1      32.514  30.172  25.842  1.00  0.00     0.023 C 
ENDROOT
BRANCH   1   2
ATOM      2  C   UNL A   1      31.403  29.235  25.351  1.00  0.00     0.116 C 
BRANCH   2   3
ATOM      3  N   UNL A   1      30.942  29.536  24.009  1.00  0.00    -0.354 N 
ATOM      4  C   UNL A   1      30.786  28.735  22.919  1.00  0.00     0.242 C 
ATOM      5  O   UNL A   1      30.327  29.256  21.897  1.00  0.00    -0.273 OA
ATOM      6  H   UNL A   1      30.702  30.479  23.861  1.00  0.00     0.163 HD
BRANCH   4   7
ATOM      7  C   UNL A   1      31.323  27.292  22.851  1.00  0.00     0.168 C 
ATOM      8  C   UNL A   1      30.185  26.302  23.098  1.00  0.00     0.041 C 
BRANCH   7   9
ATOM      9  N   UNL A   1      32.074  26.906  21.662  1.00  0.00    -0.342 N 
ATOM     10  C   UNL A   1      32.867  25.802  21.523  1.00  0.00     0.258 C 
ATOM     11  O   UNL A   1      32.950  25.308  20.394  1.00  0.00    -0.271 OA
ATOM     12  H   UNL A   1      32.001  27.501  20.881  1.00  0.00     0.164 HD
BRANCH  10  13
ATOM     13  C   UNL A   1      33.641  25.208  22.729  1.00  0.00     0.329 C 
BRANCH  13  14
ATOM     14  O   UNL A   1      33.245  24.012  23.398  1.00  0.00    -0.483 OA
BRANCH  14  15
ATOM     15  C   UNL A   1      34.264  23.141  23.654  1.00  0.00     0.134 A 
ATOM     16  C   UNL A   1      37.544  20.704  25.001  1.00  0.00     0.044 C 
ATOM     17  C   UNL A   1      36.412  21.521  24.451  1.00  0.00    -0.050 A 
ATOM     18  C   UNL A   1      36.624  22.584  23.577  1.00  0.00     0.007 A 
ATOM     19  C   UNL A   1      35.100  21.217  24.824  1.00  0.00     0.023 A 
ATOM     20  C   UNL A   1      35.551  23.381  23.167  1.00  0.00     0.048 A 
ATOM     21  C   UNL A   1      34.020  21.996  24.402  1.00  0.00     0.060 A 
ATOM     22  Br  UNL A   1      32.260  21.498  24.903  1.00  0.00    -0.047 Br
ENDBRANCH  14  15
ENDBRANCH  13  14
ENDBRANCH  10  13
ENDBRANCH   7   9
ENDBRANCH   4   7
ENDBRANCH   2   3
ENDBRANCH   1   2
BRANCH   1  23
ATOM     23  C   UNL A   1      32.156  31.287  26.843  1.00  0.00     0.023 C 
BRANCH  23  24
ATOM     24  C   UNL A   1      33.240  32.283  27.273  1.00  0.00     0.116 C 
BRANCH  24  25
ATOM     25  N   UNL A   1      32.760  33.607  27.628  1.00  0.00    -0.352 N 
ATOM     26  C   UNL A   1      33.252  34.467  28.590  1.00  0.00     0.251 C 
ATOM     27  H   UNL A   1      31.986  33.935  27.118  1.00  0.00     0.163 HD
ATOM     28  O   UNL A   1      32.681  35.536  28.795  1.00  0.00    -0.269 OA
BRANCH  26  29
ATOM     29  C   UNL A   1      34.424  34.082  29.413  1.00  0.00     0.039 A 
ATOM     30  C   UNL A   1      34.203  33.404  30.615  1.00  0.00     0.014 A 
ATOM     31  C   UNL A   1      35.731  34.370  29.015  1.00  0.00     0.014 A 
ATOM     32  C   UNL A   1      35.291  32.925  31.352  1.00  0.00     0.010 A 
ATOM     33  C   UNL A   1      36.815  33.866  29.730  1.00  0.00     0.010 A 
ATOM     34  C   UNL A   1      36.602  33.107  30.884  1.00  0.00    -0.014 A 
BRANCH  34  35
ATOM     35  C   UNL A   1      37.750  32.402  31.509  1.00  0.00     0.031 A 
ATOM     36  C   UNL A   1      38.344  32.876  32.803  1.00  0.00     0.074 A 
ATOM     37  C   UNL A   1      38.302  31.372  30.838  1.00  0.00     0.049 A 
ATOM     38  N   UNL A   1      39.366  32.397  33.462  1.00  0.00    -0.248 NA
ATOM     39  C   UNL A   1      37.719  34.052  33.425  1.00  0.00     0.031 C 
ATOM     40  C   UNL A   1      37.840  30.869  29.540  1.00  0.00     0.029 A 
ATOM     41  N   UNL A   1      39.371  30.568  31.141  1.00  0.00    -0.354 N 
ATOM     42  C   UNL A   1      39.500  33.197  34.591  1.00  0.00     0.074 A 
ATOM     43  C   UNL A   1      38.489  34.232  34.490  1.00  0.00     0.031 C 
ATOM     44  C   UNL A   1      38.602  29.826  29.175  1.00  0.00     0.029 A 
ATOM     45  C   UNL A   1      39.630  29.610  30.187  1.00  0.00     0.049 A 
ATOM     46  H   UNL A   1      39.903  30.667  31.963  1.00  0.00     0.167 HD
ATOM     47  C   UNL A   1      40.368  33.065  35.625  1.00  0.00     0.034 A 
ATOM     48  C   UNL A   1      40.589  28.665  30.133  1.00  0.00     0.034 A 
ATOM     49  C   UNL A   1      41.387  32.044  35.693  1.00  0.00     0.049 A 
ATOM     50  C   UNL A   1      41.563  28.562  31.280  1.00  0.00     0.074 A 
ATOM     51  C   UNL A   1      42.324  31.820  36.687  1.00  0.00     0.029 A 
ATOM     52  N   UNL A   1      41.608  31.078  34.719  1.00  0.00    -0.354 N 
ATOM     53  N   UNL A   1      41.640  29.297  32.364  1.00  0.00    -0.248 NA
ATOM     54  C   UNL A   1      42.567  27.493  31.202  1.00  0.00     0.031 C 
ATOM     55  C   UNL A   1      43.138  30.751  36.294  1.00  0.00     0.029 A 
ATOM     56  C   UNL A   1      42.671  30.267  35.084  1.00  0.00     0.049 A 
ATOM     57  H   UNL A   1      41.085  30.983  33.889  1.00  0.00     0.167 HD
ATOM     58  C   UNL A   1      42.673  28.748  33.119  1.00  0.00     0.074 A 
ATOM     59  C   UNL A   1      43.183  27.619  32.368  1.00  0.00     0.031 C 
ATOM     60  C   UNL A   1      43.153  29.136  34.326  1.00  0.00     0.034 A 
BRANCH  47  61
ATOM     61  C   UNL A   1      40.250  34.056  36.757  1.00  0.00     0.023 A 
ATOM     62  C   UNL A   1      39.667  33.692  37.984  1.00  0.00     0.031 A 
ATOM     63  C   UNL A   1      40.710  35.377  36.613  1.00  0.00     0.131 A 
ATOM     64  C   UNL A   1      39.498  34.652  38.992  1.00  0.00     0.055 A 
ATOM     65  C   UNL A   1      40.605  36.308  37.648  1.00  0.00     0.041 A 
ATOM     66  F   UNL A   1      41.261  35.786  35.460  1.00  0.00    -0.206 F 
ATOM     67  C   UNL A   1      39.984  35.952  38.841  1.00  0.00     0.022 A 
BRANCH  64  68
ATOM     68  S   UNL A   1      38.528  34.206  40.459  1.00  0.00     0.124 S 
ATOM     69  O   UNL A   1      38.194  35.520  41.001  1.00  0.00    -0.237 OA
ATOM     70  O   UNL A   1      37.419  33.451  39.888  1.00  0.00    -0.237 OA
ATOM     71  O   UNL A   1      39.464  33.426  41.265  1.00  0.00    -0.744 OA
ENDBRANCH  64  68
ENDBRANCH  47  61
BRANCH  48  72
ATOM     72  C   UNL A   1      40.676  27.735  28.973  1.00  0.00     0.023 A 
ATOM     73  C   UNL A   1      41.600  27.957  27.941  1.00  0.00     0.031 A 
ATOM     74  C   UNL A   1      39.801  26.640  28.850  1.00  0.00     0.131 A 
ATOM     75  C   UNL A   1      41.589  27.139  26.801  1.00  0.00     0.055 A 
ATOM     76  C   UNL A   1      39.832  25.794  27.740  1.00  0.00     0.041 A 
ATOM     77  F   UNL A   1      38.905  26.374  29.812  1.00  0.00    -0.206 F 
ATOM     78  C   UNL A   1      40.718  26.052  26.699  1.00  0.00     0.022 A 
BRANCH  75  79
ATOM     79  S   UNL A   1      42.652  27.588  25.402  1.00  0.00     0.124 S 
ATOM     80  O   UNL A   1      42.659  26.353  24.625  1.00  0.00    -0.237 OA
ATOM     81  O   UNL A   1      41.924  28.709  24.819  1.00  0.00    -0.237 OA
ATOM     82  O   UNL A   1      43.922  27.932  26.038  1.00  0.00    -0.744 OA
ENDBRANCH  75  79
ENDBRANCH  48  72
BRANCH  60  83
ATOM     83  C   UNL A   1      44.237  28.285  34.935  1.00  0.00     0.023 A 
ATOM     84  C   UNL A   1      43.944  27.227  35.812  1.00  0.00     0.031 A 
ATOM     85  C   UNL A   1      45.585  28.548  34.634  1.00  0.00     0.131 A 
ATOM     86  C   UNL A   1      44.992  26.499  36.399  1.00  0.00     0.055 A 
ATOM     87  C   UNL A   1      46.620  27.789  35.181  1.00  0.00     0.041 A 
ATOM     88  F   UNL A   1      45.916  29.549  33.803  1.00  0.00    -0.206 F 
ATOM     89  C   UNL A   1      46.326  26.766  36.077  1.00  0.00     0.022 A 
BRANCH  86  90
ATOM     90  S   UNL A   1      44.591  25.241  37.641  1.00  0.00     0.124 S 
ATOM     91  O   UNL A   1      45.188  25.803  38.848  1.00  0.00    -0.237 OA
ATOM     92  O   UNL A   1      43.132  25.217  37.603  1.00  0.00    -0.237 OA
ATOM     93  O   UNL A   1      45.241  24.035  37.131  1.00  0.00    -0.744 OA
ENDBRANCH  86  90
ENDBRANCH  60  83
ENDBRANCH  34  35
ENDBRANCH  26  29
ENDBRANCH  24  25
ENDBRANCH  23  24
ENDBRANCH   1  23
TORSDOF 18
ENDMDL
