MODEL 1
REMARK VINA RESULT:     -10.4      0.000      0.000
REMARK SMILES CC1(c2ccc(C(=O)NCCCCNC(=O)c3ccc(-c4c5nc(c(-c6cc(S(=O)(=O)[O-])ccc6F)c6ccc([nH]6)c(-c6cc(S(=O)(=O)[O-])ccc6F)c6nc(c(-c7cc(S(=O)(=O)[O-])ccc7F)c7ccc4[nH]7)C=C6)C=C5)cc3)cc2)CC1
REMARK SMILES IDX 12 1 11 2 10 3 9 4 7 5 8 6 6 8 3 9 4 10 81 11 5 12 80 13
REMARK SMILES IDX 2 14 1 15 82 16 83 17 13 18 14 19 15 20 16 22 17 23 18 24
REMARK SMILES IDX 79 25 19 26 78 27 20 28 21 29 22 30 72 31 23 32 77 33 71 34
REMARK SMILES IDX 73 35 24 36 76 37 70 38 69 39 25 41 57 42 37 43 56 44 38 45
REMARK SMILES IDX 41 46 55 47 74 48 39 49 40 50 54 52 75 53 42 54 26 55 27 56
REMARK SMILES IDX 35 57 28 58 34 59 36 60 33 61 29 62 30 63 31 64 32 65 58 66
REMARK SMILES IDX 59 67 67 68 60 69 66 70 68 71 65 72 61 73 62 74 63 75 64 76
REMARK SMILES IDX 43 77 44 78 52 79 45 80 51 81 53 82 50 83 46 84 47 85 48 86
REMARK SMILES IDX 49 87
REMARK H PARENT 9 7 14 21 73 40 41 51
REMARK Flexibility Score: inf
ROOT
ATOM      1  C   UNL A   1      34.658  34.597  28.286  1.00  0.00     0.023 C 
ENDROOT
BRANCH   1   2
ATOM      2  C   UNL A   1      33.865  35.803  28.807  1.00  0.00     0.023 C 
BRANCH   2   3
ATOM      3  C   UNL A   1      33.023  35.499  30.049  1.00  0.00     0.116 C 
BRANCH   3   4
ATOM      4  N   UNL A   1      33.096  36.582  31.004  1.00  0.00    -0.352 N 
ATOM      5  C   UNL A   1      33.778  36.754  32.180  1.00  0.00     0.251 C 
ATOM      6  O   UNL A   1      33.648  37.849  32.734  1.00  0.00    -0.269 OA
ATOM      7  H   UNL A   1      32.540  37.357  30.760  1.00  0.00     0.163 HD
BRANCH   5   8
ATOM      8  C   UNL A   1      34.626  35.715  32.843  1.00  0.00     0.039 A 
ATOM      9  C   UNL A   1      36.609  34.045  34.032  1.00  0.00    -0.042 A 
ATOM     10  C   UNL A   1      36.691  34.414  32.684  1.00  0.00     0.005 A 
ATOM     11  C   UNL A   1      35.453  34.422  34.729  1.00  0.00     0.005 A 
ATOM     12  C   UNL A   1      35.711  35.224  32.097  1.00  0.00     0.014 A 
ATOM     13  C   UNL A   1      34.502  35.278  34.160  1.00  0.00     0.014 A 
BRANCH   9  14
ATOM     14  C   UNL A   1      37.786  33.470  34.798  1.00  0.00    -0.007 C 
ATOM     15  C   UNL A   1      39.099  34.126  34.423  1.00  0.00     0.016 C 
ATOM     16  C   UNL A   1      37.810  32.011  35.207  1.00  0.00     0.012 C 
ATOM     17  C   UNL A   1      37.603  33.071  36.247  1.00  0.00     0.012 C 
ENDBRANCH   9  14
ENDBRANCH   5   8
ENDBRANCH   3   4
ENDBRANCH   2   3
ENDBRANCH   1   2
BRANCH   1  18
ATOM     18  C   UNL A   1      34.343  33.277  28.986  1.00  0.00     0.116 C 
BRANCH  18  19
ATOM     19  N   UNL A   1      33.758  32.287  28.100  1.00  0.00    -0.352 N 
ATOM     20  C   UNL A   1      34.294  31.086  27.689  1.00  0.00     0.251 C 
ATOM     21  H   UNL A   1      32.864  32.500  27.748  1.00  0.00     0.163 HD
ATOM     22  O   UNL A   1      33.727  30.424  26.839  1.00  0.00    -0.269 OA
BRANCH  20  23
ATOM     23  C   UNL A   1      35.586  30.647  28.261  1.00  0.00     0.039 A 
ATOM     24  C   UNL A   1      35.571  29.786  29.358  1.00  0.00     0.014 A 
ATOM     25  C   UNL A   1      36.798  31.063  27.703  1.00  0.00     0.014 A 
ATOM     26  C   UNL A   1      36.777  29.298  29.865  1.00  0.00     0.010 A 
ATOM     27  C   UNL A   1      37.994  30.515  28.160  1.00  0.00     0.010 A 
ATOM     28  C   UNL A   1      37.996  29.636  29.252  1.00  0.00    -0.014 A 
BRANCH  28  29
ATOM     29  C   UNL A   1      39.277  29.091  29.766  1.00  0.00     0.031 A 
ATOM     30  C   UNL A   1      39.914  29.690  30.990  1.00  0.00     0.074 A 
ATOM     31  C   UNL A   1      39.876  28.076  29.113  1.00  0.00     0.049 A 
ATOM     32  N   UNL A   1      41.024  29.351  31.595  1.00  0.00    -0.248 NA
ATOM     33  C   UNL A   1      39.230  30.842  31.595  1.00  0.00     0.031 C 
ATOM     34  C   UNL A   1      39.380  27.453  27.883  1.00  0.00     0.029 A 
ATOM     35  N   UNL A   1      41.027  27.384  29.390  1.00  0.00    -0.354 N 
ATOM     36  C   UNL A   1      41.172  30.249  32.647  1.00  0.00     0.074 A 
ATOM     37  C   UNL A   1      40.079  31.193  32.548  1.00  0.00     0.031 C 
ATOM     38  C   UNL A   1      40.199  26.449  27.536  1.00  0.00     0.029 A 
ATOM     39  C   UNL A   1      41.298  26.377  28.494  1.00  0.00     0.049 A 
ATOM     40  H   UNL A   1      41.606  27.590  30.161  1.00  0.00     0.167 HD
ATOM     41  C   UNL A   1      42.113  30.268  33.623  1.00  0.00     0.034 A 
ATOM     42  C   UNL A   1      42.315  25.494  28.453  1.00  0.00     0.034 A 
ATOM     43  C   UNL A   1      43.193  29.313  33.708  1.00  0.00     0.049 A 
ATOM     44  C   UNL A   1      43.351  25.534  29.547  1.00  0.00     0.074 A 
ATOM     45  C   UNL A   1      44.176  29.205  34.676  1.00  0.00     0.029 A 
ATOM     46  N   UNL A   1      43.435  28.302  32.785  1.00  0.00    -0.354 N 
ATOM     47  N   UNL A   1      43.441  26.349  30.573  1.00  0.00    -0.248 NA
ATOM     48  C   UNL A   1      44.409  24.519  29.488  1.00  0.00     0.031 C 
ATOM     49  C   UNL A   1      45.048  28.175  34.304  1.00  0.00     0.029 A 
ATOM     50  C   UNL A   1      44.566  27.585  33.146  1.00  0.00     0.049 A 
ATOM     51  H   UNL A   1      42.882  28.121  31.991  1.00  0.00     0.167 HD
ATOM     52  C   UNL A   1      44.551  25.925  31.298  1.00  0.00     0.074 A 
ATOM     53  C   UNL A   1      45.078  24.766  30.604  1.00  0.00     0.031 C 
ATOM     54  C   UNL A   1      45.089  26.442  32.433  1.00  0.00     0.034 A 
BRANCH  41  55
ATOM     55  C   UNL A   1      42.022  31.369  34.654  1.00  0.00     0.023 A 
ATOM     56  C   UNL A   1      42.696  32.594  34.488  1.00  0.00     0.031 A 
ATOM     57  C   UNL A   1      41.286  31.182  35.837  1.00  0.00     0.131 A 
ATOM     58  C   UNL A   1      42.688  33.545  35.520  1.00  0.00     0.055 A 
ATOM     59  C   UNL A   1      41.210  32.169  36.822  1.00  0.00     0.041 A 
ATOM     60  F   UNL A   1      40.639  30.028  36.065  1.00  0.00    -0.206 F 
ATOM     61  C   UNL A   1      41.928  33.353  36.674  1.00  0.00     0.022 A 
BRANCH  58  62
ATOM     62  S   UNL A   1      43.810  34.966  35.395  1.00  0.00     0.124 S 
ATOM     63  O   UNL A   1      43.526  35.446  34.044  1.00  0.00    -0.237 OA
ATOM     64  O   UNL A   1      43.358  35.821  36.485  1.00  0.00    -0.237 OA
ATOM     65  O   UNL A   1      45.134  34.374  35.572  1.00  0.00    -0.744 OA
ENDBRANCH  58  62
ENDBRANCH  41  55
BRANCH  42  66
ATOM     66  C   UNL A   1      42.405  24.492  27.351  1.00  0.00     0.023 A 
ATOM     67  C   UNL A   1      41.603  23.340  27.351  1.00  0.00     0.031 A 
ATOM     68  C   UNL A   1      43.333  24.649  26.306  1.00  0.00     0.131 A 
ATOM     69  C   UNL A   1      41.778  22.364  26.357  1.00  0.00     0.055 A 
ATOM     70  C   UNL A   1      43.465  23.703  25.288  1.00  0.00     0.041 A 
ATOM     71  F   UNL A   1      44.120  25.735  26.254  1.00  0.00    -0.206 F 
ATOM     72  C   UNL A   1      42.695  22.544  25.318  1.00  0.00     0.022 A 
BRANCH  69  73
ATOM     73  S   UNL A   1      40.851  20.811  26.490  1.00  0.00     0.124 S 
ATOM     74  O   UNL A   1      39.577  21.172  25.879  1.00  0.00    -0.237 OA
ATOM     75  O   UNL A   1      41.691  19.892  25.729  1.00  0.00    -0.237 OA
ATOM     76  O   UNL A   1      40.807  20.564  27.929  1.00  0.00    -0.744 OA
ENDBRANCH  69  73
ENDBRANCH  42  66
BRANCH  54  77
ATOM     77  C   UNL A   1      46.288  25.724  33.006  1.00  0.00     0.023 A 
ATOM     78  C   UNL A   1      47.588  25.949  32.518  1.00  0.00     0.031 A 
ATOM     79  C   UNL A   1      46.123  24.768  34.024  1.00  0.00     0.131 A 
ATOM     80  C   UNL A   1      48.656  25.172  32.990  1.00  0.00     0.055 A 
ATOM     81  C   UNL A   1      47.202  24.051  34.543  1.00  0.00     0.041 A 
ATOM     82  F   UNL A   1      44.905  24.510  34.529  1.00  0.00    -0.206 F 
ATOM     83  C   UNL A   1      48.474  24.238  34.012  1.00  0.00     0.022 A 
BRANCH  80  84
ATOM     84  S   UNL A   1      50.262  25.308  32.157  1.00  0.00     0.124 S 
ATOM     85  O   UNL A   1      50.613  23.908  31.944  1.00  0.00    -0.237 OA
ATOM     86  O   UNL A   1      49.928  26.071  30.959  1.00  0.00    -0.237 OA
ATOM     87  O   UNL A   1      51.094  26.015  33.130  1.00  0.00    -0.744 OA
ENDBRANCH  80  84
ENDBRANCH  54  77
ENDBRANCH  28  29
ENDBRANCH  20  23
ENDBRANCH  18  19
ENDBRANCH   1  18
TORSDOF 15
ENDMDL
MODEL 2
REMARK VINA RESULT:     -10.4      3.959      6.673
REMARK SMILES CC1(c2ccc(C(=O)NCCCCNC(=O)c3ccc(-c4c5nc(c(-c6cc(S(=O)(=O)[O-])ccc6F)c6ccc([nH]6)c(-c6cc(S(=O)(=O)[O-])ccc6F)c6nc(c(-c7cc(S(=O)(=O)[O-])ccc7F)c7ccc4[nH]7)C=C6)C=C5)cc3)cc2)CC1
REMARK SMILES IDX 12 1 11 2 10 3 9 4 7 5 8 6 6 8 3 9 4 10 81 11 5 12 80 13
REMARK SMILES IDX 2 14 1 15 82 16 83 17 13 18 14 19 15 20 16 22 17 23 18 24
REMARK SMILES IDX 79 25 19 26 78 27 20 28 21 29 22 30 72 31 23 32 77 33 71 34
REMARK SMILES IDX 73 35 24 36 76 37 70 38 69 39 25 41 57 42 37 43 56 44 38 45
REMARK SMILES IDX 41 46 55 47 74 48 39 49 40 50 54 52 75 53 42 54 26 55 27 56
REMARK SMILES IDX 35 57 28 58 34 59 36 60 33 61 29 62 30 63 31 64 32 65 58 66
REMARK SMILES IDX 59 67 67 68 60 69 66 70 68 71 65 72 61 73 62 74 63 75 64 76
REMARK SMILES IDX 43 77 44 78 52 79 45 80 51 81 53 82 50 83 46 84 47 85 48 86
REMARK SMILES IDX 49 87
REMARK H PARENT 9 7 14 21 73 40 41 51
REMARK Flexibility Score: inf
ROOT
ATOM      1  C   UNL A   1      31.786  29.088  26.728  1.00  0.00     0.023 C 
ENDROOT
BRANCH   1   2
ATOM      2  C   UNL A   1      31.965  27.569  26.841  1.00  0.00     0.023 C 
BRANCH   2   3
ATOM      3  C   UNL A   1      32.790  26.957  25.706  1.00  0.00     0.116 C 
BRANCH   3   4
ATOM      4  N   UNL A   1      32.076  25.874  25.070  1.00  0.00    -0.352 N 
ATOM      5  C   UNL A   1      31.118  25.826  24.091  1.00  0.00     0.251 C 
ATOM      6  O   UNL A   1      30.750  24.702  23.739  1.00  0.00    -0.269 OA
ATOM      7  H   UNL A   1      32.330  24.985  25.409  1.00  0.00     0.163 HD
BRANCH   5   8
ATOM      8  C   UNL A   1      30.478  27.019  23.455  1.00  0.00     0.039 A 
ATOM      9  C   UNL A   1      29.103  29.397  22.689  1.00  0.00    -0.042 A 
ATOM     10  C   UNL A   1      28.414  28.313  23.246  1.00  0.00     0.005 A 
ATOM     11  C   UNL A   1      30.463  29.214  22.408  1.00  0.00     0.005 A 
ATOM     12  C   UNL A   1      29.087  27.141  23.611  1.00  0.00     0.014 A 
ATOM     13  C   UNL A   1      31.148  28.066  22.823  1.00  0.00     0.014 A 
BRANCH   9  14
ATOM     14  C   UNL A   1      28.503  30.788  22.593  1.00  0.00    -0.007 C 
ATOM     15  C   UNL A   1      28.224  31.203  21.163  1.00  0.00     0.016 C 
ATOM     16  C   UNL A   1      28.878  31.868  23.587  1.00  0.00     0.012 C 
ATOM     17  C   UNL A   1      27.517  31.243  23.649  1.00  0.00     0.012 C 
ENDBRANCH   9  14
ENDBRANCH   5   8
ENDBRANCH   3   4
ENDBRANCH   2   3
ENDBRANCH   1   2
BRANCH   1  18
ATOM     18  C   UNL A   1      33.085  29.871  26.545  1.00  0.00     0.116 C 
BRANCH  18  19
ATOM     19  N   UNL A   1      32.948  31.283  26.853  1.00  0.00    -0.352 N 
ATOM     20  C   UNL A   1      33.780  32.077  27.613  1.00  0.00     0.251 C 
ATOM     21  H   UNL A   1      32.160  31.732  26.470  1.00  0.00     0.163 HD
ATOM     22  O   UNL A   1      33.457  33.219  27.881  1.00  0.00    -0.269 OA
BRANCH  20  23
ATOM     23  C   UNL A   1      35.041  31.499  28.130  1.00  0.00     0.039 A 
ATOM     24  C   UNL A   1      36.185  32.295  28.137  1.00  0.00     0.014 A 
ATOM     25  C   UNL A   1      35.082  30.194  28.627  1.00  0.00     0.014 A 
ATOM     26  C   UNL A   1      37.365  31.797  28.692  1.00  0.00     0.010 A 
ATOM     27  C   UNL A   1      36.236  29.728  29.251  1.00  0.00     0.010 A 
ATOM     28  C   UNL A   1      37.393  30.520  29.279  1.00  0.00    -0.014 A 
BRANCH  28  29
ATOM     29  C   UNL A   1      38.636  30.001  29.903  1.00  0.00     0.031 A 
ATOM     30  C   UNL A   1      39.054  30.484  31.264  1.00  0.00     0.074 A 
ATOM     31  C   UNL A   1      39.398  29.118  29.228  1.00  0.00     0.049 A 
ATOM     32  N   UNL A   1      40.099  30.147  31.977  1.00  0.00    -0.248 NA
ATOM     33  C   UNL A   1      38.202  31.504  31.895  1.00  0.00     0.031 C 
ATOM     34  C   UNL A   1      39.121  28.622  27.877  1.00  0.00     0.029 A 
ATOM     35  N   UNL A   1      40.556  28.476  29.584  1.00  0.00    -0.354 N 
ATOM     36  C   UNL A   1      40.032  30.915  33.135  1.00  0.00     0.074 A 
ATOM     37  C   UNL A   1      38.886  31.789  32.991  1.00  0.00     0.031 C 
ATOM     38  C   UNL A   1      40.060  27.726  27.536  1.00  0.00     0.029 A 
ATOM     39  C   UNL A   1      41.025  27.609  28.625  1.00  0.00     0.049 A 
ATOM     40  H   UNL A   1      41.009  28.622  30.446  1.00  0.00     0.167 HD
ATOM     41  C   UNL A   1      40.831  30.875  34.229  1.00  0.00     0.034 A 
ATOM     42  C   UNL A   1      42.108  26.807  28.626  1.00  0.00     0.034 A 
ATOM     43  C   UNL A   1      41.966  29.991  34.355  1.00  0.00     0.049 A 
ATOM     44  C   UNL A   1      42.985  26.779  29.853  1.00  0.00     0.074 A 
ATOM     45  C   UNL A   1      42.819  29.829  35.433  1.00  0.00     0.029 A 
ATOM     46  N   UNL A   1      42.411  29.121  33.366  1.00  0.00    -0.354 N 
ATOM     47  N   UNL A   1      42.871  27.465  30.968  1.00  0.00    -0.248 NA
ATOM     48  C   UNL A   1      44.122  25.853  29.828  1.00  0.00     0.031 C 
ATOM     49  C   UNL A   1      43.815  28.914  35.072  1.00  0.00     0.029 A 
ATOM     50  C   UNL A   1      43.540  28.441  33.798  1.00  0.00     0.049 A 
ATOM     51  H   UNL A   1      41.985  29.004  32.486  1.00  0.00     0.167 HD
ATOM     52  C   UNL A   1      43.907  27.028  31.789  1.00  0.00     0.074 A 
ATOM     53  C   UNL A   1      44.615  26.003  31.048  1.00  0.00     0.031 C 
ATOM     54  C   UNL A   1      44.245  27.435  33.040  1.00  0.00     0.034 A 
BRANCH  41  55
ATOM     55  C   UNL A   1      40.514  31.830  35.357  1.00  0.00     0.023 A 
ATOM     56  C   UNL A   1      39.454  31.590  36.251  1.00  0.00     0.031 A 
ATOM     57  C   UNL A   1      41.251  33.016  35.518  1.00  0.00     0.131 A 
ATOM     58  C   UNL A   1      39.111  32.556  37.209  1.00  0.00     0.055 A 
ATOM     59  C   UNL A   1      40.960  33.932  36.531  1.00  0.00     0.041 A 
ATOM     60  F   UNL A   1      42.260  33.313  34.684  1.00  0.00    -0.206 F 
ATOM     61  C   UNL A   1      39.873  33.713  37.373  1.00  0.00     0.022 A 
BRANCH  58  62
ATOM     62  S   UNL A   1      37.563  32.348  38.132  1.00  0.00     0.124 S 
ATOM     63  O   UNL A   1      36.643  33.173  37.352  1.00  0.00    -0.237 OA
ATOM     64  O   UNL A   1      37.345  30.909  38.064  1.00  0.00    -0.237 OA
ATOM     65  O   UNL A   1      37.882  32.870  39.459  1.00  0.00    -0.744 OA
ENDBRANCH  58  62
ENDBRANCH  41  55
BRANCH  42  66
ATOM     66  C   UNL A   1      42.427  25.959  27.441  1.00  0.00     0.023 A 
ATOM     67  C   UNL A   1      42.007  24.621  27.374  1.00  0.00     0.031 A 
ATOM     68  C   UNL A   1      43.198  26.462  26.379  1.00  0.00     0.131 A 
ATOM     69  C   UNL A   1      42.404  23.816  26.294  1.00  0.00     0.055 A 
ATOM     70  C   UNL A   1      43.545  25.673  25.280  1.00  0.00     0.041 A 
ATOM     71  F   UNL A   1      43.620  27.736  26.389  1.00  0.00    -0.206 F 
ATOM     72  C   UNL A   1      43.159  24.336  25.241  1.00  0.00     0.022 A 
BRANCH  69  73
ATOM     73  S   UNL A   1      41.994  22.049  26.331  1.00  0.00     0.124 S 
ATOM     74  O   UNL A   1      40.556  22.073  26.089  1.00  0.00    -0.237 OA
ATOM     75  O   UNL A   1      42.818  21.526  25.246  1.00  0.00    -0.237 OA
ATOM     76  O   UNL A   1      42.397  21.634  27.672  1.00  0.00    -0.744 OA
ENDBRANCH  69  73
ENDBRANCH  42  66
BRANCH  54  77
ATOM     77  C   UNL A   1      45.415  26.732  33.689  1.00  0.00     0.023 A 
ATOM     78  C   UNL A   1      45.242  25.581  34.478  1.00  0.00     0.031 A 
ATOM     79  C   UNL A   1      46.717  27.248  33.553  1.00  0.00     0.131 A 
ATOM     80  C   UNL A   1      46.335  25.032  35.164  1.00  0.00     0.055 A 
ATOM     81  C   UNL A   1      47.813  26.653  34.178  1.00  0.00     0.041 A 
ATOM     82  F   UNL A   1      46.944  28.346  32.813  1.00  0.00    -0.206 F 
ATOM     83  C   UNL A   1      47.623  25.550  35.005  1.00  0.00     0.022 A 
BRANCH  80  84
ATOM     84  S   UNL A   1      46.029  23.712  36.371  1.00  0.00     0.124 S 
ATOM     85  O   UNL A   1      47.366  23.159  36.560  1.00  0.00    -0.237 OA
ATOM     86  O   UNL A   1      45.477  24.448  37.503  1.00  0.00    -0.237 OA
ATOM     87  O   UNL A   1      45.085  22.832  35.684  1.00  0.00    -0.744 OA
ENDBRANCH  80  84
ENDBRANCH  54  77
ENDBRANCH  28  29
ENDBRANCH  20  23
ENDBRANCH  18  19
ENDBRANCH   1  18
TORSDOF 15
ENDMDL
MODEL 3
REMARK VINA RESULT:     -10.3      3.784      6.594
REMARK SMILES CC1(c2ccc(C(=O)NCCCCNC(=O)c3ccc(-c4c5nc(c(-c6cc(S(=O)(=O)[O-])ccc6F)c6ccc([nH]6)c(-c6cc(S(=O)(=O)[O-])ccc6F)c6nc(c(-c7cc(S(=O)(=O)[O-])ccc7F)c7ccc4[nH]7)C=C6)C=C5)cc3)cc2)CC1
REMARK SMILES IDX 12 1 11 2 10 3 9 4 7 5 8 6 6 8 3 9 4 10 81 11 5 12 80 13
REMARK SMILES IDX 2 14 1 15 82 16 83 17 13 18 14 19 15 20 16 22 17 23 18 24
REMARK SMILES IDX 79 25 19 26 78 27 20 28 21 29 22 30 72 31 23 32 77 33 71 34
REMARK SMILES IDX 73 35 24 36 76 37 70 38 69 39 25 41 57 42 37 43 56 44 38 45
REMARK SMILES IDX 41 46 55 47 74 48 39 49 40 50 54 52 75 53 42 54 26 55 27 56
REMARK SMILES IDX 35 57 28 58 34 59 36 60 33 61 29 62 30 63 31 64 32 65 58 66
REMARK SMILES IDX 59 67 67 68 60 69 66 70 68 71 65 72 61 73 62 74 63 75 64 76
REMARK SMILES IDX 43 77 44 78 52 79 45 80 51 81 53 82 50 83 46 84 47 85 48 86
REMARK SMILES IDX 49 87
REMARK H PARENT 9 7 14 21 73 40 41 51
REMARK Flexibility Score: inf
ROOT
ATOM      1  C   UNL A   1      33.182  28.153  26.898  1.00  0.00     0.023 C 
ENDROOT
BRANCH   1   2
ATOM      2  C   UNL A   1      32.823  26.895  26.097  1.00  0.00     0.023 C 
BRANCH   2   3
ATOM      3  C   UNL A   1      31.365  26.457  26.256  1.00  0.00     0.116 C 
BRANCH   3   4
ATOM      4  N   UNL A   1      31.005  25.474  25.259  1.00  0.00    -0.352 N 
ATOM      5  C   UNL A   1      30.430  25.561  24.018  1.00  0.00     0.251 C 
ATOM      6  O   UNL A   1      30.306  24.503  23.396  1.00  0.00    -0.269 OA
ATOM      7  H   UNL A   1      31.217  24.550  25.525  1.00  0.00     0.163 HD
BRANCH   5   8
ATOM      8  C   UNL A   1      29.922  26.821  23.392  1.00  0.00     0.039 A 
ATOM      9  C   UNL A   1      28.792  29.329  22.641  1.00  0.00    -0.042 A 
ATOM     10  C   UNL A   1      27.990  28.299  23.144  1.00  0.00     0.005 A 
ATOM     11  C   UNL A   1      30.141  29.032  22.404  1.00  0.00     0.005 A 
ATOM     12  C   UNL A   1      28.542  27.063  23.501  1.00  0.00     0.014 A 
ATOM     13  C   UNL A   1      30.706  27.818  22.813  1.00  0.00     0.014 A 
BRANCH   9  14
ATOM     14  C   UNL A   1      28.322  30.770  22.561  1.00  0.00    -0.007 C 
ATOM     15  C   UNL A   1      28.033  31.209  21.140  1.00  0.00     0.016 C 
ATOM     16  C   UNL A   1      28.831  31.811  23.538  1.00  0.00     0.012 C 
ATOM     17  C   UNL A   1      27.420  31.316  23.648  1.00  0.00     0.012 C 
ENDBRANCH   9  14
ENDBRANCH   5   8
ENDBRANCH   3   4
ENDBRANCH   2   3
ENDBRANCH   1   2
BRANCH   1  18
ATOM     18  C   UNL A   1      33.870  29.249  26.087  1.00  0.00     0.116 C 
BRANCH  18  19
ATOM     19  N   UNL A   1      33.693  30.575  26.653  1.00  0.00    -0.352 N 
ATOM     20  C   UNL A   1      34.448  31.197  27.624  1.00  0.00     0.251 C 
ATOM     21  H   UNL A   1      32.936  31.095  26.299  1.00  0.00     0.163 HD
ATOM     22  O   UNL A   1      34.090  32.266  28.083  1.00  0.00    -0.269 OA
BRANCH  20  23
ATOM     23  C   UNL A   1      35.665  30.519  28.125  1.00  0.00     0.039 A 
ATOM     24  C   UNL A   1      36.858  30.687  27.423  1.00  0.00     0.014 A 
ATOM     25  C   UNL A   1      35.630  29.749  29.290  1.00  0.00     0.014 A 
ATOM     26  C   UNL A   1      38.032  30.122  27.920  1.00  0.00     0.010 A 
ATOM     27  C   UNL A   1      36.815  29.253  29.826  1.00  0.00     0.010 A 
ATOM     28  C   UNL A   1      38.027  29.424  29.140  1.00  0.00    -0.014 A 
BRANCH  28  29
ATOM     29  C   UNL A   1      39.281  28.853  29.691  1.00  0.00     0.031 A 
ATOM     30  C   UNL A   1      39.904  29.448  30.923  1.00  0.00     0.074 A 
ATOM     31  C   UNL A   1      39.870  27.817  29.061  1.00  0.00     0.049 A 
ATOM     32  N   UNL A   1      40.990  29.088  31.559  1.00  0.00    -0.248 NA
ATOM     33  C   UNL A   1      39.234  30.623  31.501  1.00  0.00     0.031 C 
ATOM     34  C   UNL A   1      39.388  27.194  27.825  1.00  0.00     0.029 A 
ATOM     35  N   UNL A   1      40.997  27.100  29.373  1.00  0.00    -0.354 N 
ATOM     36  C   UNL A   1      41.135  29.993  32.605  1.00  0.00     0.074 A 
ATOM     37  C   UNL A   1      40.068  30.962  32.470  1.00  0.00     0.031 C 
ATOM     38  C   UNL A   1      40.190  26.167  27.508  1.00  0.00     0.029 A 
ATOM     39  C   UNL A   1      41.264  26.078  28.493  1.00  0.00     0.049 A 
ATOM     40  H   UNL A   1      41.562  27.300  30.155  1.00  0.00     0.167 HD
ATOM     41  C   UNL A   1      42.053  29.998  33.603  1.00  0.00     0.034 A 
ATOM     42  C   UNL A   1      42.259  25.169  28.484  1.00  0.00     0.034 A 
ATOM     43  C   UNL A   1      43.106  29.018  33.723  1.00  0.00     0.049 A 
ATOM     44  C   UNL A   1      43.270  25.195  29.603  1.00  0.00     0.074 A 
ATOM     45  C   UNL A   1      44.063  28.896  34.715  1.00  0.00     0.029 A 
ATOM     46  N   UNL A   1      43.345  27.992  32.816  1.00  0.00    -0.354 N 
ATOM     47  N   UNL A   1      43.356  26.018  30.623  1.00  0.00    -0.248 NA
ATOM     48  C   UNL A   1      44.304  24.154  29.579  1.00  0.00     0.031 C 
ATOM     49  C   UNL A   1      44.918  27.842  34.374  1.00  0.00     0.029 A 
ATOM     50  C   UNL A   1      44.449  27.251  33.211  1.00  0.00     0.049 A 
ATOM     51  H   UNL A   1      42.807  27.817  32.010  1.00  0.00     0.167 HD
ATOM     52  C   UNL A   1      44.437  25.574  31.378  1.00  0.00     0.074 A 
ATOM     53  C   UNL A   1      44.952  24.396  30.709  1.00  0.00     0.031 C 
ATOM     54  C   UNL A   1      44.960  26.089  32.521  1.00  0.00     0.034 A 
BRANCH  41  55
ATOM     55  C   UNL A   1      41.964  31.112  34.622  1.00  0.00     0.023 A 
ATOM     56  C   UNL A   1      40.916  31.173  35.560  1.00  0.00     0.031 A 
ATOM     57  C   UNL A   1      42.914  32.148  34.633  1.00  0.00     0.131 A 
ATOM     58  C   UNL A   1      40.798  32.283  36.408  1.00  0.00     0.055 A 
ATOM     59  C   UNL A   1      42.840  33.206  35.541  1.00  0.00     0.041 A 
ATOM     60  F   UNL A   1      43.925  32.159  33.750  1.00  0.00    -0.206 F 
ATOM     61  C   UNL A   1      41.766  33.287  36.425  1.00  0.00     0.022 A 
BRANCH  58  62
ATOM     62  S   UNL A   1      39.277  32.471  37.381  1.00  0.00     0.124 S 
ATOM     63  O   UNL A   1      38.535  31.270  37.000  1.00  0.00    -0.237 OA
ATOM     64  O   UNL A   1      39.779  32.505  38.748  1.00  0.00    -0.237 OA
ATOM     65  O   UNL A   1      38.710  33.726  36.891  1.00  0.00    -0.744 OA
ENDBRANCH  58  62
ENDBRANCH  41  55
BRANCH  42  66
ATOM     66  C   UNL A   1      42.351  24.155  27.395  1.00  0.00     0.023 A 
ATOM     67  C   UNL A   1      41.541  23.008  27.401  1.00  0.00     0.031 A 
ATOM     68  C   UNL A   1      43.288  24.293  26.356  1.00  0.00     0.131 A 
ATOM     69  C   UNL A   1      41.716  22.020  26.419  1.00  0.00     0.055 A 
ATOM     70  C   UNL A   1      43.422  23.335  25.349  1.00  0.00     0.041 A 
ATOM     71  F   UNL A   1      44.084  25.373  26.297  1.00  0.00    -0.206 F 
ATOM     72  C   UNL A   1      42.643  22.182  25.386  1.00  0.00     0.022 A 
BRANCH  69  73
ATOM     73  S   UNL A   1      40.777  20.475  26.562  1.00  0.00     0.124 S 
ATOM     74  O   UNL A   1      40.789  20.253  28.004  1.00  0.00    -0.237 OA
ATOM     75  O   UNL A   1      39.491  20.849  25.982  1.00  0.00    -0.237 OA
ATOM     76  O   UNL A   1      41.561  19.527  25.775  1.00  0.00    -0.744 OA
ENDBRANCH  69  73
ENDBRANCH  42  66
BRANCH  54  77
ATOM     77  C   UNL A   1      46.127  25.348  33.129  1.00  0.00     0.023 A 
ATOM     78  C   UNL A   1      45.941  24.271  34.014  1.00  0.00     0.031 A 
ATOM     79  C   UNL A   1      47.446  25.752  32.853  1.00  0.00     0.131 A 
ATOM     80  C   UNL A   1      47.046  23.691  34.653  1.00  0.00     0.055 A 
ATOM     81  C   UNL A   1      48.546  25.122  33.434  1.00  0.00     0.041 A 
ATOM     82  F   UNL A   1      47.687  26.775  32.016  1.00  0.00    -0.206 F 
ATOM     83  C   UNL A   1      48.349  24.097  34.354  1.00  0.00     0.022 A 
BRANCH  80  84
ATOM     84  S   UNL A   1      46.750  22.486  35.977  1.00  0.00     0.124 S 
ATOM     85  O   UNL A   1      45.992  21.451  35.281  1.00  0.00    -0.237 OA
ATOM     86  O   UNL A   1      48.106  22.123  36.376  1.00  0.00    -0.237 OA
ATOM     87  O   UNL A   1      45.994  23.247  36.970  1.00  0.00    -0.744 OA
ENDBRANCH  80  84
ENDBRANCH  54  77
ENDBRANCH  28  29
ENDBRANCH  20  23
ENDBRANCH  18  19
ENDBRANCH   1  18
TORSDOF 15
ENDMDL
