MODEL 1
REMARK VINA RESULT:     -11.3      0.000      0.000
REMARK SMILES O=C(Cc1c(F)cc(Cl)cc1F)NCCCCNC(=O)c1ccc(-c2c3nc(c(-c4cc(S(=O)(=O)[O-])ccc4F)c4ccc([nH]4)c(-c4cc(S(=O)(=O)[O-])ccc4F)c4nc(c(-c5cc(S(=O)(=O)[O-])ccc5F)c5ccc2[nH]5)C=C4)C=C3)cc1
REMARK SMILES IDX 16 1 15 2 14 3 13 4 1 5 2 6 3 8 4 9 5 10 11 11 6 12 7 13
REMARK SMILES IDX 10 14 12 15 8 16 9 17 17 18 18 19 19 20 20 22 21 23 22 24
REMARK SMILES IDX 83 25 23 26 82 27 24 28 25 29 26 30 76 31 27 32 81 33 75 34
REMARK SMILES IDX 77 35 28 36 80 37 74 38 73 39 29 41 61 42 41 43 60 44 42 45
REMARK SMILES IDX 45 46 59 47 78 48 43 49 44 50 58 52 79 53 46 54 30 55 31 56
REMARK SMILES IDX 39 57 32 58 38 59 40 60 37 61 33 62 34 63 35 64 36 65 62 66
REMARK SMILES IDX 63 67 71 68 64 69 70 70 72 71 69 72 65 73 66 74 67 75 68 76
REMARK SMILES IDX 47 77 48 78 56 79 49 80 55 81 57 82 54 83 50 84 51 85 52 86
REMARK SMILES IDX 53 87
REMARK H PARENT 13 7 18 21 77 40 45 51
REMARK Flexibility Score: inf
ROOT
ATOM      1  C   UNL A   1      38.134  19.608  25.003  1.00  0.00     0.023 C 
ENDROOT
BRANCH   1   2
ATOM      2  C   UNL A   1      36.959  20.592  24.943  1.00  0.00     0.023 C 
BRANCH   2   3
ATOM      3  C   UNL A   1      37.287  21.968  24.364  1.00  0.00     0.116 C 
BRANCH   3   4
ATOM      4  N   UNL A   1      36.093  22.711  24.022  1.00  0.00    -0.356 N 
ATOM      5  O   UNL A   1      36.195  24.218  25.756  1.00  0.00    -0.275 OA
ATOM      6  C   UNL A   1      35.642  23.794  24.748  1.00  0.00     0.224 C 
ATOM      7  H   UNL A   1      35.578  22.430  23.232  1.00  0.00     0.163 HD
BRANCH   6   8
ATOM      8  C   UNL A   1      34.377  24.422  24.187  1.00  0.00     0.141 C 
BRANCH   8   9
ATOM      9  C   UNL A   1      33.140  24.006  24.936  1.00  0.00     0.033 A 
ATOM     10  C   UNL A   1      32.634  24.789  25.976  1.00  0.00     0.131 A 
ATOM     11  C   UNL A   1      32.475  22.818  24.632  1.00  0.00     0.131 A 
ATOM     12  F   UNL A   1      33.255  25.931  26.306  1.00  0.00    -0.207 F 
ATOM     13  C   UNL A   1      31.502  24.412  26.693  1.00  0.00     0.060 A 
ATOM     14  C   UNL A   1      31.340  22.422  25.331  1.00  0.00     0.060 A 
ATOM     15  F   UNL A   1      32.922  22.038  23.639  1.00  0.00    -0.207 F 
ATOM     16  C   UNL A   1      30.858  23.223  26.363  1.00  0.00     0.046 A 
ATOM     17  Cl  UNL A   1      29.459  22.739  27.236  1.00  0.00    -0.084 Cl
ENDBRANCH   8   9
ENDBRANCH   6   8
ENDBRANCH   3   4
ENDBRANCH   2   3
ENDBRANCH   1   2
BRANCH   1  18
ATOM     18  C   UNL A   1      39.378  20.114  25.728  1.00  0.00     0.116 C 
BRANCH  18  19
ATOM     19  N   UNL A   1      40.378  19.075  25.907  1.00  0.00    -0.352 N 
ATOM     20  C   UNL A   1      41.729  19.190  26.140  1.00  0.00     0.251 C 
ATOM     21  H   UNL A   1      40.039  18.153  25.854  1.00  0.00     0.163 HD
ATOM     22  O   UNL A   1      42.435  18.186  26.090  1.00  0.00    -0.269 OA
BRANCH  20  23
ATOM     23  C   UNL A   1      42.335  20.512  26.419  1.00  0.00     0.039 A 
ATOM     24  C   UNL A   1      42.841  21.259  25.351  1.00  0.00     0.014 A 
ATOM     25  C   UNL A   1      42.425  21.010  27.722  1.00  0.00     0.014 A 
ATOM     26  C   UNL A   1      43.373  22.532  25.581  1.00  0.00     0.010 A 
ATOM     27  C   UNL A   1      42.899  22.304  27.943  1.00  0.00     0.010 A 
ATOM     28  C   UNL A   1      43.375  23.078  26.875  1.00  0.00    -0.014 A 
BRANCH  28  29
ATOM     29  C   UNL A   1      43.872  24.458  27.123  1.00  0.00     0.031 A 
ATOM     30  C   UNL A   1      42.934  25.523  27.620  1.00  0.00     0.074 A 
ATOM     31  C   UNL A   1      45.159  24.761  26.865  1.00  0.00     0.049 A 
ATOM     32  N   UNL A   1      43.165  26.794  27.831  1.00  0.00    -0.248 NA
ATOM     33  C   UNL A   1      41.551  25.109  27.898  1.00  0.00     0.031 C 
ATOM     34  C   UNL A   1      46.165  23.822  26.365  1.00  0.00     0.029 A 
ATOM     35  N   UNL A   1      45.845  25.944  26.990  1.00  0.00    -0.354 N 
ATOM     36  C   UNL A   1      41.959  27.332  28.263  1.00  0.00     0.074 A 
ATOM     37  C   UNL A   1      40.986  26.260  28.230  1.00  0.00     0.031 C 
ATOM     38  C   UNL A   1      47.345  24.454  26.262  1.00  0.00     0.029 A 
ATOM     39  C   UNL A   1      47.173  25.853  26.644  1.00  0.00     0.049 A 
ATOM     40  H   UNL A   1      45.425  26.779  27.300  1.00  0.00     0.167 HD
ATOM     41  C   UNL A   1      41.691  28.597  28.672  1.00  0.00     0.034 A 
ATOM     42  C   UNL A   1      48.143  26.789  26.630  1.00  0.00     0.034 A 
ATOM     43  C   UNL A   1      42.668  29.655  28.717  1.00  0.00     0.049 A 
ATOM     44  C   UNL A   1      47.813  28.197  27.042  1.00  0.00     0.074 A 
ATOM     45  C   UNL A   1      42.505  30.960  29.149  1.00  0.00     0.029 A 
ATOM     46  N   UNL A   1      43.992  29.533  28.316  1.00  0.00    -0.354 N 
ATOM     47  N   UNL A   1      46.665  28.689  27.443  1.00  0.00    -0.248 NA
ATOM     48  C   UNL A   1      48.906  29.178  26.995  1.00  0.00     0.031 C 
ATOM     49  C   UNL A   1      43.712  31.641  28.958  1.00  0.00     0.029 A 
ATOM     50  C   UNL A   1      44.647  30.745  28.464  1.00  0.00     0.049 A 
ATOM     51  H   UNL A   1      44.404  28.707  27.975  1.00  0.00     0.167 HD
ATOM     52  C   UNL A   1      46.901  30.034  27.712  1.00  0.00     0.074 A 
ATOM     53  C   UNL A   1      48.303  30.274  27.432  1.00  0.00     0.031 C 
ATOM     54  C   UNL A   1      46.037  30.979  28.158  1.00  0.00     0.034 A 
BRANCH  41  55
ATOM     55  C   UNL A   1      40.276  28.904  29.090  1.00  0.00     0.023 A 
ATOM     56  C   UNL A   1      39.886  28.863  30.440  1.00  0.00     0.031 A 
ATOM     57  C   UNL A   1      39.305  29.237  28.130  1.00  0.00     0.131 A 
ATOM     58  C   UNL A   1      38.547  29.092  30.786  1.00  0.00     0.055 A 
ATOM     59  C   UNL A   1      37.988  29.532  28.489  1.00  0.00     0.041 A 
ATOM     60  F   UNL A   1      39.619  29.272  26.825  1.00  0.00    -0.206 F 
ATOM     61  C   UNL A   1      37.600  29.450  29.824  1.00  0.00     0.022 A 
BRANCH  58  62
ATOM     62  S   UNL A   1      38.037  28.816  32.504  1.00  0.00     0.124 S 
ATOM     63  O   UNL A   1      38.995  29.645  33.231  1.00  0.00    -0.237 OA
ATOM     64  O   UNL A   1      36.656  29.285  32.506  1.00  0.00    -0.237 OA
ATOM     65  O   UNL A   1      38.205  27.375  32.684  1.00  0.00    -0.744 OA
ENDBRANCH  58  62
ENDBRANCH  41  55
BRANCH  42  66
ATOM     66  C   UNL A   1      49.520  26.421  26.206  1.00  0.00     0.023 A 
ATOM     67  C   UNL A   1      50.030  26.851  24.971  1.00  0.00     0.031 A 
ATOM     68  C   UNL A   1      50.349  25.644  27.034  1.00  0.00     0.131 A 
ATOM     69  C   UNL A   1      51.331  26.486  24.589  1.00  0.00     0.055 A 
ATOM     70  C   UNL A   1      51.654  25.313  26.665  1.00  0.00     0.041 A 
ATOM     71  F   UNL A   1      49.908  25.220  28.229  1.00  0.00    -0.206 F 
ATOM     72  C   UNL A   1      52.150  25.732  25.434  1.00  0.00     0.022 A 
BRANCH  69  73
ATOM     73  S   UNL A   1      51.940  27.007  22.963  1.00  0.00     0.124 S 
ATOM     74  O   UNL A   1      50.709  27.035  22.181  1.00  0.00    -0.237 OA
ATOM     75  O   UNL A   1      52.543  28.302  23.260  1.00  0.00    -0.237 OA
ATOM     76  O   UNL A   1      52.886  25.952  22.602  1.00  0.00    -0.744 OA
ENDBRANCH  69  73
ENDBRANCH  42  66
BRANCH  54  77
ATOM     77  C   UNL A   1      46.584  32.363  28.389  1.00  0.00     0.023 A 
ATOM     78  C   UNL A   1      46.695  33.291  27.340  1.00  0.00     0.031 A 
ATOM     79  C   UNL A   1      46.962  32.767  29.681  1.00  0.00     0.131 A 
ATOM     80  C   UNL A   1      47.197  34.575  27.598  1.00  0.00     0.055 A 
ATOM     81  C   UNL A   1      47.419  34.060  29.939  1.00  0.00     0.041 A 
ATOM     82  F   UNL A   1      46.871  31.917  30.716  1.00  0.00    -0.206 F 
ATOM     83  C   UNL A   1      47.543  34.971  28.894  1.00  0.00     0.022 A 
BRANCH  80  84
ATOM     84  S   UNL A   1      47.420  35.721  26.210  1.00  0.00     0.124 S 
ATOM     85  O   UNL A   1      47.454  34.810  25.071  1.00  0.00    -0.237 OA
ATOM     86  O   UNL A   1      46.241  36.574  26.310  1.00  0.00    -0.237 OA
ATOM     87  O   UNL A   1      48.688  36.384  26.513  1.00  0.00    -0.744 OA
ENDBRANCH  80  84
ENDBRANCH  54  77
ENDBRANCH  28  29
ENDBRANCH  20  23
ENDBRANCH  18  19
ENDBRANCH   1  18
TORSDOF 15
ENDMDL
MODEL 2
REMARK VINA RESULT:     -11.2      6.305      9.095
REMARK SMILES O=C(Cc1c(F)cc(Cl)cc1F)NCCCCNC(=O)c1ccc(-c2c3nc(c(-c4cc(S(=O)(=O)[O-])ccc4F)c4ccc([nH]4)c(-c4cc(S(=O)(=O)[O-])ccc4F)c4nc(c(-c5cc(S(=O)(=O)[O-])ccc5F)c5ccc2[nH]5)C=C4)C=C3)cc1
REMARK SMILES IDX 16 1 15 2 14 3 13 4 1 5 2 6 3 8 4 9 5 10 11 11 6 12 7 13
REMARK SMILES IDX 10 14 12 15 8 16 9 17 17 18 18 19 19 20 20 22 21 23 22 24
REMARK SMILES IDX 83 25 23 26 82 27 24 28 25 29 26 30 76 31 27 32 81 33 75 34
REMARK SMILES IDX 77 35 28 36 80 37 74 38 73 39 29 41 61 42 41 43 60 44 42 45
REMARK SMILES IDX 45 46 59 47 78 48 43 49 44 50 58 52 79 53 46 54 30 55 31 56
REMARK SMILES IDX 39 57 32 58 38 59 40 60 37 61 33 62 34 63 35 64 36 65 62 66
REMARK SMILES IDX 63 67 71 68 64 69 70 70 72 71 69 72 65 73 66 74 67 75 68 76
REMARK SMILES IDX 47 77 48 78 56 79 49 80 55 81 57 82 54 83 50 84 51 85 52 86
REMARK SMILES IDX 53 87
REMARK H PARENT 13 7 18 21 77 40 45 51
REMARK Flexibility Score: inf
ROOT
ATOM      1  C   UNL A   1      31.712  29.007  26.326  1.00  0.00     0.023 C 
ENDROOT
BRANCH   1   2
ATOM      2  C   UNL A   1      32.037  27.797  27.209  1.00  0.00     0.023 C 
BRANCH   2   3
ATOM      3  C   UNL A   1      31.926  26.437  26.520  1.00  0.00     0.116 C 
BRANCH   3   4
ATOM      4  N   UNL A   1      31.209  26.521  25.265  1.00  0.00    -0.356 N 
ATOM      5  O   UNL A   1      33.042  26.380  23.884  1.00  0.00    -0.275 OA
ATOM      6  C   UNL A   1      31.829  26.477  24.034  1.00  0.00     0.224 C 
ATOM      7  H   UNL A   1      30.229  26.615  25.292  1.00  0.00     0.163 HD
BRANCH   6   8
ATOM      8  C   UNL A   1      30.868  26.568  22.861  1.00  0.00     0.141 C 
BRANCH   8   9
ATOM      9  C   UNL A   1      30.013  27.806  22.904  1.00  0.00     0.033 A 
ATOM     10  C   UNL A   1      30.560  29.064  22.641  1.00  0.00     0.131 A 
ATOM     11  C   UNL A   1      28.659  27.739  23.229  1.00  0.00     0.131 A 
ATOM     12  F   UNL A   1      31.863  29.168  22.338  1.00  0.00    -0.207 F 
ATOM     13  C   UNL A   1      29.791  30.222  22.694  1.00  0.00     0.060 A 
ATOM     14  C   UNL A   1      27.868  28.883  23.284  1.00  0.00     0.060 A 
ATOM     15  F   UNL A   1      28.090  26.554  23.485  1.00  0.00    -0.207 F 
ATOM     16  C   UNL A   1      28.440  30.124  23.017  1.00  0.00     0.046 A 
ATOM     17  Cl  UNL A   1      27.473  31.542  23.088  1.00  0.00    -0.084 Cl
ENDBRANCH   8   9
ENDBRANCH   6   8
ENDBRANCH   3   4
ENDBRANCH   2   3
ENDBRANCH   1   2
BRANCH   1  18
ATOM     18  C   UNL A   1      32.895  29.907  25.981  1.00  0.00     0.116 C 
BRANCH  18  19
ATOM     19  N   UNL A   1      32.702  31.276  26.429  1.00  0.00    -0.352 N 
ATOM     20  C   UNL A   1      33.417  32.006  27.350  1.00  0.00     0.251 C 
ATOM     21  H   UNL A   1      31.949  31.752  26.011  1.00  0.00     0.163 HD
ATOM     22  O   UNL A   1      32.987  33.097  27.717  1.00  0.00    -0.269 OA
BRANCH  20  23
ATOM     23  C   UNL A   1      34.676  31.473  27.919  1.00  0.00     0.039 A 
ATOM     24  C   UNL A   1      35.789  32.316  27.996  1.00  0.00     0.014 A 
ATOM     25  C   UNL A   1      34.773  30.150  28.359  1.00  0.00     0.014 A 
ATOM     26  C   UNL A   1      36.975  31.853  28.576  1.00  0.00     0.010 A 
ATOM     27  C   UNL A   1      35.936  29.708  28.991  1.00  0.00     0.010 A 
ATOM     28  C   UNL A   1      37.047  30.557  29.109  1.00  0.00    -0.014 A 
BRANCH  28  29
ATOM     29  C   UNL A   1      38.278  30.076  29.791  1.00  0.00     0.031 A 
ATOM     30  C   UNL A   1      38.635  30.587  31.159  1.00  0.00     0.074 A 
ATOM     31  C   UNL A   1      39.094  29.207  29.163  1.00  0.00     0.049 A 
ATOM     32  N   UNL A   1      39.696  30.337  31.884  1.00  0.00    -0.248 NA
ATOM     33  C   UNL A   1      37.683  31.516  31.787  1.00  0.00     0.031 C 
ATOM     34  C   UNL A   1      38.868  28.649  27.828  1.00  0.00     0.029 A 
ATOM     35  N   UNL A   1      40.278  28.638  29.563  1.00  0.00    -0.354 N 
ATOM     36  C   UNL A   1      39.543  31.078  33.049  1.00  0.00     0.074 A 
ATOM     37  C   UNL A   1      38.312  31.829  32.909  1.00  0.00     0.031 C 
ATOM     38  C   UNL A   1      39.859  27.791  27.536  1.00  0.00     0.029 A 
ATOM     39  C   UNL A   1      40.814  27.770  28.641  1.00  0.00     0.049 A 
ATOM     40  H   UNL A   1      40.702  28.832  30.429  1.00  0.00     0.167 HD
ATOM     41  C   UNL A   1      40.340  31.112  34.145  1.00  0.00     0.034 A 
ATOM     42  C   UNL A   1      41.949  27.043  28.675  1.00  0.00     0.034 A 
ATOM     43  C   UNL A   1      41.555  30.351  34.283  1.00  0.00     0.049 A 
ATOM     44  C   UNL A   1      42.844  27.132  29.881  1.00  0.00     0.074 A 
ATOM     45  C   UNL A   1      42.414  30.289  35.367  1.00  0.00     0.029 A 
ATOM     46  N   UNL A   1      42.087  29.517  33.308  1.00  0.00    -0.354 N 
ATOM     47  N   UNL A   1      42.685  27.842  30.972  1.00  0.00    -0.248 NA
ATOM     48  C   UNL A   1      44.073  26.328  29.858  1.00  0.00     0.031 C 
ATOM     49  C   UNL A   1      43.492  29.463  35.028  1.00  0.00     0.029 A 
ATOM     50  C   UNL A   1      43.274  28.960  33.755  1.00  0.00     0.049 A 
ATOM     51  H   UNL A   1      41.680  29.348  32.428  1.00  0.00     0.167 HD
ATOM     52  C   UNL A   1      43.786  27.558  31.774  1.00  0.00     0.074 A 
ATOM     53  C   UNL A   1      44.599  26.607  31.042  1.00  0.00     0.031 C 
ATOM     54  C   UNL A   1      44.089  28.034  33.007  1.00  0.00     0.034 A 
BRANCH  41  55
ATOM     55  C   UNL A   1      39.925  32.018  35.276  1.00  0.00     0.023 A 
ATOM     56  C   UNL A   1      39.108  31.556  36.322  1.00  0.00     0.031 A 
ATOM     57  C   UNL A   1      40.345  33.359  35.307  1.00  0.00     0.131 A 
ATOM     58  C   UNL A   1      38.689  32.443  37.324  1.00  0.00     0.055 A 
ATOM     59  C   UNL A   1      39.981  34.219  36.344  1.00  0.00     0.041 A 
ATOM     60  F   UNL A   1      41.111  33.858  34.323  1.00  0.00    -0.206 F 
ATOM     61  C   UNL A   1      39.138  33.765  37.356  1.00  0.00     0.022 A 
BRANCH  58  62
ATOM     62  S   UNL A   1      37.463  31.870  38.531  1.00  0.00     0.124 S 
ATOM     63  O   UNL A   1      37.171  30.527  38.037  1.00  0.00    -0.237 OA
ATOM     64  O   UNL A   1      38.197  31.942  39.789  1.00  0.00    -0.237 OA
ATOM     65  O   UNL A   1      36.370  32.831  38.391  1.00  0.00    -0.744 OA
ENDBRANCH  58  62
ENDBRANCH  41  55
BRANCH  42  66
ATOM     66  C   UNL A   1      42.302  26.168  27.525  1.00  0.00     0.023 A 
ATOM     67  C   UNL A   1      41.925  24.816  27.509  1.00  0.00     0.031 A 
ATOM     68  C   UNL A   1      43.011  26.674  26.422  1.00  0.00     0.131 A 
ATOM     69  C   UNL A   1      42.275  24.009  26.415  1.00  0.00     0.055 A 
ATOM     70  C   UNL A   1      43.326  25.875  25.321  1.00  0.00     0.041 A 
ATOM     71  F   UNL A   1      43.382  27.964  26.388  1.00  0.00    -0.206 F 
ATOM     72  C   UNL A   1      42.961  24.533  25.316  1.00  0.00     0.022 A 
BRANCH  69  73
ATOM     73  S   UNL A   1      41.827  22.252  26.451  1.00  0.00     0.124 S 
ATOM     74  O   UNL A   1      42.255  21.864  27.790  1.00  0.00    -0.237 OA
ATOM     75  O   UNL A   1      40.386  22.298  26.224  1.00  0.00    -0.237 OA
ATOM     76  O   UNL A   1      42.607  21.681  25.354  1.00  0.00    -0.744 OA
ENDBRANCH  69  73
ENDBRANCH  42  66
BRANCH  54  77
ATOM     77  C   UNL A   1      45.349  27.524  33.655  1.00  0.00     0.023 A 
ATOM     78  C   UNL A   1      45.360  26.331  34.398  1.00  0.00     0.031 A 
ATOM     79  C   UNL A   1      46.559  28.220  33.492  1.00  0.00     0.131 A 
ATOM     80  C   UNL A   1      46.558  25.882  34.975  1.00  0.00     0.055 A 
ATOM     81  C   UNL A   1      47.755  27.746  34.032  1.00  0.00     0.041 A 
ATOM     82  F   UNL A   1      46.600  29.363  32.789  1.00  0.00    -0.206 F 
ATOM     83  C   UNL A   1      47.758  26.573  34.782  1.00  0.00     0.022 A 
BRANCH  80  84
ATOM     84  S   UNL A   1      46.525  24.393  36.008  1.00  0.00     0.124 S 
ATOM     85  O   UNL A   1      46.820  23.345  35.036  1.00  0.00    -0.237 OA
ATOM     86  O   UNL A   1      47.569  24.664  36.990  1.00  0.00    -0.237 OA
ATOM     87  O   UNL A   1      45.164  24.376  36.543  1.00  0.00    -0.744 OA
ENDBRANCH  80  84
ENDBRANCH  54  77
ENDBRANCH  28  29
ENDBRANCH  20  23
ENDBRANCH  18  19
ENDBRANCH   1  18
TORSDOF 15
ENDMDL
MODEL 3
REMARK VINA RESULT:     -11.2      2.788      3.778
REMARK SMILES O=C(Cc1c(F)cc(Cl)cc1F)NCCCCNC(=O)c1ccc(-c2c3nc(c(-c4cc(S(=O)(=O)[O-])ccc4F)c4ccc([nH]4)c(-c4cc(S(=O)(=O)[O-])ccc4F)c4nc(c(-c5cc(S(=O)(=O)[O-])ccc5F)c5ccc2[nH]5)C=C4)C=C3)cc1
REMARK SMILES IDX 16 1 15 2 14 3 13 4 1 5 2 6 3 8 4 9 5 10 11 11 6 12 7 13
REMARK SMILES IDX 10 14 12 15 8 16 9 17 17 18 18 19 19 20 20 22 21 23 22 24
REMARK SMILES IDX 83 25 23 26 82 27 24 28 25 29 26 30 76 31 27 32 81 33 75 34
REMARK SMILES IDX 77 35 28 36 80 37 74 38 73 39 29 41 61 42 41 43 60 44 42 45
REMARK SMILES IDX 45 46 59 47 78 48 43 49 44 50 58 52 79 53 46 54 30 55 31 56
REMARK SMILES IDX 39 57 32 58 38 59 40 60 37 61 33 62 34 63 35 64 36 65 62 66
REMARK SMILES IDX 63 67 71 68 64 69 70 70 72 71 69 72 65 73 66 74 67 75 68 76
REMARK SMILES IDX 47 77 48 78 56 79 49 80 55 81 57 82 54 83 50 84 51 85 52 86
REMARK SMILES IDX 53 87
REMARK H PARENT 13 7 18 21 77 40 45 51
REMARK Flexibility Score: inf
ROOT
ATOM      1  C   UNL A   1      35.403  22.247  24.007  1.00  0.00     0.023 C 
ENDROOT
BRANCH   1   2
ATOM      2  C   UNL A   1      34.726  23.579  23.662  1.00  0.00     0.023 C 
BRANCH   2   3
ATOM      3  C   UNL A   1      33.688  23.513  22.541  1.00  0.00     0.116 C 
BRANCH   3   4
ATOM      4  N   UNL A   1      32.700  24.564  22.656  1.00  0.00    -0.356 N 
ATOM      5  O   UNL A   1      33.302  25.722  20.762  1.00  0.00    -0.275 OA
ATOM      6  C   UNL A   1      32.578  25.591  21.743  1.00  0.00     0.224 C 
ATOM      7  H   UNL A   1      32.084  24.545  23.423  1.00  0.00     0.163 HD
BRANCH   6   8
ATOM      8  C   UNL A   1      31.458  26.566  22.065  1.00  0.00     0.141 C 
BRANCH   8   9
ATOM      9  C   UNL A   1      31.676  27.294  23.364  1.00  0.00     0.033 A 
ATOM     10  C   UNL A   1      30.925  26.977  24.498  1.00  0.00     0.131 A 
ATOM     11  C   UNL A   1      32.616  28.319  23.471  1.00  0.00     0.131 A 
ATOM     12  F   UNL A   1      30.002  26.006  24.429  1.00  0.00    -0.207 F 
ATOM     13  C   UNL A   1      31.098  27.650  25.704  1.00  0.00     0.060 A 
ATOM     14  C   UNL A   1      32.811  29.004  24.666  1.00  0.00     0.060 A 
ATOM     15  F   UNL A   1      33.363  28.654  22.410  1.00  0.00    -0.207 F 
ATOM     16  C   UNL A   1      32.047  28.666  25.780  1.00  0.00     0.046 A 
ATOM     17  Cl  UNL A   1      32.277  29.511  27.260  1.00  0.00    -0.084 Cl
ENDBRANCH   8   9
ENDBRANCH   6   8
ENDBRANCH   3   4
ENDBRANCH   2   3
ENDBRANCH   1   2
BRANCH   1  18
ATOM     18  C   UNL A   1      36.109  22.198  25.360  1.00  0.00     0.116 C 
BRANCH  18  19
ATOM     19  N   UNL A   1      37.042  21.090  25.461  1.00  0.00    -0.352 N 
ATOM     20  C   UNL A   1      38.383  21.098  25.764  1.00  0.00     0.251 C 
ATOM     21  H   UNL A   1      36.657  20.200  25.287  1.00  0.00     0.163 HD
ATOM     22  O   UNL A   1      39.037  20.067  25.630  1.00  0.00    -0.269 OA
BRANCH  20  23
ATOM     23  C   UNL A   1      39.045  22.343  26.220  1.00  0.00     0.039 A 
ATOM     24  C   UNL A   1      40.174  22.244  27.037  1.00  0.00     0.014 A 
ATOM     25  C   UNL A   1      38.551  23.601  25.863  1.00  0.00     0.014 A 
ATOM     26  C   UNL A   1      40.846  23.403  27.439  1.00  0.00     0.010 A 
ATOM     27  C   UNL A   1      39.256  24.753  26.214  1.00  0.00     0.010 A 
ATOM     28  C   UNL A   1      40.413  24.665  27.002  1.00  0.00    -0.014 A 
BRANCH  28  29
ATOM     29  C   UNL A   1      41.159  25.899  27.363  1.00  0.00     0.031 A 
ATOM     30  C   UNL A   1      40.515  26.947  28.229  1.00  0.00     0.074 A 
ATOM     31  C   UNL A   1      42.402  26.095  26.882  1.00  0.00     0.049 A 
ATOM     32  N   UNL A   1      40.979  28.115  28.596  1.00  0.00    -0.248 NA
ATOM     33  C   UNL A   1      39.165  26.650  28.733  1.00  0.00     0.031 C 
ATOM     34  C   UNL A   1      43.130  25.163  26.020  1.00  0.00     0.029 A 
ATOM     35  N   UNL A   1      43.275  27.141  27.050  1.00  0.00    -0.354 N 
ATOM     36  C   UNL A   1      39.980  28.694  29.369  1.00  0.00     0.074 A 
ATOM     37  C   UNL A   1      38.864  27.770  29.372  1.00  0.00     0.031 C 
ATOM     38  C   UNL A   1      44.351  25.661  25.766  1.00  0.00     0.029 A 
ATOM     39  C   UNL A   1      44.479  26.966  26.408  1.00  0.00     0.049 A 
ATOM     40  H   UNL A   1      43.060  27.941  27.582  1.00  0.00     0.167 HD
ATOM     41  C   UNL A   1      39.999  29.874  30.036  1.00  0.00     0.034 A 
ATOM     42  C   UNL A   1      45.562  27.766  26.338  1.00  0.00     0.034 A 
ATOM     43  C   UNL A   1      41.118  30.781  30.042  1.00  0.00     0.049 A 
ATOM     44  C   UNL A   1      45.543  29.093  27.046  1.00  0.00     0.074 A 
ATOM     45  C   UNL A   1      41.249  31.984  30.714  1.00  0.00     0.029 A 
ATOM     46  N   UNL A   1      42.302  30.587  29.342  1.00  0.00    -0.354 N 
ATOM     47  N   UNL A   1      44.587  29.626  27.769  1.00  0.00    -0.248 NA
ATOM     48  C   UNL A   1      46.745  29.929  26.924  1.00  0.00     0.031 C 
ATOM     49  C   UNL A   1      42.487  32.543  30.378  1.00  0.00     0.029 A 
ATOM     50  C   UNL A   1      43.155  31.660  29.545  1.00  0.00     0.049 A 
ATOM     51  H   UNL A   1      42.505  29.802  28.784  1.00  0.00     0.167 HD
ATOM     52  C   UNL A   1      45.079  30.854  28.203  1.00  0.00     0.074 A 
ATOM     53  C   UNL A   1      46.419  30.979  27.664  1.00  0.00     0.031 C 
ATOM     54  C   UNL A   1      44.478  31.786  28.983  1.00  0.00     0.034 A 
BRANCH  41  55
ATOM     55  C   UNL A   1      38.758  30.256  30.803  1.00  0.00     0.023 A 
ATOM     56  C   UNL A   1      37.714  30.972  30.196  1.00  0.00     0.031 A 
ATOM     57  C   UNL A   1      38.620  29.904  32.157  1.00  0.00     0.131 A 
ATOM     58  C   UNL A   1      36.603  31.366  30.956  1.00  0.00     0.055 A 
ATOM     59  C   UNL A   1      37.480  30.238  32.890  1.00  0.00     0.041 A 
ATOM     60  F   UNL A   1      39.596  29.235  32.792  1.00  0.00    -0.206 F 
ATOM     61  C   UNL A   1      36.467  30.984  32.292  1.00  0.00     0.022 A 
BRANCH  58  62
ATOM     62  S   UNL A   1      35.383  32.474  30.199  1.00  0.00     0.124 S 
ATOM     63  O   UNL A   1      34.961  31.695  29.038  1.00  0.00    -0.237 OA
ATOM     64  O   UNL A   1      34.393  32.628  31.259  1.00  0.00    -0.237 OA
ATOM     65  O   UNL A   1      36.157  33.674  29.889  1.00  0.00    -0.744 OA
ENDBRANCH  58  62
ENDBRANCH  41  55
BRANCH  42  66
ATOM     66  C   UNL A   1      46.754  27.331  25.563  1.00  0.00     0.023 A 
ATOM     67  C   UNL A   1      46.934  27.738  24.232  1.00  0.00     0.031 A 
ATOM     68  C   UNL A   1      47.736  26.511  26.146  1.00  0.00     0.131 A 
ATOM     69  C   UNL A   1      48.064  27.311  23.519  1.00  0.00     0.055 A 
ATOM     70  C   UNL A   1      48.876  26.117  25.443  1.00  0.00     0.041 A 
ATOM     71  F   UNL A   1      47.613  26.106  27.420  1.00  0.00    -0.206 F 
ATOM     72  C   UNL A   1      49.043  26.514  24.120  1.00  0.00     0.022 A 
BRANCH  69  73
ATOM     73  S   UNL A   1      48.237  27.805  21.783  1.00  0.00     0.124 S 
ATOM     74  O   UNL A   1      49.374  28.716  21.846  1.00  0.00    -0.237 OA
ATOM     75  O   UNL A   1      48.474  26.525  21.122  1.00  0.00    -0.237 OA
ATOM     76  O   UNL A   1      46.951  28.429  21.478  1.00  0.00    -0.744 OA
ENDBRANCH  69  73
ENDBRANCH  42  66
BRANCH  54  77
ATOM     77  C   UNL A   1      45.269  33.022  29.317  1.00  0.00     0.023 A 
ATOM     78  C   UNL A   1      45.160  34.193  28.547  1.00  0.00     0.031 A 
ATOM     79  C   UNL A   1      46.112  33.040  30.442  1.00  0.00     0.131 A 
ATOM     80  C   UNL A   1      45.904  35.329  28.900  1.00  0.00     0.055 A 
ATOM     81  C   UNL A   1      46.815  34.186  30.813  1.00  0.00     0.041 A 
ATOM     82  F   UNL A   1      46.247  31.947  31.211  1.00  0.00    -0.206 F 
ATOM     83  C   UNL A   1      46.717  35.338  30.037  1.00  0.00     0.022 A 
BRANCH  80  84
ATOM     84  S   UNL A   1      45.818  36.794  27.834  1.00  0.00     0.124 S 
ATOM     85  O   UNL A   1      46.014  37.876  28.794  1.00  0.00    -0.237 OA
ATOM     86  O   UNL A   1      46.912  36.568  26.896  1.00  0.00    -0.237 OA
ATOM     87  O   UNL A   1      44.479  36.716  27.252  1.00  0.00    -0.744 OA
ENDBRANCH  80  84
ENDBRANCH  54  77
ENDBRANCH  28  29
ENDBRANCH  20  23
ENDBRANCH  18  19
ENDBRANCH   1  18
TORSDOF 15
ENDMDL
