MODEL 1
REMARK VINA RESULT:     -12.5      0.000      0.000
REMARK SMILES CC1CCN(S(=O)(=O)c2ccc3c(ccn3CC(=O)NCCCCNC(=O)c3ccc(-c4c5nc(c(-c6cc(S(=O)(=O)[O-])ccc6F)c6ccc([nH]6)c(-c6cc(S(=O)(=O)[O-])ccc6F)c6nc(c(-c7cc(S(=O)(=O)[O-])ccc7F)c7ccc4[nH]7)C=C6)C=C5)cc3)c2)CC1
REMARK SMILES IDX 22 1 21 2 20 3 18 4 19 5 17 7 16 8 9 9 10 10 91 11 11 12
REMARK SMILES IDX 13 13 12 14 14 15 15 16 6 17 7 18 8 19 5 20 1 21 2 22 3 23
REMARK SMILES IDX 93 24 4 25 92 26 23 27 24 28 25 29 26 30 27 32 28 33 29 34
REMARK SMILES IDX 90 35 30 36 89 37 31 38 32 39 33 40 83 41 34 42 88 43 82 44
REMARK SMILES IDX 84 45 35 46 87 47 81 48 80 49 36 51 68 52 48 53 67 54 49 55
REMARK SMILES IDX 52 56 66 57 85 58 50 59 51 60 65 62 86 63 53 64 37 65 38 66
REMARK SMILES IDX 46 67 39 68 45 69 47 70 44 71 40 72 41 73 42 74 43 75 69 76
REMARK SMILES IDX 70 77 78 78 71 79 77 80 79 81 76 82 72 83 73 84 74 85 75 86
REMARK SMILES IDX 54 87 55 88 63 89 56 90 62 91 64 92 61 93 57 94 58 95 59 96
REMARK SMILES IDX 60 97
REMARK H PARENT 20 6 25 31 84 50 52 61
REMARK Flexibility Score: inf
ROOT
ATOM      1  C   UNL A   1      35.984  21.923  24.454  1.00  0.00     0.023 C 
ENDROOT
BRANCH   1   2
ATOM      2  C   UNL A   1      35.484  20.926  25.497  1.00  0.00     0.116 C 
BRANCH   2   3
ATOM      3  N   UNL A   1      35.278  19.598  24.950  1.00  0.00    -0.355 N 
ATOM      4  C   UNL A   1      34.115  18.903  24.782  1.00  0.00     0.239 C 
ATOM      5  O   UNL A   1      34.174  17.787  24.256  1.00  0.00    -0.273 OA
ATOM      6  H   UNL A   1      36.095  19.132  24.658  1.00  0.00     0.163 HD
BRANCH   4   7
ATOM      7  C   UNL A   1      32.779  19.516  25.147  1.00  0.00     0.222 C 
BRANCH   7   8
ATOM      8  N   UNL A   1      32.392  20.630  24.292  1.00  0.00    -0.338 N 
ATOM      9  C   UNL A   1      31.254  24.537  25.015  1.00  0.00     0.083 A 
ATOM     10  C   UNL A   1      31.557  23.768  26.137  1.00  0.00     0.024 A 
ATOM     11  C   UNL A   1      31.333  23.988  23.728  1.00  0.00     0.032 A 
ATOM     12  C   UNL A   1      32.052  22.471  26.005  1.00  0.00     0.028 A 
ATOM     13  C   UNL A   1      31.734  22.645  23.581  1.00  0.00     0.001 A 
ATOM     14  C   UNL A   1      32.095  21.912  24.718  1.00  0.00     0.049 A 
ATOM     15  C   UNL A   1      31.842  21.772  22.467  1.00  0.00     0.028 A 
ATOM     16  C   UNL A   1      32.265  20.546  22.929  1.00  0.00     0.087 A 
BRANCH   9  17
ATOM     17  S   UNL A   1      30.573  26.164  25.236  1.00  0.00     0.243 S 
ATOM     18  O   UNL A   1      30.742  26.499  26.630  1.00  0.00    -0.207 OA
ATOM     19  O   UNL A   1      29.254  26.174  24.629  1.00  0.00    -0.207 OA
BRANCH  17  20
ATOM     20  N   UNL A   1      31.547  27.221  24.286  1.00  0.00    -0.198 NA
ATOM     21  C   UNL A   1      33.871  28.944  27.433  1.00  0.00     0.008 C 
ATOM     22  C   UNL A   1      33.392  28.754  25.993  1.00  0.00    -0.012 C 
ATOM     23  C   UNL A   1      31.898  29.106  25.877  1.00  0.00     0.020 C 
ATOM     24  C   UNL A   1      33.709  27.327  25.514  1.00  0.00     0.020 C 
ATOM     25  C   UNL A   1      31.281  28.665  24.550  1.00  0.00     0.103 C 
ATOM     26  C   UNL A   1      33.011  27.002  24.201  1.00  0.00     0.103 C 
ENDBRANCH  17  20
ENDBRANCH   9  17
ENDBRANCH   7   8
ENDBRANCH   4   7
ENDBRANCH   2   3
ENDBRANCH   1   2
BRANCH   1  27
ATOM     27  C   UNL A   1      37.432  22.395  24.659  1.00  0.00     0.023 C 
BRANCH  27  28
ATOM     28  C   UNL A   1      38.143  21.806  25.880  1.00  0.00     0.116 C 
BRANCH  28  29
ATOM     29  N   UNL A   1      39.587  21.790  25.771  1.00  0.00    -0.352 N 
ATOM     30  C   UNL A   1      40.606  22.480  26.375  1.00  0.00     0.251 C 
ATOM     31  H   UNL A   1      39.911  21.136  25.112  1.00  0.00     0.163 HD
ATOM     32  O   UNL A   1      41.732  22.002  26.213  1.00  0.00    -0.269 OA
BRANCH  30  33
ATOM     33  C   UNL A   1      40.465  23.762  27.122  1.00  0.00     0.039 A 
ATOM     34  C   UNL A   1      39.399  24.650  27.014  1.00  0.00     0.014 A 
ATOM     35  C   UNL A   1      41.564  24.132  27.929  1.00  0.00     0.014 A 
ATOM     36  C   UNL A   1      39.475  25.908  27.609  1.00  0.00     0.010 A 
ATOM     37  C   UNL A   1      41.641  25.388  28.531  1.00  0.00     0.010 A 
ATOM     38  C   UNL A   1      40.615  26.298  28.329  1.00  0.00    -0.014 A 
BRANCH  38  39
ATOM     39  C   UNL A   1      40.610  27.631  28.931  1.00  0.00     0.031 A 
ATOM     40  C   UNL A   1      41.586  28.570  28.314  1.00  0.00     0.074 A 
ATOM     41  C   UNL A   1      39.814  28.042  29.942  1.00  0.00     0.049 A 
ATOM     42  N   UNL A   1      42.713  28.963  28.810  1.00  0.00    -0.248 NA
ATOM     43  C   UNL A   1      41.369  28.981  26.921  1.00  0.00     0.031 C 
ATOM     44  C   UNL A   1      38.624  27.392  30.495  1.00  0.00     0.029 A 
ATOM     45  N   UNL A   1      39.890  29.198  30.666  1.00  0.00    -0.354 N 
ATOM     46  C   UNL A   1      43.273  29.827  27.870  1.00  0.00     0.074 A 
ATOM     47  C   UNL A   1      42.477  29.683  26.677  1.00  0.00     0.031 C 
ATOM     48  C   UNL A   1      37.974  28.258  31.310  1.00  0.00     0.029 A 
ATOM     49  C   UNL A   1      38.785  29.454  31.470  1.00  0.00     0.049 A 
ATOM     50  H   UNL A   1      40.665  29.802  30.621  1.00  0.00     0.167 HD
ATOM     51  C   UNL A   1      44.243  30.721  28.216  1.00  0.00     0.034 A 
ATOM     52  C   UNL A   1      38.546  30.573  32.205  1.00  0.00     0.034 A 
ATOM     53  C   UNL A   1      44.788  30.410  29.511  1.00  0.00     0.049 A 
ATOM     54  C   UNL A   1      39.835  31.266  32.418  1.00  0.00     0.074 A 
ATOM     55  C   UNL A   1      45.532  29.375  30.035  1.00  0.00     0.029 A 
ATOM     56  N   UNL A   1      44.264  31.088  30.583  1.00  0.00    -0.354 N 
ATOM     57  N   UNL A   1      40.784  30.823  33.189  1.00  0.00    -0.248 NA
ATOM     58  C   UNL A   1      40.235  32.262  31.438  1.00  0.00     0.031 C 
ATOM     59  C   UNL A   1      45.053  29.213  31.366  1.00  0.00     0.029 A 
ATOM     60  C   UNL A   1      44.094  30.199  31.610  1.00  0.00     0.049 A 
ATOM     61  H   UNL A   1      44.047  32.048  30.609  1.00  0.00     0.167 HD
ATOM     62  C   UNL A   1      41.946  31.101  32.489  1.00  0.00     0.074 A 
ATOM     63  C   UNL A   1      41.557  32.087  31.484  1.00  0.00     0.031 C 
ATOM     64  C   UNL A   1      43.045  30.300  32.606  1.00  0.00     0.034 A 
BRANCH  51  65
ATOM     65  C   UNL A   1      44.464  32.060  27.554  1.00  0.00     0.023 A 
ATOM     66  C   UNL A   1      43.805  33.235  27.955  1.00  0.00     0.031 A 
ATOM     67  C   UNL A   1      45.530  32.237  26.644  1.00  0.00     0.131 A 
ATOM     68  C   UNL A   1      44.193  34.496  27.480  1.00  0.00     0.055 A 
ATOM     69  C   UNL A   1      45.961  33.500  26.219  1.00  0.00     0.041 A 
ATOM     70  F   UNL A   1      46.232  31.188  26.183  1.00  0.00    -0.206 F 
ATOM     71  C   UNL A   1      45.293  34.641  26.643  1.00  0.00     0.022 A 
BRANCH  68  72
ATOM     72  S   UNL A   1      43.278  35.983  27.973  1.00  0.00     0.124 S 
ATOM     73  O   UNL A   1      41.963  35.738  27.391  1.00  0.00    -0.237 OA
ATOM     74  O   UNL A   1      43.351  35.901  29.430  1.00  0.00    -0.237 OA
ATOM     75  O   UNL A   1      44.047  37.070  27.375  1.00  0.00    -0.744 OA
ENDBRANCH  68  72
ENDBRANCH  51  65
BRANCH  52  76
ATOM     76  C   UNL A   1      37.272  31.323  32.325  1.00  0.00     0.023 A 
ATOM     77  C   UNL A   1      36.626  31.770  31.159  1.00  0.00     0.031 A 
ATOM     78  C   UNL A   1      36.894  31.921  33.544  1.00  0.00     0.131 A 
ATOM     79  C   UNL A   1      35.705  32.825  31.220  1.00  0.00     0.055 A 
ATOM     80  C   UNL A   1      35.952  32.956  33.604  1.00  0.00     0.041 A 
ATOM     81  F   UNL A   1      37.497  31.571  34.690  1.00  0.00    -0.206 F 
ATOM     82  C   UNL A   1      35.366  33.426  32.434  1.00  0.00     0.022 A 
BRANCH  79  83
ATOM     83  S   UNL A   1      35.011  33.522  29.696  1.00  0.00     0.124 S 
ATOM     84  O   UNL A   1      34.320  32.372  29.116  1.00  0.00    -0.237 OA
ATOM     85  O   UNL A   1      34.148  34.575  30.219  1.00  0.00    -0.237 OA
ATOM     86  O   UNL A   1      36.188  33.971  28.958  1.00  0.00    -0.744 OA
ENDBRANCH  79  83
ENDBRANCH  52  76
BRANCH  64  87
ATOM     87  C   UNL A   1      43.090  29.277  33.721  1.00  0.00     0.023 A 
ATOM     88  C   UNL A   1      43.796  29.645  34.879  1.00  0.00     0.031 A 
ATOM     89  C   UNL A   1      42.684  27.933  33.607  1.00  0.00     0.131 A 
ATOM     90  C   UNL A   1      44.137  28.688  35.838  1.00  0.00     0.055 A 
ATOM     91  C   UNL A   1      42.954  26.995  34.611  1.00  0.00     0.041 A 
ATOM     92  F   UNL A   1      42.098  27.465  32.496  1.00  0.00    -0.206 F 
ATOM     93  C   UNL A   1      43.705  27.365  35.723  1.00  0.00     0.022 A 
BRANCH  90  94
ATOM     94  S   UNL A   1      45.305  29.108  37.158  1.00  0.00     0.124 S 
ATOM     95  O   UNL A   1      46.565  28.591  36.630  1.00  0.00    -0.237 OA
ATOM     96  O   UNL A   1      45.198  30.565  37.213  1.00  0.00    -0.237 OA
ATOM     97  O   UNL A   1      44.784  28.409  38.328  1.00  0.00    -0.744 OA
ENDBRANCH  90  94
ENDBRANCH  64  87
ENDBRANCH  38  39
ENDBRANCH  30  33
ENDBRANCH  28  29
ENDBRANCH  27  28
ENDBRANCH   1  27
TORSDOF 17
ENDMDL
MODEL 2
REMARK VINA RESULT:     -12.2      1.701      2.239
REMARK SMILES CC1CCN(S(=O)(=O)c2ccc3c(ccn3CC(=O)NCCCCNC(=O)c3ccc(-c4c5nc(c(-c6cc(S(=O)(=O)[O-])ccc6F)c6ccc([nH]6)c(-c6cc(S(=O)(=O)[O-])ccc6F)c6nc(c(-c7cc(S(=O)(=O)[O-])ccc7F)c7ccc4[nH]7)C=C6)C=C5)cc3)c2)CC1
REMARK SMILES IDX 22 1 21 2 20 3 18 4 19 5 17 7 16 8 9 9 10 10 91 11 11 12
REMARK SMILES IDX 13 13 12 14 14 15 15 16 6 17 7 18 8 19 5 20 1 21 2 22 3 23
REMARK SMILES IDX 93 24 4 25 92 26 23 27 24 28 25 29 26 30 27 32 28 33 29 34
REMARK SMILES IDX 90 35 30 36 89 37 31 38 32 39 33 40 83 41 34 42 88 43 82 44
REMARK SMILES IDX 84 45 35 46 87 47 81 48 80 49 36 51 68 52 48 53 67 54 49 55
REMARK SMILES IDX 52 56 66 57 85 58 50 59 51 60 65 62 86 63 53 64 37 65 38 66
REMARK SMILES IDX 46 67 39 68 45 69 47 70 44 71 40 72 41 73 42 74 43 75 69 76
REMARK SMILES IDX 70 77 78 78 71 79 77 80 79 81 76 82 72 83 73 84 74 85 75 86
REMARK SMILES IDX 54 87 55 88 63 89 56 90 62 91 64 92 61 93 57 94 58 95 59 96
REMARK SMILES IDX 60 97
REMARK H PARENT 20 6 25 31 84 50 52 61
REMARK Flexibility Score: inf
ROOT
ATOM      1  C   UNL A   1      38.251  23.329  26.039  1.00  0.00     0.023 C 
ENDROOT
BRANCH   1   2
ATOM      2  C   UNL A   1      37.402  22.119  25.654  1.00  0.00     0.116 C 
BRANCH   2   3
ATOM      3  N   UNL A   1      36.226  21.970  26.491  1.00  0.00    -0.355 N 
ATOM      4  C   UNL A   1      35.039  21.356  26.212  1.00  0.00     0.239 C 
ATOM      5  O   UNL A   1      34.181  21.319  27.099  1.00  0.00    -0.273 OA
ATOM      6  H   UNL A   1      36.295  22.370  27.388  1.00  0.00     0.163 HD
BRANCH   4   7
ATOM      7  C   UNL A   1      34.811  20.661  24.885  1.00  0.00     0.222 C 
BRANCH   7   8
ATOM      8  N   UNL A   1      33.740  21.247  24.092  1.00  0.00    -0.338 N 
ATOM      9  C   UNL A   1      32.883  25.086  22.826  1.00  0.00     0.083 A 
ATOM     10  C   UNL A   1      34.041  24.935  23.587  1.00  0.00     0.024 A 
ATOM     11  C   UNL A   1      32.072  23.983  22.528  1.00  0.00     0.032 A 
ATOM     12  C   UNL A   1      34.481  23.671  23.977  1.00  0.00     0.028 A 
ATOM     13  C   UNL A   1      32.449  22.710  23.003  1.00  0.00     0.001 A 
ATOM     14  C   UNL A   1      33.648  22.573  23.709  1.00  0.00     0.049 A 
ATOM     15  C   UNL A   1      31.839  21.429  22.957  1.00  0.00     0.028 A 
ATOM     16  C   UNL A   1      32.660  20.546  23.618  1.00  0.00     0.087 A 
BRANCH   9  17
ATOM     17  S   UNL A   1      32.333  26.722  22.399  1.00  0.00     0.243 S 
ATOM     18  O   UNL A   1      31.276  26.565  21.428  1.00  0.00    -0.207 OA
ATOM     19  O   UNL A   1      33.511  27.513  22.087  1.00  0.00    -0.207 OA
BRANCH  17  20
ATOM     20  N   UNL A   1      31.672  27.394  23.841  1.00  0.00    -0.198 NA
ATOM     21  C   UNL A   1      28.290  29.371  22.130  1.00  0.00     0.008 C 
ATOM     22  C   UNL A   1      29.248  28.955  23.248  1.00  0.00    -0.012 C 
ATOM     23  C   UNL A   1      30.661  29.497  22.968  1.00  0.00     0.020 C 
ATOM     24  C   UNL A   1      29.218  27.429  23.429  1.00  0.00     0.020 C 
ATOM     25  C   UNL A   1      31.727  28.885  23.877  1.00  0.00     0.103 C 
ATOM     26  C   UNL A   1      30.347  26.943  24.329  1.00  0.00     0.103 C 
ENDBRANCH  17  20
ENDBRANCH   9  17
ENDBRANCH   7   8
ENDBRANCH   4   7
ENDBRANCH   2   3
ENDBRANCH   1   2
BRANCH   1  27
ATOM     27  C   UNL A   1      39.482  23.002  26.899  1.00  0.00     0.023 C 
BRANCH  27  28
ATOM     28  C   UNL A   1      40.262  21.756  26.472  1.00  0.00     0.116 C 
BRANCH  28  29
ATOM     29  N   UNL A   1      41.447  22.042  25.689  1.00  0.00    -0.352 N 
ATOM     30  C   UNL A   1      42.412  23.014  25.722  1.00  0.00     0.251 C 
ATOM     31  H   UNL A   1      41.591  21.389  24.967  1.00  0.00     0.163 HD
ATOM     32  O   UNL A   1      43.421  22.776  25.053  1.00  0.00    -0.269 OA
BRANCH  30  33
ATOM     33  C   UNL A   1      42.302  24.325  26.423  1.00  0.00     0.039 A 
ATOM     34  C   UNL A   1      42.652  24.568  27.748  1.00  0.00     0.014 A 
ATOM     35  C   UNL A   1      41.697  25.370  25.690  1.00  0.00     0.014 A 
ATOM     36  C   UNL A   1      42.316  25.779  28.349  1.00  0.00     0.010 A 
ATOM     37  C   UNL A   1      41.364  26.586  26.287  1.00  0.00     0.010 A 
ATOM     38  C   UNL A   1      41.630  26.773  27.635  1.00  0.00    -0.014 A 
BRANCH  38  39
ATOM     39  C   UNL A   1      41.324  28.020  28.336  1.00  0.00     0.031 A 
ATOM     40  C   UNL A   1      42.275  29.125  28.035  1.00  0.00     0.074 A 
ATOM     41  C   UNL A   1      40.287  28.223  29.177  1.00  0.00     0.049 A 
ATOM     42  N   UNL A   1      43.211  29.580  28.801  1.00  0.00    -0.248 NA
ATOM     43  C   UNL A   1      42.302  29.665  26.670  1.00  0.00     0.031 C 
ATOM     44  C   UNL A   1      39.104  27.388  29.393  1.00  0.00     0.029 A 
ATOM     45  N   UNL A   1      40.057  29.290  29.998  1.00  0.00    -0.354 N 
ATOM     46  C   UNL A   1      43.837  30.601  28.088  1.00  0.00     0.074 A 
ATOM     47  C   UNL A   1      43.335  30.508  26.740  1.00  0.00     0.031 C 
ATOM     48  C   UNL A   1      38.189  28.079  30.116  1.00  0.00     0.029 A 
ATOM     49  C   UNL A   1      38.785  29.330  30.557  1.00  0.00     0.049 A 
ATOM     50  H   UNL A   1      40.738  29.977  30.179  1.00  0.00     0.167 HD
ATOM     51  C   UNL A   1      44.587  31.550  28.718  1.00  0.00     0.034 A 
ATOM     52  C   UNL A   1      38.252  30.325  31.315  1.00  0.00     0.034 A 
ATOM     53  C   UNL A   1      44.885  31.155  30.069  1.00  0.00     0.049 A 
ATOM     54  C   UNL A   1      39.365  31.127  31.869  1.00  0.00     0.074 A 
ATOM     55  C   UNL A   1      45.633  30.155  30.652  1.00  0.00     0.029 A 
ATOM     56  N   UNL A   1      44.063  31.645  31.053  1.00  0.00    -0.354 N 
ATOM     57  N   UNL A   1      40.181  30.704  32.790  1.00  0.00    -0.248 NA
ATOM     58  C   UNL A   1      39.826  32.265  31.093  1.00  0.00     0.031 C 
ATOM     59  C   UNL A   1      44.911  29.790  31.824  1.00  0.00     0.029 A 
ATOM     60  C   UNL A   1      43.801  30.631  31.935  1.00  0.00     0.049 A 
ATOM     61  H   UNL A   1      43.722  32.566  31.115  1.00  0.00     0.167 HD
ATOM     62  C   UNL A   1      41.417  31.186  32.392  1.00  0.00     0.074 A 
ATOM     63  C   UNL A   1      41.120  32.232  31.415  1.00  0.00     0.031 C 
ATOM     64  C   UNL A   1      42.562  30.502  32.679  1.00  0.00     0.034 A 
BRANCH  51  65
ATOM     65  C   UNL A   1      44.764  32.972  28.241  1.00  0.00     0.023 A 
ATOM     66  C   UNL A   1      43.722  33.917  28.236  1.00  0.00     0.031 A 
ATOM     67  C   UNL A   1      46.057  33.486  27.995  1.00  0.00     0.131 A 
ATOM     68  C   UNL A   1      43.965  35.279  28.006  1.00  0.00     0.055 A 
ATOM     69  C   UNL A   1      46.309  34.854  27.831  1.00  0.00     0.041 A 
ATOM     70  F   UNL A   1      47.131  32.680  27.969  1.00  0.00    -0.206 F 
ATOM     71  C   UNL A   1      45.259  35.760  27.842  1.00  0.00     0.022 A 
BRANCH  68  72
ATOM     72  S   UNL A   1      42.588  36.458  27.946  1.00  0.00     0.124 S 
ATOM     73  O   UNL A   1      41.488  35.670  28.490  1.00  0.00    -0.237 OA
ATOM     74  O   UNL A   1      43.084  37.531  28.806  1.00  0.00    -0.237 OA
ATOM     75  O   UNL A   1      42.490  36.797  26.530  1.00  0.00    -0.744 OA
ENDBRANCH  68  72
ENDBRANCH  51  65
BRANCH  52  76
ATOM     76  C   UNL A   1      36.893  30.913  31.215  1.00  0.00     0.023 A 
ATOM     77  C   UNL A   1      36.352  31.177  29.946  1.00  0.00     0.031 A 
ATOM     78  C   UNL A   1      36.296  31.553  32.320  1.00  0.00     0.131 A 
ATOM     79  C   UNL A   1      35.312  32.107  29.798  1.00  0.00     0.055 A 
ATOM     80  C   UNL A   1      35.239  32.460  32.172  1.00  0.00     0.041 A 
ATOM     81  F   UNL A   1      36.787  31.376  33.556  1.00  0.00    -0.206 F 
ATOM     82  C   UNL A   1      34.755  32.755  30.902  1.00  0.00     0.022 A 
BRANCH  79  83
ATOM     83  S   UNL A   1      34.740  32.584  28.145  1.00  0.00     0.124 S 
ATOM     84  O   UNL A   1      35.895  33.305  27.614  1.00  0.00    -0.237 OA
ATOM     85  O   UNL A   1      34.476  31.284  27.537  1.00  0.00    -0.237 OA
ATOM     86  O   UNL A   1      33.566  33.410  28.414  1.00  0.00    -0.744 OA
ENDBRANCH  79  83
ENDBRANCH  52  76
BRANCH  64  87
ATOM     87  C   UNL A   1      42.508  29.370  33.681  1.00  0.00     0.023 A 
ATOM     88  C   UNL A   1      43.097  29.614  34.934  1.00  0.00     0.031 A 
ATOM     89  C   UNL A   1      42.123  28.046  33.391  1.00  0.00     0.131 A 
ATOM     90  C   UNL A   1      43.352  28.562  35.817  1.00  0.00     0.055 A 
ATOM     91  C   UNL A   1      42.303  27.008  34.315  1.00  0.00     0.041 A 
ATOM     92  F   UNL A   1      41.649  27.697  32.187  1.00  0.00    -0.206 F 
ATOM     93  C   UNL A   1      42.941  27.259  35.526  1.00  0.00     0.022 A 
BRANCH  90  94
ATOM     94  S   UNL A   1      44.385  28.840  37.279  1.00  0.00     0.124 S 
ATOM     95  O   UNL A   1      45.710  29.018  36.690  1.00  0.00    -0.237 OA
ATOM     96  O   UNL A   1      43.788  30.043  37.856  1.00  0.00    -0.237 OA
ATOM     97  O   UNL A   1      44.212  27.627  38.071  1.00  0.00    -0.744 OA
ENDBRANCH  90  94
ENDBRANCH  64  87
ENDBRANCH  38  39
ENDBRANCH  30  33
ENDBRANCH  28  29
ENDBRANCH  27  28
ENDBRANCH   1  27
TORSDOF 17
ENDMDL
MODEL 3
REMARK VINA RESULT:     -12.2      2.851      9.066
REMARK SMILES CC1CCN(S(=O)(=O)c2ccc3c(ccn3CC(=O)NCCCCNC(=O)c3ccc(-c4c5nc(c(-c6cc(S(=O)(=O)[O-])ccc6F)c6ccc([nH]6)c(-c6cc(S(=O)(=O)[O-])ccc6F)c6nc(c(-c7cc(S(=O)(=O)[O-])ccc7F)c7ccc4[nH]7)C=C6)C=C5)cc3)c2)CC1
REMARK SMILES IDX 22 1 21 2 20 3 18 4 19 5 17 7 16 8 9 9 10 10 91 11 11 12
REMARK SMILES IDX 13 13 12 14 14 15 15 16 6 17 7 18 8 19 5 20 1 21 2 22 3 23
REMARK SMILES IDX 93 24 4 25 92 26 23 27 24 28 25 29 26 30 27 32 28 33 29 34
REMARK SMILES IDX 90 35 30 36 89 37 31 38 32 39 33 40 83 41 34 42 88 43 82 44
REMARK SMILES IDX 84 45 35 46 87 47 81 48 80 49 36 51 68 52 48 53 67 54 49 55
REMARK SMILES IDX 52 56 66 57 85 58 50 59 51 60 65 62 86 63 53 64 37 65 38 66
REMARK SMILES IDX 46 67 39 68 45 69 47 70 44 71 40 72 41 73 42 74 43 75 69 76
REMARK SMILES IDX 70 77 78 78 71 79 77 80 79 81 76 82 72 83 73 84 74 85 75 86
REMARK SMILES IDX 54 87 55 88 63 89 56 90 62 91 64 92 61 93 57 94 58 95 59 96
REMARK SMILES IDX 60 97
REMARK H PARENT 20 6 25 31 84 50 52 61
REMARK Flexibility Score: inf
ROOT
ATOM      1  C   UNL A   1      35.244  31.228  27.668  1.00  0.00     0.023 C 
ENDROOT
BRANCH   1   2
ATOM      2  C   UNL A   1      34.943  29.760  27.374  1.00  0.00     0.116 C 
BRANCH   2   3
ATOM      3  N   UNL A   1      33.605  29.371  27.779  1.00  0.00    -0.355 N 
ATOM      4  C   UNL A   1      32.478  29.233  27.021  1.00  0.00     0.239 C 
ATOM      5  O   UNL A   1      31.444  28.852  27.579  1.00  0.00    -0.273 OA
ATOM      6  H   UNL A   1      33.495  29.179  28.739  1.00  0.00     0.163 HD
BRANCH   4   7
ATOM      7  C   UNL A   1      32.512  29.453  25.522  1.00  0.00     0.222 C 
BRANCH   7   8
ATOM      8  N   UNL A   1      32.055  28.307  24.750  1.00  0.00    -0.338 N 
ATOM      9  C   UNL A   1      33.466  24.457  24.229  1.00  0.00     0.083 A 
ATOM     10  C   UNL A   1      34.210  25.274  25.080  1.00  0.00     0.024 A 
ATOM     11  C   UNL A   1      32.314  24.942  23.596  1.00  0.00     0.032 A 
ATOM     12  C   UNL A   1      33.769  26.554  25.409  1.00  0.00     0.028 A 
ATOM     13  C   UNL A   1      31.910  26.271  23.839  1.00  0.00     0.001 A 
ATOM     14  C   UNL A   1      32.635  27.051  24.745  1.00  0.00     0.049 A 
ATOM     15  C   UNL A   1      30.871  27.088  23.319  1.00  0.00     0.028 A 
ATOM     16  C   UNL A   1      30.973  28.327  23.908  1.00  0.00     0.087 A 
BRANCH   9  17
ATOM     17  S   UNL A   1      34.098  22.853  23.796  1.00  0.00     0.243 S 
ATOM     18  O   UNL A   1      35.426  23.058  23.269  1.00  0.00    -0.207 OA
ATOM     19  O   UNL A   1      33.083  22.183  23.001  1.00  0.00    -0.207 OA
BRANCH  17  20
ATOM     20  N   UNL A   1      34.211  21.971  25.272  1.00  0.00    -0.198 NA
ATOM     21  C   UNL A   1      32.425  18.314  23.965  1.00  0.00     0.008 C 
ATOM     22  C   UNL A   1      33.058  19.280  24.968  1.00  0.00    -0.012 C 
ATOM     23  C   UNL A   1      32.181  20.535  25.126  1.00  0.00     0.020 C 
ATOM     24  C   UNL A   1      34.500  19.608  24.549  1.00  0.00     0.020 C 
ATOM     25  C   UNL A   1      32.883  21.664  25.879  1.00  0.00     0.103 C 
ATOM     26  C   UNL A   1      35.073  20.768  25.351  1.00  0.00     0.103 C 
ENDBRANCH  17  20
ENDBRANCH   9  17
ENDBRANCH   7   8
ENDBRANCH   4   7
ENDBRANCH   2   3
ENDBRANCH   1   2
BRANCH   1  27
ATOM     27  C   UNL A   1      34.071  32.015  28.274  1.00  0.00     0.023 C 
BRANCH  27  28
ATOM     28  C   UNL A   1      34.470  33.191  29.170  1.00  0.00     0.116 C 
BRANCH  28  29
ATOM     29  N   UNL A   1      34.502  32.871  30.582  1.00  0.00    -0.352 N 
ATOM     30  C   UNL A   1      35.396  32.241  31.408  1.00  0.00     0.251 C 
ATOM     31  H   UNL A   1      33.696  33.176  31.058  1.00  0.00     0.163 HD
ATOM     32  O   UNL A   1      35.193  32.392  32.616  1.00  0.00    -0.269 OA
BRANCH  30  33
ATOM     33  C   UNL A   1      36.511  31.355  30.967  1.00  0.00     0.039 A 
ATOM     34  C   UNL A   1      36.478  29.964  30.938  1.00  0.00     0.014 A 
ATOM     35  C   UNL A   1      37.726  32.002  30.650  1.00  0.00     0.014 A 
ATOM     36  C   UNL A   1      37.646  29.243  30.700  1.00  0.00     0.010 A 
ATOM     37  C   UNL A   1      38.896  31.283  30.406  1.00  0.00     0.010 A 
ATOM     38  C   UNL A   1      38.868  29.899  30.480  1.00  0.00    -0.014 A 
BRANCH  38  39
ATOM     39  C   UNL A   1      40.045  29.068  30.228  1.00  0.00     0.031 A 
ATOM     40  C   UNL A   1      40.815  28.733  31.456  1.00  0.00     0.074 A 
ATOM     41  C   UNL A   1      40.444  28.604  29.024  1.00  0.00     0.049 A 
ATOM     42  N   UNL A   1      41.945  29.236  31.832  1.00  0.00    -0.248 NA
ATOM     43  C   UNL A   1      40.178  27.873  32.462  1.00  0.00     0.031 C 
ATOM     44  C   UNL A   1      39.706  28.578  27.760  1.00  0.00     0.029 A 
ATOM     45  N   UNL A   1      41.621  27.991  28.699  1.00  0.00    -0.354 N 
ATOM     46  C   UNL A   1      42.264  28.619  33.040  1.00  0.00     0.074 A 
ATOM     47  C   UNL A   1      41.079  27.907  33.447  1.00  0.00     0.031 C 
ATOM     48  C   UNL A   1      40.362  27.793  26.870  1.00  0.00     0.029 A 
ATOM     49  C   UNL A   1      41.642  27.404  27.439  1.00  0.00     0.049 A 
ATOM     50  H   UNL A   1      42.393  27.967  29.309  1.00  0.00     0.167 HD
ATOM     51  C   UNL A   1      43.543  28.607  33.516  1.00  0.00     0.034 A 
ATOM     52  C   UNL A   1      42.633  26.640  26.906  1.00  0.00     0.034 A 
ATOM     53  C   UNL A   1      44.363  29.551  32.803  1.00  0.00     0.049 A 
ATOM     54  C   UNL A   1      43.881  26.924  27.647  1.00  0.00     0.074 A 
ATOM     55  C   UNL A   1      44.401  30.924  32.692  1.00  0.00     0.029 A 
ATOM     56  N   UNL A   1      45.112  29.059  31.763  1.00  0.00    -0.354 N 
ATOM     57  N   UNL A   1      44.541  28.042  27.567  1.00  0.00    -0.248 NA
ATOM     58  C   UNL A   1      44.175  26.102  28.809  1.00  0.00     0.031 C 
ATOM     59  C   UNL A   1      44.787  31.173  31.344  1.00  0.00     0.029 A 
ATOM     60  C   UNL A   1      45.034  29.946  30.723  1.00  0.00     0.049 A 
ATOM     61  H   UNL A   1      45.617  28.214  31.764  1.00  0.00     0.167 HD
ATOM     62  C   UNL A   1      44.947  28.290  28.867  1.00  0.00     0.074 A 
ATOM     63  C   UNL A   1      44.798  27.012  29.561  1.00  0.00     0.031 C 
ATOM     64  C   UNL A   1      45.094  29.566  29.325  1.00  0.00     0.034 A 
BRANCH  51  65
ATOM     65  C   UNL A   1      44.136  27.519  34.378  1.00  0.00     0.023 A 
ATOM     66  C   UNL A   1      44.407  27.684  35.748  1.00  0.00     0.031 A 
ATOM     67  C   UNL A   1      44.228  26.196  33.892  1.00  0.00     0.131 A 
ATOM     68  C   UNL A   1      44.741  26.598  36.569  1.00  0.00     0.055 A 
ATOM     69  C   UNL A   1      44.497  25.101  34.723  1.00  0.00     0.041 A 
ATOM     70  F   UNL A   1      43.998  25.913  32.599  1.00  0.00    -0.206 F 
ATOM     71  C   UNL A   1      44.751  25.299  36.073  1.00  0.00     0.022 A 
BRANCH  68  72
ATOM     72  S   UNL A   1      45.145  26.860  38.318  1.00  0.00     0.124 S 
ATOM     73  O   UNL A   1      44.507  28.144  38.589  1.00  0.00    -0.237 OA
ATOM     74  O   UNL A   1      44.517  25.697  38.940  1.00  0.00    -0.237 OA
ATOM     75  O   UNL A   1      46.604  26.857  38.335  1.00  0.00    -0.744 OA
ENDBRANCH  68  72
ENDBRANCH  51  65
BRANCH  52  76
ATOM     76  C   UNL A   1      42.492  25.372  26.148  1.00  0.00     0.023 A 
ATOM     77  C   UNL A   1      41.577  24.404  26.595  1.00  0.00     0.031 A 
ATOM     78  C   UNL A   1      43.489  24.952  25.245  1.00  0.00     0.131 A 
ATOM     79  C   UNL A   1      41.717  23.064  26.207  1.00  0.00     0.055 A 
ATOM     80  C   UNL A   1      43.609  23.617  24.837  1.00  0.00     0.041 A 
ATOM     81  F   UNL A   1      44.420  25.815  24.808  1.00  0.00    -0.206 F 
ATOM     82  C   UNL A   1      42.730  22.662  25.336  1.00  0.00     0.022 A 
BRANCH  79  83
ATOM     83  S   UNL A   1      40.649  21.787  26.928  1.00  0.00     0.124 S 
ATOM     84  O   UNL A   1      39.313  22.279  26.596  1.00  0.00    -0.237 OA
ATOM     85  O   UNL A   1      41.079  20.598  26.202  1.00  0.00    -0.237 OA
ATOM     86  O   UNL A   1      40.984  21.822  28.349  1.00  0.00    -0.744 OA
ENDBRANCH  79  83
ENDBRANCH  52  76
BRANCH  64  87
ATOM     87  C   UNL A   1      45.096  30.706  28.329  1.00  0.00     0.023 A 
ATOM     88  C   UNL A   1      46.354  31.135  27.873  1.00  0.00     0.031 A 
ATOM     89  C   UNL A   1      43.980  31.502  28.003  1.00  0.00     0.131 A 
ATOM     90  C   UNL A   1      46.487  32.344  27.184  1.00  0.00     0.055 A 
ATOM     91  C   UNL A   1      44.107  32.669  27.239  1.00  0.00     0.041 A 
ATOM     92  F   UNL A   1      42.757  31.231  28.479  1.00  0.00    -0.206 F 
ATOM     93  C   UNL A   1      45.367  33.108  26.846  1.00  0.00     0.022 A 
BRANCH  90  94
ATOM     94  S   UNL A   1      48.133  33.034  26.879  1.00  0.00     0.124 S 
ATOM     95  O   UNL A   1      48.910  31.843  26.546  1.00  0.00    -0.237 OA
ATOM     96  O   UNL A   1      47.884  33.950  25.768  1.00  0.00    -0.237 OA
ATOM     97  O   UNL A   1      48.487  33.678  28.140  1.00  0.00    -0.744 OA
ENDBRANCH  90  94
ENDBRANCH  64  87
ENDBRANCH  38  39
ENDBRANCH  30  33
ENDBRANCH  28  29
ENDBRANCH  27  28
ENDBRANCH   1  27
TORSDOF 17
ENDMDL
