MODEL 1
REMARK VINA RESULT:     -12.2      0.000      0.000
REMARK SMILES CC(C)c1cc(O)cc(C(C)C)c1O[C@@H]1O[C@@H](C(=O)NCCCCNC(=O)c2ccc(-c3c4nc(c(-c5cc(S(=O)(=O)[O-])ccc5F)c5ccc([nH]5)c(-c5cc(S(=O)(=O)[O-])ccc5F)c5nc(c(-c6cc(S(=O)(=O)[O-])ccc6F)c6ccc3[nH]6)C=C5)C=C4)cc2)[C@@H](O)[C@H](O)[C@@H]1O
REMARK SMILES IDX 22 1 21 2 20 3 18 4 19 5 17 7 15 8 16 9 95 10 93 11 91 12
REMARK SMILES IDX 14 13 13 14 4 15 5 16 6 17 9 18 8 19 2 20 1 21 3 22 7 23
REMARK SMILES IDX 10 25 11 26 12 27 96 28 94 30 92 32 23 34 24 35 25 36 26 37
REMARK SMILES IDX 27 39 28 40 29 41 90 42 30 43 89 44 31 45 32 46 33 47 83 48
REMARK SMILES IDX 34 49 88 50 82 51 84 52 35 53 87 54 81 55 80 56 36 58 68 59
REMARK SMILES IDX 48 60 67 61 49 62 52 63 66 64 85 65 50 66 51 67 65 69 86 70
REMARK SMILES IDX 53 71 37 72 38 73 46 74 39 75 45 76 47 77 44 78 40 79 41 80
REMARK SMILES IDX 42 81 43 82 69 83 70 84 78 85 71 86 77 87 79 88 76 89 72 90
REMARK SMILES IDX 73 91 74 92 75 93 54 94 55 95 63 96 56 97 62 98 64 99 61 100
REMARK SMILES IDX 57 101 58 102 59 103 60 104
REMARK H PARENT 20 6 7 24 96 29 94 31 92 33 25 38 84 57 52 68
REMARK Flexibility Score: inf
ROOT
ATOM      1  C   UNL A   1      34.554  29.635  27.313  1.00  0.00     0.023 C 
ENDROOT
BRANCH   1   2
ATOM      2  C   UNL A   1      33.967  28.551  26.416  1.00  0.00     0.116 C 
BRANCH   2   3
ATOM      3  N   UNL A   1      34.013  28.857  24.995  1.00  0.00    -0.354 N 
ATOM      4  C   UNL A   1      33.253  28.527  23.922  1.00  0.00     0.252 C 
ATOM      5  O   UNL A   1      33.427  29.242  22.925  1.00  0.00    -0.272 OA
ATOM      6  H   UNL A   1      34.771  29.439  24.757  1.00  0.00     0.163 HD
BRANCH   4   7
ATOM      7  C   UNL A   1      32.272  27.318  23.821  1.00  0.00     0.242 C 
ATOM      8  C   UNL A   1      33.914  25.549  23.898  1.00  0.00     0.339 C 
ATOM      9  O   UNL A   1      32.764  26.149  24.510  1.00  0.00    -0.324 OA
ATOM     10  C   UNL A   1      33.896  25.381  22.341  1.00  0.00     0.214 C 
ATOM     11  C   UNL A   1      32.972  26.381  21.614  1.00  0.00     0.181 C 
ATOM     12  C   UNL A   1      31.773  26.837  22.465  1.00  0.00     0.184 C 
BRANCH   8  13
ATOM     13  O   UNL A   1      34.385  24.381  24.589  1.00  0.00    -0.461 OA
BRANCH  13  14
ATOM     14  C   UNL A   1      33.877  23.121  24.701  1.00  0.00     0.130 A 
ATOM     15  C   UNL A   1      34.889  22.116  24.626  1.00  0.00     0.001 A 
ATOM     16  C   UNL A   1      34.535  20.749  24.735  1.00  0.00     0.054 A 
ATOM     17  C   UNL A   1      33.223  20.372  24.927  1.00  0.00     0.116 A 
ATOM     18  C   UNL A   1      32.527  22.711  24.876  1.00  0.00     0.001 A 
ATOM     19  C   UNL A   1      32.237  21.333  25.005  1.00  0.00     0.054 A 
BRANCH  15  20
ATOM     20  C   UNL A   1      36.398  22.363  24.469  1.00  0.00     0.017 C 
ATOM     21  C   UNL A   1      37.372  21.248  24.859  1.00  0.00     0.012 C 
ATOM     22  C   UNL A   1      36.703  22.852  23.048  1.00  0.00     0.012 C 
ENDBRANCH  15  20
BRANCH  17  23
ATOM     23  O   UNL A   1      32.856  19.066  25.050  1.00  0.00    -0.508 OA
ATOM     24  H   UNL A   1      31.949  18.839  25.110  1.00  0.00     0.293 HD
ENDBRANCH  17  23
BRANCH  18  25
ATOM     25  C   UNL A   1      31.319  23.622  24.956  1.00  0.00     0.017 C 
ATOM     26  C   UNL A   1      30.498  23.719  23.659  1.00  0.00     0.012 C 
ATOM     27  C   UNL A   1      30.423  23.300  26.150  1.00  0.00     0.012 C 
ENDBRANCH  18  25
ENDBRANCH  13  14
ENDBRANCH   8  13
BRANCH  10  28
ATOM     28  O   UNL A   1      33.548  24.062  21.877  1.00  0.00    -0.384 OA
ATOM     29  H   UNL A   1      33.579  23.439  22.620  1.00  0.00     0.211 HD
ENDBRANCH  10  28
BRANCH  11  30
ATOM     30  O   UNL A   1      32.500  25.804  20.386  1.00  0.00    -0.387 OA
ATOM     31  H   UNL A   1      31.670  26.232  20.124  1.00  0.00     0.211 HD
ENDBRANCH  11  30
BRANCH  12  32
ATOM     32  O   UNL A   1      30.901  27.776  21.840  1.00  0.00    -0.387 OA
ATOM     33  H   UNL A   1      30.458  28.309  22.520  1.00  0.00     0.211 HD
ENDBRANCH  12  32
ENDBRANCH   4   7
ENDBRANCH   2   3
ENDBRANCH   1   2
BRANCH   1  34
ATOM     34  C   UNL A   1      33.623  30.825  27.546  1.00  0.00     0.023 C 
BRANCH  34  35
ATOM     35  C   UNL A   1      34.291  32.195  27.606  1.00  0.00     0.116 C 
BRANCH  35  36
ATOM     36  N   UNL A   1      33.384  33.328  27.730  1.00  0.00    -0.352 N 
ATOM     37  C   UNL A   1      33.449  34.308  28.705  1.00  0.00     0.251 C 
ATOM     38  H   UNL A   1      32.664  33.404  27.062  1.00  0.00     0.163 HD
ATOM     39  O   UNL A   1      32.632  35.211  28.777  1.00  0.00    -0.269 OA
BRANCH  37  40
ATOM     40  C   UNL A   1      34.542  34.178  29.690  1.00  0.00     0.039 A 
ATOM     41  C   UNL A   1      34.320  33.425  30.845  1.00  0.00     0.014 A 
ATOM     42  C   UNL A   1      35.826  34.585  29.325  1.00  0.00     0.014 A 
ATOM     43  C   UNL A   1      35.414  32.993  31.594  1.00  0.00     0.010 A 
ATOM     44  C   UNL A   1      36.914  34.094  30.034  1.00  0.00     0.010 A 
ATOM     45  C   UNL A   1      36.720  33.275  31.160  1.00  0.00    -0.014 A 
BRANCH  45  46
ATOM     46  C   UNL A   1      37.911  32.714  31.849  1.00  0.00     0.031 A 
ATOM     47  C   UNL A   1      38.669  31.590  31.203  1.00  0.00     0.074 A 
ATOM     48  C   UNL A   1      38.226  33.121  33.094  1.00  0.00     0.049 A 
ATOM     49  N   UNL A   1      39.617  30.837  31.694  1.00  0.00    -0.248 NA
ATOM     50  C   UNL A   1      38.262  31.239  29.835  1.00  0.00     0.031 C 
ATOM     51  C   UNL A   1      37.523  34.160  33.851  1.00  0.00     0.029 A 
ATOM     52  N   UNL A   1      39.201  32.688  33.958  1.00  0.00    -0.354 N 
ATOM     53  C   UNL A   1      39.895  29.896  30.710  1.00  0.00     0.074 A 
ATOM     54  C   UNL A   1      38.970  30.141  29.622  1.00  0.00     0.031 C 
ATOM     55  C   UNL A   1      38.088  34.281  35.063  1.00  0.00     0.029 A 
ATOM     56  C   UNL A   1      39.166  33.304  35.187  1.00  0.00     0.049 A 
ATOM     57  H   UNL A   1      39.864  32.000  33.720  1.00  0.00     0.167 HD
ATOM     58  C   UNL A   1      40.846  28.930  30.706  1.00  0.00     0.034 A 
ATOM     59  C   UNL A   1      39.902  33.090  36.296  1.00  0.00     0.034 A 
ATOM     60  C   UNL A   1      41.776  28.724  31.788  1.00  0.00     0.049 A 
ATOM     61  C   UNL A   1      40.975  32.034  36.266  1.00  0.00     0.074 A 
ATOM     62  C   UNL A   1      42.837  27.838  31.860  1.00  0.00     0.029 A 
ATOM     63  N   UNL A   1      41.751  29.412  32.996  1.00  0.00    -0.354 N 
ATOM     64  N   UNL A   1      41.275  31.193  35.303  1.00  0.00    -0.248 NA
ATOM     65  C   UNL A   1      41.816  31.904  37.463  1.00  0.00     0.031 C 
ATOM     66  C   UNL A   1      43.417  27.951  33.129  1.00  0.00     0.029 A 
ATOM     67  C   UNL A   1      42.760  28.953  33.827  1.00  0.00     0.049 A 
ATOM     68  H   UNL A   1      41.109  30.122  33.226  1.00  0.00     0.167 HD
ATOM     69  C   UNL A   1      42.355  30.451  35.769  1.00  0.00     0.074 A 
ATOM     70  C   UNL A   1      42.657  30.946  37.097  1.00  0.00     0.031 C 
ATOM     71  C   UNL A   1      43.042  29.456  35.151  1.00  0.00     0.034 A 
BRANCH  58  72
ATOM     72  C   UNL A   1      40.893  28.016  29.503  1.00  0.00     0.023 A 
ATOM     73  C   UNL A   1      41.858  28.178  28.493  1.00  0.00     0.031 A 
ATOM     74  C   UNL A   1      39.917  27.022  29.324  1.00  0.00     0.131 A 
ATOM     75  C   UNL A   1      41.756  27.442  27.304  1.00  0.00     0.055 A 
ATOM     76  C   UNL A   1      39.880  26.222  28.180  1.00  0.00     0.041 A 
ATOM     77  F   UNL A   1      38.959  26.830  30.246  1.00  0.00    -0.206 F 
ATOM     78  C   UNL A   1      40.790  26.446  27.149  1.00  0.00     0.022 A 
BRANCH  75  79
ATOM     79  S   UNL A   1      42.785  27.939  25.895  1.00  0.00     0.124 S 
ATOM     80  O   UNL A   1      42.774  29.394  26.022  1.00  0.00    -0.237 OA
ATOM     81  O   UNL A   1      44.054  27.282  26.184  1.00  0.00    -0.237 OA
ATOM     82  O   UNL A   1      42.060  27.416  24.739  1.00  0.00    -0.744 OA
ENDBRANCH  75  79
ENDBRANCH  58  72
BRANCH  59  83
ATOM     83  C   UNL A   1      39.635  33.876  37.535  1.00  0.00     0.023 A 
ATOM     84  C   UNL A   1      38.844  33.356  38.570  1.00  0.00     0.031 A 
ATOM     85  C   UNL A   1      40.168  35.168  37.693  1.00  0.00     0.131 A 
ATOM     86  C   UNL A   1      38.581  34.136  39.708  1.00  0.00     0.055 A 
ATOM     87  C   UNL A   1      39.936  35.925  38.843  1.00  0.00     0.041 A 
ATOM     88  F   UNL A   1      40.942  35.705  36.737  1.00  0.00    -0.206 F 
ATOM     89  C   UNL A   1      39.131  35.413  39.856  1.00  0.00     0.022 A 
BRANCH  86  90
ATOM     90  S   UNL A   1      37.472  33.474  40.981  1.00  0.00     0.124 S 
ATOM     91  O   UNL A   1      36.461  32.800  40.173  1.00  0.00    -0.237 OA
ATOM     92  O   UNL A   1      38.366  32.608  41.743  1.00  0.00    -0.237 OA
ATOM     93  O   UNL A   1      37.013  34.668  41.688  1.00  0.00    -0.744 OA
ENDBRANCH  86  90
ENDBRANCH  59  83
BRANCH  71  94
ATOM     94  C   UNL A   1      44.218  28.872  35.888  1.00  0.00     0.023 A 
ATOM     95  C   UNL A   1      44.072  27.804  36.790  1.00  0.00     0.031 A 
ATOM     96  C   UNL A   1      45.509  29.381  35.662  1.00  0.00     0.131 A 
ATOM     97  C   UNL A   1      45.199  27.300  37.457  1.00  0.00     0.055 A 
ATOM     98  C   UNL A   1      46.631  28.845  36.294  1.00  0.00     0.041 A 
ATOM     99  F   UNL A   1      45.701  30.402  34.810  1.00  0.00    -0.206 F 
ATOM    100  C   UNL A   1      46.478  27.802  37.203  1.00  0.00     0.022 A 
BRANCH  97 101
ATOM    101  S   UNL A   1      44.968  26.002  38.704  1.00  0.00     0.124 S 
ATOM    102  O   UNL A   1      44.186  26.697  39.723  1.00  0.00    -0.237 OA
ATOM    103  O   UNL A   1      44.262  24.968  37.954  1.00  0.00    -0.237 OA
ATOM    104  O   UNL A   1      46.332  25.657  39.098  1.00  0.00    -0.744 OA
ENDBRANCH  97 101
ENDBRANCH  71  94
ENDBRANCH  45  46
ENDBRANCH  37  40
ENDBRANCH  35  36
ENDBRANCH  34  35
ENDBRANCH   1  34
TORSDOF 22
ENDMDL
MODEL 2
REMARK VINA RESULT:     -12.1      5.774     11.597
REMARK SMILES CC(C)c1cc(O)cc(C(C)C)c1O[C@@H]1O[C@@H](C(=O)NCCCCNC(=O)c2ccc(-c3c4nc(c(-c5cc(S(=O)(=O)[O-])ccc5F)c5ccc([nH]5)c(-c5cc(S(=O)(=O)[O-])ccc5F)c5nc(c(-c6cc(S(=O)(=O)[O-])ccc6F)c6ccc3[nH]6)C=C5)C=C4)cc2)[C@@H](O)[C@H](O)[C@@H]1O
REMARK SMILES IDX 22 1 21 2 20 3 18 4 19 5 17 7 15 8 16 9 95 10 93 11 91 12
REMARK SMILES IDX 14 13 13 14 4 15 5 16 6 17 9 18 8 19 2 20 1 21 3 22 7 23
REMARK SMILES IDX 10 25 11 26 12 27 96 28 94 30 92 32 23 34 24 35 25 36 26 37
REMARK SMILES IDX 27 39 28 40 29 41 90 42 30 43 89 44 31 45 32 46 33 47 83 48
REMARK SMILES IDX 34 49 88 50 82 51 84 52 35 53 87 54 81 55 80 56 36 58 68 59
REMARK SMILES IDX 48 60 67 61 49 62 52 63 66 64 85 65 50 66 51 67 65 69 86 70
REMARK SMILES IDX 53 71 37 72 38 73 46 74 39 75 45 76 47 77 44 78 40 79 41 80
REMARK SMILES IDX 42 81 43 82 69 83 70 84 78 85 71 86 77 87 79 88 76 89 72 90
REMARK SMILES IDX 73 91 74 92 75 93 54 94 55 95 63 96 56 97 62 98 64 99 61 100
REMARK SMILES IDX 57 101 58 102 59 103 60 104
REMARK H PARENT 20 6 7 24 96 29 94 31 92 33 25 38 84 57 52 68
REMARK Flexibility Score: inf
ROOT
ATOM      1  C   UNL A   1      37.891  23.462  25.749  1.00  0.00     0.023 C 
ENDROOT
BRANCH   1   2
ATOM      2  C   UNL A   1      36.405  23.786  25.633  1.00  0.00     0.116 C 
BRANCH   2   3
ATOM      3  N   UNL A   1      35.559  23.073  26.576  1.00  0.00    -0.354 N 
ATOM      4  C   UNL A   1      34.347  22.469  26.504  1.00  0.00     0.252 C 
ATOM      5  O   UNL A   1      34.100  21.692  27.438  1.00  0.00    -0.272 OA
ATOM      6  H   UNL A   1      35.958  23.015  27.474  1.00  0.00     0.163 HD
BRANCH   4   7
ATOM      7  C   UNL A   1      33.250  22.722  25.424  1.00  0.00     0.242 C 
ATOM      8  C   UNL A   1      32.666  24.976  26.063  1.00  0.00     0.339 C 
ATOM      9  O   UNL A   1      33.168  24.110  25.036  1.00  0.00    -0.324 OA
ATOM     10  C   UNL A   1      31.415  24.488  26.869  1.00  0.00     0.214 C 
ATOM     11  C   UNL A   1      31.245  22.954  26.894  1.00  0.00     0.181 C 
ATOM     12  C   UNL A   1      31.819  22.255  25.649  1.00  0.00     0.184 C 
BRANCH   8  13
ATOM     13  O   UNL A   1      32.579  26.352  25.659  1.00  0.00    -0.461 OA
BRANCH  13  14
ATOM     14  C   UNL A   1      31.903  26.963  24.645  1.00  0.00     0.130 A 
ATOM     15  C   UNL A   1      31.485  28.286  24.989  1.00  0.00     0.001 A 
ATOM     16  C   UNL A   1      30.775  29.067  24.045  1.00  0.00     0.054 A 
ATOM     17  C   UNL A   1      30.494  28.576  22.788  1.00  0.00     0.116 A 
ATOM     18  C   UNL A   1      31.582  26.465  23.353  1.00  0.00     0.001 A 
ATOM     19  C   UNL A   1      30.895  27.303  22.443  1.00  0.00     0.054 A 
BRANCH  15  20
ATOM     20  C   UNL A   1      31.761  29.004  26.319  1.00  0.00     0.017 C 
ATOM     21  C   UNL A   1      31.773  28.183  27.611  1.00  0.00     0.012 C 
ATOM     22  C   UNL A   1      33.047  29.831  26.211  1.00  0.00     0.012 C 
ENDBRANCH  15  20
BRANCH  17  23
ATOM     23  O   UNL A   1      29.827  29.312  21.856  1.00  0.00    -0.508 OA
ATOM     24  H   UNL A   1      29.733  30.237  21.970  1.00  0.00     0.293 HD
ENDBRANCH  17  23
BRANCH  18  25
ATOM     25  C   UNL A   1      31.919  25.089  22.816  1.00  0.00     0.017 C 
ATOM     26  C   UNL A   1      30.771  24.068  22.896  1.00  0.00     0.012 C 
ATOM     27  C   UNL A   1      32.511  25.140  21.410  1.00  0.00     0.012 C 
ENDBRANCH  18  25
ENDBRANCH  13  14
ENDBRANCH   8  13
BRANCH  10  28
ATOM     28  O   UNL A   1      30.160  25.051  26.440  1.00  0.00    -0.384 OA
ATOM     29  H   UNL A   1      30.181  25.196  25.481  1.00  0.00     0.211 HD
ENDBRANCH  10  28
BRANCH  11  30
ATOM     30  O   UNL A   1      29.855  22.620  27.038  1.00  0.00    -0.387 OA
ATOM     31  H   UNL A   1      29.323  23.198  26.469  1.00  0.00     0.211 HD
ENDBRANCH  11  30
BRANCH  12  32
ATOM     32  O   UNL A   1      31.701  20.833  25.637  1.00  0.00    -0.387 OA
ATOM     33  H   UNL A   1      31.089  20.553  26.336  1.00  0.00     0.211 HD
ENDBRANCH  12  32
ENDBRANCH   4   7
ENDBRANCH   2   3
ENDBRANCH   1   2
BRANCH   1  34
ATOM     34  C   UNL A   1      38.205  21.966  25.750  1.00  0.00     0.023 C 
BRANCH  34  35
ATOM     35  C   UNL A   1      39.468  21.549  26.498  1.00  0.00     0.116 C 
BRANCH  35  36
ATOM     36  N   UNL A   1      39.980  20.225  26.171  1.00  0.00    -0.352 N 
ATOM     37  C   UNL A   1      41.317  19.880  26.078  1.00  0.00     0.251 C 
ATOM     38  H   UNL A   1      39.318  19.516  26.003  1.00  0.00     0.163 HD
ATOM     39  O   UNL A   1      41.681  18.759  25.759  1.00  0.00    -0.269 OA
BRANCH  37  40
ATOM     40  C   UNL A   1      42.290  20.959  26.342  1.00  0.00     0.039 A 
ATOM     41  C   UNL A   1      42.687  21.781  25.285  1.00  0.00     0.014 A 
ATOM     42  C   UNL A   1      42.585  21.288  27.667  1.00  0.00     0.014 A 
ATOM     43  C   UNL A   1      43.304  22.999  25.568  1.00  0.00     0.010 A 
ATOM     44  C   UNL A   1      43.134  22.532  27.945  1.00  0.00     0.010 A 
ATOM     45  C   UNL A   1      43.477  23.409  26.900  1.00  0.00    -0.014 A 
BRANCH  45  46
ATOM     46  C   UNL A   1      43.999  24.758  27.242  1.00  0.00     0.031 A 
ATOM     47  C   UNL A   1      43.057  25.788  27.795  1.00  0.00     0.074 A 
ATOM     48  C   UNL A   1      45.269  25.088  26.938  1.00  0.00     0.049 A 
ATOM     49  N   UNL A   1      43.248  27.066  27.995  1.00  0.00    -0.248 NA
ATOM     50  C   UNL A   1      41.701  25.319  28.115  1.00  0.00     0.031 C 
ATOM     51  C   UNL A   1      46.260  24.191  26.338  1.00  0.00     0.029 A 
ATOM     52  N   UNL A   1      45.938  26.281  27.062  1.00  0.00    -0.354 N 
ATOM     53  C   UNL A   1      42.024  27.562  28.428  1.00  0.00     0.074 A 
ATOM     54  C   UNL A   1      41.089  26.456  28.401  1.00  0.00     0.031 C 
ATOM     55  C   UNL A   1      47.405  24.864  26.146  1.00  0.00     0.029 A 
ATOM     56  C   UNL A   1      47.222  26.249  26.570  1.00  0.00     0.049 A 
ATOM     57  H   UNL A   1      45.536  27.084  27.466  1.00  0.00     0.167 HD
ATOM     58  C   UNL A   1      41.715  28.820  28.829  1.00  0.00     0.034 A 
ATOM     59  C   UNL A   1      48.139  27.230  26.451  1.00  0.00     0.034 A 
ATOM     60  C   UNL A   1      42.671  29.898  28.876  1.00  0.00     0.049 A 
ATOM     61  C   UNL A   1      47.791  28.615  26.930  1.00  0.00     0.074 A 
ATOM     62  C   UNL A   1      42.497  31.188  29.348  1.00  0.00     0.029 A 
ATOM     63  N   UNL A   1      43.984  29.813  28.428  1.00  0.00    -0.354 N 
ATOM     64  N   UNL A   1      46.649  29.060  27.402  1.00  0.00    -0.248 NA
ATOM     65  C   UNL A   1      48.853  29.627  26.872  1.00  0.00     0.031 C 
ATOM     66  C   UNL A   1      43.685  31.896  29.133  1.00  0.00     0.029 A 
ATOM     67  C   UNL A   1      44.622  31.032  28.587  1.00  0.00     0.049 A 
ATOM     68  H   UNL A   1      44.399  29.003  28.052  1.00  0.00     0.167 HD
ATOM     69  C   UNL A   1      46.864  30.397  27.720  1.00  0.00     0.074 A 
ATOM     70  C   UNL A   1      48.245  30.686  27.390  1.00  0.00     0.031 C 
ATOM     71  C   UNL A   1      45.999  31.302  28.246  1.00  0.00     0.034 A 
BRANCH  58  72
ATOM     72  C   UNL A   1      40.278  29.085  29.215  1.00  0.00     0.023 A 
ATOM     73  C   UNL A   1      39.875  29.139  30.561  1.00  0.00     0.031 A 
ATOM     74  C   UNL A   1      39.285  29.207  28.228  1.00  0.00     0.131 A 
ATOM     75  C   UNL A   1      38.511  29.194  30.882  1.00  0.00     0.055 A 
ATOM     76  C   UNL A   1      37.937  29.362  28.555  1.00  0.00     0.041 A 
ATOM     77  F   UNL A   1      39.605  29.146  26.925  1.00  0.00    -0.206 F 
ATOM     78  C   UNL A   1      37.540  29.331  29.890  1.00  0.00     0.022 A 
BRANCH  75  79
ATOM     79  S   UNL A   1      38.020  28.890  32.602  1.00  0.00     0.124 S 
ATOM     80  O   UNL A   1      39.011  29.676  33.333  1.00  0.00    -0.237 OA
ATOM     81  O   UNL A   1      36.653  29.396  32.634  1.00  0.00    -0.237 OA
ATOM     82  O   UNL A   1      38.154  27.442  32.747  1.00  0.00    -0.744 OA
ENDBRANCH  75  79
ENDBRANCH  58  72
BRANCH  59  83
ATOM     83  C   UNL A   1      49.466  26.944  25.834  1.00  0.00     0.023 A 
ATOM     84  C   UNL A   1      49.778  27.390  24.542  1.00  0.00     0.031 A 
ATOM     85  C   UNL A   1      50.440  26.211  26.535  1.00  0.00     0.131 A 
ATOM     86  C   UNL A   1      51.023  27.071  23.975  1.00  0.00     0.055 A 
ATOM     87  C   UNL A   1      51.691  25.930  25.983  1.00  0.00     0.041 A 
ATOM     88  F   UNL A   1      50.194  25.774  27.782  1.00  0.00    -0.206 F 
ATOM     89  C   UNL A   1      51.985  26.354  24.691  1.00  0.00     0.022 A 
BRANCH  86  90
ATOM     90  S   UNL A   1      51.356  27.574  22.263  1.00  0.00     0.124 S 
ATOM     91  O   UNL A   1      50.971  28.982  22.287  1.00  0.00    -0.237 OA
ATOM     92  O   UNL A   1      52.784  27.301  22.139  1.00  0.00    -0.237 OA
ATOM     93  O   UNL A   1      50.487  26.702  21.477  1.00  0.00    -0.744 OA
ENDBRANCH  86  90
ENDBRANCH  59  83
BRANCH  71  94
ATOM     94  C   UNL A   1      46.540  32.677  28.543  1.00  0.00     0.023 A 
ATOM     95  C   UNL A   1      46.488  33.713  27.597  1.00  0.00     0.031 A 
ATOM     96  C   UNL A   1      47.093  32.954  29.806  1.00  0.00     0.131 A 
ATOM     97  C   UNL A   1      47.011  34.975  27.919  1.00  0.00     0.055 A 
ATOM     98  C   UNL A   1      47.569  34.222  30.136  1.00  0.00     0.041 A 
ATOM     99  F   UNL A   1      47.165  31.996  30.745  1.00  0.00    -0.206 F 
ATOM    100  C   UNL A   1      47.536  35.240  29.187  1.00  0.00     0.022 A 
BRANCH  97 101
ATOM    101  S   UNL A   1      47.041  36.261  26.640  1.00  0.00     0.124 S 
ATOM    102  O   UNL A   1      45.669  36.760  26.682  1.00  0.00    -0.237 OA
ATOM    103  O   UNL A   1      48.066  37.174  27.137  1.00  0.00    -0.237 OA
ATOM    104  O   UNL A   1      47.398  35.531  25.426  1.00  0.00    -0.744 OA
ENDBRANCH  97 101
ENDBRANCH  71  94
ENDBRANCH  45  46
ENDBRANCH  37  40
ENDBRANCH  35  36
ENDBRANCH  34  35
ENDBRANCH   1  34
TORSDOF 22
ENDMDL
MODEL 3
REMARK VINA RESULT:     -11.8      1.582      1.920
REMARK SMILES CC(C)c1cc(O)cc(C(C)C)c1O[C@@H]1O[C@@H](C(=O)NCCCCNC(=O)c2ccc(-c3c4nc(c(-c5cc(S(=O)(=O)[O-])ccc5F)c5ccc([nH]5)c(-c5cc(S(=O)(=O)[O-])ccc5F)c5nc(c(-c6cc(S(=O)(=O)[O-])ccc6F)c6ccc3[nH]6)C=C5)C=C4)cc2)[C@@H](O)[C@H](O)[C@@H]1O
REMARK SMILES IDX 22 1 21 2 20 3 18 4 19 5 17 7 15 8 16 9 95 10 93 11 91 12
REMARK SMILES IDX 14 13 13 14 4 15 5 16 6 17 9 18 8 19 2 20 1 21 3 22 7 23
REMARK SMILES IDX 10 25 11 26 12 27 96 28 94 30 92 32 23 34 24 35 25 36 26 37
REMARK SMILES IDX 27 39 28 40 29 41 90 42 30 43 89 44 31 45 32 46 33 47 83 48
REMARK SMILES IDX 34 49 88 50 82 51 84 52 35 53 87 54 81 55 80 56 36 58 68 59
REMARK SMILES IDX 48 60 67 61 49 62 52 63 66 64 85 65 50 66 51 67 65 69 86 70
REMARK SMILES IDX 53 71 37 72 38 73 46 74 39 75 45 76 47 77 44 78 40 79 41 80
REMARK SMILES IDX 42 81 43 82 69 83 70 84 78 85 71 86 77 87 79 88 76 89 72 90
REMARK SMILES IDX 73 91 74 92 75 93 54 94 55 95 63 96 56 97 62 98 64 99 61 100
REMARK SMILES IDX 57 101 58 102 59 103 60 104
REMARK H PARENT 20 6 7 24 96 29 94 31 92 33 25 38 84 57 52 68
REMARK Flexibility Score: inf
ROOT
ATOM      1  C   UNL A   1      33.345  30.512  27.291  1.00  0.00     0.023 C 
ENDROOT
BRANCH   1   2
ATOM      2  C   UNL A   1      32.949  29.300  26.455  1.00  0.00     0.116 C 
BRANCH   2   3
ATOM      3  N   UNL A   1      33.392  29.353  25.071  1.00  0.00    -0.354 N 
ATOM      4  C   UNL A   1      32.981  28.778  23.915  1.00  0.00     0.252 C 
ATOM      5  O   UNL A   1      33.415  29.317  22.886  1.00  0.00    -0.272 OA
ATOM      6  H   UNL A   1      34.171  29.942  24.945  1.00  0.00     0.163 HD
BRANCH   4   7
ATOM      7  C   UNL A   1      32.102  27.496  23.780  1.00  0.00     0.242 C 
ATOM      8  C   UNL A   1      33.819  25.865  24.251  1.00  0.00     0.339 C 
ATOM      9  O   UNL A   1      32.556  26.424  24.635  1.00  0.00    -0.324 OA
ATOM     10  C   UNL A   1      34.047  25.574  22.730  1.00  0.00     0.214 C 
ATOM     11  C   UNL A   1      33.183  26.442  21.790  1.00  0.00     0.181 C 
ATOM     12  C   UNL A   1      31.844  26.874  22.415  1.00  0.00     0.184 C 
BRANCH   8  13
ATOM     13  O   UNL A   1      34.252  24.793  25.105  1.00  0.00    -0.461 OA
BRANCH  13  14
ATOM     14  C   UNL A   1      33.958  23.462  25.116  1.00  0.00     0.130 A 
ATOM     15  C   UNL A   1      35.126  22.644  25.011  1.00  0.00     0.001 A 
ATOM     16  C   UNL A   1      35.001  21.234  25.017  1.00  0.00     0.054 A 
ATOM     17  C   UNL A   1      33.766  20.633  25.139  1.00  0.00     0.116 A 
ATOM     18  C   UNL A   1      32.691  22.824  25.217  1.00  0.00     0.001 A 
ATOM     19  C   UNL A   1      32.632  21.411  25.245  1.00  0.00     0.054 A 
BRANCH  15  20
ATOM     20  C   UNL A   1      36.575  23.147  24.922  1.00  0.00     0.017 C 
ATOM     21  C   UNL A   1      37.164  23.911  26.110  1.00  0.00     0.012 C 
ATOM     22  C   UNL A   1      37.506  21.994  24.526  1.00  0.00     0.012 C 
ENDBRANCH  15  20
BRANCH  17  23
ATOM     23  O   UNL A   1      33.619  19.280  25.163  1.00  0.00    -0.508 OA
ATOM     24  H   UNL A   1      33.729  18.783  24.376  1.00  0.00     0.293 HD
ENDBRANCH  17  23
BRANCH  18  25
ATOM     25  C   UNL A   1      31.347  23.516  25.315  1.00  0.00     0.017 C 
ATOM     26  C   UNL A   1      30.648  23.757  23.966  1.00  0.00     0.012 C 
ATOM     27  C   UNL A   1      30.408  22.830  26.305  1.00  0.00     0.012 C 
ENDBRANCH  18  25
ENDBRANCH  13  14
ENDBRANCH   8  13
BRANCH  10  28
ATOM     28  O   UNL A   1      33.855  24.200  22.340  1.00  0.00    -0.384 OA
ATOM     29  H   UNL A   1      32.993  24.104  21.906  1.00  0.00     0.211 HD
ENDBRANCH  10  28
BRANCH  11  30
ATOM     30  O   UNL A   1      32.938  25.736  20.563  1.00  0.00    -0.387 OA
ATOM     31  H   UNL A   1      32.041  25.367  20.575  1.00  0.00     0.211 HD
ENDBRANCH  11  30
BRANCH  12  32
ATOM     32  O   UNL A   1      31.020  27.694  21.589  1.00  0.00    -0.387 OA
ATOM     33  H   UNL A   1      30.089  27.449  21.715  1.00  0.00     0.211 HD
ENDBRANCH  12  32
ENDBRANCH   4   7
ENDBRANCH   2   3
ENDBRANCH   1   2
BRANCH   1  34
ATOM     34  C   UNL A   1      32.330  31.655  27.254  1.00  0.00     0.023 C 
BRANCH  34  35
ATOM     35  C   UNL A   1      32.883  33.029  26.889  1.00  0.00     0.116 C 
BRANCH  35  36
ATOM     36  N   UNL A   1      32.598  34.092  27.844  1.00  0.00    -0.352 N 
ATOM     37  C   UNL A   1      33.365  34.404  28.953  1.00  0.00     0.251 C 
ATOM     38  H   UNL A   1      31.791  34.634  27.686  1.00  0.00     0.163 HD
ATOM     39  O   UNL A   1      33.047  35.282  29.739  1.00  0.00    -0.269 OA
BRANCH  37  40
ATOM     40  C   UNL A   1      34.573  33.582  29.165  1.00  0.00     0.039 A 
ATOM     41  C   UNL A   1      35.812  34.092  28.771  1.00  0.00     0.014 A 
ATOM     42  C   UNL A   1      34.479  32.447  29.973  1.00  0.00     0.014 A 
ATOM     43  C   UNL A   1      36.975  33.512  29.277  1.00  0.00     0.010 A 
ATOM     44  C   UNL A   1      35.637  31.919  30.528  1.00  0.00     0.010 A 
ATOM     45  C   UNL A   1      36.893  32.461  30.204  1.00  0.00    -0.014 A 
BRANCH  45  46
ATOM     46  C   UNL A   1      38.101  31.911  30.873  1.00  0.00     0.031 A 
ATOM     47  C   UNL A   1      38.904  30.851  30.177  1.00  0.00     0.074 A 
ATOM     48  C   UNL A   1      38.393  32.268  32.139  1.00  0.00     0.049 A 
ATOM     49  N   UNL A   1      39.878  30.110  30.639  1.00  0.00    -0.248 NA
ATOM     50  C   UNL A   1      38.519  30.553  28.791  1.00  0.00     0.031 C 
ATOM     51  C   UNL A   1      37.648  33.241  32.941  1.00  0.00     0.029 A 
ATOM     52  N   UNL A   1      39.379  31.829  32.988  1.00  0.00    -0.354 N 
ATOM     53  C   UNL A   1      40.196  29.230  29.610  1.00  0.00     0.074 A 
ATOM     54  C   UNL A   1      39.269  29.495  28.530  1.00  0.00     0.031 C 
ATOM     55  C   UNL A   1      38.201  33.322  34.162  1.00  0.00     0.029 A 
ATOM     56  C   UNL A   1      39.314  32.382  34.246  1.00  0.00     0.049 A 
ATOM     57  H   UNL A   1      40.070  31.179  32.721  1.00  0.00     0.167 HD
ATOM     58  C   UNL A   1      41.184  28.302  29.566  1.00  0.00     0.034 A 
ATOM     59  C   UNL A   1      40.051  32.141  35.348  1.00  0.00     0.034 A 
ATOM     60  C   UNL A   1      42.115  28.078  30.644  1.00  0.00     0.049 A 
ATOM     61  C   UNL A   1      41.164  31.128  35.273  1.00  0.00     0.074 A 
ATOM     62  C   UNL A   1      43.208  27.230  30.679  1.00  0.00     0.029 A 
ATOM     63  N   UNL A   1      42.057  28.703  31.883  1.00  0.00    -0.354 N 
ATOM     64  N   UNL A   1      41.501  30.348  34.273  1.00  0.00    -0.248 NA
ATOM     65  C   UNL A   1      42.002  30.970  36.469  1.00  0.00     0.031 C 
ATOM     66  C   UNL A   1      43.776  27.301  31.957  1.00  0.00     0.029 A 
ATOM     67  C   UNL A   1      43.077  28.241  32.699  1.00  0.00     0.049 A 
ATOM     68  H   UNL A   1      41.387  29.376  32.144  1.00  0.00     0.167 HD
ATOM     69  C   UNL A   1      42.606  29.625  34.710  1.00  0.00     0.074 A 
ATOM     70  C   UNL A   1      42.882  30.064  36.063  1.00  0.00     0.031 C 
ATOM     71  C   UNL A   1      43.333  28.688  34.048  1.00  0.00     0.034 A 
BRANCH  58  72
ATOM     72  C   UNL A   1      41.272  27.451  28.320  1.00  0.00     0.023 A 
ATOM     73  C   UNL A   1      40.999  26.072  28.349  1.00  0.00     0.031 A 
ATOM     74  C   UNL A   1      41.709  28.008  27.106  1.00  0.00     0.131 A 
ATOM     75  C   UNL A   1      41.275  25.281  27.225  1.00  0.00     0.055 A 
ATOM     76  C   UNL A   1      41.887  27.230  25.960  1.00  0.00     0.041 A 
ATOM     77  F   UNL A   1      42.003  29.316  27.019  1.00  0.00    -0.206 F 
ATOM     78  C   UNL A   1      41.693  25.852  26.022  1.00  0.00     0.022 A 
BRANCH  75  79
ATOM     79  S   UNL A   1      41.261  23.477  27.420  1.00  0.00     0.124 S 
ATOM     80  O   UNL A   1      41.835  23.040  26.149  1.00  0.00    -0.237 OA
ATOM     81  O   UNL A   1      42.097  23.281  28.599  1.00  0.00    -0.237 OA
ATOM     82  O   UNL A   1      39.846  23.161  27.598  1.00  0.00    -0.744 OA
ENDBRANCH  75  79
ENDBRANCH  58  72
BRANCH  59  83
ATOM     83  C   UNL A   1      39.748  32.853  36.622  1.00  0.00     0.023 A 
ATOM     84  C   UNL A   1      38.794  32.358  37.523  1.00  0.00     0.031 A 
ATOM     85  C   UNL A   1      40.411  34.050  36.950  1.00  0.00     0.131 A 
ATOM     86  C   UNL A   1      38.505  33.073  38.697  1.00  0.00     0.055 A 
ATOM     87  C   UNL A   1      40.148  34.736  38.137  1.00  0.00     0.041 A 
ATOM     88  F   UNL A   1      41.342  34.557  36.127  1.00  0.00    -0.206 F 
ATOM     89  C   UNL A   1      39.183  34.252  39.015  1.00  0.00     0.022 A 
BRANCH  86  90
ATOM     90  S   UNL A   1      37.193  32.459  39.790  1.00  0.00     0.124 S 
ATOM     91  O   UNL A   1      37.761  31.199  40.258  1.00  0.00    -0.237 OA
ATOM     92  O   UNL A   1      37.098  33.527  40.780  1.00  0.00    -0.237 OA
ATOM     93  O   UNL A   1      36.040  32.333  38.901  1.00  0.00    -0.744 OA
ENDBRANCH  86  90
ENDBRANCH  59  83
BRANCH  71  94
ATOM     94  C   UNL A   1      44.527  28.112  34.764  1.00  0.00     0.023 A 
ATOM     95  C   UNL A   1      44.441  26.926  35.512  1.00  0.00     0.031 A 
ATOM     96  C   UNL A   1      45.775  28.754  34.672  1.00  0.00     0.131 A 
ATOM     97  C   UNL A   1      45.581  26.435  36.167  1.00  0.00     0.055 A 
ATOM     98  C   UNL A   1      46.913  28.235  35.287  1.00  0.00     0.041 A 
ATOM     99  F   UNL A   1      45.907  29.891  33.969  1.00  0.00    -0.206 F 
ATOM    100  C   UNL A   1      46.819  27.072  36.046  1.00  0.00     0.022 A 
BRANCH  97 101
ATOM    101  S   UNL A   1      45.418  24.968  37.223  1.00  0.00     0.124 S 
ATOM    102  O   UNL A   1      44.113  25.185  37.842  1.00  0.00    -0.237 OA
ATOM    103  O   UNL A   1      45.491  23.876  36.258  1.00  0.00    -0.237 OA
ATOM    104  O   UNL A   1      46.559  25.070  38.130  1.00  0.00    -0.744 OA
ENDBRANCH  97 101
ENDBRANCH  71  94
ENDBRANCH  45  46
ENDBRANCH  37  40
ENDBRANCH  35  36
ENDBRANCH  34  35
ENDBRANCH   1  34
TORSDOF 22
ENDMDL
