MODEL 1
REMARK VINA RESULT:     -12.5      0.000      0.000
REMARK SMILES Cc1c(NC(=S)NC(=O)CSc2ccc(Cl)cc2)cccc1C(=O)NCCCCNC(=O)c1ccc(-c2c3nc(c(-c4cc(S(=O)(=O)[O-])ccc4F)c4ccc([nH]4)c(-c4cc(S(=O)(=O)[O-])ccc4F)c4nc(c(-c5cc(S(=O)(=O)[O-])ccc5F)c5ccc2[nH]5)C=C4)C=C3)cc1
REMARK SMILES IDX 26 1 25 2 23 3 24 4 22 6 1 7 2 8 3 9 19 10 21 11 20 12 4 13
REMARK SMILES IDX 5 15 6 16 7 17 8 18 9 20 10 21 11 22 12 23 13 24 18 25 14 26
REMARK SMILES IDX 17 27 15 28 16 29 27 30 28 31 29 32 30 33 31 34 32 36 33 37
REMARK SMILES IDX 34 38 95 39 35 40 94 41 36 42 37 43 38 44 88 45 39 46 93 47
REMARK SMILES IDX 87 48 89 49 40 50 92 51 86 52 85 53 41 55 73 56 53 57 72 58
REMARK SMILES IDX 54 59 57 60 71 61 90 62 55 63 56 64 70 66 91 67 58 68 42 69
REMARK SMILES IDX 43 70 51 71 44 72 50 73 52 74 49 75 45 76 46 77 47 78 48 79
REMARK SMILES IDX 74 80 75 81 83 82 76 83 82 84 84 85 81 86 77 87 78 88 79 89
REMARK SMILES IDX 80 90 59 91 60 92 68 93 61 94 67 95 69 96 66 97 62 98 63 99
REMARK SMILES IDX 64 100 65 101
REMARK H PARENT 25 5 4 14 7 19 30 35 89 54 57 65
REMARK Flexibility Score: inf
ROOT
ATOM      1  C   UNL A   1      37.611  19.649  24.993  1.00  0.00     0.116 C 
ENDROOT
BRANCH   1   2
ATOM      2  N   UNL A   1      36.188  19.421  24.811  1.00  0.00    -0.352 N 
ATOM      3  C   UNL A   1      35.013  20.103  24.942  1.00  0.00     0.251 C 
ATOM      4  O   UNL A   1      34.030  19.423  24.598  1.00  0.00    -0.269 OA
ATOM      5  H   UNL A   1      36.021  18.502  24.502  1.00  0.00     0.163 HD
BRANCH   3   6
ATOM      6  C   UNL A   1      34.721  21.500  25.450  1.00  0.00     0.044 A 
ATOM      7  C   UNL A   1      35.258  22.942  23.409  1.00  0.00     0.047 C 
ATOM      8  C   UNL A   1      34.694  22.753  24.786  1.00  0.00    -0.015 A 
ATOM      9  C   UNL A   1      34.079  23.871  25.435  1.00  0.00     0.044 A 
ATOM     10  C   UNL A   1      33.734  23.808  26.786  1.00  0.00     0.026 A 
ATOM     11  C   UNL A   1      34.279  21.476  26.801  1.00  0.00     0.014 A 
ATOM     12  C   UNL A   1      33.833  22.610  27.473  1.00  0.00     0.003 A 
BRANCH   9  13
ATOM     13  N   UNL A   1      33.831  25.054  24.707  1.00  0.00    -0.332 N 
ATOM     14  H   UNL A   1      34.222  25.044  23.803  1.00  0.00     0.169 HD
BRANCH  13  15
ATOM     15  C   UNL A   1      33.175  26.189  24.985  1.00  0.00     0.177 C 
ATOM     16  S   UNL A   1      33.870  27.636  24.497  1.00  0.00    -0.040 S 
BRANCH  15  17
ATOM     17  N   UNL A   1      31.956  26.277  25.597  1.00  0.00    -0.302 N 
ATOM     18  C   UNL A   1      30.599  26.123  25.371  1.00  0.00     0.236 C 
ATOM     19  H   UNL A   1      32.093  26.546  26.533  1.00  0.00     0.172 HD
ATOM     20  O   UNL A   1      29.878  26.177  26.381  1.00  0.00    -0.274 OA
BRANCH  18  21
ATOM     21  C   UNL A   1      29.966  25.875  24.021  1.00  0.00     0.175 C 
BRANCH  21  22
ATOM     22  S   UNL A   1      28.228  26.370  23.907  1.00  0.00    -0.116 SA
BRANCH  22  23
ATOM     23  C   UNL A   1      28.440  28.007  23.254  1.00  0.00     0.008 A 
ATOM     24  C   UNL A   1      29.660  28.421  22.710  1.00  0.00     0.016 A 
ATOM     25  C   UNL A   1      27.354  28.885  23.282  1.00  0.00     0.016 A 
ATOM     26  C   UNL A   1      29.786  29.709  22.183  1.00  0.00     0.021 A 
ATOM     27  C   UNL A   1      27.481  30.170  22.756  1.00  0.00     0.021 A 
ATOM     28  C   UNL A   1      28.694  30.576  22.205  1.00  0.00     0.041 A 
ATOM     29  Cl  UNL A   1      28.837  32.156  21.540  1.00  0.00    -0.084 Cl
ENDBRANCH  22  23
ENDBRANCH  21  22
ENDBRANCH  18  21
ENDBRANCH  15  17
ENDBRANCH  13  15
ENDBRANCH   9  13
ENDBRANCH   3   6
ENDBRANCH   1   2
BRANCH   1  30
ATOM     30  C   UNL A   1      37.979  21.121  25.228  1.00  0.00     0.023 C 
BRANCH  30  31
ATOM     31  C   UNL A   1      39.231  21.330  26.077  1.00  0.00     0.023 C 
BRANCH  31  32
ATOM     32  C   UNL A   1      39.591  22.800  26.258  1.00  0.00     0.116 C 
BRANCH  32  33
ATOM     33  N   UNL A   1      41.012  23.098  26.396  1.00  0.00    -0.352 N 
ATOM     34  C   UNL A   1      41.611  24.338  26.566  1.00  0.00     0.251 C 
ATOM     35  H   UNL A   1      41.621  22.325  26.364  1.00  0.00     0.163 HD
ATOM     36  O   UNL A   1      42.831  24.469  26.527  1.00  0.00    -0.269 OA
BRANCH  34  37
ATOM     37  C   UNL A   1      40.751  25.503  26.892  1.00  0.00     0.039 A 
ATOM     38  C   UNL A   1      40.951  26.688  26.179  1.00  0.00     0.014 A 
ATOM     39  C   UNL A   1      39.979  25.500  28.050  1.00  0.00     0.014 A 
ATOM     40  C   UNL A   1      40.582  27.902  26.757  1.00  0.00     0.010 A 
ATOM     41  C   UNL A   1      39.735  26.707  28.681  1.00  0.00     0.010 A 
ATOM     42  C   UNL A   1      40.091  27.912  28.066  1.00  0.00    -0.014 A 
BRANCH  42  43
ATOM     43  C   UNL A   1      40.120  29.112  28.910  1.00  0.00     0.031 A 
ATOM     44  C   UNL A   1      39.043  30.129  28.868  1.00  0.00     0.074 A 
ATOM     45  C   UNL A   1      41.123  29.279  29.804  1.00  0.00     0.049 A 
ATOM     46  N   UNL A   1      39.196  31.368  29.205  1.00  0.00    -0.248 NA
ATOM     47  C   UNL A   1      37.697  29.834  28.400  1.00  0.00     0.031 C 
ATOM     48  C   UNL A   1      41.185  30.248  30.896  1.00  0.00     0.029 A 
ATOM     49  N   UNL A   1      42.412  28.756  29.737  1.00  0.00    -0.354 N 
ATOM     50  C   UNL A   1      37.945  31.935  29.308  1.00  0.00     0.074 A 
ATOM     51  C   UNL A   1      37.057  30.963  28.717  1.00  0.00     0.031 C 
ATOM     52  C   UNL A   1      42.470  30.453  31.222  1.00  0.00     0.029 A 
ATOM     53  C   UNL A   1      43.285  29.715  30.276  1.00  0.00     0.049 A 
ATOM     54  H   UNL A   1      42.665  27.876  29.377  1.00  0.00     0.167 HD
ATOM     55  C   UNL A   1      37.781  33.095  30.013  1.00  0.00     0.034 A 
ATOM     56  C   UNL A   1      44.309  30.233  29.539  1.00  0.00     0.034 A 
ATOM     57  C   UNL A   1      39.063  33.644  30.468  1.00  0.00     0.049 A 
ATOM     58  C   UNL A   1      44.217  31.729  29.329  1.00  0.00     0.074 A 
ATOM     59  C   UNL A   1      39.693  33.686  31.702  1.00  0.00     0.029 A 
ATOM     60  N   UNL A   1      40.014  34.049  29.535  1.00  0.00    -0.354 N 
ATOM     61  N   UNL A   1      43.172  32.447  29.630  1.00  0.00    -0.248 NA
ATOM     62  C   UNL A   1      45.282  32.527  28.728  1.00  0.00     0.031 C 
ATOM     63  C   UNL A   1      41.045  34.065  31.498  1.00  0.00     0.029 A 
ATOM     64  C   UNL A   1      41.234  34.277  30.143  1.00  0.00     0.049 A 
ATOM     65  H   UNL A   1      39.841  34.158  28.572  1.00  0.00     0.167 HD
ATOM     66  C   UNL A   1      43.372  33.748  29.237  1.00  0.00     0.074 A 
ATOM     67  C   UNL A   1      44.727  33.752  28.714  1.00  0.00     0.031 C 
ATOM     68  C   UNL A   1      42.392  34.694  29.359  1.00  0.00     0.034 A 
BRANCH  55  69
ATOM     69  C   UNL A   1      36.443  33.555  30.571  1.00  0.00     0.023 A 
ATOM     70  C   UNL A   1      35.520  34.202  29.721  1.00  0.00     0.031 A 
ATOM     71  C   UNL A   1      36.037  33.456  31.916  1.00  0.00     0.131 A 
ATOM     72  C   UNL A   1      34.357  34.820  30.222  1.00  0.00     0.055 A 
ATOM     73  C   UNL A   1      34.917  34.127  32.430  1.00  0.00     0.041 A 
ATOM     74  F   UNL A   1      36.661  32.651  32.784  1.00  0.00    -0.206 F 
ATOM     75  C   UNL A   1      34.079  34.833  31.583  1.00  0.00     0.022 A 
BRANCH  72  76
ATOM     76  S   UNL A   1      33.201  35.607  29.065  1.00  0.00     0.124 S 
ATOM     77  O   UNL A   1      34.088  36.430  28.249  1.00  0.00    -0.237 OA
ATOM     78  O   UNL A   1      32.598  34.455  28.403  1.00  0.00    -0.237 OA
ATOM     79  O   UNL A   1      32.300  36.353  29.941  1.00  0.00    -0.744 OA
ENDBRANCH  72  76
ENDBRANCH  55  69
BRANCH  56  80
ATOM     80  C   UNL A   1      44.906  29.247  28.596  1.00  0.00     0.023 A 
ATOM     81  C   UNL A   1      45.768  28.276  29.151  1.00  0.00     0.031 A 
ATOM     82  C   UNL A   1      44.375  29.004  27.324  1.00  0.00     0.131 A 
ATOM     83  C   UNL A   1      45.946  27.040  28.518  1.00  0.00     0.055 A 
ATOM     84  C   UNL A   1      44.610  27.792  26.660  1.00  0.00     0.041 A 
ATOM     85  F   UNL A   1      43.518  29.870  26.763  1.00  0.00    -0.206 F 
ATOM     86  C   UNL A   1      45.362  26.788  27.276  1.00  0.00     0.022 A 
BRANCH  83  87
ATOM     87  S   UNL A   1      46.710  25.683  29.459  1.00  0.00     0.124 S 
ATOM     88  O   UNL A   1      48.094  26.128  29.565  1.00  0.00    -0.237 OA
ATOM     89  O   UNL A   1      45.947  25.671  30.707  1.00  0.00    -0.237 OA
ATOM     90  O   UNL A   1      46.483  24.516  28.610  1.00  0.00    -0.744 OA
ENDBRANCH  83  87
ENDBRANCH  56  80
BRANCH  68  91
ATOM     91  C   UNL A   1      42.448  36.114  28.827  1.00  0.00     0.023 A 
ATOM     92  C   UNL A   1      43.061  37.180  29.503  1.00  0.00     0.031 A 
ATOM     93  C   UNL A   1      41.924  36.427  27.547  1.00  0.00     0.131 A 
ATOM     94  C   UNL A   1      43.068  38.482  28.963  1.00  0.00     0.055 A 
ATOM     95  C   UNL A   1      41.999  37.703  26.978  1.00  0.00     0.041 A 
ATOM     96  F   UNL A   1      41.320  35.502  26.786  1.00  0.00    -0.206 F 
ATOM     97  C   UNL A   1      42.559  38.747  27.695  1.00  0.00     0.022 A 
BRANCH  94  98
ATOM     98  S   UNL A   1      43.709  39.837  29.982  1.00  0.00     0.124 S 
ATOM     99  O   UNL A   1      44.649  40.480  29.069  1.00  0.00    -0.237 OA
ATOM    100  O   UNL A   1      42.502  40.598  30.289  1.00  0.00    -0.237 OA
ATOM    101  O   UNL A   1      44.320  39.155  31.122  1.00  0.00    -0.744 OA
ENDBRANCH  94  98
ENDBRANCH  68  91
ENDBRANCH  42  43
ENDBRANCH  34  37
ENDBRANCH  32  33
ENDBRANCH  31  32
ENDBRANCH  30  31
ENDBRANCH   1  30
TORSDOF 20
ENDMDL
MODEL 2
REMARK VINA RESULT:     -12.4      1.934      2.560
REMARK SMILES Cc1c(NC(=S)NC(=O)CSc2ccc(Cl)cc2)cccc1C(=O)NCCCCNC(=O)c1ccc(-c2c3nc(c(-c4cc(S(=O)(=O)[O-])ccc4F)c4ccc([nH]4)c(-c4cc(S(=O)(=O)[O-])ccc4F)c4nc(c(-c5cc(S(=O)(=O)[O-])ccc5F)c5ccc2[nH]5)C=C4)C=C3)cc1
REMARK SMILES IDX 26 1 25 2 23 3 24 4 22 6 1 7 2 8 3 9 19 10 21 11 20 12 4 13
REMARK SMILES IDX 5 15 6 16 7 17 8 18 9 20 10 21 11 22 12 23 13 24 18 25 14 26
REMARK SMILES IDX 17 27 15 28 16 29 27 30 28 31 29 32 30 33 31 34 32 36 33 37
REMARK SMILES IDX 34 38 95 39 35 40 94 41 36 42 37 43 38 44 88 45 39 46 93 47
REMARK SMILES IDX 87 48 89 49 40 50 92 51 86 52 85 53 41 55 73 56 53 57 72 58
REMARK SMILES IDX 54 59 57 60 71 61 90 62 55 63 56 64 70 66 91 67 58 68 42 69
REMARK SMILES IDX 43 70 51 71 44 72 50 73 52 74 49 75 45 76 46 77 47 78 48 79
REMARK SMILES IDX 74 80 75 81 83 82 76 83 82 84 84 85 81 86 77 87 78 88 79 89
REMARK SMILES IDX 80 90 59 91 60 92 68 93 61 94 67 95 69 96 66 97 62 98 63 99
REMARK SMILES IDX 64 100 65 101
REMARK H PARENT 25 5 4 14 7 19 30 35 89 54 57 65
REMARK Flexibility Score: inf
ROOT
ATOM      1  C   UNL A   1      36.904  20.633  24.849  1.00  0.00     0.116 C 
ENDROOT
BRANCH   1   2
ATOM      2  N   UNL A   1      35.735  20.674  25.711  1.00  0.00    -0.352 N 
ATOM      3  C   UNL A   1      34.474  21.198  25.709  1.00  0.00     0.251 C 
ATOM      4  O   UNL A   1      33.830  20.886  26.725  1.00  0.00    -0.269 OA
ATOM      5  H   UNL A   1      35.901  20.177  26.544  1.00  0.00     0.163 HD
BRANCH   3   6
ATOM      6  C   UNL A   1      33.767  22.094  24.713  1.00  0.00     0.044 A 
ATOM      7  C   UNL A   1      35.045  24.294  24.961  1.00  0.00     0.047 C 
ATOM      8  C   UNL A   1      34.057  23.409  24.264  1.00  0.00    -0.015 A 
ATOM      9  C   UNL A   1      33.410  23.899  23.084  1.00  0.00     0.044 A 
ATOM     10  C   UNL A   1      32.334  23.208  22.524  1.00  0.00     0.026 A 
ATOM     11  C   UNL A   1      32.717  21.403  24.051  1.00  0.00     0.014 A 
ATOM     12  C   UNL A   1      31.985  21.959  23.005  1.00  0.00     0.003 A 
BRANCH   9  13
ATOM     13  N   UNL A   1      33.854  25.099  22.489  1.00  0.00    -0.332 N 
ATOM     14  H   UNL A   1      34.818  25.099  22.286  1.00  0.00     0.169 HD
BRANCH  13  15
ATOM     15  C   UNL A   1      33.241  26.239  22.142  1.00  0.00     0.177 C 
ATOM     16  S   UNL A   1      31.718  26.129  21.447  1.00  0.00    -0.040 S 
BRANCH  15  17
ATOM     17  N   UNL A   1      33.726  27.500  22.343  1.00  0.00    -0.302 N 
ATOM     18  C   UNL A   1      33.954  28.447  23.328  1.00  0.00     0.236 C 
ATOM     19  H   UNL A   1      34.019  27.866  21.478  1.00  0.00     0.172 HD
ATOM     20  O   UNL A   1      34.608  29.441  22.975  1.00  0.00    -0.274 OA
BRANCH  18  21
ATOM     21  C   UNL A   1      33.494  28.333  24.764  1.00  0.00     0.175 C 
BRANCH  21  22
ATOM     22  S   UNL A   1      31.708  28.521  24.994  1.00  0.00    -0.116 SA
BRANCH  22  23
ATOM     23  C   UNL A   1      31.293  26.841  25.386  1.00  0.00     0.008 A 
ATOM     24  C   UNL A   1      30.224  26.190  24.761  1.00  0.00     0.016 A 
ATOM     25  C   UNL A   1      32.062  26.164  26.335  1.00  0.00     0.016 A 
ATOM     26  C   UNL A   1      29.938  24.859  25.077  1.00  0.00     0.021 A 
ATOM     27  C   UNL A   1      31.777  24.837  26.649  1.00  0.00     0.021 A 
ATOM     28  C   UNL A   1      30.719  24.188  26.016  1.00  0.00     0.041 A 
ATOM     29  Cl  UNL A   1      30.384  22.543  26.395  1.00  0.00    -0.084 Cl
ENDBRANCH  22  23
ENDBRANCH  21  22
ENDBRANCH  18  21
ENDBRANCH  15  17
ENDBRANCH  13  15
ENDBRANCH   9  13
ENDBRANCH   3   6
ENDBRANCH   1   2
BRANCH   1  30
ATOM     30  C   UNL A   1      38.228  20.866  25.590  1.00  0.00     0.023 C 
BRANCH  30  31
ATOM     31  C   UNL A   1      38.721  22.311  25.561  1.00  0.00     0.023 C 
BRANCH  31  32
ATOM     32  C   UNL A   1      39.440  22.723  26.840  1.00  0.00     0.116 C 
BRANCH  32  33
ATOM     33  N   UNL A   1      40.854  23.050  26.702  1.00  0.00    -0.352 N 
ATOM     34  C   UNL A   1      41.435  24.307  26.611  1.00  0.00     0.251 C 
ATOM     35  H   UNL A   1      41.474  22.285  26.668  1.00  0.00     0.163 HD
ATOM     36  O   UNL A   1      42.627  24.444  26.355  1.00  0.00    -0.269 OA
BRANCH  34  37
ATOM     37  C   UNL A   1      40.604  25.497  26.924  1.00  0.00     0.039 A 
ATOM     38  C   UNL A   1      40.853  26.677  26.218  1.00  0.00     0.014 A 
ATOM     39  C   UNL A   1      39.808  25.514  28.066  1.00  0.00     0.014 A 
ATOM     40  C   UNL A   1      40.508  27.900  26.793  1.00  0.00     0.010 A 
ATOM     41  C   UNL A   1      39.587  26.726  28.695  1.00  0.00     0.010 A 
ATOM     42  C   UNL A   1      39.992  27.922  28.091  1.00  0.00    -0.014 A 
BRANCH  42  43
ATOM     43  C   UNL A   1      40.039  29.118  28.940  1.00  0.00     0.031 A 
ATOM     44  C   UNL A   1      38.976  30.150  28.904  1.00  0.00     0.074 A 
ATOM     45  C   UNL A   1      41.047  29.269  29.831  1.00  0.00     0.049 A 
ATOM     46  N   UNL A   1      39.147  31.385  29.244  1.00  0.00    -0.248 NA
ATOM     47  C   UNL A   1      37.625  29.875  28.438  1.00  0.00     0.031 C 
ATOM     48  C   UNL A   1      41.125  30.233  30.926  1.00  0.00     0.029 A 
ATOM     49  N   UNL A   1      42.328  28.728  29.758  1.00  0.00    -0.354 N 
ATOM     50  C   UNL A   1      37.904  31.970  29.352  1.00  0.00     0.074 A 
ATOM     51  C   UNL A   1      37.002  31.011  28.761  1.00  0.00     0.031 C 
ATOM     52  C   UNL A   1      42.413  30.419  31.249  1.00  0.00     0.029 A 
ATOM     53  C   UNL A   1      43.216  29.673  30.299  1.00  0.00     0.049 A 
ATOM     54  H   UNL A   1      42.569  27.846  29.395  1.00  0.00     0.167 HD
ATOM     55  C   UNL A   1      37.759  33.129  30.062  1.00  0.00     0.034 A 
ATOM     56  C   UNL A   1      44.245  30.179  29.561  1.00  0.00     0.034 A 
ATOM     57  C   UNL A   1      39.049  33.659  30.516  1.00  0.00     0.049 A 
ATOM     58  C   UNL A   1      44.173  31.677  29.356  1.00  0.00     0.074 A 
ATOM     59  C   UNL A   1      39.683  33.688  31.748  1.00  0.00     0.029 A 
ATOM     60  N   UNL A   1      40.003  34.054  29.581  1.00  0.00    -0.354 N 
ATOM     61  N   UNL A   1      43.138  32.409  29.662  1.00  0.00    -0.248 NA
ATOM     62  C   UNL A   1      45.248  32.462  28.754  1.00  0.00     0.031 C 
ATOM     63  C   UNL A   1      41.039  34.049  31.541  1.00  0.00     0.029 A 
ATOM     64  C   UNL A   1      41.228  34.263  30.186  1.00  0.00     0.049 A 
ATOM     65  H   UNL A   1      39.828  34.169  28.619  1.00  0.00     0.167 HD
ATOM     66  C   UNL A   1      43.356  33.708  29.273  1.00  0.00     0.074 A 
ATOM     67  C   UNL A   1      44.710  33.695  28.746  1.00  0.00     0.031 C 
ATOM     68  C   UNL A   1      42.389  34.667  29.401  1.00  0.00     0.034 A 
BRANCH  55  69
ATOM     69  C   UNL A   1      36.428  33.605  30.625  1.00  0.00     0.023 A 
ATOM     70  C   UNL A   1      35.515  34.275  29.781  1.00  0.00     0.031 A 
ATOM     71  C   UNL A   1      36.021  33.502  31.970  1.00  0.00     0.131 A 
ATOM     72  C   UNL A   1      34.363  34.907  30.288  1.00  0.00     0.055 A 
ATOM     73  C   UNL A   1      34.913  34.186  32.491  1.00  0.00     0.041 A 
ATOM     74  F   UNL A   1      36.633  32.679  32.830  1.00  0.00    -0.206 F 
ATOM     75  C   UNL A   1      34.086  34.913  31.650  1.00  0.00     0.022 A 
BRANCH  72  76
ATOM     76  S   UNL A   1      33.219  35.722  29.140  1.00  0.00     0.124 S 
ATOM     77  O   UNL A   1      32.384  36.512  30.038  1.00  0.00    -0.237 OA
ATOM     78  O   UNL A   1      34.129  36.468  28.278  1.00  0.00    -0.237 OA
ATOM     79  O   UNL A   1      32.537  34.603  28.489  1.00  0.00    -0.744 OA
ENDBRANCH  72  76
ENDBRANCH  55  69
BRANCH  56  80
ATOM     80  C   UNL A   1      44.826  29.189  28.613  1.00  0.00     0.023 A 
ATOM     81  C   UNL A   1      45.675  28.203  29.163  1.00  0.00     0.031 A 
ATOM     82  C   UNL A   1      44.288  28.957  27.341  1.00  0.00     0.131 A 
ATOM     83  C   UNL A   1      45.834  26.967  28.525  1.00  0.00     0.055 A 
ATOM     84  C   UNL A   1      44.505  27.745  26.672  1.00  0.00     0.041 A 
ATOM     85  F   UNL A   1      43.443  29.837  26.785  1.00  0.00    -0.206 F 
ATOM     86  C   UNL A   1      45.244  26.728  27.283  1.00  0.00     0.022 A 
BRANCH  83  87
ATOM     87  S   UNL A   1      46.581  25.596  29.458  1.00  0.00     0.124 S 
ATOM     88  O   UNL A   1      46.468  24.489  28.517  1.00  0.00    -0.237 OA
ATOM     89  O   UNL A   1      47.939  26.073  29.721  1.00  0.00    -0.237 OA
ATOM     90  O   UNL A   1      45.741  25.503  30.650  1.00  0.00    -0.744 OA
ENDBRANCH  83  87
ENDBRANCH  56  80
BRANCH  68  91
ATOM     91  C   UNL A   1      42.463  36.088  28.874  1.00  0.00     0.023 A 
ATOM     92  C   UNL A   1      43.119  37.136  29.536  1.00  0.00     0.031 A 
ATOM     93  C   UNL A   1      41.912  36.419  27.609  1.00  0.00     0.131 A 
ATOM     94  C   UNL A   1      43.142  38.440  29.002  1.00  0.00     0.055 A 
ATOM     95  C   UNL A   1      42.000  37.696  27.045  1.00  0.00     0.041 A 
ATOM     96  F   UNL A   1      41.265  35.511  26.861  1.00  0.00    -0.206 F 
ATOM     97  C   UNL A   1      42.604  38.723  27.750  1.00  0.00     0.022 A 
BRANCH  94  98
ATOM     98  S   UNL A   1      43.842  39.776  30.009  1.00  0.00     0.124 S 
ATOM     99  O   UNL A   1      43.612  39.282  31.363  1.00  0.00    -0.237 OA
ATOM    100  O   UNL A   1      45.234  39.802  29.572  1.00  0.00    -0.237 OA
ATOM    101  O   UNL A   1      43.050  40.945  29.632  1.00  0.00    -0.744 OA
ENDBRANCH  94  98
ENDBRANCH  68  91
ENDBRANCH  42  43
ENDBRANCH  34  37
ENDBRANCH  32  33
ENDBRANCH  31  32
ENDBRANCH  30  31
ENDBRANCH   1  30
TORSDOF 20
ENDMDL
MODEL 3
REMARK VINA RESULT:     -12.3      3.006      4.237
REMARK SMILES Cc1c(NC(=S)NC(=O)CSc2ccc(Cl)cc2)cccc1C(=O)NCCCCNC(=O)c1ccc(-c2c3nc(c(-c4cc(S(=O)(=O)[O-])ccc4F)c4ccc([nH]4)c(-c4cc(S(=O)(=O)[O-])ccc4F)c4nc(c(-c5cc(S(=O)(=O)[O-])ccc5F)c5ccc2[nH]5)C=C4)C=C3)cc1
REMARK SMILES IDX 26 1 25 2 23 3 24 4 22 6 1 7 2 8 3 9 19 10 21 11 20 12 4 13
REMARK SMILES IDX 5 15 6 16 7 17 8 18 9 20 10 21 11 22 12 23 13 24 18 25 14 26
REMARK SMILES IDX 17 27 15 28 16 29 27 30 28 31 29 32 30 33 31 34 32 36 33 37
REMARK SMILES IDX 34 38 95 39 35 40 94 41 36 42 37 43 38 44 88 45 39 46 93 47
REMARK SMILES IDX 87 48 89 49 40 50 92 51 86 52 85 53 41 55 73 56 53 57 72 58
REMARK SMILES IDX 54 59 57 60 71 61 90 62 55 63 56 64 70 66 91 67 58 68 42 69
REMARK SMILES IDX 43 70 51 71 44 72 50 73 52 74 49 75 45 76 46 77 47 78 48 79
REMARK SMILES IDX 74 80 75 81 83 82 76 83 82 84 84 85 81 86 77 87 78 88 79 89
REMARK SMILES IDX 80 90 59 91 60 92 68 93 61 94 67 95 69 96 66 97 62 98 63 99
REMARK SMILES IDX 64 100 65 101
REMARK H PARENT 25 5 4 14 7 19 30 35 89 54 57 65
REMARK Flexibility Score: inf
ROOT
ATOM      1  C   UNL A   1      36.078  20.939  25.284  1.00  0.00     0.116 C 
ENDROOT
BRANCH   1   2
ATOM      2  N   UNL A   1      35.479  21.424  26.515  1.00  0.00    -0.352 N 
ATOM      3  C   UNL A   1      34.418  22.185  26.912  1.00  0.00     0.251 C 
ATOM      4  O   UNL A   1      34.325  22.260  28.150  1.00  0.00    -0.269 OA
ATOM      5  H   UNL A   1      35.991  21.111  27.296  1.00  0.00     0.163 HD
BRANCH   3   6
ATOM      6  C   UNL A   1      33.385  22.952  26.112  1.00  0.00     0.044 A 
ATOM      7  C   UNL A   1      34.776  24.847  25.107  1.00  0.00     0.047 C 
ATOM      8  C   UNL A   1      33.516  24.042  25.214  1.00  0.00    -0.015 A 
ATOM      9  C   UNL A   1      32.419  24.369  24.353  1.00  0.00     0.044 A 
ATOM     10  C   UNL A   1      31.161  23.799  24.556  1.00  0.00     0.026 A 
ATOM     11  C   UNL A   1      32.101  22.354  26.219  1.00  0.00     0.014 A 
ATOM     12  C   UNL A   1      30.998  22.790  25.489  1.00  0.00     0.003 A 
BRANCH   9  13
ATOM     13  N   UNL A   1      32.607  25.286  23.297  1.00  0.00    -0.332 N 
ATOM     14  H   UNL A   1      33.550  25.533  23.160  1.00  0.00     0.169 HD
BRANCH  13  15
ATOM     15  C   UNL A   1      31.772  25.891  22.440  1.00  0.00     0.177 C 
ATOM     16  S   UNL A   1      32.167  25.862  20.810  1.00  0.00    -0.040 S 
BRANCH  15  17
ATOM     17  N   UNL A   1      30.593  26.498  22.769  1.00  0.00    -0.302 N 
ATOM     18  C   UNL A   1      29.994  27.740  22.899  1.00  0.00     0.236 C 
ATOM     19  H   UNL A   1      29.933  25.803  22.992  1.00  0.00     0.172 HD
ATOM     20  O   UNL A   1      28.767  27.726  23.087  1.00  0.00    -0.274 OA
BRANCH  18  21
ATOM     21  C   UNL A   1      30.715  29.066  22.803  1.00  0.00     0.175 C 
BRANCH  21  22
ATOM     22  S   UNL A   1      30.328  30.226  24.138  1.00  0.00    -0.116 SA
BRANCH  22  23
ATOM     23  C   UNL A   1      31.741  29.950  25.175  1.00  0.00     0.008 A 
ATOM     24  C   UNL A   1      31.901  30.633  26.385  1.00  0.00     0.016 A 
ATOM     25  C   UNL A   1      32.702  29.022  24.765  1.00  0.00     0.016 A 
ATOM     26  C   UNL A   1      33.015  30.375  27.188  1.00  0.00     0.021 A 
ATOM     27  C   UNL A   1      33.812  28.765  25.568  1.00  0.00     0.021 A 
ATOM     28  C   UNL A   1      33.963  29.439  26.778  1.00  0.00     0.041 A 
ATOM     29  Cl  UNL A   1      35.326  29.103  27.772  1.00  0.00    -0.084 Cl
ENDBRANCH  22  23
ENDBRANCH  21  22
ENDBRANCH  18  21
ENDBRANCH  15  17
ENDBRANCH  13  15
ENDBRANCH   9  13
ENDBRANCH   3   6
ENDBRANCH   1   2
BRANCH   1  30
ATOM     30  C   UNL A   1      37.469  21.522  24.999  1.00  0.00     0.023 C 
BRANCH  30  31
ATOM     31  C   UNL A   1      37.867  22.679  25.914  1.00  0.00     0.023 C 
BRANCH  31  32
ATOM     32  C   UNL A   1      39.283  22.548  26.461  1.00  0.00     0.116 C 
BRANCH  32  33
ATOM     33  N   UNL A   1      40.008  21.341  26.079  1.00  0.00    -0.352 N 
ATOM     34  C   UNL A   1      41.376  21.117  26.123  1.00  0.00     0.251 C 
ATOM     35  H   UNL A   1      39.458  20.594  25.748  1.00  0.00     0.163 HD
ATOM     36  O   UNL A   1      41.874  20.106  25.638  1.00  0.00    -0.269 OA
BRANCH  34  37
ATOM     37  C   UNL A   1      42.231  22.085  26.855  1.00  0.00     0.039 A 
ATOM     38  C   UNL A   1      42.277  21.999  28.249  1.00  0.00     0.014 A 
ATOM     39  C   UNL A   1      42.736  23.206  26.201  1.00  0.00     0.014 A 
ATOM     40  C   UNL A   1      42.604  23.134  28.990  1.00  0.00     0.010 A 
ATOM     41  C   UNL A   1      42.929  24.363  26.934  1.00  0.00     0.010 A 
ATOM     42  C   UNL A   1      42.803  24.348  28.328  1.00  0.00    -0.014 A 
BRANCH  42  43
ATOM     43  C   UNL A   1      42.685  25.645  29.003  1.00  0.00     0.031 A 
ATOM     44  C   UNL A   1      41.499  26.516  28.831  1.00  0.00     0.074 A 
ATOM     45  C   UNL A   1      43.654  26.047  29.859  1.00  0.00     0.049 A 
ATOM     46  N   UNL A   1      41.504  27.798  28.997  1.00  0.00    -0.248 NA
ATOM     47  C   UNL A   1      40.200  26.007  28.415  1.00  0.00     0.031 C 
ATOM     48  C   UNL A   1      43.594  27.155  30.810  1.00  0.00     0.029 A 
ATOM     49  N   UNL A   1      44.995  25.672  29.854  1.00  0.00    -0.354 N 
ATOM     50  C   UNL A   1      40.195  28.226  29.029  1.00  0.00     0.074 A 
ATOM     51  C   UNL A   1      39.431  27.086  28.582  1.00  0.00     0.031 C 
ATOM     52  C   UNL A   1      44.843  27.549  31.096  1.00  0.00     0.029 A 
ATOM     53  C   UNL A   1      45.747  26.790  30.254  1.00  0.00     0.049 A 
ATOM     54  H   UNL A   1      45.352  24.786  29.615  1.00  0.00     0.167 HD
ATOM     55  C   UNL A   1      39.892  29.443  29.573  1.00  0.00     0.034 A 
ATOM     56  C   UNL A   1      46.711  27.318  29.447  1.00  0.00     0.034 A 
ATOM     57  C   UNL A   1      41.098  30.193  29.942  1.00  0.00     0.049 A 
ATOM     58  C   UNL A   1      46.449  28.751  29.038  1.00  0.00     0.074 A 
ATOM     59  C   UNL A   1      41.707  30.474  31.154  1.00  0.00     0.029 A 
ATOM     60  N   UNL A   1      42.004  30.576  28.956  1.00  0.00    -0.354 N 
ATOM     61  N   UNL A   1      45.324  29.378  29.246  1.00  0.00    -0.248 NA
ATOM     62  C   UNL A   1      47.420  29.579  28.327  1.00  0.00     0.031 C 
ATOM     63  C   UNL A   1      43.007  30.976  30.892  1.00  0.00     0.029 A 
ATOM     64  C   UNL A   1      43.184  31.023  29.520  1.00  0.00     0.049 A 
ATOM     65  H   UNL A   1      41.828  30.533  27.988  1.00  0.00     0.167 HD
ATOM     66  C   UNL A   1      45.377  30.628  28.679  1.00  0.00     0.074 A 
ATOM     67  C   UNL A   1      46.727  30.719  28.152  1.00  0.00     0.031 C 
ATOM     68  C   UNL A   1      44.293  31.462  28.679  1.00  0.00     0.034 A 
BRANCH  55  69
ATOM     69  C   UNL A   1      38.504  29.816  30.072  1.00  0.00     0.023 A 
ATOM     70  C   UNL A   1      37.833  30.920  29.503  1.00  0.00     0.031 A 
ATOM     71  C   UNL A   1      37.817  29.189  31.130  1.00  0.00     0.131 A 
ATOM     72  C   UNL A   1      36.640  31.427  30.054  1.00  0.00     0.055 A 
ATOM     73  C   UNL A   1      36.668  29.731  31.725  1.00  0.00     0.041 A 
ATOM     74  F   UNL A   1      38.182  27.988  31.595  1.00  0.00    -0.206 F 
ATOM     75  C   UNL A   1      36.083  30.870  31.199  1.00  0.00     0.022 A 
BRANCH  72  76
ATOM     76  S   UNL A   1      35.817  32.830  29.250  1.00  0.00     0.124 S 
ATOM     77  O   UNL A   1      36.639  33.959  29.673  1.00  0.00    -0.237 OA
ATOM     78  O   UNL A   1      35.897  32.465  27.839  1.00  0.00    -0.237 OA
ATOM     79  O   UNL A   1      34.469  32.803  29.816  1.00  0.00    -0.744 OA
ENDBRANCH  72  76
ENDBRANCH  55  69
BRANCH  56  80
ATOM     80  C   UNL A   1      47.427  26.290  28.642  1.00  0.00     0.023 A 
ATOM     81  C   UNL A   1      47.029  26.146  27.294  1.00  0.00     0.031 A 
ATOM     82  C   UNL A   1      48.670  25.768  29.020  1.00  0.00     0.131 A 
ATOM     83  C   UNL A   1      47.924  25.648  26.340  1.00  0.00     0.055 A 
ATOM     84  C   UNL A   1      49.537  25.206  28.073  1.00  0.00     0.041 A 
ATOM     85  F   UNL A   1      49.118  25.910  30.275  1.00  0.00    -0.206 F 
ATOM     86  C   UNL A   1      49.184  25.183  26.722  1.00  0.00     0.022 A 
BRANCH  83  87
ATOM     87  S   UNL A   1      47.530  25.871  24.578  1.00  0.00     0.124 S 
ATOM     88  O   UNL A   1      47.198  24.513  24.166  1.00  0.00    -0.237 OA
ATOM     89  O   UNL A   1      46.417  26.820  24.603  1.00  0.00    -0.237 OA
ATOM     90  O   UNL A   1      48.766  26.417  24.023  1.00  0.00    -0.744 OA
ENDBRANCH  83  87
ENDBRANCH  56  80
BRANCH  68  91
ATOM     91  C   UNL A   1      44.189  32.794  27.960  1.00  0.00     0.023 A 
ATOM     92  C   UNL A   1      44.112  34.034  28.614  1.00  0.00     0.031 A 
ATOM     93  C   UNL A   1      44.235  32.857  26.544  1.00  0.00     0.131 A 
ATOM     94  C   UNL A   1      44.002  35.238  27.890  1.00  0.00     0.055 A 
ATOM     95  C   UNL A   1      44.204  34.058  25.827  1.00  0.00     0.041 A 
ATOM     96  F   UNL A   1      44.320  31.749  25.791  1.00  0.00    -0.206 F 
ATOM     97  C   UNL A   1      44.069  35.260  26.500  1.00  0.00     0.022 A 
BRANCH  94  98
ATOM     98  S   UNL A   1      43.714  36.775  28.807  1.00  0.00     0.124 S 
ATOM     99  O   UNL A   1      44.722  37.661  28.233  1.00  0.00    -0.237 OA
ATOM    100  O   UNL A   1      42.329  37.088  28.469  1.00  0.00    -0.237 OA
ATOM    101  O   UNL A   1      43.943  36.396  30.200  1.00  0.00    -0.744 OA
ENDBRANCH  94  98
ENDBRANCH  68  91
ENDBRANCH  42  43
ENDBRANCH  34  37
ENDBRANCH  32  33
ENDBRANCH  31  32
ENDBRANCH  30  31
ENDBRANCH   1  30
TORSDOF 20
ENDMDL
