MODEL 1
REMARK VINA RESULT:     -11.3      0.000      0.000
REMARK SMILES CC[NH2+][C@@]1(C(=O)NCCCCNC(=O)c2ccc(-c3c4nc(c(-c5cc(S(=O)(=O)[O-])ccc5F)c5ccc([nH]5)c(-c5cc(S(=O)(=O)[O-])ccc5F)c5nc(c(-c6cc(S(=O)(=O)[O-])ccc6F)c6ccc3[nH]6)C=C5)C=C4)cc2)CC[C@@H](SCC2CCCC2)C1
REMARK SMILES IDX 9 1 8 2 7 3 5 4 6 5 4 7 78 8 88 9 79 10 80 11 3 12 2 15 1 16
REMARK SMILES IDX 81 17 82 18 83 19 84 20 87 21 85 22 86 23 10 24 11 25 12 26
REMARK SMILES IDX 13 27 14 29 15 30 16 31 77 32 17 33 76 34 18 35 19 36 20 37
REMARK SMILES IDX 70 38 21 39 75 40 69 41 71 42 22 43 74 44 68 45 67 46 23 48
REMARK SMILES IDX 55 49 35 50 54 51 36 52 39 53 53 54 72 55 37 56 38 57 52 59
REMARK SMILES IDX 73 60 40 61 24 62 25 63 33 64 26 65 32 66 34 67 31 68 27 69
REMARK SMILES IDX 28 70 29 71 30 72 56 73 57 74 65 75 58 76 64 77 66 78 63 79
REMARK SMILES IDX 59 80 60 81 61 82 62 83 41 84 42 85 50 86 43 87 49 88 51 89
REMARK SMILES IDX 48 90 44 91 45 92 46 93 47 94
REMARK H PARENT 7 6 3 13 3 14 12 28 71 47 39 58
REMARK Flexibility Score: inf
ROOT
ATOM      1  C   UNL A   1      35.618  22.498  25.997  1.00  0.00     0.023 C 
ENDROOT
BRANCH   1   2
ATOM      2  C   UNL A   1      35.661  23.692  25.056  1.00  0.00     0.116 C 
BRANCH   2   3
ATOM      3  N   UNL A   1      35.160  23.406  23.738  1.00  0.00    -0.351 N 
ATOM      4  C   UNL A   1      33.972  23.687  23.150  1.00  0.00     0.281 C 
ATOM      5  O   UNL A   1      33.971  23.592  21.913  1.00  0.00    -0.268 OA
ATOM      6  H   UNL A   1      35.792  22.920  23.161  1.00  0.00     0.163 HD
BRANCH   4   7
ATOM      7  C   UNL A   1      32.658  24.152  23.913  1.00  0.00     0.176 C 
ATOM      8  C   UNL A   1      31.462  24.273  22.946  1.00  0.00     0.080 C 
ATOM      9  C   UNL A   1      32.724  25.502  24.650  1.00  0.00     0.093 C 
ATOM     10  C   UNL A   1      31.147  25.759  22.757  1.00  0.00     0.022 C 
ATOM     11  C   UNL A   1      31.868  26.510  23.877  1.00  0.00     0.053 C 
BRANCH   7  12
ATOM     12  N   UNL A   1      32.319  23.038  24.871  1.00  0.00    -0.334 N 
ATOM     13  H   UNL A   1      32.514  22.149  24.411  1.00  0.00     0.347 HD
ATOM     14  H   UNL A   1      32.889  23.183  25.704  1.00  0.00     0.347 HD
BRANCH  12  15
ATOM     15  C   UNL A   1      30.914  23.032  25.312  1.00  0.00     0.257 C 
ATOM     16  C   UNL A   1      30.842  23.097  26.832  1.00  0.00     0.071 C 
ENDBRANCH  12  15
ENDBRANCH   7  12
BRANCH  11  17
ATOM     17  S   UNL A   1      30.852  27.636  24.925  1.00  0.00    -0.158 SA
BRANCH  17  18
ATOM     18  C   UNL A   1      31.070  29.294  24.164  1.00  0.00     0.073 C 
BRANCH  18  19
ATOM     19  C   UNL A   1      29.903  29.717  23.291  1.00  0.00    -0.001 C 
ATOM     20  C   UNL A   1      28.787  28.696  23.116  1.00  0.00     0.004 C 
ATOM     21  C   UNL A   1      29.129  30.946  23.770  1.00  0.00     0.004 C 
ATOM     22  C   UNL A   1      27.749  29.519  22.352  1.00  0.00     0.000 C 
ATOM     23  C   UNL A   1      27.867  30.941  22.909  1.00  0.00     0.000 C 
ENDBRANCH  18  19
ENDBRANCH  17  18
ENDBRANCH  11  17
ENDBRANCH   4   7
ENDBRANCH   2   3
ENDBRANCH   1   2
BRANCH   1  24
ATOM     24  C   UNL A   1      36.290  21.248  25.438  1.00  0.00     0.023 C 
BRANCH  24  25
ATOM     25  C   UNL A   1      37.751  21.414  25.030  1.00  0.00     0.116 C 
BRANCH  25  26
ATOM     26  N   UNL A   1      38.628  20.335  25.468  1.00  0.00    -0.352 N 
ATOM     27  C   UNL A   1      39.733  20.439  26.286  1.00  0.00     0.251 C 
ATOM     28  H   UNL A   1      38.408  19.433  25.142  1.00  0.00     0.163 HD
ATOM     29  O   UNL A   1      40.427  19.459  26.532  1.00  0.00    -0.269 OA
BRANCH  27  30
ATOM     30  C   UNL A   1      40.087  21.773  26.810  1.00  0.00     0.039 A 
ATOM     31  C   UNL A   1      41.063  21.872  27.804  1.00  0.00     0.014 A 
ATOM     32  C   UNL A   1      39.553  22.920  26.216  1.00  0.00     0.014 A 
ATOM     33  C   UNL A   1      41.574  23.128  28.136  1.00  0.00     0.010 A 
ATOM     34  C   UNL A   1      40.120  24.158  26.492  1.00  0.00     0.010 A 
ATOM     35  C   UNL A   1      41.144  24.274  27.446  1.00  0.00    -0.014 A 
BRANCH  35  36
ATOM     36  C   UNL A   1      41.760  25.604  27.697  1.00  0.00     0.031 A 
ATOM     37  C   UNL A   1      40.993  26.652  28.455  1.00  0.00     0.074 A 
ATOM     38  C   UNL A   1      42.969  25.892  27.173  1.00  0.00     0.049 A 
ATOM     39  N   UNL A   1      41.310  27.897  28.699  1.00  0.00    -0.248 NA
ATOM     40  C   UNL A   1      39.674  26.254  28.970  1.00  0.00     0.031 C 
ATOM     41  C   UNL A   1      43.784  24.978  26.367  1.00  0.00     0.029 A 
ATOM     42  N   UNL A   1      43.720  27.039  27.230  1.00  0.00    -0.354 N 
ATOM     43  C   UNL A   1      40.224  28.437  29.378  1.00  0.00     0.074 A 
ATOM     44  C   UNL A   1      39.215  27.401  29.444  1.00  0.00     0.031 C 
ATOM     45  C   UNL A   1      44.929  25.592  26.028  1.00  0.00     0.029 A 
ATOM     46  C   UNL A   1      44.917  26.953  26.556  1.00  0.00     0.049 A 
ATOM     47  H   UNL A   1      43.430  27.850  27.707  1.00  0.00     0.167 HD
ATOM     48  C   UNL A   1      40.091  29.672  29.922  1.00  0.00     0.034 A 
ATOM     49  C   UNL A   1      45.891  27.868  26.379  1.00  0.00     0.034 A 
ATOM     50  C   UNL A   1      41.117  30.684  29.869  1.00  0.00     0.049 A 
ATOM     51  C   UNL A   1      45.727  29.232  27.000  1.00  0.00     0.074 A 
ATOM     52  C   UNL A   1      41.118  31.945  30.439  1.00  0.00     0.029 A 
ATOM     53  N   UNL A   1      42.329  30.551  29.201  1.00  0.00    -0.354 N 
ATOM     54  N   UNL A   1      44.717  29.709  27.691  1.00  0.00    -0.248 NA
ATOM     55  C   UNL A   1      46.839  30.175  26.829  1.00  0.00     0.031 C 
ATOM     56  C   UNL A   1      42.302  32.593  30.070  1.00  0.00     0.029 A 
ATOM     57  C   UNL A   1      43.073  31.714  29.326  1.00  0.00     0.049 A 
ATOM     58  H   UNL A   1      42.617  29.747  28.711  1.00  0.00     0.167 HD
ATOM     59  C   UNL A   1      45.087  30.999  28.062  1.00  0.00     0.074 A 
ATOM     60  C   UNL A   1      46.417  31.217  27.529  1.00  0.00     0.031 C 
ATOM     61  C   UNL A   1      44.393  31.919  28.779  1.00  0.00     0.034 A 
BRANCH  48  62
ATOM     62  C   UNL A   1      38.780  29.989  30.601  1.00  0.00     0.023 A 
ATOM     63  C   UNL A   1      37.795  30.770  29.971  1.00  0.00     0.031 A 
ATOM     64  C   UNL A   1      38.527  29.546  31.911  1.00  0.00     0.131 A 
ATOM     65  C   UNL A   1      36.649  31.160  30.679  1.00  0.00     0.055 A 
ATOM     66  C   UNL A   1      37.344  29.863  32.580  1.00  0.00     0.041 A 
ATOM     67  F   UNL A   1      39.438  28.813  32.572  1.00  0.00    -0.206 F 
ATOM     68  C   UNL A   1      36.404  30.691  31.972  1.00  0.00     0.022 A 
BRANCH  65  69
ATOM     69  S   UNL A   1      35.564  32.415  29.945  1.00  0.00     0.124 S 
ATOM     70  O   UNL A   1      35.317  31.850  28.620  1.00  0.00    -0.237 OA
ATOM     71  O   UNL A   1      34.429  32.423  30.859  1.00  0.00    -0.237 OA
ATOM     72  O   UNL A   1      36.384  33.624  29.956  1.00  0.00    -0.744 OA
ENDBRANCH  65  69
ENDBRANCH  48  62
BRANCH  49  73
ATOM     73  C   UNL A   1      47.107  27.537  25.583  1.00  0.00     0.023 A 
ATOM     74  C   UNL A   1      47.191  27.867  24.221  1.00  0.00     0.031 A 
ATOM     75  C   UNL A   1      48.186  26.845  26.161  1.00  0.00     0.131 A 
ATOM     76  C   UNL A   1      48.307  27.469  23.470  1.00  0.00     0.055 A 
ATOM     77  C   UNL A   1      49.316  26.492  25.422  1.00  0.00     0.041 A 
ATOM     78  F   UNL A   1      48.160  26.513  27.461  1.00  0.00    -0.206 F 
ATOM     79  C   UNL A   1      49.375  26.792  24.064  1.00  0.00     0.022 A 
BRANCH  76  80
ATOM     80  S   UNL A   1      48.309  27.779  21.683  1.00  0.00     0.124 S 
ATOM     81  O   UNL A   1      46.975  28.330  21.476  1.00  0.00    -0.237 OA
ATOM     82  O   UNL A   1      49.419  28.715  21.541  1.00  0.00    -0.237 OA
ATOM     83  O   UNL A   1      48.535  26.454  21.108  1.00  0.00    -0.744 OA
ENDBRANCH  76  80
ENDBRANCH  49  73
BRANCH  61  84
ATOM     84  C   UNL A   1      45.088  33.227  29.063  1.00  0.00     0.023 A 
ATOM     85  C   UNL A   1      44.940  34.340  28.218  1.00  0.00     0.031 A 
ATOM     86  C   UNL A   1      45.921  33.354  30.188  1.00  0.00     0.131 A 
ATOM     87  C   UNL A   1      45.659  35.517  28.481  1.00  0.00     0.055 A 
ATOM     88  C   UNL A   1      46.589  34.544  30.476  1.00  0.00     0.041 A 
ATOM     89  F   UNL A   1      46.098  32.320  31.027  1.00  0.00    -0.206 F 
ATOM     90  C   UNL A   1      46.470  35.630  29.613  1.00  0.00     0.022 A 
BRANCH  87  91
ATOM     91  S   UNL A   1      45.590  36.868  27.274  1.00  0.00     0.124 S 
ATOM     92  O   UNL A   1      44.168  36.913  26.949  1.00  0.00    -0.237 OA
ATOM     93  O   UNL A   1      46.103  37.999  28.043  1.00  0.00    -0.237 OA
ATOM     94  O   UNL A   1      46.460  36.408  26.194  1.00  0.00    -0.744 OA
ENDBRANCH  87  91
ENDBRANCH  61  84
ENDBRANCH  35  36
ENDBRANCH  27  30
ENDBRANCH  25  26
ENDBRANCH  24  25
ENDBRANCH   1  24
TORSDOF 19
ENDMDL
MODEL 2
REMARK VINA RESULT:     -11.2      5.224     10.469
REMARK SMILES CC[NH2+][C@@]1(C(=O)NCCCCNC(=O)c2ccc(-c3c4nc(c(-c5cc(S(=O)(=O)[O-])ccc5F)c5ccc([nH]5)c(-c5cc(S(=O)(=O)[O-])ccc5F)c5nc(c(-c6cc(S(=O)(=O)[O-])ccc6F)c6ccc3[nH]6)C=C5)C=C4)cc2)CC[C@@H](SCC2CCCC2)C1
REMARK SMILES IDX 9 1 8 2 7 3 5 4 6 5 4 7 78 8 88 9 79 10 80 11 3 12 2 15 1 16
REMARK SMILES IDX 81 17 82 18 83 19 84 20 87 21 85 22 86 23 10 24 11 25 12 26
REMARK SMILES IDX 13 27 14 29 15 30 16 31 77 32 17 33 76 34 18 35 19 36 20 37
REMARK SMILES IDX 70 38 21 39 75 40 69 41 71 42 22 43 74 44 68 45 67 46 23 48
REMARK SMILES IDX 55 49 35 50 54 51 36 52 39 53 53 54 72 55 37 56 38 57 52 59
REMARK SMILES IDX 73 60 40 61 24 62 25 63 33 64 26 65 32 66 34 67 31 68 27 69
REMARK SMILES IDX 28 70 29 71 30 72 56 73 57 74 65 75 58 76 64 77 66 78 63 79
REMARK SMILES IDX 59 80 60 81 61 82 62 83 41 84 42 85 50 86 43 87 49 88 51 89
REMARK SMILES IDX 48 90 44 91 45 92 46 93 47 94
REMARK H PARENT 7 6 3 13 3 14 12 28 71 47 39 58
REMARK Flexibility Score: inf
ROOT
ATOM      1  C   UNL A   1      31.911  28.771  27.530  1.00  0.00     0.023 C 
ENDROOT
BRANCH   1   2
ATOM      2  C   UNL A   1      31.686  27.415  26.880  1.00  0.00     0.116 C 
BRANCH   2   3
ATOM      3  N   UNL A   1      31.035  27.490  25.600  1.00  0.00    -0.351 N 
ATOM      4  C   UNL A   1      31.012  26.629  24.553  1.00  0.00     0.281 C 
ATOM      5  O   UNL A   1      30.105  26.836  23.732  1.00  0.00    -0.268 OA
ATOM      6  H   UNL A   1      30.513  28.313  25.458  1.00  0.00     0.163 HD
BRANCH   4   7
ATOM      7  C   UNL A   1      32.002  25.403  24.353  1.00  0.00     0.176 C 
ATOM      8  C   UNL A   1      31.701  24.648  23.041  1.00  0.00     0.080 C 
ATOM      9  C   UNL A   1      32.005  24.325  25.452  1.00  0.00     0.093 C 
ATOM     10  C   UNL A   1      31.074  23.299  23.398  1.00  0.00     0.022 C 
ATOM     11  C   UNL A   1      31.344  23.065  24.885  1.00  0.00     0.053 C 
BRANCH   7  12
ATOM     12  N   UNL A   1      33.376  26.003  24.192  1.00  0.00    -0.334 N 
ATOM     13  H   UNL A   1      33.581  26.563  25.019  1.00  0.00     0.347 HD
ATOM     14  H   UNL A   1      34.025  25.225  24.073  1.00  0.00     0.347 HD
BRANCH  12  15
ATOM     15  C   UNL A   1      33.522  26.862  23.004  1.00  0.00     0.257 C 
ATOM     16  C   UNL A   1      34.038  28.236  23.410  1.00  0.00     0.071 C 
ENDBRANCH  12  15
ENDBRANCH   7  12
BRANCH  11  17
ATOM     17  S   UNL A   1      32.159  21.479  25.353  1.00  0.00    -0.158 SA
BRANCH  17  18
ATOM     18  C   UNL A   1      33.415  21.203  24.040  1.00  0.00     0.073 C 
BRANCH  18  19
ATOM     19  C   UNL A   1      34.778  21.783  24.374  1.00  0.00    -0.001 C 
ATOM     20  C   UNL A   1      35.207  23.001  23.569  1.00  0.00     0.004 C 
ATOM     21  C   UNL A   1      34.952  22.279  25.810  1.00  0.00     0.004 C 
ATOM     22  C   UNL A   1      36.500  23.390  24.287  1.00  0.00     0.000 C 
ATOM     23  C   UNL A   1      36.256  23.073  25.766  1.00  0.00     0.000 C 
ENDBRANCH  18  19
ENDBRANCH  17  18
ENDBRANCH  11  17
ENDBRANCH   4   7
ENDBRANCH   2   3
ENDBRANCH   1   2
BRANCH   1  24
ATOM     24  C   UNL A   1      31.396  29.944  26.703  1.00  0.00     0.023 C 
BRANCH  24  25
ATOM     25  C   UNL A   1      32.448  30.969  26.288  1.00  0.00     0.116 C 
BRANCH  25  26
ATOM     26  N   UNL A   1      32.195  32.323  26.762  1.00  0.00    -0.352 N 
ATOM     27  C   UNL A   1      33.022  33.101  27.544  1.00  0.00     0.251 C 
ATOM     28  H   UNL A   1      31.339  32.728  26.494  1.00  0.00     0.163 HD
ATOM     29  O   UNL A   1      32.664  34.209  27.928  1.00  0.00    -0.269 OA
BRANCH  27  30
ATOM     30  C   UNL A   1      34.325  32.538  27.952  1.00  0.00     0.039 A 
ATOM     31  C   UNL A   1      35.417  33.395  28.092  1.00  0.00     0.014 A 
ATOM     32  C   UNL A   1      34.417  31.195  28.327  1.00  0.00     0.014 A 
ATOM     33  C   UNL A   1      36.582  32.923  28.701  1.00  0.00     0.010 A 
ATOM     34  C   UNL A   1      35.547  30.752  29.004  1.00  0.00     0.010 A 
ATOM     35  C   UNL A   1      36.637  31.614  29.208  1.00  0.00    -0.014 A 
BRANCH  35  36
ATOM     36  C   UNL A   1      37.819  31.128  29.967  1.00  0.00     0.031 A 
ATOM     37  C   UNL A   1      38.737  30.110  29.348  1.00  0.00     0.074 A 
ATOM     38  C   UNL A   1      38.016  31.538  31.236  1.00  0.00     0.049 A 
ATOM     39  N   UNL A   1      39.764  29.493  29.872  1.00  0.00    -0.248 NA
ATOM     40  C   UNL A   1      38.432  29.706  27.968  1.00  0.00     0.031 C 
ATOM     41  C   UNL A   1      37.159  32.476  31.967  1.00  0.00     0.029 A 
ATOM     42  N   UNL A   1      38.994  31.212  32.142  1.00  0.00    -0.354 N 
ATOM     43  C   UNL A   1      40.215  28.613  28.895  1.00  0.00     0.074 A 
ATOM     44  C   UNL A   1      39.305  28.731  27.775  1.00  0.00     0.031 C 
ATOM     45  C   UNL A   1      37.664  32.667  33.197  1.00  0.00     0.029 A 
ATOM     46  C   UNL A   1      38.855  31.840  33.359  1.00  0.00     0.049 A 
ATOM     47  H   UNL A   1      39.727  30.587  31.941  1.00  0.00     0.167 HD
ATOM     48  C   UNL A   1      41.303  27.803  28.917  1.00  0.00     0.034 A 
ATOM     49  C   UNL A   1      39.599  31.753  34.480  1.00  0.00     0.034 A 
ATOM     50  C   UNL A   1      42.212  27.716  30.033  1.00  0.00     0.049 A 
ATOM     51  C   UNL A   1      40.809  30.854  34.480  1.00  0.00     0.074 A 
ATOM     52  C   UNL A   1      43.379  26.981  30.142  1.00  0.00     0.029 A 
ATOM     53  N   UNL A   1      42.054  28.389  31.240  1.00  0.00    -0.354 N 
ATOM     54  N   UNL A   1      41.257  30.071  33.525  1.00  0.00    -0.248 NA
ATOM     55  C   UNL A   1      41.620  30.837  35.703  1.00  0.00     0.031 C 
ATOM     56  C   UNL A   1      43.895  27.163  31.430  1.00  0.00     0.029 A 
ATOM     57  C   UNL A   1      43.088  28.066  32.104  1.00  0.00     0.049 A 
ATOM     58  H   UNL A   1      41.315  29.004  31.449  1.00  0.00     0.167 HD
ATOM     59  C   UNL A   1      42.420  29.491  34.024  1.00  0.00     0.074 A 
ATOM     60  C   UNL A   1      42.610  30.027  35.357  1.00  0.00     0.031 C 
ATOM     61  C   UNL A   1      43.257  28.601  33.435  1.00  0.00     0.034 A 
BRANCH  48  62
ATOM     62  C   UNL A   1      41.544  26.940  27.703  1.00  0.00     0.023 A 
ATOM     63  C   UNL A   1      41.144  25.592  27.666  1.00  0.00     0.031 A 
ATOM     64  C   UNL A   1      42.223  27.453  26.584  1.00  0.00     0.131 A 
ATOM     65  C   UNL A   1      41.505  24.782  26.579  1.00  0.00     0.055 A 
ATOM     66  C   UNL A   1      42.502  26.665  25.466  1.00  0.00     0.041 A 
ATOM     67  F   UNL A   1      42.647  28.727  26.567  1.00  0.00    -0.206 F 
ATOM     68  C   UNL A   1      42.159  25.315  25.466  1.00  0.00     0.022 A 
BRANCH  65  69
ATOM     69  S   UNL A   1      41.248  22.991  26.713  1.00  0.00     0.124 S 
ATOM     70  O   UNL A   1      41.813  22.712  28.031  1.00  0.00    -0.237 OA
ATOM     71  O   UNL A   1      39.799  22.872  26.601  1.00  0.00    -0.237 OA
ATOM     72  O   UNL A   1      42.009  22.451  25.589  1.00  0.00    -0.744 OA
ENDBRANCH  65  69
ENDBRANCH  48  62
BRANCH  49  73
ATOM     73  C   UNL A   1      39.231  32.533  35.696  1.00  0.00     0.023 A 
ATOM     74  C   UNL A   1      39.663  33.858  35.862  1.00  0.00     0.031 A 
ATOM     75  C   UNL A   1      38.477  31.950  36.730  1.00  0.00     0.131 A 
ATOM     76  C   UNL A   1      39.379  34.544  37.053  1.00  0.00     0.055 A 
ATOM     77  C   UNL A   1      38.156  32.652  37.894  1.00  0.00     0.041 A 
ATOM     78  F   UNL A   1      38.032  30.689  36.618  1.00  0.00    -0.206 F 
ATOM     79  C   UNL A   1      38.619  33.953  38.066  1.00  0.00     0.022 A 
BRANCH  76  80
ATOM     80  S   UNL A   1      40.085  36.197  37.294  1.00  0.00     0.124 S 
ATOM     81  O   UNL A   1      39.230  36.735  38.346  1.00  0.00    -0.237 OA
ATOM     82  O   UNL A   1      41.457  35.887  37.677  1.00  0.00    -0.237 OA
ATOM     83  O   UNL A   1      39.932  36.826  35.983  1.00  0.00    -0.744 OA
ENDBRANCH  76  80
ENDBRANCH  49  73
BRANCH  61  84
ATOM     84  C   UNL A   1      44.477  28.189  34.220  1.00  0.00     0.023 A 
ATOM     85  C   UNL A   1      44.445  27.115  35.126  1.00  0.00     0.031 A 
ATOM     86  C   UNL A   1      45.685  28.894  34.067  1.00  0.00     0.131 A 
ATOM     87  C   UNL A   1      45.585  26.810  35.886  1.00  0.00     0.055 A 
ATOM     88  C   UNL A   1      46.830  28.550  34.785  1.00  0.00     0.041 A 
ATOM     89  F   UNL A   1      45.769  29.929  33.216  1.00  0.00    -0.206 F 
ATOM     90  C   UNL A   1      46.780  27.511  35.710  1.00  0.00     0.022 A 
BRANCH  87  91
ATOM     91  S   UNL A   1      45.456  25.541  37.176  1.00  0.00     0.124 S 
ATOM     92  O   UNL A   1      46.470  25.976  38.132  1.00  0.00    -0.237 OA
ATOM     93  O   UNL A   1      44.069  25.679  37.611  1.00  0.00    -0.237 OA
ATOM     94  O   UNL A   1      45.762  24.301  36.468  1.00  0.00    -0.744 OA
ENDBRANCH  87  91
ENDBRANCH  61  84
ENDBRANCH  35  36
ENDBRANCH  27  30
ENDBRANCH  25  26
ENDBRANCH  24  25
ENDBRANCH   1  24
TORSDOF 19
ENDMDL
MODEL 3
REMARK VINA RESULT:     -11.1      5.034      8.113
REMARK SMILES CC[NH2+][C@@]1(C(=O)NCCCCNC(=O)c2ccc(-c3c4nc(c(-c5cc(S(=O)(=O)[O-])ccc5F)c5ccc([nH]5)c(-c5cc(S(=O)(=O)[O-])ccc5F)c5nc(c(-c6cc(S(=O)(=O)[O-])ccc6F)c6ccc3[nH]6)C=C5)C=C4)cc2)CC[C@@H](SCC2CCCC2)C1
REMARK SMILES IDX 9 1 8 2 7 3 5 4 6 5 4 7 78 8 88 9 79 10 80 11 3 12 2 15 1 16
REMARK SMILES IDX 81 17 82 18 83 19 84 20 87 21 85 22 86 23 10 24 11 25 12 26
REMARK SMILES IDX 13 27 14 29 15 30 16 31 77 32 17 33 76 34 18 35 19 36 20 37
REMARK SMILES IDX 70 38 21 39 75 40 69 41 71 42 22 43 74 44 68 45 67 46 23 48
REMARK SMILES IDX 55 49 35 50 54 51 36 52 39 53 53 54 72 55 37 56 38 57 52 59
REMARK SMILES IDX 73 60 40 61 24 62 25 63 33 64 26 65 32 66 34 67 31 68 27 69
REMARK SMILES IDX 28 70 29 71 30 72 56 73 57 74 65 75 58 76 64 77 66 78 63 79
REMARK SMILES IDX 59 80 60 81 61 82 62 83 41 84 42 85 50 86 43 87 49 88 51 89
REMARK SMILES IDX 48 90 44 91 45 92 46 93 47 94
REMARK H PARENT 7 6 3 13 3 14 12 28 71 47 39 58
REMARK Flexibility Score: inf
ROOT
ATOM      1  C   UNL A   1      33.604  28.893  24.541  1.00  0.00     0.023 C 
ENDROOT
BRANCH   1   2
ATOM      2  C   UNL A   1      33.372  27.842  23.465  1.00  0.00     0.116 C 
BRANCH   2   3
ATOM      3  N   UNL A   1      31.989  27.487  23.295  1.00  0.00    -0.351 N 
ATOM      4  C   UNL A   1      31.267  26.441  23.764  1.00  0.00     0.281 C 
ATOM      5  O   UNL A   1      30.037  26.593  23.707  1.00  0.00    -0.268 OA
ATOM      6  H   UNL A   1      31.475  28.117  22.738  1.00  0.00     0.163 HD
BRANCH   4   7
ATOM      7  C   UNL A   1      31.876  25.116  24.394  1.00  0.00     0.176 C 
ATOM      8  C   UNL A   1      32.684  25.422  25.672  1.00  0.00     0.080 C 
ATOM      9  C   UNL A   1      32.824  24.294  23.500  1.00  0.00     0.093 C 
ATOM     10  C   UNL A   1      34.170  25.231  25.357  1.00  0.00     0.022 C 
ATOM     11  C   UNL A   1      34.247  24.450  24.045  1.00  0.00     0.053 C 
BRANCH   7  12
ATOM     12  N   UNL A   1      30.696  24.282  24.826  1.00  0.00    -0.334 N 
ATOM     13  H   UNL A   1      29.844  24.744  24.510  1.00  0.00     0.347 HD
ATOM     14  H   UNL A   1      30.821  23.358  24.411  1.00  0.00     0.347 HD
BRANCH  12  15
ATOM     15  C   UNL A   1      30.603  24.083  26.282  1.00  0.00     0.257 C 
ATOM     16  C   UNL A   1      30.243  22.636  26.592  1.00  0.00     0.071 C 
ENDBRANCH  12  15
ENDBRANCH   7  12
BRANCH  11  17
ATOM     17  S   UNL A   1      35.256  22.907  24.042  1.00  0.00    -0.158 SA
BRANCH  17  18
ATOM     18  C   UNL A   1      34.835  22.079  25.627  1.00  0.00     0.073 C 
BRANCH  18  19
ATOM     19  C   UNL A   1      34.090  20.768  25.446  1.00  0.00    -0.001 C 
ATOM     20  C   UNL A   1      32.840  20.818  24.580  1.00  0.00     0.004 C 
ATOM     21  C   UNL A   1      34.884  19.642  24.785  1.00  0.00     0.004 C 
ATOM     22  C   UNL A   1      32.483  19.334  24.489  1.00  0.00     0.000 C 
ATOM     23  C   UNL A   1      33.823  18.594  24.452  1.00  0.00     0.000 C 
ENDBRANCH  18  19
ENDBRANCH  17  18
ENDBRANCH  11  17
ENDBRANCH   4   7
ENDBRANCH   2   3
ENDBRANCH   1   2
BRANCH   1  24
ATOM     24  C   UNL A   1      32.320  29.508  25.088  1.00  0.00     0.023 C 
BRANCH  24  25
ATOM     25  C   UNL A   1      32.354  29.897  26.563  1.00  0.00     0.116 C 
BRANCH  25  26
ATOM     26  N   UNL A   1      32.197  31.323  26.818  1.00  0.00    -0.352 N 
ATOM     27  C   UNL A   1      33.123  32.177  27.380  1.00  0.00     0.251 C 
ATOM     28  H   UNL A   1      31.335  31.721  26.561  1.00  0.00     0.163 HD
ATOM     29  O   UNL A   1      32.844  33.351  27.597  1.00  0.00    -0.269 OA
BRANCH  27  30
ATOM     30  C   UNL A   1      34.437  31.622  27.763  1.00  0.00     0.039 A 
ATOM     31  C   UNL A   1      35.510  32.495  27.950  1.00  0.00     0.014 A 
ATOM     32  C   UNL A   1      34.557  30.265  28.069  1.00  0.00     0.014 A 
ATOM     33  C   UNL A   1      36.684  32.019  28.538  1.00  0.00     0.010 A 
ATOM     34  C   UNL A   1      35.696  29.813  28.727  1.00  0.00     0.010 A 
ATOM     35  C   UNL A   1      36.766  30.687  28.978  1.00  0.00    -0.014 A 
BRANCH  35  36
ATOM     36  C   UNL A   1      37.957  30.189  29.715  1.00  0.00     0.031 A 
ATOM     37  C   UNL A   1      38.221  30.664  31.117  1.00  0.00     0.074 A 
ATOM     38  C   UNL A   1      38.840  29.381  29.093  1.00  0.00     0.049 A 
ATOM     39  N   UNL A   1      39.245  30.424  31.895  1.00  0.00    -0.248 NA
ATOM     40  C   UNL A   1      37.215  31.560  31.705  1.00  0.00     0.031 C 
ATOM     41  C   UNL A   1      38.725  28.902  27.713  1.00  0.00     0.029 A 
ATOM     42  N   UNL A   1      40.014  28.826  29.537  1.00  0.00    -0.354 N 
ATOM     43  C   UNL A   1      39.017  31.155  33.055  1.00  0.00     0.074 A 
ATOM     44  C   UNL A   1      37.792  31.898  32.847  1.00  0.00     0.031 C 
ATOM     45  C   UNL A   1      39.771  28.108  27.434  1.00  0.00     0.029 A 
ATOM     46  C   UNL A   1      40.651  28.049  28.597  1.00  0.00     0.049 A 
ATOM     47  H   UNL A   1      40.369  28.971  30.444  1.00  0.00     0.167 HD
ATOM     48  C   UNL A   1      39.745  31.182  34.199  1.00  0.00     0.034 A 
ATOM     49  C   UNL A   1      41.815  27.373  28.663  1.00  0.00     0.034 A 
ATOM     50  C   UNL A   1      40.950  30.416  34.397  1.00  0.00     0.049 A 
ATOM     51  C   UNL A   1      42.604  27.409  29.947  1.00  0.00     0.074 A 
ATOM     52  C   UNL A   1      41.733  30.315  35.534  1.00  0.00     0.029 A 
ATOM     53  N   UNL A   1      41.551  29.617  33.432  1.00  0.00    -0.354 N 
ATOM     54  N   UNL A   1      42.345  28.059  31.058  1.00  0.00    -0.248 NA
ATOM     55  C   UNL A   1      43.835  26.609  29.990  1.00  0.00     0.031 C 
ATOM     56  C   UNL A   1      42.835  29.504  35.239  1.00  0.00     0.029 A 
ATOM     57  C   UNL A   1      42.705  29.041  33.939  1.00  0.00     0.049 A 
ATOM     58  H   UNL A   1      41.207  29.480  32.519  1.00  0.00     0.167 HD
ATOM     59  C   UNL A   1      43.367  27.722  31.942  1.00  0.00     0.074 A 
ATOM     60  C   UNL A   1      44.236  26.801  31.238  1.00  0.00     0.031 C 
ATOM     61  C   UNL A   1      43.567  28.133  33.219  1.00  0.00     0.034 A 
BRANCH  48  62
ATOM     62  C   UNL A   1      39.258  32.086  35.305  1.00  0.00     0.023 A 
ATOM     63  C   UNL A   1      39.706  33.414  35.422  1.00  0.00     0.031 A 
ATOM     64  C   UNL A   1      38.370  31.605  36.284  1.00  0.00     0.131 A 
ATOM     65  C   UNL A   1      39.340  34.182  36.537  1.00  0.00     0.055 A 
ATOM     66  C   UNL A   1      37.939  32.404  37.344  1.00  0.00     0.041 A 
ATOM     67  F   UNL A   1      37.922  30.340  36.237  1.00  0.00    -0.206 F 
ATOM     68  C   UNL A   1      38.439  33.695  37.487  1.00  0.00     0.022 A 
BRANCH  65  69
ATOM     69  S   UNL A   1      40.183  35.765  36.810  1.00  0.00     0.124 S 
ATOM     70  O   UNL A   1      39.706  36.126  38.143  1.00  0.00    -0.237 OA
ATOM     71  O   UNL A   1      41.590  35.393  36.713  1.00  0.00    -0.237 OA
ATOM     72  O   UNL A   1      39.684  36.610  35.727  1.00  0.00    -0.744 OA
ENDBRANCH  65  69
ENDBRANCH  48  62
BRANCH  49  73
ATOM     73  C   UNL A   1      42.312  26.603  27.487  1.00  0.00     0.023 A 
ATOM     74  C   UNL A   1      42.002  25.242  27.331  1.00  0.00     0.031 A 
ATOM     75  C   UNL A   1      43.140  27.205  26.523  1.00  0.00     0.131 A 
ATOM     76  C   UNL A   1      42.551  24.516  26.263  1.00  0.00     0.055 A 
ATOM     77  C   UNL A   1      43.646  26.490  25.435  1.00  0.00     0.041 A 
ATOM     78  F   UNL A   1      43.460  28.505  26.620  1.00  0.00    -0.206 F 
ATOM     79  C   UNL A   1      43.363  25.133  25.309  1.00  0.00     0.022 A 
BRANCH  76  80
ATOM     80  S   UNL A   1      42.252  22.729  26.183  1.00  0.00     0.124 S 
ATOM     81  O   UNL A   1      42.979  22.253  27.354  1.00  0.00    -0.237 OA
ATOM     82  O   UNL A   1      40.797  22.662  26.260  1.00  0.00    -0.237 OA
ATOM     83  O   UNL A   1      42.825  22.346  24.894  1.00  0.00    -0.744 OA
ENDBRANCH  76  80
ENDBRANCH  49  73
BRANCH  61  84
ATOM     84  C   UNL A   1      44.752  27.548  33.946  1.00  0.00     0.023 A 
ATOM     85  C   UNL A   1      44.643  26.376  34.714  1.00  0.00     0.031 A 
ATOM     86  C   UNL A   1      46.005  28.183  33.878  1.00  0.00     0.131 A 
ATOM     87  C   UNL A   1      45.755  25.905  35.429  1.00  0.00     0.055 A 
ATOM     88  C   UNL A   1      47.121  27.678  34.546  1.00  0.00     0.041 A 
ATOM     89  F   UNL A   1      46.164  29.306  33.160  1.00  0.00    -0.206 F 
ATOM     90  C   UNL A   1      46.996  26.539  35.338  1.00  0.00     0.022 A 
BRANCH  87  91
ATOM     91  S   UNL A   1      45.534  24.499  36.554  1.00  0.00     0.124 S 
ATOM     92  O   UNL A   1      45.832  23.365  35.686  1.00  0.00    -0.237 OA
ATOM     93  O   UNL A   1      46.516  24.778  37.598  1.00  0.00    -0.237 OA
ATOM     94  O   UNL A   1      44.138  24.611  36.973  1.00  0.00    -0.744 OA
ENDBRANCH  87  91
ENDBRANCH  61  84
ENDBRANCH  35  36
ENDBRANCH  27  30
ENDBRANCH  25  26
ENDBRANCH  24  25
ENDBRANCH   1  24
TORSDOF 19
ENDMDL
