MODEL 1
REMARK VINA RESULT:     -10.8      0.000      0.000
REMARK SMILES C[C@@H](NC(=O)NCCC(=O)NC1CC1)C(=O)NCCCCNC(=O)c1ccc(-c2c3nc(c(-c4cc(S(=O)(=O)[O-])ccc4F)c4ccc([nH]4)c(-c4cc(S(=O)(=O)[O-])ccc4F)c4nc(c(-c5cc(S(=O)(=O)[O-])ccc5F)c5ccc2[nH]5)C=C4)C=C3)cc1
REMARK SMILES IDX 18 1 17 2 15 3 16 4 2 6 1 7 3 8 4 9 5 11 6 12 7 14 8 15 9 16
REMARK SMILES IDX 10 17 11 18 12 20 13 21 14 22 19 23 20 24 21 25 22 26 23 27
REMARK SMILES IDX 24 29 25 30 26 31 87 32 27 33 86 34 28 35 29 36 30 37 80 38
REMARK SMILES IDX 31 39 85 40 79 41 81 42 32 43 84 44 78 45 77 46 33 48 65 49
REMARK SMILES IDX 45 50 64 51 46 52 49 53 63 54 82 55 47 56 48 57 62 59 83 60
REMARK SMILES IDX 50 61 34 62 35 63 43 64 36 65 42 66 44 67 41 68 37 69 38 70
REMARK SMILES IDX 39 71 40 72 66 73 67 74 75 75 68 76 74 77 76 78 73 79 69 80
REMARK SMILES IDX 70 81 71 82 72 83 51 84 52 85 60 86 53 87 59 88 61 89 58 90
REMARK SMILES IDX 54 91 55 92 56 93 57 94
REMARK H PARENT 17 5 3 10 6 13 11 19 22 28 81 47 49 58
REMARK Flexibility Score: inf
ROOT
ATOM      1  C   UNL A   1      32.022  25.718  25.879  1.00  0.00     0.116 C 
ENDROOT
BRANCH   1   2
ATOM      2  N   UNL A   1      31.038  24.881  26.534  1.00  0.00    -0.354 N 
ATOM      3  C   UNL A   1      31.130  23.573  26.895  1.00  0.00     0.242 C 
ATOM      4  O   UNL A   1      30.119  23.036  27.361  1.00  0.00    -0.273 OA
ATOM      5  H   UNL A   1      30.183  25.319  26.746  1.00  0.00     0.163 HD
BRANCH   3   6
ATOM      6  C   UNL A   1      32.387  22.728  26.604  1.00  0.00     0.170 C 
ATOM      7  C   UNL A   1      33.212  22.721  27.895  1.00  0.00     0.041 C 
BRANCH   6   8
ATOM      8  N   UNL A   1      32.202  21.351  26.157  1.00  0.00    -0.327 N 
ATOM      9  C   UNL A   1      32.151  20.759  24.965  1.00  0.00     0.315 C 
ATOM     10  H   UNL A   1      32.089  20.719  26.903  1.00  0.00     0.166 HD
ATOM     11  O   UNL A   1      32.154  19.526  24.942  1.00  0.00    -0.249 OA
ATOM     12  N   UNL A   1      32.022  21.398  23.804  1.00  0.00    -0.338 N 
ATOM     13  H   UNL A   1      31.904  20.769  23.056  1.00  0.00     0.165 HD
BRANCH  12  14
ATOM     14  C   UNL A   1      32.009  22.775  23.352  1.00  0.00     0.127 C 
BRANCH  14  15
ATOM     15  C   UNL A   1      33.149  23.116  22.404  1.00  0.00     0.121 C 
BRANCH  15  16
ATOM     16  C   UNL A   1      34.030  24.265  22.839  1.00  0.00     0.221 C 
ATOM     17  O   UNL A   1      33.946  25.362  22.282  1.00  0.00    -0.275 OA
ATOM     18  N   UNL A   1      34.917  24.118  23.870  1.00  0.00    -0.353 N 
ATOM     19  H   UNL A   1      35.288  24.962  24.216  1.00  0.00     0.163 HD
BRANCH  18  20
ATOM     20  C   UNL A   1      35.391  22.946  24.527  1.00  0.00     0.082 C 
ATOM     21  C   UNL A   1      36.739  22.367  24.199  1.00  0.00     0.027 C 
ATOM     22  C   UNL A   1      36.474  22.917  25.566  1.00  0.00     0.027 C 
ENDBRANCH  18  20
ENDBRANCH  15  16
ENDBRANCH  14  15
ENDBRANCH  12  14
ENDBRANCH   6   8
ENDBRANCH   3   6
ENDBRANCH   1   2
BRANCH   1  23
ATOM     23  C   UNL A   1      31.943  27.156  26.372  1.00  0.00     0.023 C 
BRANCH  23  24
ATOM     24  C   UNL A   1      33.281  27.707  26.880  1.00  0.00     0.023 C 
BRANCH  24  25
ATOM     25  C   UNL A   1      33.968  28.685  25.927  1.00  0.00     0.116 C 
BRANCH  25  26
ATOM     26  N   UNL A   1      33.731  30.071  26.305  1.00  0.00    -0.352 N 
ATOM     27  C   UNL A   1      34.323  30.820  27.289  1.00  0.00     0.251 C 
ATOM     28  H   UNL A   1      33.044  30.538  25.777  1.00  0.00     0.163 HD
ATOM     29  O   UNL A   1      33.798  31.880  27.643  1.00  0.00    -0.269 OA
BRANCH  27  30
ATOM     30  C   UNL A   1      35.570  30.358  27.928  1.00  0.00     0.039 A 
ATOM     31  C   UNL A   1      35.514  29.769  29.194  1.00  0.00     0.014 A 
ATOM     32  C   UNL A   1      36.800  30.525  27.286  1.00  0.00     0.014 A 
ATOM     33  C   UNL A   1      36.685  29.284  29.784  1.00  0.00     0.010 A 
ATOM     34  C   UNL A   1      37.952  29.974  27.840  1.00  0.00     0.010 A 
ATOM     35  C   UNL A   1      37.909  29.349  29.096  1.00  0.00    -0.014 A 
BRANCH  35  36
ATOM     36  C   UNL A   1      39.153  28.776  29.674  1.00  0.00     0.031 A 
ATOM     37  C   UNL A   1      39.786  29.409  30.883  1.00  0.00     0.074 A 
ATOM     38  C   UNL A   1      39.744  27.724  29.074  1.00  0.00     0.049 A 
ATOM     39  N   UNL A   1      40.910  29.111  31.481  1.00  0.00    -0.248 NA
ATOM     40  C   UNL A   1      39.070  30.547  31.479  1.00  0.00     0.031 C 
ATOM     41  C   UNL A   1      39.247  27.048  27.872  1.00  0.00     0.029 A 
ATOM     42  N   UNL A   1      40.895  27.043  29.382  1.00  0.00    -0.354 N 
ATOM     43  C   UNL A   1      41.042  30.027  32.520  1.00  0.00     0.074 A 
ATOM     44  C   UNL A   1      39.915  30.932  32.423  1.00  0.00     0.031 C 
ATOM     45  C   UNL A   1      40.076  26.040  27.560  1.00  0.00     0.029 A 
ATOM     46  C   UNL A   1      41.188  26.025  28.505  1.00  0.00     0.049 A 
ATOM     47  H   UNL A   1      41.459  27.264  30.159  1.00  0.00     0.167 HD
ATOM     48  C   UNL A   1      41.997  30.092  33.481  1.00  0.00     0.034 A 
ATOM     49  C   UNL A   1      42.241  25.183  28.457  1.00  0.00     0.034 A 
ATOM     50  C   UNL A   1      43.114  29.181  33.562  1.00  0.00     0.049 A 
ATOM     51  C   UNL A   1      43.309  25.293  29.514  1.00  0.00     0.074 A 
ATOM     52  C   UNL A   1      44.122  29.135  34.511  1.00  0.00     0.029 A 
ATOM     53  N   UNL A   1      43.377  28.159  32.658  1.00  0.00    -0.354 N 
ATOM     54  N   UNL A   1      43.399  26.143  30.513  1.00  0.00    -0.248 NA
ATOM     55  C   UNL A   1      44.409  24.324  29.447  1.00  0.00     0.031 C 
ATOM     56  C   UNL A   1      45.026  28.131  34.143  1.00  0.00     0.029 A 
ATOM     57  C   UNL A   1      44.541  27.495  33.011  1.00  0.00     0.049 A 
ATOM     58  H   UNL A   1      42.816  27.939  31.878  1.00  0.00     0.167 HD
ATOM     59  C   UNL A   1      44.553  25.788  31.207  1.00  0.00     0.074 A 
ATOM     60  C   UNL A   1      45.113  24.640  30.524  1.00  0.00     0.031 C 
ATOM     61  C   UNL A   1      45.097  26.358  32.313  1.00  0.00     0.034 A 
BRANCH  48  62
ATOM     62  C   UNL A   1      41.879  31.198  34.502  1.00  0.00     0.023 A 
ATOM     63  C   UNL A   1      40.862  31.198  35.474  1.00  0.00     0.031 A 
ATOM     64  C   UNL A   1      42.772  32.284  34.491  1.00  0.00     0.131 A 
ATOM     65  C   UNL A   1      40.713  32.293  36.337  1.00  0.00     0.055 A 
ATOM     66  C   UNL A   1      42.672  33.331  35.410  1.00  0.00     0.041 A 
ATOM     67  F   UNL A   1      43.753  32.354  33.576  1.00  0.00    -0.206 F 
ATOM     68  C   UNL A   1      41.628  33.347  36.331  1.00  0.00     0.022 A 
BRANCH  65  69
ATOM     69  S   UNL A   1      39.223  32.388  37.366  1.00  0.00     0.124 S 
ATOM     70  O   UNL A   1      39.795  32.429  38.710  1.00  0.00    -0.237 OA
ATOM     71  O   UNL A   1      38.596  33.620  36.901  1.00  0.00    -0.237 OA
ATOM     72  O   UNL A   1      38.503  31.159  37.041  1.00  0.00    -0.744 OA
ENDBRANCH  65  69
ENDBRANCH  48  62
BRANCH  49  73
ATOM     73  C   UNL A   1      42.347  24.173  27.364  1.00  0.00     0.023 A 
ATOM     74  C   UNL A   1      41.607  22.982  27.402  1.00  0.00     0.031 A 
ATOM     75  C   UNL A   1      43.221  24.372  26.280  1.00  0.00     0.131 A 
ATOM     76  C   UNL A   1      41.785  22.015  26.399  1.00  0.00     0.055 A 
ATOM     77  C   UNL A   1      43.354  23.432  25.257  1.00  0.00     0.041 A 
ATOM     78  F   UNL A   1      43.949  25.497  26.191  1.00  0.00    -0.206 F 
ATOM     79  C   UNL A   1      42.643  22.239  25.320  1.00  0.00     0.022 A 
BRANCH  76  80
ATOM     80  S   UNL A   1      40.935  20.422  26.569  1.00  0.00     0.124 S 
ATOM     81  O   UNL A   1      41.897  19.506  25.966  1.00  0.00    -0.237 OA
ATOM     82  O   UNL A   1      40.770  20.319  28.016  1.00  0.00    -0.237 OA
ATOM     83  O   UNL A   1      39.698  20.614  25.815  1.00  0.00    -0.744 OA
ENDBRANCH  76  80
ENDBRANCH  49  73
BRANCH  61  84
ATOM     84  C   UNL A   1      46.341  25.714  32.876  1.00  0.00     0.023 A 
ATOM     85  C   UNL A   1      46.277  24.683  33.829  1.00  0.00     0.031 A 
ATOM     86  C   UNL A   1      47.611  26.150  32.457  1.00  0.00     0.131 A 
ATOM     87  C   UNL A   1      47.460  24.159  34.373  1.00  0.00     0.055 A 
ATOM     88  C   UNL A   1      48.785  25.583  32.956  1.00  0.00     0.041 A 
ATOM     89  F   UNL A   1      47.732  27.134  31.552  1.00  0.00    -0.206 F 
ATOM     90  C   UNL A   1      48.713  24.591  33.929  1.00  0.00     0.022 A 
BRANCH  87  91
ATOM     91  S   UNL A   1      47.341  22.972  35.738  1.00  0.00     0.124 S 
ATOM     92  O   UNL A   1      45.897  22.852  35.912  1.00  0.00    -0.237 OA
ATOM     93  O   UNL A   1      48.017  21.798  35.192  1.00  0.00    -0.237 OA
ATOM     94  O   UNL A   1      48.045  23.637  36.834  1.00  0.00    -0.744 OA
ENDBRANCH  87  91
ENDBRANCH  61  84
ENDBRANCH  35  36
ENDBRANCH  27  30
ENDBRANCH  25  26
ENDBRANCH  24  25
ENDBRANCH  23  24
ENDBRANCH   1  23
TORSDOF 19
ENDMDL
MODEL 2
REMARK VINA RESULT:     -10.7      3.395      8.868
REMARK SMILES C[C@@H](NC(=O)NCCC(=O)NC1CC1)C(=O)NCCCCNC(=O)c1ccc(-c2c3nc(c(-c4cc(S(=O)(=O)[O-])ccc4F)c4ccc([nH]4)c(-c4cc(S(=O)(=O)[O-])ccc4F)c4nc(c(-c5cc(S(=O)(=O)[O-])ccc5F)c5ccc2[nH]5)C=C4)C=C3)cc1
REMARK SMILES IDX 18 1 17 2 15 3 16 4 2 6 1 7 3 8 4 9 5 11 6 12 7 14 8 15 9 16
REMARK SMILES IDX 10 17 11 18 12 20 13 21 14 22 19 23 20 24 21 25 22 26 23 27
REMARK SMILES IDX 24 29 25 30 26 31 87 32 27 33 86 34 28 35 29 36 30 37 80 38
REMARK SMILES IDX 31 39 85 40 79 41 81 42 32 43 84 44 78 45 77 46 33 48 65 49
REMARK SMILES IDX 45 50 64 51 46 52 49 53 63 54 82 55 47 56 48 57 62 59 83 60
REMARK SMILES IDX 50 61 34 62 35 63 43 64 36 65 42 66 44 67 41 68 37 69 38 70
REMARK SMILES IDX 39 71 40 72 66 73 67 74 75 75 68 76 74 77 76 78 73 79 69 80
REMARK SMILES IDX 70 81 71 82 72 83 51 84 52 85 60 86 53 87 59 88 61 89 58 90
REMARK SMILES IDX 54 91 55 92 56 93 57 94
REMARK H PARENT 17 5 3 10 6 13 11 19 22 28 81 47 49 58
REMARK Flexibility Score: inf
ROOT
ATOM      1  C   UNL A   1      31.976  29.922  25.153  1.00  0.00     0.116 C 
ENDROOT
BRANCH   1   2
ATOM      2  N   UNL A   1      30.863  29.983  24.228  1.00  0.00    -0.354 N 
ATOM      3  C   UNL A   1      30.242  28.970  23.567  1.00  0.00     0.242 C 
ATOM      4  O   UNL A   1      29.366  29.273  22.749  1.00  0.00    -0.273 OA
ATOM      5  H   UNL A   1      30.508  30.884  24.053  1.00  0.00     0.163 HD
BRANCH   3   6
ATOM      6  C   UNL A   1      30.696  27.503  23.701  1.00  0.00     0.170 C 
ATOM      7  C   UNL A   1      29.490  26.723  24.238  1.00  0.00     0.041 C 
BRANCH   6   8
ATOM      8  N   UNL A   1      31.200  26.827  22.510  1.00  0.00    -0.327 N 
ATOM      9  C   UNL A   1      32.298  26.126  22.233  1.00  0.00     0.315 C 
ATOM     10  H   UNL A   1      30.593  26.907  21.739  1.00  0.00     0.166 HD
ATOM     11  O   UNL A   1      32.336  25.534  21.152  1.00  0.00    -0.249 OA
ATOM     12  N   UNL A   1      33.384  26.079  23.001  1.00  0.00    -0.338 N 
ATOM     13  H   UNL A   1      34.116  25.587  22.565  1.00  0.00     0.165 HD
BRANCH  12  14
ATOM     14  C   UNL A   1      33.773  26.564  24.311  1.00  0.00     0.127 C 
BRANCH  14  15
ATOM     15  C   UNL A   1      33.548  25.554  25.426  1.00  0.00     0.121 C 
BRANCH  15  16
ATOM     16  C   UNL A   1      32.448  25.902  26.402  1.00  0.00     0.221 C 
ATOM     17  O   UNL A   1      32.344  27.049  26.842  1.00  0.00    -0.275 OA
ATOM     18  N   UNL A   1      31.535  24.962  26.796  1.00  0.00    -0.353 N 
ATOM     19  H   UNL A   1      30.745  25.325  27.258  1.00  0.00     0.163 HD
BRANCH  18  20
ATOM     20  C   UNL A   1      31.539  23.545  26.646  1.00  0.00     0.082 C 
ATOM     21  C   UNL A   1      30.255  22.763  26.662  1.00  0.00     0.027 C 
ATOM     22  C   UNL A   1      31.089  22.805  25.420  1.00  0.00     0.027 C 
ENDBRANCH  18  20
ENDBRANCH  15  16
ENDBRANCH  14  15
ENDBRANCH  12  14
ENDBRANCH   6   8
ENDBRANCH   3   6
ENDBRANCH   1   2
BRANCH   1  23
ATOM     23  C   UNL A   1      31.566  30.379  26.546  1.00  0.00     0.023 C 
BRANCH  23  24
ATOM     24  C   UNL A   1      31.561  31.902  26.717  1.00  0.00     0.023 C 
BRANCH  24  25
ATOM     25  C   UNL A   1      32.825  32.474  27.359  1.00  0.00     0.116 C 
BRANCH  25  26
ATOM     26  N   UNL A   1      32.694  33.896  27.647  1.00  0.00    -0.352 N 
ATOM     27  C   UNL A   1      33.275  34.641  28.640  1.00  0.00     0.251 C 
ATOM     28  H   UNL A   1      32.100  34.394  27.040  1.00  0.00     0.163 HD
ATOM     29  O   UNL A   1      32.830  35.764  28.896  1.00  0.00    -0.269 OA
BRANCH  27  30
ATOM     30  C   UNL A   1      34.416  34.103  29.405  1.00  0.00     0.039 A 
ATOM     31  C   UNL A   1      34.175  33.275  30.505  1.00  0.00     0.014 A 
ATOM     32  C   UNL A   1      35.728  34.431  29.050  1.00  0.00     0.014 A 
ATOM     33  C   UNL A   1      35.251  32.721  31.204  1.00  0.00     0.010 A 
ATOM     34  C   UNL A   1      36.796  33.818  29.697  1.00  0.00     0.010 A 
ATOM     35  C   UNL A   1      36.571  32.958  30.783  1.00  0.00    -0.014 A 
BRANCH  35  36
ATOM     36  C   UNL A   1      37.727  32.322  31.468  1.00  0.00     0.031 A 
ATOM     37  C   UNL A   1      38.464  31.187  30.810  1.00  0.00     0.074 A 
ATOM     38  C   UNL A   1      38.074  32.726  32.706  1.00  0.00     0.049 A 
ATOM     39  N   UNL A   1      39.438  30.450  31.278  1.00  0.00    -0.248 NA
ATOM     40  C   UNL A   1      38.025  30.817  29.456  1.00  0.00     0.031 C 
ATOM     41  C   UNL A   1      37.410  33.790  33.465  1.00  0.00     0.029 A 
ATOM     42  N   UNL A   1      39.061  32.285  33.552  1.00  0.00    -0.354 N 
ATOM     43  C   UNL A   1      39.726  29.523  30.281  1.00  0.00     0.074 A 
ATOM     44  C   UNL A   1      38.775  29.752  29.213  1.00  0.00     0.031 C 
ATOM     45  C   UNL A   1      38.021  33.931  34.651  1.00  0.00     0.029 A 
ATOM     46  C   UNL A   1      39.087  32.940  34.762  1.00  0.00     0.049 A 
ATOM     47  H   UNL A   1      39.692  31.567  33.315  1.00  0.00     0.167 HD
ATOM     48  C   UNL A   1      40.708  28.588  30.246  1.00  0.00     0.034 A 
ATOM     49  C   UNL A   1      39.869  32.754  35.844  1.00  0.00     0.034 A 
ATOM     50  C   UNL A   1      41.648  28.374  31.320  1.00  0.00     0.049 A 
ATOM     51  C   UNL A   1      40.932  31.688  35.798  1.00  0.00     0.074 A 
ATOM     52  C   UNL A   1      42.701  27.478  31.379  1.00  0.00     0.029 A 
ATOM     53  N   UNL A   1      41.645  29.060  32.530  1.00  0.00    -0.354 N 
ATOM     54  N   UNL A   1      41.216  30.844  34.832  1.00  0.00    -0.248 NA
ATOM     55  C   UNL A   1      41.789  31.556  36.982  1.00  0.00     0.031 C 
ATOM     56  C   UNL A   1      43.292  27.575  32.644  1.00  0.00     0.029 A 
ATOM     57  C   UNL A   1      42.661  28.589  33.348  1.00  0.00     0.049 A 
ATOM     58  H   UNL A   1      41.013  29.776  32.771  1.00  0.00     0.167 HD
ATOM     59  C   UNL A   1      42.303  30.102  35.284  1.00  0.00     0.074 A 
ATOM     60  C   UNL A   1      42.634  30.609  36.601  1.00  0.00     0.031 C 
ATOM     61  C   UNL A   1      42.972  29.095  34.665  1.00  0.00     0.034 A 
BRANCH  48  62
ATOM     62  C   UNL A   1      40.793  27.719  29.014  1.00  0.00     0.023 A 
ATOM     63  C   UNL A   1      41.742  27.964  28.004  1.00  0.00     0.031 A 
ATOM     64  C   UNL A   1      39.900  26.649  28.827  1.00  0.00     0.131 A 
ATOM     65  C   UNL A   1      41.724  27.207  26.824  1.00  0.00     0.055 A 
ATOM     66  C   UNL A   1      39.944  25.842  27.688  1.00  0.00     0.041 A 
ATOM     67  F   UNL A   1      38.959  26.375  29.744  1.00  0.00    -0.206 F 
ATOM     68  C   UNL A   1      40.849  26.130  26.670  1.00  0.00     0.022 A 
BRANCH  65  69
ATOM     69  S   UNL A   1      42.759  27.744  25.436  1.00  0.00     0.124 S 
ATOM     70  O   UNL A   1      41.908  28.750  24.806  1.00  0.00    -0.237 OA
ATOM     71  O   UNL A   1      43.953  28.245  26.107  1.00  0.00    -0.237 OA
ATOM     72  O   UNL A   1      42.948  26.522  24.656  1.00  0.00    -0.744 OA
ENDBRANCH  65  69
ENDBRANCH  48  62
BRANCH  49  73
ATOM     73  C   UNL A   1      39.670  33.584  37.068  1.00  0.00     0.023 A 
ATOM     74  C   UNL A   1      39.118  33.034  38.235  1.00  0.00     0.031 A 
ATOM     75  C   UNL A   1      39.999  34.951  37.075  1.00  0.00     0.131 A 
ATOM     76  C   UNL A   1      38.871  33.856  39.347  1.00  0.00     0.055 A 
ATOM     77  C   UNL A   1      39.802  35.752  38.201  1.00  0.00     0.041 A 
ATOM     78  F   UNL A   1      40.535  35.527  35.987  1.00  0.00    -0.206 F 
ATOM     79  C   UNL A   1      39.222  35.207  39.342  1.00  0.00     0.022 A 
BRANCH  76  80
ATOM     80  S   UNL A   1      38.007  33.147  40.775  1.00  0.00     0.124 S 
ATOM     81  O   UNL A   1      36.612  33.276  40.374  1.00  0.00    -0.237 OA
ATOM     82  O   UNL A   1      38.543  31.790  40.811  1.00  0.00    -0.237 OA
ATOM     83  O   UNL A   1      38.421  34.006  41.883  1.00  0.00    -0.744 OA
ENDBRANCH  76  80
ENDBRANCH  49  73
BRANCH  61  84
ATOM     84  C   UNL A   1      44.158  28.509  35.393  1.00  0.00     0.023 A 
ATOM     85  C   UNL A   1      44.015  27.475  36.334  1.00  0.00     0.031 A 
ATOM     86  C   UNL A   1      45.452  29.004  35.144  1.00  0.00     0.131 A 
ATOM     87  C   UNL A   1      45.138  27.006  37.034  1.00  0.00     0.055 A 
ATOM     88  C   UNL A   1      46.573  28.491  35.798  1.00  0.00     0.041 A 
ATOM     89  F   UNL A   1      45.647  29.993  34.259  1.00  0.00    -0.206 F 
ATOM     90  C   UNL A   1      46.418  27.496  36.759  1.00  0.00     0.022 A 
BRANCH  87  91
ATOM     91  S   UNL A   1      44.893  25.813  38.377  1.00  0.00     0.124 S 
ATOM     92  O   UNL A   1      46.259  25.596  38.844  1.00  0.00    -0.237 OA
ATOM     93  O   UNL A   1      44.017  26.544  39.288  1.00  0.00    -0.237 OA
ATOM     94  O   UNL A   1      44.276  24.668  37.710  1.00  0.00    -0.744 OA
ENDBRANCH  87  91
ENDBRANCH  61  84
ENDBRANCH  35  36
ENDBRANCH  27  30
ENDBRANCH  25  26
ENDBRANCH  24  25
ENDBRANCH  23  24
ENDBRANCH   1  23
TORSDOF 19
ENDMDL
MODEL 3
REMARK VINA RESULT:     -10.4      2.053      3.049
REMARK SMILES C[C@@H](NC(=O)NCCC(=O)NC1CC1)C(=O)NCCCCNC(=O)c1ccc(-c2c3nc(c(-c4cc(S(=O)(=O)[O-])ccc4F)c4ccc([nH]4)c(-c4cc(S(=O)(=O)[O-])ccc4F)c4nc(c(-c5cc(S(=O)(=O)[O-])ccc5F)c5ccc2[nH]5)C=C4)C=C3)cc1
REMARK SMILES IDX 18 1 17 2 15 3 16 4 2 6 1 7 3 8 4 9 5 11 6 12 7 14 8 15 9 16
REMARK SMILES IDX 10 17 11 18 12 20 13 21 14 22 19 23 20 24 21 25 22 26 23 27
REMARK SMILES IDX 24 29 25 30 26 31 87 32 27 33 86 34 28 35 29 36 30 37 80 38
REMARK SMILES IDX 31 39 85 40 79 41 81 42 32 43 84 44 78 45 77 46 33 48 65 49
REMARK SMILES IDX 45 50 64 51 46 52 49 53 63 54 82 55 47 56 48 57 62 59 83 60
REMARK SMILES IDX 50 61 34 62 35 63 43 64 36 65 42 66 44 67 41 68 37 69 38 70
REMARK SMILES IDX 39 71 40 72 66 73 67 74 75 75 68 76 74 77 76 78 73 79 69 80
REMARK SMILES IDX 70 81 71 82 72 83 51 84 52 85 60 86 53 87 59 88 61 89 58 90
REMARK SMILES IDX 54 91 55 92 56 93 57 94
REMARK H PARENT 17 5 3 10 6 13 11 19 22 28 81 47 49 58
REMARK Flexibility Score: inf
ROOT
ATOM      1  C   UNL A   1      33.285  27.609  24.451  1.00  0.00     0.116 C 
ENDROOT
BRANCH   1   2
ATOM      2  N   UNL A   1      33.402  26.760  23.283  1.00  0.00    -0.354 N 
ATOM      3  C   UNL A   1      33.470  25.404  23.213  1.00  0.00     0.242 C 
ATOM      4  O   UNL A   1      33.663  24.897  22.103  1.00  0.00    -0.273 OA
ATOM      5  H   UNL A   1      33.438  27.231  22.419  1.00  0.00     0.163 HD
BRANCH   3   6
ATOM      6  C   UNL A   1      33.463  24.516  24.475  1.00  0.00     0.170 C 
ATOM      7  C   UNL A   1      34.793  24.774  25.193  1.00  0.00     0.041 C 
BRANCH   6   8
ATOM      8  N   UNL A   1      32.373  24.687  25.429  1.00  0.00    -0.327 N 
ATOM      9  C   UNL A   1      31.645  23.852  26.168  1.00  0.00     0.315 C 
ATOM     10  H   UNL A   1      32.118  25.629  25.554  1.00  0.00     0.166 HD
ATOM     11  O   UNL A   1      30.901  24.346  27.018  1.00  0.00    -0.249 OA
ATOM     12  N   UNL A   1      31.606  22.531  26.007  1.00  0.00    -0.338 N 
ATOM     13  H   UNL A   1      30.930  22.115  26.589  1.00  0.00     0.165 HD
BRANCH  12  14
ATOM     14  C   UNL A   1      32.295  21.545  25.200  1.00  0.00     0.127 C 
BRANCH  14  15
ATOM     15  C   UNL A   1      33.276  20.689  25.987  1.00  0.00     0.121 C 
BRANCH  15  16
ATOM     16  C   UNL A   1      34.247  21.454  26.859  1.00  0.00     0.221 C 
ATOM     17  O   UNL A   1      33.870  21.958  27.919  1.00  0.00    -0.275 OA
ATOM     18  N   UNL A   1      35.561  21.581  26.501  1.00  0.00    -0.353 N 
ATOM     19  H   UNL A   1      36.152  21.906  27.218  1.00  0.00     0.163 HD
BRANCH  18  20
ATOM     20  C   UNL A   1      36.216  21.319  25.263  1.00  0.00     0.082 C 
ATOM     21  C   UNL A   1      37.716  21.266  25.178  1.00  0.00     0.027 C 
ATOM     22  C   UNL A   1      36.907  20.035  24.907  1.00  0.00     0.027 C 
ENDBRANCH  18  20
ENDBRANCH  15  16
ENDBRANCH  14  15
ENDBRANCH  12  14
ENDBRANCH   6   8
ENDBRANCH   3   6
ENDBRANCH   1   2
BRANCH   1  23
ATOM     23  C   UNL A   1      32.651  28.949  24.102  1.00  0.00     0.023 C 
BRANCH  23  24
ATOM     24  C   UNL A   1      31.678  29.466  25.168  1.00  0.00     0.023 C 
BRANCH  24  25
ATOM     25  C   UNL A   1      32.344  29.919  26.468  1.00  0.00     0.116 C 
BRANCH  25  26
ATOM     26  N   UNL A   1      32.341  31.370  26.603  1.00  0.00    -0.352 N 
ATOM     27  C   UNL A   1      33.139  32.175  27.373  1.00  0.00     0.251 C 
ATOM     28  H   UNL A   1      31.666  31.840  26.062  1.00  0.00     0.163 HD
ATOM     29  O   UNL A   1      32.807  33.348  27.571  1.00  0.00    -0.269 OA
BRANCH  27  30
ATOM     30  C   UNL A   1      34.379  31.643  27.971  1.00  0.00     0.039 A 
ATOM     31  C   UNL A   1      35.478  32.490  28.139  1.00  0.00     0.014 A 
ATOM     32  C   UNL A   1      34.465  30.300  28.349  1.00  0.00     0.014 A 
ATOM     33  C   UNL A   1      36.638  32.006  28.749  1.00  0.00     0.010 A 
ATOM     34  C   UNL A   1      35.591  29.841  29.026  1.00  0.00     0.010 A 
ATOM     35  C   UNL A   1      36.691  30.687  29.232  1.00  0.00    -0.014 A 
BRANCH  35  36
ATOM     36  C   UNL A   1      37.889  30.173  29.949  1.00  0.00     0.031 A 
ATOM     37  C   UNL A   1      38.188  30.637  31.348  1.00  0.00     0.074 A 
ATOM     38  C   UNL A   1      38.736  29.338  29.317  1.00  0.00     0.049 A 
ATOM     39  N   UNL A   1      39.222  30.374  32.105  1.00  0.00    -0.248 NA
ATOM     40  C   UNL A   1      37.206  31.542  31.965  1.00  0.00     0.031 C 
ATOM     41  C   UNL A   1      38.574  28.848  27.945  1.00  0.00     0.029 A 
ATOM     42  N   UNL A   1      39.909  28.760  29.737  1.00  0.00    -0.354 N 
ATOM     43  C   UNL A   1      39.020  31.082  33.285  1.00  0.00     0.074 A 
ATOM     44  C   UNL A   1      37.798  31.841  33.111  1.00  0.00     0.031 C 
ATOM     45  C   UNL A   1      39.596  28.031  27.647  1.00  0.00     0.029 A 
ATOM     46  C   UNL A   1      40.511  27.973  28.782  1.00  0.00     0.049 A 
ATOM     47  H   UNL A   1      40.283  28.896  30.637  1.00  0.00     0.167 HD
ATOM     48  C   UNL A   1      39.767  31.081  34.417  1.00  0.00     0.034 A 
ATOM     49  C   UNL A   1      41.675  27.295  28.812  1.00  0.00     0.034 A 
ATOM     50  C   UNL A   1      40.983  30.318  34.573  1.00  0.00     0.049 A 
ATOM     51  C   UNL A   1      42.508  27.332  30.067  1.00  0.00     0.074 A 
ATOM     52  C   UNL A   1      41.801  30.217  35.685  1.00  0.00     0.029 A 
ATOM     53  N   UNL A   1      41.561  29.529  33.585  1.00  0.00    -0.354 N 
ATOM     54  N   UNL A   1      42.284  27.980  31.188  1.00  0.00    -0.248 NA
ATOM     55  C   UNL A   1      43.743  26.539  30.067  1.00  0.00     0.031 C 
ATOM     56  C   UNL A   1      42.904  29.423  35.349  1.00  0.00     0.029 A 
ATOM     57  C   UNL A   1      42.735  28.960  34.054  1.00  0.00     0.049 A 
ATOM     58  H   UNL A   1      41.190  29.394  32.682  1.00  0.00     0.167 HD
ATOM     59  C   UNL A   1      43.338  27.646  32.035  1.00  0.00     0.074 A 
ATOM     60  C   UNL A   1      44.186  26.729  31.301  1.00  0.00     0.031 C 
ATOM     61  C   UNL A   1      43.579  28.057  33.306  1.00  0.00     0.034 A 
BRANCH  48  62
ATOM     62  C   UNL A   1      39.295  31.947  35.560  1.00  0.00     0.023 A 
ATOM     63  C   UNL A   1      38.638  31.400  36.677  1.00  0.00     0.031 A 
ATOM     64  C   UNL A   1      39.475  33.342  35.525  1.00  0.00     0.131 A 
ATOM     65  C   UNL A   1      38.116  32.242  37.669  1.00  0.00     0.055 A 
ATOM     66  C   UNL A   1      39.029  34.169  36.559  1.00  0.00     0.041 A 
ATOM     67  F   UNL A   1      40.076  33.928  34.478  1.00  0.00    -0.206 F 
ATOM     68  C   UNL A   1      38.330  33.621  37.632  1.00  0.00     0.022 A 
BRANCH  65  69
ATOM     69  S   UNL A   1      37.027  31.525  38.928  1.00  0.00     0.124 S 
ATOM     70  O   UNL A   1      36.839  30.169  38.417  1.00  0.00    -0.237 OA
ATOM     71  O   UNL A   1      37.825  31.645  40.143  1.00  0.00    -0.237 OA
ATOM     72  O   UNL A   1      35.837  32.373  38.876  1.00  0.00    -0.744 OA
ENDBRANCH  65  69
ENDBRANCH  48  62
BRANCH  49  73
ATOM     73  C   UNL A   1      42.134  26.534  27.613  1.00  0.00     0.023 A 
ATOM     74  C   UNL A   1      41.872  25.162  27.480  1.00  0.00     0.031 A 
ATOM     75  C   UNL A   1      42.871  27.166  26.595  1.00  0.00     0.131 A 
ATOM     76  C   UNL A   1      42.381  24.455  26.379  1.00  0.00     0.055 A 
ATOM     77  C   UNL A   1      43.329  26.470  25.475  1.00  0.00     0.041 A 
ATOM     78  F   UNL A   1      43.145  28.478  26.669  1.00  0.00    -0.206 F 
ATOM     79  C   UNL A   1      43.096  25.103  25.369  1.00  0.00     0.022 A 
BRANCH  76  80
ATOM     80  S   UNL A   1      42.164  22.655  26.325  1.00  0.00     0.124 S 
ATOM     81  O   UNL A   1      42.992  22.222  27.444  1.00  0.00    -0.237 OA
ATOM     82  O   UNL A   1      40.721  22.520  26.503  1.00  0.00    -0.237 OA
ATOM     83  O   UNL A   1      42.663  22.292  25.001  1.00  0.00    -0.744 OA
ENDBRANCH  76  80
ENDBRANCH  49  73
BRANCH  61  84
ATOM     84  C   UNL A   1      44.791  27.477  33.997  1.00  0.00     0.023 A 
ATOM     85  C   UNL A   1      44.724  26.284  34.737  1.00  0.00     0.031 A 
ATOM     86  C   UNL A   1      46.030  28.139  33.919  1.00  0.00     0.131 A 
ATOM     87  C   UNL A   1      45.860  25.818  35.416  1.00  0.00     0.055 A 
ATOM     88  C   UNL A   1      47.171  27.637  34.546  1.00  0.00     0.041 A 
ATOM     89  F   UNL A   1      46.151  29.283  33.229  1.00  0.00    -0.206 F 
ATOM     90  C   UNL A   1      47.087  26.478  35.311  1.00  0.00     0.022 A 
BRANCH  87  91
ATOM     91  S   UNL A   1      45.691  24.388  36.518  1.00  0.00     0.124 S 
ATOM     92  O   UNL A   1      46.651  24.701  37.572  1.00  0.00    -0.237 OA
ATOM     93  O   UNL A   1      44.283  24.451  36.899  1.00  0.00    -0.237 OA
ATOM     94  O   UNL A   1      46.052  23.254  35.668  1.00  0.00    -0.744 OA
ENDBRANCH  87  91
ENDBRANCH  61  84
ENDBRANCH  35  36
ENDBRANCH  27  30
ENDBRANCH  25  26
ENDBRANCH  24  25
ENDBRANCH  23  24
ENDBRANCH   1  23
TORSDOF 19
ENDMDL
