MODEL 1
REMARK VINA RESULT:     -12.5      0.000      0.000
REMARK SMILES CCc1cc(S(F)(F)(F)(F)F)cc2c1O[C@@H](C(F)(F)F)C(C(=O)NCCCCNC(=O)c1ccc(-c3c4nc(c(-c5cc(S(=O)(=O)[O-])ccc5F)c5ccc([nH]5)c(-c5cc(S(=O)(=O)[O-])ccc5F)c5nc(c(-c6cc(S(=O)(=O)[O-])ccc6F)c6ccc3[nH]6)C=C5)C=C4)cc1)=C2
REMARK SMILES IDX 27 1 26 2 25 3 24 4 22 5 23 6 21 8 3 9 4 10 14 11 5 12 13 13
REMARK SMILES IDX 15 14 12 15 95 16 16 17 2 18 1 19 6 20 7 21 8 22 9 23 10 24
REMARK SMILES IDX 11 25 17 26 18 27 19 28 20 29 28 30 29 31 30 32 31 34 32 35
REMARK SMILES IDX 33 36 94 37 34 38 93 39 35 40 36 41 37 42 87 43 38 44 92 45
REMARK SMILES IDX 86 46 88 47 39 48 91 49 85 50 84 51 40 53 72 54 52 55 71 56
REMARK SMILES IDX 53 57 56 58 70 59 89 60 54 61 55 62 69 64 90 65 57 66 41 67
REMARK SMILES IDX 42 68 50 69 43 70 49 71 51 72 48 73 44 74 45 75 46 76 47 77
REMARK SMILES IDX 73 78 74 79 82 80 75 81 81 82 83 83 80 84 76 85 77 86 78 87
REMARK SMILES IDX 79 88 58 89 59 90 67 91 60 92 66 93 68 94 65 95 61 96 62 97
REMARK SMILES IDX 63 98 64 99
REMARK H PARENT 24 7 29 33 88 52 56 63
REMARK Flexibility Score: inf
ROOT
ATOM      1  C   UNL A   1      31.717  31.345  26.528  1.00  0.00     0.023 C 
ENDROOT
BRANCH   1   2
ATOM      2  C   UNL A   1      31.896  29.892  26.939  1.00  0.00     0.023 C 
BRANCH   2   3
ATOM      3  C   UNL A   1      32.686  29.157  25.868  1.00  0.00     0.116 C 
BRANCH   3   4
ATOM      4  N   UNL A   1      32.331  29.690  24.545  1.00  0.00    -0.352 N 
ATOM      5  C   UNL A   1      32.141  28.775  23.410  1.00  0.00     0.251 C 
ATOM      6  O   UNL A   1      31.833  29.236  22.267  1.00  0.00    -0.270 OA
ATOM      7  H   UNL A   1      32.220  30.660  24.418  1.00  0.00     0.163 HD
BRANCH   5   8
ATOM      8  C   UNL A   1      32.311  27.277  23.605  1.00  0.00     0.067 C 
ATOM      9  C   UNL A   1      32.608  23.235  24.615  1.00  0.00    -0.004 A 
ATOM     10  C   UNL A   1      33.852  22.634  24.698  1.00  0.00     0.032 A 
ATOM     11  C   UNL A   1      32.542  24.578  24.334  1.00  0.00     0.131 A 
ATOM     12  C   UNL A   1      34.999  23.359  24.508  1.00  0.00     0.108 A 
ATOM     13  C   UNL A   1      33.678  25.337  24.117  1.00  0.00     0.019 A 
ATOM     14  O   UNL A   1      31.310  25.183  24.366  1.00  0.00    -0.475 OA
ATOM     15  C   UNL A   1      34.912  24.704  24.213  1.00  0.00     0.036 A 
ATOM     16  C   UNL A   1      33.505  26.758  23.865  1.00  0.00     0.025 C 
ATOM     17  C   UNL A   1      31.115  26.340  23.504  1.00  0.00     0.314 C 
BRANCH   9  18
ATOM     18  C   UNL A   1      31.311  22.443  24.637  1.00  0.00     0.036 C 
ATOM     19  C   UNL A   1      30.776  22.389  26.059  1.00  0.00     0.009 C 
ENDBRANCH   9  18
BRANCH  12  20
ATOM     20  S   UNL A   1      36.616  22.558  24.644  1.00  0.00     0.310 S 
ATOM     21  F   UNL A   1      37.520  23.850  24.470  1.00  0.00    -0.094 F 
ATOM     22  F   UNL A   1      36.691  22.380  23.080  1.00  0.00    -0.094 F 
ATOM     23  F   UNL A   1      37.926  21.741  24.828  1.00  0.00    -0.094 F 
ATOM     24  F   UNL A   1      36.601  22.867  26.193  1.00  0.00    -0.094 F 
ATOM     25  F   UNL A   1      35.348  23.485  24.461  1.00  0.00    -0.094 F 
ENDBRANCH  12  20
BRANCH  17  26
ATOM     26  C   UNL A   1      29.865  27.081  23.945  1.00  0.00     0.429 C 
ATOM     27  F   UNL A   1      30.136  27.805  25.027  1.00  0.00    -0.167 F 
ATOM     28  F   UNL A   1      29.456  27.884  22.966  1.00  0.00    -0.167 F 
ATOM     29  F   UNL A   1      28.905  26.205  24.228  1.00  0.00    -0.167 F 
ENDBRANCH  17  26
ENDBRANCH   5   8
ENDBRANCH   3   4
ENDBRANCH   2   3
ENDBRANCH   1   2
BRANCH   1  30
ATOM     30  C   UNL A   1      32.922  32.153  26.982  1.00  0.00     0.116 C 
BRANCH  30  31
ATOM     31  N   UNL A   1      32.483  33.491  27.404  1.00  0.00    -0.352 N 
ATOM     32  C   UNL A   1      33.239  34.221  28.432  1.00  0.00     0.251 C 
ATOM     33  H   UNL A   1      31.684  33.897  26.998  1.00  0.00     0.163 HD
ATOM     34  O   UNL A   1      32.859  35.378  28.797  1.00  0.00    -0.269 OA
BRANCH  32  35
ATOM     35  C   UNL A   1      34.473  33.593  29.059  1.00  0.00     0.039 A 
ATOM     36  C   UNL A   1      35.724  34.097  28.744  1.00  0.00     0.014 A 
ATOM     37  C   UNL A   1      34.331  32.576  29.900  1.00  0.00     0.014 A 
ATOM     38  C   UNL A   1      36.795  33.266  29.151  1.00  0.00     0.010 A 
ATOM     39  C   UNL A   1      35.430  31.893  30.365  1.00  0.00     0.010 A 
ATOM     40  C   UNL A   1      36.696  32.300  30.046  1.00  0.00    -0.014 A 
BRANCH  40  41
ATOM     41  C   UNL A   1      37.923  31.674  30.688  1.00  0.00     0.031 A 
ATOM     42  C   UNL A   1      38.319  32.097  31.959  1.00  0.00     0.074 A 
ATOM     43  C   UNL A   1      38.566  30.683  29.967  1.00  0.00     0.049 A 
ATOM     44  N   UNL A   1      39.323  31.624  32.697  1.00  0.00    -0.248 NA
ATOM     45  C   UNL A   1      37.658  33.173  32.713  1.00  0.00     0.031 C 
ATOM     46  C   UNL A   1      38.168  30.245  28.689  1.00  0.00     0.029 A 
ATOM     47  N   UNL A   1      39.677  29.956  30.335  1.00  0.00    -0.354 N 
ATOM     48  C   UNL A   1      39.380  32.267  33.866  1.00  0.00     0.074 A 
ATOM     49  C   UNL A   1      38.314  33.277  33.889  1.00  0.00     0.031 C 
ATOM     50  C   UNL A   1      39.032  29.277  28.287  1.00  0.00     0.029 A 
ATOM     51  C   UNL A   1      39.985  29.092  29.307  1.00  0.00     0.049 A 
ATOM     52  H   UNL A   1      40.166  30.040  31.185  1.00  0.00     0.167 HD
ATOM     53  C   UNL A   1      40.278  32.049  34.912  1.00  0.00     0.034 A 
ATOM     54  C   UNL A   1      41.034  28.189  29.244  1.00  0.00     0.034 A 
ATOM     55  C   UNL A   1      41.301  31.115  34.866  1.00  0.00     0.049 A 
ATOM     56  C   UNL A   1      41.967  28.012  30.267  1.00  0.00     0.074 A 
ATOM     57  C   UNL A   1      42.209  30.878  35.914  1.00  0.00     0.029 A 
ATOM     58  N   UNL A   1      41.623  30.269  33.828  1.00  0.00    -0.354 N 
ATOM     59  N   UNL A   1      42.000  28.628  31.450  1.00  0.00    -0.248 NA
ATOM     60  C   UNL A   1      43.102  27.082  30.197  1.00  0.00     0.031 C 
ATOM     61  C   UNL A   1      43.075  29.909  35.512  1.00  0.00     0.029 A 
ATOM     62  C   UNL A   1      42.721  29.526  34.205  1.00  0.00     0.049 A 
ATOM     63  H   UNL A   1      41.152  30.207  32.966  1.00  0.00     0.167 HD
ATOM     64  C   UNL A   1      43.031  28.182  32.172  1.00  0.00     0.074 A 
ATOM     65  C   UNL A   1      43.759  27.187  31.373  1.00  0.00     0.031 C 
ATOM     66  C   UNL A   1      43.392  28.564  33.465  1.00  0.00     0.034 A 
BRANCH  53  67
ATOM     67  C   UNL A   1      40.124  32.884  36.173  1.00  0.00     0.023 A 
ATOM     68  C   UNL A   1      39.433  32.363  37.254  1.00  0.00     0.031 A 
ATOM     69  C   UNL A   1      40.655  34.101  36.216  1.00  0.00     0.131 A 
ATOM     70  C   UNL A   1      39.105  33.322  38.241  1.00  0.00     0.055 A 
ATOM     71  C   UNL A   1      40.401  34.937  37.277  1.00  0.00     0.041 A 
ATOM     72  F   UNL A   1      41.439  34.514  35.224  1.00  0.00    -0.206 F 
ATOM     73  C   UNL A   1      39.676  34.507  38.353  1.00  0.00     0.022 A 
BRANCH  70  74
ATOM     74  S   UNL A   1      37.811  32.895  39.433  1.00  0.00     0.124 S 
ATOM     75  O   UNL A   1      38.133  31.543  40.073  1.00  0.00    -0.237 OA
ATOM     76  O   UNL A   1      37.744  33.970  40.520  1.00  0.00    -0.237 OA
ATOM     77  O   UNL A   1      36.305  32.801  38.630  1.00  0.00    -0.744 OA
ENDBRANCH  70  74
ENDBRANCH  53  67
BRANCH  54  78
ATOM     78  C   UNL A   1      41.176  27.343  27.988  1.00  0.00     0.023 A 
ATOM     79  C   UNL A   1      40.735  26.030  28.000  1.00  0.00     0.031 A 
ATOM     80  C   UNL A   1      41.720  27.878  26.901  1.00  0.00     0.131 A 
ATOM     81  C   UNL A   1      41.178  25.267  26.893  1.00  0.00     0.055 A 
ATOM     82  C   UNL A   1      42.001  27.100  25.805  1.00  0.00     0.041 A 
ATOM     83  F   UNL A   1      41.995  29.179  26.874  1.00  0.00    -0.206 F 
ATOM     84  C   UNL A   1      41.646  25.780  25.769  1.00  0.00     0.022 A 
BRANCH  81  85
ATOM     85  S   UNL A   1      41.094  23.464  27.027  1.00  0.00     0.124 S 
ATOM     86  O   UNL A   1      39.629  23.023  27.073  1.00  0.00    -0.237 OA
ATOM     87  O   UNL A   1      41.780  22.829  25.816  1.00  0.00    -0.237 OA
ATOM     88  O   UNL A   1      41.886  22.963  28.458  1.00  0.00    -0.744 OA
ENDBRANCH  81  85
ENDBRANCH  54  78
BRANCH  66  89
ATOM     89  C   UNL A   1      44.592  27.883  34.102  1.00  0.00     0.023 A 
ATOM     90  C   UNL A   1      44.420  26.693  34.789  1.00  0.00     0.031 A 
ATOM     91  C   UNL A   1      45.793  28.433  33.967  1.00  0.00     0.131 A 
ATOM     92  C   UNL A   1      45.546  26.302  35.551  1.00  0.00     0.055 A 
ATOM     93  C   UNL A   1      46.877  27.918  34.635  1.00  0.00     0.041 A 
ATOM     94  F   UNL A   1      45.948  29.493  33.179  1.00  0.00    -0.206 F 
ATOM     95  C   UNL A   1      46.767  26.776  35.381  1.00  0.00     0.022 A 
BRANCH  92  96
ATOM     96  S   UNL A   1      45.297  25.068  36.851  1.00  0.00     0.124 S 
ATOM     97  O   UNL A   1      45.127  23.686  36.217  1.00  0.00    -0.237 OA
ATOM     98  O   UNL A   1      46.511  25.056  37.782  1.00  0.00    -0.237 OA
ATOM     99  O   UNL A   1      43.895  25.460  37.747  1.00  0.00    -0.744 OA
ENDBRANCH  92  96
ENDBRANCH  66  89
ENDBRANCH  40  41
ENDBRANCH  32  35
ENDBRANCH  30  31
ENDBRANCH   1  30
TORSDOF 17
ENDMDL
MODEL 2
REMARK VINA RESULT:     -12.4      5.249      9.023
REMARK SMILES CCc1cc(S(F)(F)(F)(F)F)cc2c1O[C@@H](C(F)(F)F)C(C(=O)NCCCCNC(=O)c1ccc(-c3c4nc(c(-c5cc(S(=O)(=O)[O-])ccc5F)c5ccc([nH]5)c(-c5cc(S(=O)(=O)[O-])ccc5F)c5nc(c(-c6cc(S(=O)(=O)[O-])ccc6F)c6ccc3[nH]6)C=C5)C=C4)cc1)=C2
REMARK SMILES IDX 27 1 26 2 25 3 24 4 22 5 23 6 21 8 3 9 4 10 14 11 5 12 13 13
REMARK SMILES IDX 15 14 12 15 95 16 16 17 2 18 1 19 6 20 7 21 8 22 9 23 10 24
REMARK SMILES IDX 11 25 17 26 18 27 19 28 20 29 28 30 29 31 30 32 31 34 32 35
REMARK SMILES IDX 33 36 94 37 34 38 93 39 35 40 36 41 37 42 87 43 38 44 92 45
REMARK SMILES IDX 86 46 88 47 39 48 91 49 85 50 84 51 40 53 72 54 52 55 71 56
REMARK SMILES IDX 53 57 56 58 70 59 89 60 54 61 55 62 69 64 90 65 57 66 41 67
REMARK SMILES IDX 42 68 50 69 43 70 49 71 51 72 48 73 44 74 45 75 46 76 47 77
REMARK SMILES IDX 73 78 74 79 82 80 75 81 81 82 83 83 80 84 76 85 77 86 78 87
REMARK SMILES IDX 79 88 58 89 59 90 67 91 60 92 66 93 68 94 65 95 61 96 62 97
REMARK SMILES IDX 63 98 64 99
REMARK H PARENT 24 7 29 33 88 52 56 63
REMARK Flexibility Score: inf
ROOT
ATOM      1  C   UNL A   1      39.554  20.912  25.894  1.00  0.00     0.023 C 
ENDROOT
BRANCH   1   2
ATOM      2  C   UNL A   1      39.276  22.268  26.524  1.00  0.00     0.023 C 
BRANCH   2   3
ATOM      3  C   UNL A   1      37.929  22.783  26.046  1.00  0.00     0.116 C 
BRANCH   3   4
ATOM      4  N   UNL A   1      37.856  22.679  24.581  1.00  0.00    -0.352 N 
ATOM      5  C   UNL A   1      36.607  23.014  23.881  1.00  0.00     0.251 C 
ATOM      6  O   UNL A   1      36.545  22.925  22.615  1.00  0.00    -0.270 OA
ATOM      7  H   UNL A   1      38.644  22.384  24.069  1.00  0.00     0.163 HD
BRANCH   5   8
ATOM      8  C   UNL A   1      35.392  23.469  24.671  1.00  0.00     0.067 C 
ATOM      9  C   UNL A   1      31.778  24.611  26.428  1.00  0.00    -0.004 A 
ATOM     10  C   UNL A   1      31.552  25.940  26.740  1.00  0.00     0.032 A 
ATOM     11  C   UNL A   1      32.953  24.271  25.802  1.00  0.00     0.131 A 
ATOM     12  C   UNL A   1      32.475  26.904  26.430  1.00  0.00     0.108 A 
ATOM     13  C   UNL A   1      33.916  25.215  25.491  1.00  0.00     0.019 A 
ATOM     14  O   UNL A   1      33.114  22.969  25.398  1.00  0.00    -0.475 OA
ATOM     15  C   UNL A   1      33.654  26.541  25.813  1.00  0.00     0.036 A 
ATOM     16  C   UNL A   1      35.108  24.761  24.794  1.00  0.00     0.025 C 
ATOM     17  C   UNL A   1      34.474  22.455  25.341  1.00  0.00     0.314 C 
BRANCH   9  18
ATOM     18  C   UNL A   1      30.873  23.490  26.911  1.00  0.00     0.036 C 
ATOM     19  C   UNL A   1      29.426  23.952  26.865  1.00  0.00     0.009 C 
ENDBRANCH   9  18
BRANCH  12  20
ATOM     20  S   UNL A   1      32.149  28.639  26.825  1.00  0.00     0.310 S 
ATOM     21  F   UNL A   1      31.052  28.411  27.948  1.00  0.00    -0.094 F 
ATOM     22  F   UNL A   1      30.971  28.686  25.780  1.00  0.00    -0.094 F 
ATOM     23  F   UNL A   1      32.013  30.166  27.089  1.00  0.00    -0.094 F 
ATOM     24  F   UNL A   1      33.234  28.547  27.970  1.00  0.00    -0.094 F 
ATOM     25  F   UNL A   1      32.221  27.070  26.650  1.00  0.00    -0.094 F 
ENDBRANCH  12  20
BRANCH  17  26
ATOM     26  C   UNL A   1      34.485  21.168  24.534  1.00  0.00     0.429 C 
ATOM     27  F   UNL A   1      35.710  20.650  24.541  1.00  0.00    -0.167 F 
ATOM     28  F   UNL A   1      33.632  20.299  25.071  1.00  0.00    -0.167 F 
ATOM     29  F   UNL A   1      34.122  21.427  23.281  1.00  0.00    -0.167 F 
ENDBRANCH  17  26
ENDBRANCH   5   8
ENDBRANCH   3   4
ENDBRANCH   2   3
ENDBRANCH   1   2
BRANCH   1  30
ATOM     30  C   UNL A   1      40.433  20.093  26.824  1.00  0.00     0.116 C 
BRANCH  30  31
ATOM     31  N   UNL A   1      41.495  19.440  26.044  1.00  0.00    -0.352 N 
ATOM     32  C   UNL A   1      42.733  20.171  25.733  1.00  0.00     0.251 C 
ATOM     33  H   UNL A   1      41.378  18.514  25.732  1.00  0.00     0.163 HD
ATOM     34  O   UNL A   1      43.651  19.606  25.060  1.00  0.00    -0.269 OA
BRANCH  32  35
ATOM     35  C   UNL A   1      42.913  21.600  26.216  1.00  0.00     0.039 A 
ATOM     36  C   UNL A   1      43.141  21.838  27.562  1.00  0.00     0.014 A 
ATOM     37  C   UNL A   1      42.856  22.597  25.341  1.00  0.00     0.014 A 
ATOM     38  C   UNL A   1      43.008  23.196  27.935  1.00  0.00     0.010 A 
ATOM     39  C   UNL A   1      42.866  23.904  25.767  1.00  0.00     0.010 A 
ATOM     40  C   UNL A   1      43.029  24.211  27.089  1.00  0.00    -0.014 A 
BRANCH  40  41
ATOM     41  C   UNL A   1      43.222  25.642  27.560  1.00  0.00     0.031 A 
ATOM     42  C   UNL A   1      42.117  26.368  28.010  1.00  0.00     0.074 A 
ATOM     43  C   UNL A   1      44.515  26.136  27.541  1.00  0.00     0.049 A 
ATOM     44  N   UNL A   1      42.104  27.602  28.513  1.00  0.00    -0.248 NA
ATOM     45  C   UNL A   1      40.737  25.859  27.999  1.00  0.00     0.031 C 
ATOM     46  C   UNL A   1      45.636  25.408  27.098  1.00  0.00     0.029 A 
ATOM     47  N   UNL A   1      44.950  27.383  27.933  1.00  0.00    -0.354 N 
ATOM     48  C   UNL A   1      40.860  27.951  28.851  1.00  0.00     0.074 A 
ATOM     49  C   UNL A   1      39.962  26.836  28.519  1.00  0.00     0.031 C 
ATOM     50  C   UNL A   1      46.729  26.207  27.209  1.00  0.00     0.029 A 
ATOM     51  C   UNL A   1      46.310  27.448  27.725  1.00  0.00     0.049 A 
ATOM     52  H   UNL A   1      44.386  28.102  28.297  1.00  0.00     0.167 HD
ATOM     53  C   UNL A   1      40.441  29.153  29.423  1.00  0.00     0.034 A 
ATOM     54  C   UNL A   1      47.154  28.521  27.963  1.00  0.00     0.034 A 
ATOM     55  C   UNL A   1      41.292  30.210  29.702  1.00  0.00     0.049 A 
ATOM     56  C   UNL A   1      46.725  29.745  28.482  1.00  0.00     0.074 A 
ATOM     57  C   UNL A   1      40.886  31.425  30.285  1.00  0.00     0.029 A 
ATOM     58  N   UNL A   1      42.648  30.284  29.470  1.00  0.00    -0.354 N 
ATOM     59  N   UNL A   1      45.488  30.078  28.855  1.00  0.00    -0.248 NA
ATOM     60  C   UNL A   1      47.604  30.899  28.708  1.00  0.00     0.031 C 
ATOM     61  C   UNL A   1      41.980  32.226  30.397  1.00  0.00     0.029 A 
ATOM     62  C   UNL A   1      43.087  31.523  29.884  1.00  0.00     0.049 A 
ATOM     63  H   UNL A   1      43.206  29.575  29.078  1.00  0.00     0.167 HD
ATOM     64  C   UNL A   1      45.470  31.329  29.321  1.00  0.00     0.074 A 
ATOM     65  C   UNL A   1      46.830  31.878  29.225  1.00  0.00     0.031 C 
ATOM     66  C   UNL A   1      44.375  32.033  29.823  1.00  0.00     0.034 A 
BRANCH  53  67
ATOM     67  C   UNL A   1      38.967  29.310  29.759  1.00  0.00     0.023 A 
ATOM     68  C   UNL A   1      38.144  30.019  28.900  1.00  0.00     0.031 A 
ATOM     69  C   UNL A   1      38.492  28.765  30.874  1.00  0.00     0.131 A 
ATOM     70  C   UNL A   1      36.884  30.347  29.452  1.00  0.00     0.055 A 
ATOM     71  C   UNL A   1      37.205  29.020  31.284  1.00  0.00     0.041 A 
ATOM     72  F   UNL A   1      39.269  27.965  31.600  1.00  0.00    -0.206 F 
ATOM     73  C   UNL A   1      36.356  29.762  30.512  1.00  0.00     0.022 A 
BRANCH  70  74
ATOM     74  S   UNL A   1      35.929  31.659  28.651  1.00  0.00     0.124 S 
ATOM     75  O   UNL A   1      36.859  32.822  28.295  1.00  0.00    -0.237 OA
ATOM     76  O   UNL A   1      35.284  31.113  27.374  1.00  0.00    -0.237 OA
ATOM     77  O   UNL A   1      34.710  32.209  29.715  1.00  0.00    -0.744 OA
ENDBRANCH  70  74
ENDBRANCH  53  67
BRANCH  54  78
ATOM     78  C   UNL A   1      48.631  28.357  27.642  1.00  0.00     0.023 A 
ATOM     79  C   UNL A   1      49.075  28.583  26.350  1.00  0.00     0.031 A 
ATOM     80  C   UNL A   1      49.472  28.002  28.607  1.00  0.00     0.131 A 
ATOM     81  C   UNL A   1      50.392  28.124  26.108  1.00  0.00     0.055 A 
ATOM     82  C   UNL A   1      50.779  27.698  28.319  1.00  0.00     0.041 A 
ATOM     83  F   UNL A   1      49.041  27.938  29.864  1.00  0.00    -0.206 F 
ATOM     84  C   UNL A   1      51.272  27.842  27.052  1.00  0.00     0.022 A 
BRANCH  81  85
ATOM     85  S   UNL A   1      50.905  27.910  24.385  1.00  0.00     0.124 S 
ATOM     86  O   UNL A   1      51.435  26.488  24.183  1.00  0.00    -0.237 OA
ATOM     87  O   UNL A   1      49.708  28.145  23.462  1.00  0.00    -0.237 OA
ATOM     88  O   UNL A   1      52.140  29.036  24.015  1.00  0.00    -0.744 OA
ENDBRANCH  81  85
ENDBRANCH  54  78
BRANCH  66  89
ATOM     89  C   UNL A   1      44.608  33.444  30.337  1.00  0.00     0.023 A 
ATOM     90  C   UNL A   1      44.975  33.641  31.658  1.00  0.00     0.031 A 
ATOM     91  C   UNL A   1      44.478  34.466  29.499  1.00  0.00     0.131 A 
ATOM     92  C   UNL A   1      44.904  34.990  32.079  1.00  0.00     0.055 A 
ATOM     93  C   UNL A   1      44.554  35.760  29.957  1.00  0.00     0.041 A 
ATOM     94  F   UNL A   1      44.271  34.236  28.206  1.00  0.00    -0.206 F 
ATOM     95  C   UNL A   1      44.855  36.027  31.264  1.00  0.00     0.022 A 
BRANCH  92  96
ATOM     96  S   UNL A   1      44.875  35.316  33.859  1.00  0.00     0.124 S 
ATOM     97  O   UNL A   1      44.457  36.767  34.106  1.00  0.00    -0.237 OA
ATOM     98  O   UNL A   1      43.874  34.376  34.534  1.00  0.00    -0.237 OA
ATOM     99  O   UNL A   1      46.433  35.053  34.512  1.00  0.00    -0.744 OA
ENDBRANCH  92  96
ENDBRANCH  66  89
ENDBRANCH  40  41
ENDBRANCH  32  35
ENDBRANCH  30  31
ENDBRANCH   1  30
TORSDOF 17
ENDMDL
MODEL 3
REMARK VINA RESULT:     -12.4      0.316      7.193
REMARK SMILES CCc1cc(S(F)(F)(F)(F)F)cc2c1O[C@@H](C(F)(F)F)C(C(=O)NCCCCNC(=O)c1ccc(-c3c4nc(c(-c5cc(S(=O)(=O)[O-])ccc5F)c5ccc([nH]5)c(-c5cc(S(=O)(=O)[O-])ccc5F)c5nc(c(-c6cc(S(=O)(=O)[O-])ccc6F)c6ccc3[nH]6)C=C5)C=C4)cc1)=C2
REMARK SMILES IDX 27 1 26 2 25 3 24 4 22 5 23 6 21 8 3 9 4 10 14 11 5 12 13 13
REMARK SMILES IDX 15 14 12 15 95 16 16 17 2 18 1 19 6 20 7 21 8 22 9 23 10 24
REMARK SMILES IDX 11 25 17 26 18 27 19 28 20 29 28 30 29 31 30 32 31 34 32 35
REMARK SMILES IDX 33 36 94 37 34 38 93 39 35 40 36 41 37 42 87 43 38 44 92 45
REMARK SMILES IDX 86 46 88 47 39 48 91 49 85 50 84 51 40 53 72 54 52 55 71 56
REMARK SMILES IDX 53 57 56 58 70 59 89 60 54 61 55 62 69 64 90 65 57 66 41 67
REMARK SMILES IDX 42 68 50 69 43 70 49 71 51 72 48 73 44 74 45 75 46 76 47 77
REMARK SMILES IDX 73 78 74 79 82 80 75 81 81 82 83 83 80 84 76 85 77 86 78 87
REMARK SMILES IDX 79 88 58 89 59 90 67 91 60 92 66 93 68 94 65 95 61 96 62 97
REMARK SMILES IDX 63 98 64 99
REMARK H PARENT 24 7 29 33 88 52 56 63
REMARK Flexibility Score: inf
ROOT
ATOM      1  C   UNL A   1      31.600  31.406  26.414  1.00  0.00     0.023 C 
ENDROOT
BRANCH   1   2
ATOM      2  C   UNL A   1      31.740  29.960  26.865  1.00  0.00     0.023 C 
BRANCH   2   3
ATOM      3  C   UNL A   1      32.515  29.176  25.818  1.00  0.00     0.116 C 
BRANCH   3   4
ATOM      4  N   UNL A   1      32.235  29.730  24.485  1.00  0.00    -0.352 N 
ATOM      5  C   UNL A   1      32.103  28.832  23.329  1.00  0.00     0.251 C 
ATOM      6  O   UNL A   1      31.861  29.310  22.177  1.00  0.00    -0.270 OA
ATOM      7  H   UNL A   1      32.136  30.702  24.366  1.00  0.00     0.163 HD
BRANCH   5   8
ATOM      8  C   UNL A   1      32.255  27.330  23.511  1.00  0.00     0.067 C 
ATOM      9  C   UNL A   1      32.524  23.279  24.495  1.00  0.00    -0.004 A 
ATOM     10  C   UNL A   1      33.760  22.657  24.525  1.00  0.00     0.032 A 
ATOM     11  C   UNL A   1      32.470  24.625  24.220  1.00  0.00     0.131 A 
ATOM     12  C   UNL A   1      34.911  23.364  24.292  1.00  0.00     0.108 A 
ATOM     13  C   UNL A   1      33.609  25.366  23.961  1.00  0.00     0.019 A 
ATOM     14  O   UNL A   1      31.250  25.250  24.305  1.00  0.00    -0.475 OA
ATOM     15  C   UNL A   1      34.834  24.711  24.006  1.00  0.00     0.036 A 
ATOM     16  C   UNL A   1      33.450  26.790  23.721  1.00  0.00     0.025 C 
ATOM     17  C   UNL A   1      31.041  26.413  23.455  1.00  0.00     0.314 C 
BRANCH   9  18
ATOM     18  C   UNL A   1      31.216  22.510  24.565  1.00  0.00     0.036 C 
ATOM     19  C   UNL A   1      30.808  22.338  26.020  1.00  0.00     0.009 C 
ENDBRANCH   9  18
BRANCH  12  20
ATOM     20  S   UNL A   1      36.518  22.536  24.360  1.00  0.00     0.310 S 
ATOM     21  F   UNL A   1      37.431  23.827  24.477  1.00  0.00    -0.094 F 
ATOM     22  F   UNL A   1      36.675  22.649  22.797  1.00  0.00    -0.094 F 
ATOM     23  F   UNL A   1      37.816  21.685  24.457  1.00  0.00    -0.094 F 
ATOM     24  F   UNL A   1      36.421  22.552  25.937  1.00  0.00    -0.094 F 
ATOM     25  F   UNL A   1      35.262  23.493  24.288  1.00  0.00    -0.094 F 
ENDBRANCH  12  20
BRANCH  17  26
ATOM     26  C   UNL A   1      29.822  27.174  23.948  1.00  0.00     0.429 C 
ATOM     27  F   UNL A   1      30.061  27.655  25.165  1.00  0.00    -0.167 F 
ATOM     28  F   UNL A   1      29.560  28.180  23.118  1.00  0.00    -0.167 F 
ATOM     29  F   UNL A   1      28.775  26.355  23.994  1.00  0.00    -0.167 F 
ENDBRANCH  17  26
ENDBRANCH   5   8
ENDBRANCH   3   4
ENDBRANCH   2   3
ENDBRANCH   1   2
BRANCH   1  30
ATOM     30  C   UNL A   1      32.836  32.188  26.830  1.00  0.00     0.116 C 
BRANCH  30  31
ATOM     31  N   UNL A   1      32.433  33.512  27.326  1.00  0.00    -0.352 N 
ATOM     32  C   UNL A   1      33.215  34.170  28.383  1.00  0.00     0.251 C 
ATOM     33  H   UNL A   1      31.640  33.957  26.950  1.00  0.00     0.163 HD
ATOM     34  O   UNL A   1      32.866  35.315  28.810  1.00  0.00    -0.269 OA
BRANCH  32  35
ATOM     35  C   UNL A   1      34.440  33.482  28.963  1.00  0.00     0.039 A 
ATOM     36  C   UNL A   1      35.701  33.912  28.586  1.00  0.00     0.014 A 
ATOM     37  C   UNL A   1      34.280  32.484  29.824  1.00  0.00     0.014 A 
ATOM     38  C   UNL A   1      36.742  33.029  28.957  1.00  0.00     0.010 A 
ATOM     39  C   UNL A   1      35.360  31.747  30.249  1.00  0.00     0.010 A 
ATOM     40  C   UNL A   1      36.630  32.080  29.870  1.00  0.00    -0.014 A 
BRANCH  40  41
ATOM     41  C   UNL A   1      37.849  31.395  30.465  1.00  0.00     0.031 A 
ATOM     42  C   UNL A   1      38.514  30.418  29.722  1.00  0.00     0.074 A 
ATOM     43  C   UNL A   1      38.246  31.813  31.723  1.00  0.00     0.049 A 
ATOM     44  N   UNL A   1      39.626  29.760  30.052  1.00  0.00    -0.248 NA
ATOM     45  C   UNL A   1      38.074  29.946  28.399  1.00  0.00     0.031 C 
ATOM     46  C   UNL A   1      37.586  32.803  32.476  1.00  0.00     0.029 A 
ATOM     47  N   UNL A   1      39.320  31.366  32.463  1.00  0.00    -0.354 N 
ATOM     48  C   UNL A   1      39.971  28.916  29.077  1.00  0.00     0.074 A 
ATOM     49  C   UNL A   1      38.974  29.020  28.002  1.00  0.00     0.031 C 
ATOM     50  C   UNL A   1      38.244  32.945  33.657  1.00  0.00     0.029 A 
ATOM     51  C   UNL A   1      39.327  32.045  33.662  1.00  0.00     0.049 A 
ATOM     52  H   UNL A   1      39.968  30.681  32.183  1.00  0.00     0.167 HD
ATOM     53  C   UNL A   1      41.078  28.067  29.041  1.00  0.00     0.034 A 
ATOM     54  C   UNL A   1      40.218  31.900  34.713  1.00  0.00     0.034 A 
ATOM     55  C   UNL A   1      41.994  27.953  30.074  1.00  0.00     0.049 A 
ATOM     56  C   UNL A   1      41.293  31.008  34.700  1.00  0.00     0.074 A 
ATOM     57  C   UNL A   1      43.119  27.108  30.050  1.00  0.00     0.029 A 
ATOM     58  N   UNL A   1      41.987  28.614  31.283  1.00  0.00    -0.354 N 
ATOM     59  N   UNL A   1      41.660  30.194  33.709  1.00  0.00    -0.248 NA
ATOM     60  C   UNL A   1      42.224  30.822  35.821  1.00  0.00     0.031 C 
ATOM     61  C   UNL A   1      43.778  27.249  31.232  1.00  0.00     0.029 A 
ATOM     62  C   UNL A   1      43.074  28.184  32.014  1.00  0.00     0.049 A 
ATOM     63  H   UNL A   1      41.321  29.278  31.574  1.00  0.00     0.167 HD
ATOM     64  C   UNL A   1      42.749  29.506  34.058  1.00  0.00     0.074 A 
ATOM     65  C   UNL A   1      43.123  29.894  35.425  1.00  0.00     0.031 C 
ATOM     66  C   UNL A   1      43.447  28.571  33.291  1.00  0.00     0.034 A 
BRANCH  53  67
ATOM     67  C   UNL A   1      41.290  27.219  27.797  1.00  0.00     0.023 A 
ATOM     68  C   UNL A   1      40.868  25.901  27.792  1.00  0.00     0.031 A 
ATOM     69  C   UNL A   1      41.879  27.758  26.735  1.00  0.00     0.131 A 
ATOM     70  C   UNL A   1      41.374  25.140  26.712  1.00  0.00     0.055 A 
ATOM     71  C   UNL A   1      42.225  26.979  25.657  1.00  0.00     0.041 A 
ATOM     72  F   UNL A   1      42.137  29.063  26.715  1.00  0.00    -0.206 F 
ATOM     73  C   UNL A   1      41.890  25.654  25.611  1.00  0.00     0.022 A 
BRANCH  70  74
ATOM     74  S   UNL A   1      41.311  23.336  26.850  1.00  0.00     0.124 S 
ATOM     75  O   UNL A   1      42.269  22.713  25.833  1.00  0.00    -0.237 OA
ATOM     76  O   UNL A   1      41.724  22.918  28.263  1.00  0.00    -0.237 OA
ATOM     77  O   UNL A   1      39.719  22.796  26.539  1.00  0.00    -0.744 OA
ENDBRANCH  70  74
ENDBRANCH  53  67
BRANCH  54  78
ATOM     78  C   UNL A   1      40.015  32.761  35.949  1.00  0.00     0.023 A 
ATOM     79  C   UNL A   1      39.287  32.258  37.015  1.00  0.00     0.031 A 
ATOM     80  C   UNL A   1      40.541  33.980  35.988  1.00  0.00     0.131 A 
ATOM     81  C   UNL A   1      38.922  33.236  37.971  1.00  0.00     0.055 A 
ATOM     82  C   UNL A   1      40.249  34.835  37.022  1.00  0.00     0.041 A 
ATOM     83  F   UNL A   1      41.358  34.375  35.015  1.00  0.00    -0.206 F 
ATOM     84  C   UNL A   1      39.487  34.425  38.080  1.00  0.00     0.022 A 
BRANCH  81  85
ATOM     85  S   UNL A   1      37.588  32.828  39.125  1.00  0.00     0.124 S 
ATOM     86  O   UNL A   1      37.589  33.830  40.281  1.00  0.00    -0.237 OA
ATOM     87  O   UNL A   1      36.244  32.890  38.395  1.00  0.00    -0.237 OA
ATOM     88  O   UNL A   1      37.830  31.249  39.739  1.00  0.00    -0.744 OA
ENDBRANCH  81  85
ENDBRANCH  54  78
BRANCH  66  89
ATOM     89  C   UNL A   1      44.692  27.941  33.893  1.00  0.00     0.023 A 
ATOM     90  C   UNL A   1      44.583  26.769  34.623  1.00  0.00     0.031 A 
ATOM     91  C   UNL A   1      45.871  28.517  33.686  1.00  0.00     0.131 A 
ATOM     92  C   UNL A   1      45.753  26.432  35.343  1.00  0.00     0.055 A 
ATOM     93  C   UNL A   1      46.998  28.050  34.319  1.00  0.00     0.041 A 
ATOM     94  F   UNL A   1      45.962  29.554  32.859  1.00  0.00    -0.206 F 
ATOM     95  C   UNL A   1      46.951  26.930  35.103  1.00  0.00     0.022 A 
BRANCH  92  96
ATOM     96  S   UNL A   1      45.595  25.233  36.691  1.00  0.00     0.124 S 
ATOM     97  O   UNL A   1      46.365  25.735  37.914  1.00  0.00    -0.237 OA
ATOM     98  O   UNL A   1      44.117  25.065  37.052  1.00  0.00    -0.237 OA
ATOM     99  O   UNL A   1      46.235  23.728  36.193  1.00  0.00    -0.744 OA
ENDBRANCH  92  96
ENDBRANCH  66  89
ENDBRANCH  40  41
ENDBRANCH  32  35
ENDBRANCH  30  31
ENDBRANCH   1  30
TORSDOF 17
ENDMDL
