MODEL 1
REMARK VINA RESULT:     -11.8      0.000      0.000
REMARK SMILES CCC[C@@H](C(=O)N1CC[C@@](C)(C(=O)NCCCCNC(=O)c2ccc(-c3c4nc(c(-c5cc(S(=O)(=O)[O-])ccc5F)c5ccc([nH]5)c(-c5cc(S(=O)(=O)[O-])ccc5F)c5nc(c(-c6cc(S(=O)(=O)[O-])ccc6F)c6ccc3[nH]6)C=C5)C=C4)cc2)C1)c1ccccc1
REMARK SMILES IDX 16 1 15 2 14 3 12 4 13 5 10 7 7 8 8 9 85 10 9 11 11 12 5 13
REMARK SMILES IDX 6 14 4 15 3 16 2 17 1 18 86 19 87 20 91 21 88 22 90 23 89 24
REMARK SMILES IDX 17 25 18 26 19 27 20 28 21 30 22 31 23 32 84 33 24 34 83 35
REMARK SMILES IDX 25 36 26 37 27 38 77 39 28 40 82 41 76 42 78 43 29 44 81 45
REMARK SMILES IDX 75 46 74 47 30 49 62 50 42 51 61 52 43 53 46 54 60 55 79 56
REMARK SMILES IDX 44 57 45 58 59 60 80 61 47 62 31 63 32 64 40 65 33 66 39 67
REMARK SMILES IDX 41 68 38 69 34 70 35 71 36 72 37 73 63 74 64 75 72 76 65 77
REMARK SMILES IDX 71 78 73 79 70 80 66 81 67 82 68 83 69 84 48 85 49 86 57 87
REMARK SMILES IDX 50 88 56 89 58 90 55 91 51 92 52 93 53 94 54 95
REMARK H PARENT 14 6 19 29 78 48 46 59
REMARK Flexibility Score: inf
ROOT
ATOM      1  C   UNL A   1      31.022  29.964  24.579  1.00  0.00     0.023 C 
ENDROOT
BRANCH   1   2
ATOM      2  C   UNL A   1      30.908  28.995  23.404  1.00  0.00     0.116 C 
BRANCH   2   3
ATOM      3  N   UNL A   1      32.153  28.940  22.673  1.00  0.00    -0.356 N 
ATOM      4  C   UNL A   1      33.025  27.925  22.453  1.00  0.00     0.227 C 
ATOM      5  O   UNL A   1      34.087  28.248  21.914  1.00  0.00    -0.274 OA
ATOM      6  H   UNL A   1      32.418  29.795  22.262  1.00  0.00     0.163 HD
BRANCH   4   7
ATOM      7  C   UNL A   1      32.669  26.453  22.742  1.00  0.00     0.066 C 
ATOM      8  N   UNL A   1      34.484  25.042  23.536  1.00  0.00    -0.341 N 
ATOM      9  C   UNL A   1      33.873  25.676  24.685  1.00  0.00     0.120 C 
ATOM     10  C   UNL A   1      33.859  25.553  22.327  1.00  0.00     0.136 C 
ATOM     11  C   UNL A   1      32.483  26.073  24.219  1.00  0.00     0.040 C 
ATOM     12  C   UNL A   1      31.441  26.082  21.896  1.00  0.00     0.024 C 
BRANCH   8  13
ATOM     13  C   UNL A   1      34.812  23.690  23.582  1.00  0.00     0.230 C 
ATOM     14  O   UNL A   1      35.396  23.156  22.640  1.00  0.00    -0.274 OA
BRANCH  13  15
ATOM     15  C   UNL A   1      34.283  22.915  24.826  1.00  0.00     0.108 C 
BRANCH  15  16
ATOM     16  C   UNL A   1      35.307  22.789  25.986  1.00  0.00     0.018 C 
BRANCH  16  17
ATOM     17  C   UNL A   1      36.813  22.758  25.710  1.00  0.00    -0.002 C 
ATOM     18  C   UNL A   1      37.562  24.039  26.036  1.00  0.00     0.004 C 
ENDBRANCH  16  17
ENDBRANCH  15  16
BRANCH  15  19
ATOM     19  C   UNL A   1      33.716  21.534  24.401  1.00  0.00    -0.036 A 
ATOM     20  C   UNL A   1      32.671  21.479  23.461  1.00  0.00     0.004 A 
ATOM     21  C   UNL A   1      34.181  20.311  24.921  1.00  0.00     0.004 A 
ATOM     22  C   UNL A   1      32.119  20.256  23.060  1.00  0.00     0.000 A 
ATOM     23  C   UNL A   1      33.611  19.092  24.541  1.00  0.00     0.000 A 
ATOM     24  C   UNL A   1      32.582  19.064  23.608  1.00  0.00     0.000 A 
ENDBRANCH  15  19
ENDBRANCH  13  15
ENDBRANCH   8  13
ENDBRANCH   4   7
ENDBRANCH   2   3
ENDBRANCH   1   2
BRANCH   1  25
ATOM     25  C   UNL A   1      32.286  29.785  25.423  1.00  0.00     0.023 C 
BRANCH  25  26
ATOM     26  C   UNL A   1      32.177  30.277  26.861  1.00  0.00     0.116 C 
BRANCH  26  27
ATOM     27  N   UNL A   1      32.056  31.725  26.957  1.00  0.00    -0.352 N 
ATOM     28  C   UNL A   1      32.958  32.628  27.472  1.00  0.00     0.251 C 
ATOM     29  H   UNL A   1      31.221  32.108  26.606  1.00  0.00     0.163 HD
ATOM     30  O   UNL A   1      32.654  33.806  27.592  1.00  0.00    -0.269 OA
BRANCH  28  31
ATOM     31  C   UNL A   1      34.276  32.133  27.913  1.00  0.00     0.039 A 
ATOM     32  C   UNL A   1      35.356  33.017  27.942  1.00  0.00     0.014 A 
ATOM     33  C   UNL A   1      34.413  30.820  28.376  1.00  0.00     0.014 A 
ATOM     34  C   UNL A   1      36.558  32.609  28.520  1.00  0.00     0.010 A 
ATOM     35  C   UNL A   1      35.589  30.439  29.007  1.00  0.00     0.010 A 
ATOM     36  C   UNL A   1      36.668  31.335  29.098  1.00  0.00    -0.014 A 
BRANCH  36  37
ATOM     37  C   UNL A   1      37.887  30.917  29.833  1.00  0.00     0.031 A 
ATOM     38  C   UNL A   1      38.861  29.973  29.189  1.00  0.00     0.074 A 
ATOM     39  C   UNL A   1      38.064  31.314  31.108  1.00  0.00     0.049 A 
ATOM     40  N   UNL A   1      39.917  29.396  29.701  1.00  0.00    -0.248 NA
ATOM     41  C   UNL A   1      38.587  29.605  27.793  1.00  0.00     0.031 C 
ATOM     42  C   UNL A   1      37.168  32.207  31.847  1.00  0.00     0.029 A 
ATOM     43  N   UNL A   1      39.046  31.007  32.014  1.00  0.00    -0.354 N 
ATOM     44  C   UNL A   1      40.427  28.584  28.693  1.00  0.00     0.074 A 
ATOM     45  C   UNL A   1      39.524  28.699  27.567  1.00  0.00     0.031 C 
ATOM     46  C   UNL A   1      37.656  32.394  33.084  1.00  0.00     0.029 A 
ATOM     47  C   UNL A   1      38.868  31.596  33.244  1.00  0.00     0.049 A 
ATOM     48  H   UNL A   1      39.809  30.422  31.802  1.00  0.00     0.167 HD
ATOM     49  C   UNL A   1      41.556  27.831  28.702  1.00  0.00     0.034 A 
ATOM     50  C   UNL A   1      39.590  31.489  34.376  1.00  0.00     0.034 A 
ATOM     51  C   UNL A   1      42.444  27.737  29.835  1.00  0.00     0.049 A 
ATOM     52  C   UNL A   1      40.803  30.596  34.385  1.00  0.00     0.074 A 
ATOM     53  C   UNL A   1      43.651  27.066  29.934  1.00  0.00     0.029 A 
ATOM     54  N   UNL A   1      42.213  28.318  31.076  1.00  0.00    -0.354 N 
ATOM     55  N   UNL A   1      41.303  29.874  33.409  1.00  0.00    -0.248 NA
ATOM     56  C   UNL A   1      41.543  30.501  35.649  1.00  0.00     0.031 C 
ATOM     57  C   UNL A   1      44.113  27.184  31.251  1.00  0.00     0.029 A 
ATOM     58  C   UNL A   1      43.230  27.986  31.958  1.00  0.00     0.049 A 
ATOM     59  H   UNL A   1      41.438  28.884  31.299  1.00  0.00     0.167 HD
ATOM     60  C   UNL A   1      42.436  29.260  33.937  1.00  0.00     0.074 A 
ATOM     61  C   UNL A   1      42.545  29.701  35.313  1.00  0.00     0.031 C 
ATOM     62  C   UNL A   1      43.312  28.417  33.334  1.00  0.00     0.034 A 
BRANCH  49  63
ATOM     63  C   UNL A   1      41.859  27.033  27.457  1.00  0.00     0.023 A 
ATOM     64  C   UNL A   1      41.623  25.648  27.394  1.00  0.00     0.031 A 
ATOM     65  C   UNL A   1      42.448  27.650  26.340  1.00  0.00     0.131 A 
ATOM     66  C   UNL A   1      42.065  24.911  26.286  1.00  0.00     0.055 A 
ATOM     67  C   UNL A   1      42.803  26.924  25.200  1.00  0.00     0.041 A 
ATOM     68  F   UNL A   1      42.715  28.965  26.345  1.00  0.00    -0.206 F 
ATOM     69  C   UNL A   1      42.632  25.542  25.177  1.00  0.00     0.022 A 
BRANCH  66  70
ATOM     70  S   UNL A   1      42.054  23.100  26.395  1.00  0.00     0.124 S 
ATOM     71  O   UNL A   1      42.880  22.871  27.578  1.00  0.00    -0.237 OA
ATOM     72  O   UNL A   1      40.634  22.802  26.539  1.00  0.00    -0.237 OA
ATOM     73  O   UNL A   1      42.657  22.676  25.133  1.00  0.00    -0.744 OA
ENDBRANCH  66  70
ENDBRANCH  49  63
BRANCH  50  74
ATOM     74  C   UNL A   1      39.187  32.237  35.599  1.00  0.00     0.023 A 
ATOM     75  C   UNL A   1      38.477  31.597  36.627  1.00  0.00     0.031 A 
ATOM     76  C   UNL A   1      39.482  33.603  35.749  1.00  0.00     0.131 A 
ATOM     77  C   UNL A   1      38.055  32.331  37.746  1.00  0.00     0.055 A 
ATOM     78  C   UNL A   1      39.097  34.319  36.885  1.00  0.00     0.041 A 
ATOM     79  F   UNL A   1      40.165  34.260  34.797  1.00  0.00    -0.206 F 
ATOM     80  C   UNL A   1      38.369  33.684  37.887  1.00  0.00     0.022 A 
BRANCH  77  81
ATOM     81  S   UNL A   1      37.035  31.498  38.993  1.00  0.00     0.124 S 
ATOM     82  O   UNL A   1      35.856  32.357  39.036  1.00  0.00    -0.237 OA
ATOM     83  O   UNL A   1      36.848  30.179  38.400  1.00  0.00    -0.237 OA
ATOM     84  O   UNL A   1      37.872  31.527  40.191  1.00  0.00    -0.744 OA
ENDBRANCH  77  81
ENDBRANCH  50  74
BRANCH  62  85
ATOM     85  C   UNL A   1      44.482  27.947  34.160  1.00  0.00     0.023 A 
ATOM     86  C   UNL A   1      44.443  26.737  34.875  1.00  0.00     0.031 A 
ATOM     87  C   UNL A   1      45.649  28.727  34.238  1.00  0.00     0.131 A 
ATOM     88  C   UNL A   1      45.535  26.363  35.672  1.00  0.00     0.055 A 
ATOM     89  C   UNL A   1      46.753  28.324  34.991  1.00  0.00     0.041 A 
ATOM     90  F   UNL A   1      45.737  29.893  33.577  1.00  0.00    -0.206 F 
ATOM     91  C   UNL A   1      46.697  27.140  35.720  1.00  0.00     0.022 A 
BRANCH  88  92
ATOM     92  S   UNL A   1      45.397  24.875  36.700  1.00  0.00     0.124 S 
ATOM     93  O   UNL A   1      43.953  24.771  36.887  1.00  0.00    -0.237 OA
ATOM     94  O   UNL A   1      46.007  23.852  35.858  1.00  0.00    -0.237 OA
ATOM     95  O   UNL A   1      46.155  25.217  37.903  1.00  0.00    -0.744 OA
ENDBRANCH  88  92
ENDBRANCH  62  85
ENDBRANCH  36  37
ENDBRANCH  28  31
ENDBRANCH  26  27
ENDBRANCH  25  26
ENDBRANCH   1  25
TORSDOF 19
ENDMDL
MODEL 2
REMARK VINA RESULT:     -11.7      4.878      8.036
REMARK SMILES CCC[C@@H](C(=O)N1CC[C@@](C)(C(=O)NCCCCNC(=O)c2ccc(-c3c4nc(c(-c5cc(S(=O)(=O)[O-])ccc5F)c5ccc([nH]5)c(-c5cc(S(=O)(=O)[O-])ccc5F)c5nc(c(-c6cc(S(=O)(=O)[O-])ccc6F)c6ccc3[nH]6)C=C5)C=C4)cc2)C1)c1ccccc1
REMARK SMILES IDX 16 1 15 2 14 3 12 4 13 5 10 7 7 8 8 9 85 10 9 11 11 12 5 13
REMARK SMILES IDX 6 14 4 15 3 16 2 17 1 18 86 19 87 20 91 21 88 22 90 23 89 24
REMARK SMILES IDX 17 25 18 26 19 27 20 28 21 30 22 31 23 32 84 33 24 34 83 35
REMARK SMILES IDX 25 36 26 37 27 38 77 39 28 40 82 41 76 42 78 43 29 44 81 45
REMARK SMILES IDX 75 46 74 47 30 49 62 50 42 51 61 52 43 53 46 54 60 55 79 56
REMARK SMILES IDX 44 57 45 58 59 60 80 61 47 62 31 63 32 64 40 65 33 66 39 67
REMARK SMILES IDX 41 68 38 69 34 70 35 71 36 72 37 73 63 74 64 75 72 76 65 77
REMARK SMILES IDX 71 78 73 79 70 80 66 81 67 82 68 83 69 84 48 85 49 86 57 87
REMARK SMILES IDX 50 88 56 89 58 90 55 91 51 92 52 93 53 94 54 95
REMARK H PARENT 14 6 19 29 78 48 46 59
REMARK Flexibility Score: inf
ROOT
ATOM      1  C   UNL A   1      36.192  23.167  23.708  1.00  0.00     0.023 C 
ENDROOT
BRANCH   1   2
ATOM      2  C   UNL A   1      34.811  23.135  23.055  1.00  0.00     0.116 C 
BRANCH   2   3
ATOM      3  N   UNL A   1      33.894  22.357  23.855  1.00  0.00    -0.356 N 
ATOM      4  C   UNL A   1      33.039  22.711  24.847  1.00  0.00     0.227 C 
ATOM      5  O   UNL A   1      32.503  21.773  25.442  1.00  0.00    -0.274 OA
ATOM      6  H   UNL A   1      33.889  21.395  23.643  1.00  0.00     0.163 HD
BRANCH   4   7
ATOM      7  C   UNL A   1      32.667  24.180  25.132  1.00  0.00     0.066 C 
ATOM      8  N   UNL A   1      31.348  25.308  23.428  1.00  0.00    -0.341 N 
ATOM      9  C   UNL A   1      30.436  24.640  24.333  1.00  0.00     0.120 C 
ATOM     10  C   UNL A   1      32.713  24.980  23.808  1.00  0.00     0.136 C 
ATOM     11  C   UNL A   1      31.232  24.440  25.612  1.00  0.00     0.040 C 
ATOM     12  C   UNL A   1      33.710  24.758  26.103  1.00  0.00     0.024 C 
BRANCH   8  13
ATOM     13  C   UNL A   1      31.080  26.606  23.006  1.00  0.00     0.230 C 
ATOM     14  O   UNL A   1      31.360  26.962  21.861  1.00  0.00    -0.274 OA
BRANCH  13  15
ATOM     15  C   UNL A   1      30.531  27.568  24.103  1.00  0.00     0.108 C 
BRANCH  15  16
ATOM     16  C   UNL A   1      29.809  28.825  23.550  1.00  0.00     0.018 C 
BRANCH  16  17
ATOM     17  C   UNL A   1      28.431  28.719  22.891  1.00  0.00    -0.002 C 
ATOM     18  C   UNL A   1      27.609  29.997  22.891  1.00  0.00     0.004 C 
ENDBRANCH  16  17
ENDBRANCH  15  16
BRANCH  15  19
ATOM     19  C   UNL A   1      31.655  27.938  25.107  1.00  0.00    -0.036 A 
ATOM     20  C   UNL A   1      31.395  27.865  26.488  1.00  0.00     0.004 A 
ATOM     21  C   UNL A   1      32.936  28.368  24.714  1.00  0.00     0.004 A 
ATOM     22  C   UNL A   1      32.374  28.205  27.430  1.00  0.00     0.000 A 
ATOM     23  C   UNL A   1      33.904  28.733  25.654  1.00  0.00     0.000 A 
ATOM     24  C   UNL A   1      33.625  28.649  27.013  1.00  0.00     0.000 A 
ENDBRANCH  15  19
ENDBRANCH  13  15
ENDBRANCH   8  13
ENDBRANCH   4   7
ENDBRANCH   2   3
ENDBRANCH   1   2
BRANCH   1  25
ATOM     25  C   UNL A   1      36.621  21.840  24.338  1.00  0.00     0.023 C 
BRANCH  25  26
ATOM     26  C   UNL A   1      37.295  21.960  25.700  1.00  0.00     0.116 C 
BRANCH  26  27
ATOM     27  N   UNL A   1      38.447  21.080  25.841  1.00  0.00    -0.352 N 
ATOM     28  C   UNL A   1      39.709  21.388  26.294  1.00  0.00     0.251 C 
ATOM     29  H   UNL A   1      38.303  20.142  25.579  1.00  0.00     0.163 HD
ATOM     30  O   UNL A   1      40.606  20.559  26.238  1.00  0.00    -0.269 OA
BRANCH  28  31
ATOM     31  C   UNL A   1      39.961  22.748  26.807  1.00  0.00     0.039 A 
ATOM     32  C   UNL A   1      40.780  22.908  27.926  1.00  0.00     0.014 A 
ATOM     33  C   UNL A   1      39.454  23.858  26.126  1.00  0.00     0.014 A 
ATOM     34  C   UNL A   1      41.165  24.192  28.313  1.00  0.00     0.010 A 
ATOM     35  C   UNL A   1      39.890  25.130  26.474  1.00  0.00     0.010 A 
ATOM     36  C   UNL A   1      40.763  25.307  27.561  1.00  0.00    -0.014 A 
BRANCH  36  37
ATOM     37  C   UNL A   1      41.259  26.671  27.869  1.00  0.00     0.031 A 
ATOM     38  C   UNL A   1      42.682  27.036  27.560  1.00  0.00     0.074 A 
ATOM     39  C   UNL A   1      40.455  27.542  28.510  1.00  0.00     0.049 A 
ATOM     40  N   UNL A   1      43.341  28.126  27.857  1.00  0.00    -0.248 NA
ATOM     41  C   UNL A   1      43.476  26.022  26.852  1.00  0.00     0.031 C 
ATOM     42  C   UNL A   1      39.063  27.287  28.888  1.00  0.00     0.029 A 
ATOM     43  N   UNL A   1      40.696  28.811  28.970  1.00  0.00    -0.354 N 
ATOM     44  C   UNL A   1      44.633  27.924  27.385  1.00  0.00     0.074 A 
ATOM     45  C   UNL A   1      44.674  26.583  26.841  1.00  0.00     0.031 C 
ATOM     46  C   UNL A   1      38.568  28.374  29.501  1.00  0.00     0.029 A 
ATOM     47  C   UNL A   1      39.619  29.382  29.606  1.00  0.00     0.049 A 
ATOM     48  H   UNL A   1      41.559  29.270  28.856  1.00  0.00     0.167 HD
ATOM     49  C   UNL A   1      45.680  28.788  27.386  1.00  0.00     0.034 A 
ATOM     50  C   UNL A   1      39.497  30.576  30.219  1.00  0.00     0.034 A 
ATOM     51  C   UNL A   1      45.613  30.123  27.929  1.00  0.00     0.049 A 
ATOM     52  C   UNL A   1      40.691  31.494  30.267  1.00  0.00     0.074 A 
ATOM     53  C   UNL A   1      46.584  31.109  27.919  1.00  0.00     0.029 A 
ATOM     54  N   UNL A   1      44.516  30.655  28.596  1.00  0.00    -0.354 N 
ATOM     55  N   UNL A   1      41.893  31.311  29.770  1.00  0.00    -0.248 NA
ATOM     56  C   UNL A   1      40.512  32.773  30.963  1.00  0.00     0.031 C 
ATOM     57  C   UNL A   1      46.101  32.209  28.640  1.00  0.00     0.029 A 
ATOM     58  C   UNL A   1      44.802  31.937  29.040  1.00  0.00     0.049 A 
ATOM     59  H   UNL A   1      43.660  30.189  28.735  1.00  0.00     0.167 HD
ATOM     60  C   UNL A   1      42.605  32.469  30.071  1.00  0.00     0.074 A 
ATOM     61  C   UNL A   1      41.696  33.342  30.786  1.00  0.00     0.031 C 
ATOM     62  C   UNL A   1      43.890  32.786  29.772  1.00  0.00     0.034 A 
BRANCH  49  63
ATOM     63  C   UNL A   1      46.983  28.288  26.811  1.00  0.00     0.023 A 
ATOM     64  C   UNL A   1      47.233  28.306  25.427  1.00  0.00     0.031 A 
ATOM     65  C   UNL A   1      47.966  27.729  27.648  1.00  0.00     0.131 A 
ATOM     66  C   UNL A   1      48.381  27.687  24.913  1.00  0.00     0.055 A 
ATOM     67  C   UNL A   1      49.151  27.196  27.136  1.00  0.00     0.041 A 
ATOM     68  F   UNL A   1      47.779  27.666  28.975  1.00  0.00    -0.206 F 
ATOM     69  C   UNL A   1      49.355  27.153  25.759  1.00  0.00     0.022 A 
BRANCH  66  70
ATOM     70  S   UNL A   1      48.493  27.429  23.121  1.00  0.00     0.124 S 
ATOM     71  O   UNL A   1      49.798  28.012  22.820  1.00  0.00    -0.237 OA
ATOM     72  O   UNL A   1      48.399  25.978  23.006  1.00  0.00    -0.237 OA
ATOM     73  O   UNL A   1      47.351  28.174  22.595  1.00  0.00    -0.744 OA
ENDBRANCH  66  70
ENDBRANCH  49  63
BRANCH  50  74
ATOM     74  C   UNL A   1      38.206  30.974  30.844  1.00  0.00     0.023 A 
ATOM     75  C   UNL A   1      37.247  31.687  30.109  1.00  0.00     0.031 A 
ATOM     76  C   UNL A   1      37.921  30.671  32.186  1.00  0.00     0.131 A 
ATOM     77  C   UNL A   1      36.059  32.105  30.730  1.00  0.00     0.055 A 
ATOM     78  C   UNL A   1      36.720  31.051  32.788  1.00  0.00     0.041 A 
ATOM     79  F   UNL A   1      38.804  29.985  32.930  1.00  0.00    -0.206 F 
ATOM     80  C   UNL A   1      35.785  31.782  32.061  1.00  0.00     0.022 A 
BRANCH  77  81
ATOM     81  S   UNL A   1      34.900  33.129  29.783  1.00  0.00     0.124 S 
ATOM     82  O   UNL A   1      34.298  32.147  28.888  1.00  0.00    -0.237 OA
ATOM     83  O   UNL A   1      34.036  33.658  30.833  1.00  0.00    -0.237 OA
ATOM     84  O   UNL A   1      35.766  34.114  29.138  1.00  0.00    -0.744 OA
ENDBRANCH  77  81
ENDBRANCH  50  74
BRANCH  62  85
ATOM     85  C   UNL A   1      44.371  34.151  30.195  1.00  0.00     0.023 A 
ATOM     86  C   UNL A   1      44.152  35.290  29.401  1.00  0.00     0.031 A 
ATOM     87  C   UNL A   1      45.067  34.309  31.406  1.00  0.00     0.131 A 
ATOM     88  C   UNL A   1      44.662  36.532  29.808  1.00  0.00     0.055 A 
ATOM     89  C   UNL A   1      45.526  35.557  31.832  1.00  0.00     0.041 A 
ATOM     90  F   UNL A   1      45.306  33.252  32.200  1.00  0.00    -0.206 F 
ATOM     91  C   UNL A   1      45.333  36.675  31.027  1.00  0.00     0.022 A 
BRANCH  88  92
ATOM     92  S   UNL A   1      44.496  37.952  28.692  1.00  0.00     0.124 S 
ATOM     93  O   UNL A   1      43.067  38.235  28.774  1.00  0.00    -0.237 OA
ATOM     94  O   UNL A   1      45.378  38.939  29.305  1.00  0.00    -0.237 OA
ATOM     95  O   UNL A   1      44.952  37.432  27.404  1.00  0.00    -0.744 OA
ENDBRANCH  88  92
ENDBRANCH  62  85
ENDBRANCH  36  37
ENDBRANCH  28  31
ENDBRANCH  26  27
ENDBRANCH  25  26
ENDBRANCH   1  25
TORSDOF 19
ENDMDL
MODEL 3
REMARK VINA RESULT:     -11.7      4.966     10.461
REMARK SMILES CCC[C@@H](C(=O)N1CC[C@@](C)(C(=O)NCCCCNC(=O)c2ccc(-c3c4nc(c(-c5cc(S(=O)(=O)[O-])ccc5F)c5ccc([nH]5)c(-c5cc(S(=O)(=O)[O-])ccc5F)c5nc(c(-c6cc(S(=O)(=O)[O-])ccc6F)c6ccc3[nH]6)C=C5)C=C4)cc2)C1)c1ccccc1
REMARK SMILES IDX 16 1 15 2 14 3 12 4 13 5 10 7 7 8 8 9 85 10 9 11 11 12 5 13
REMARK SMILES IDX 6 14 4 15 3 16 2 17 1 18 86 19 87 20 91 21 88 22 90 23 89 24
REMARK SMILES IDX 17 25 18 26 19 27 20 28 21 30 22 31 23 32 84 33 24 34 83 35
REMARK SMILES IDX 25 36 26 37 27 38 77 39 28 40 82 41 76 42 78 43 29 44 81 45
REMARK SMILES IDX 75 46 74 47 30 49 62 50 42 51 61 52 43 53 46 54 60 55 79 56
REMARK SMILES IDX 44 57 45 58 59 60 80 61 47 62 31 63 32 64 40 65 33 66 39 67
REMARK SMILES IDX 41 68 38 69 34 70 35 71 36 72 37 73 63 74 64 75 72 76 65 77
REMARK SMILES IDX 71 78 73 79 70 80 66 81 67 82 68 83 69 84 48 85 49 86 57 87
REMARK SMILES IDX 50 88 56 89 58 90 55 91 51 92 52 93 53 94 54 95
REMARK H PARENT 14 6 19 29 78 48 46 59
REMARK Flexibility Score: inf
ROOT
ATOM      1  C   UNL A   1      36.619  23.018  23.662  1.00  0.00     0.023 C 
ENDROOT
BRANCH   1   2
ATOM      2  C   UNL A   1      35.192  23.331  23.218  1.00  0.00     0.116 C 
BRANCH   2   3
ATOM      3  N   UNL A   1      34.281  22.317  23.699  1.00  0.00    -0.356 N 
ATOM      4  C   UNL A   1      33.214  22.387  24.533  1.00  0.00     0.227 C 
ATOM      5  O   UNL A   1      32.736  21.301  24.873  1.00  0.00    -0.274 OA
ATOM      6  H   UNL A   1      34.470  21.412  23.362  1.00  0.00     0.163 HD
BRANCH   4   7
ATOM      7  C   UNL A   1      32.564  23.727  24.934  1.00  0.00     0.066 C 
ATOM      8  N   UNL A   1      31.654  25.067  23.120  1.00  0.00    -0.341 N 
ATOM      9  C   UNL A   1      30.624  24.150  23.561  1.00  0.00     0.120 C 
ATOM     10  C   UNL A   1      32.880  24.786  23.850  1.00  0.00     0.136 C 
ATOM     11  C   UNL A   1      31.029  23.757  24.972  1.00  0.00     0.040 C 
ATOM     12  C   UNL A   1      33.180  24.177  26.269  1.00  0.00     0.024 C 
BRANCH   8  13
ATOM     13  C   UNL A   1      31.335  26.397  22.864  1.00  0.00     0.230 C 
ATOM     14  O   UNL A   1      31.931  27.026  21.989  1.00  0.00    -0.274 OA
BRANCH  13  15
ATOM     15  C   UNL A   1      30.286  27.032  23.826  1.00  0.00     0.108 C 
BRANCH  15  16
ATOM     16  C   UNL A   1      29.248  27.949  23.127  1.00  0.00     0.018 C 
BRANCH  16  17
ATOM     17  C   UNL A   1      29.345  29.474  23.231  1.00  0.00    -0.002 C 
ATOM     18  C   UNL A   1      29.496  30.209  21.909  1.00  0.00     0.004 C 
ENDBRANCH  16  17
ENDBRANCH  15  16
BRANCH  15  19
ATOM     19  C   UNL A   1      31.000  27.753  25.001  1.00  0.00    -0.036 A 
ATOM     20  C   UNL A   1      31.678  28.961  24.758  1.00  0.00     0.004 A 
ATOM     21  C   UNL A   1      31.024  27.254  26.317  1.00  0.00     0.004 A 
ATOM     22  C   UNL A   1      32.348  29.637  25.785  1.00  0.00     0.000 A 
ATOM     23  C   UNL A   1      31.716  27.915  27.336  1.00  0.00     0.000 A 
ATOM     24  C   UNL A   1      32.375  29.109  27.071  1.00  0.00     0.000 A 
ENDBRANCH  15  19
ENDBRANCH  13  15
ENDBRANCH   8  13
ENDBRANCH   4   7
ENDBRANCH   2   3
ENDBRANCH   1   2
BRANCH   1  25
ATOM     25  C   UNL A   1      36.824  21.585  24.160  1.00  0.00     0.023 C 
BRANCH  25  26
ATOM     26  C   UNL A   1      37.361  21.466  25.582  1.00  0.00     0.116 C 
BRANCH  26  27
ATOM     27  N   UNL A   1      38.425  20.480  25.706  1.00  0.00    -0.352 N 
ATOM     28  C   UNL A   1      39.707  20.658  26.170  1.00  0.00     0.251 C 
ATOM     29  H   UNL A   1      38.196  19.567  25.420  1.00  0.00     0.163 HD
ATOM     30  O   UNL A   1      40.524  19.752  26.096  1.00  0.00    -0.269 OA
BRANCH  28  31
ATOM     31  C   UNL A   1      40.082  21.976  26.718  1.00  0.00     0.039 A 
ATOM     32  C   UNL A   1      40.966  22.035  27.796  1.00  0.00     0.014 A 
ATOM     33  C   UNL A   1      39.622  23.146  26.105  1.00  0.00     0.014 A 
ATOM     34  C   UNL A   1      41.461  23.272  28.208  1.00  0.00     0.010 A 
ATOM     35  C   UNL A   1      40.165  24.369  26.475  1.00  0.00     0.010 A 
ATOM     36  C   UNL A   1      41.102  24.442  27.520  1.00  0.00    -0.014 A 
BRANCH  36  37
ATOM     37  C   UNL A   1      41.709  25.754  27.849  1.00  0.00     0.031 A 
ATOM     38  C   UNL A   1      40.902  26.789  28.580  1.00  0.00     0.074 A 
ATOM     39  C   UNL A   1      42.948  26.043  27.406  1.00  0.00     0.049 A 
ATOM     40  N   UNL A   1      41.203  28.031  28.855  1.00  0.00    -0.248 NA
ATOM     41  C   UNL A   1      39.565  26.376  29.029  1.00  0.00     0.031 C 
ATOM     42  C   UNL A   1      43.814  25.128  26.660  1.00  0.00     0.029 A 
ATOM     43  N   UNL A   1      43.689  27.193  27.506  1.00  0.00    -0.354 N 
ATOM     44  C   UNL A   1      40.087  28.555  29.498  1.00  0.00     0.074 A 
ATOM     45  C   UNL A   1      39.084  27.510  29.511  1.00  0.00     0.031 C 
ATOM     46  C   UNL A   1      44.977  25.743  26.391  1.00  0.00     0.029 A 
ATOM     47  C   UNL A   1      44.920  27.111  26.898  1.00  0.00     0.049 A 
ATOM     48  H   UNL A   1      43.370  28.000  27.969  1.00  0.00     0.167 HD
ATOM     49  C   UNL A   1      39.924  29.786  30.045  1.00  0.00     0.034 A 
ATOM     50  C   UNL A   1      45.886  28.039  26.751  1.00  0.00     0.034 A 
ATOM     51  C   UNL A   1      40.940  30.810  30.026  1.00  0.00     0.049 A 
ATOM     52  C   UNL A   1      45.659  29.420  27.309  1.00  0.00     0.074 A 
ATOM     53  C   UNL A   1      40.915  32.064  30.611  1.00  0.00     0.029 A 
ATOM     54  N   UNL A   1      42.162  30.704  29.370  1.00  0.00    -0.354 N 
ATOM     55  N   UNL A   1      44.619  29.886  27.961  1.00  0.00    -0.248 NA
ATOM     56  C   UNL A   1      46.733  30.399  27.105  1.00  0.00     0.031 C 
ATOM     57  C   UNL A   1      42.089  32.739  30.251  1.00  0.00     0.029 A 
ATOM     58  C   UNL A   1      42.878  31.884  29.500  1.00  0.00     0.049 A 
ATOM     59  H   UNL A   1      42.473  29.906  28.884  1.00  0.00     0.167 HD
ATOM     60  C   UNL A   1      44.928  31.208  28.269  1.00  0.00     0.074 A 
ATOM     61  C   UNL A   1      46.252  31.460  27.737  1.00  0.00     0.031 C 
ATOM     62  C   UNL A   1      44.189  32.126  28.943  1.00  0.00     0.034 A 
BRANCH  49  63
ATOM     63  C   UNL A   1      38.585  30.086  30.675  1.00  0.00     0.023 A 
ATOM     64  C   UNL A   1      37.559  30.726  29.957  1.00  0.00     0.031 A 
ATOM     65  C   UNL A   1      38.349  29.785  32.028  1.00  0.00     0.131 A 
ATOM     66  C   UNL A   1      36.391  31.135  30.616  1.00  0.00     0.055 A 
ATOM     67  C   UNL A   1      37.146  30.114  32.656  1.00  0.00     0.041 A 
ATOM     68  F   UNL A   1      39.295  29.191  32.772  1.00  0.00    -0.206 F 
ATOM     69  C   UNL A   1      36.166  30.813  31.955  1.00  0.00     0.022 A 
BRANCH  66  70
ATOM     70  S   UNL A   1      35.256  32.252  29.746  1.00  0.00     0.124 S 
ATOM     71  O   UNL A   1      34.365  32.666  30.825  1.00  0.00    -0.237 OA
ATOM     72  O   UNL A   1      36.157  33.276  29.231  1.00  0.00    -0.237 OA
ATOM     73  O   UNL A   1      34.641  31.395  28.734  1.00  0.00    -0.744 OA
ENDBRANCH  66  70
ENDBRANCH  49  63
BRANCH  50  74
ATOM     74  C   UNL A   1      47.151  27.704  26.042  1.00  0.00     0.023 A 
ATOM     75  C   UNL A   1      47.255  27.867  24.652  1.00  0.00     0.031 A 
ATOM     76  C   UNL A   1      48.263  27.194  26.734  1.00  0.00     0.131 A 
ATOM     77  C   UNL A   1      48.435  27.492  23.991  1.00  0.00     0.055 A 
ATOM     78  C   UNL A   1      49.450  26.863  26.078  1.00  0.00     0.041 A 
ATOM     79  F   UNL A   1      48.216  27.026  28.066  1.00  0.00    -0.206 F 
ATOM     80  C   UNL A   1      49.537  27.001  24.696  1.00  0.00     0.022 A 
BRANCH  77  81
ATOM     81  S   UNL A   1      48.488  27.602  22.182  1.00  0.00     0.124 S 
ATOM     82  O   UNL A   1      48.690  26.207  21.804  1.00  0.00    -0.237 OA
ATOM     83  O   UNL A   1      47.179  28.168  21.874  1.00  0.00    -0.237 OA
ATOM     84  O   UNL A   1      49.622  28.489  21.928  1.00  0.00    -0.744 OA
ENDBRANCH  77  81
ENDBRANCH  50  74
BRANCH  62  85
ATOM     85  C   UNL A   1      44.819  33.477  29.165  1.00  0.00     0.023 A 
ATOM     86  C   UNL A   1      44.543  34.568  28.322  1.00  0.00     0.031 A 
ATOM     87  C   UNL A   1      45.715  33.671  30.230  1.00  0.00     0.131 A 
ATOM     88  C   UNL A   1      45.191  35.794  28.534  1.00  0.00     0.055 A 
ATOM     89  C   UNL A   1      46.316  34.908  30.468  1.00  0.00     0.041 A 
ATOM     90  F   UNL A   1      46.016  32.661  31.063  1.00  0.00    -0.206 F 
ATOM     91  C   UNL A   1      46.063  35.976  29.612  1.00  0.00     0.022 A 
BRANCH  88  92
ATOM     92  S   UNL A   1      44.932  37.137  27.342  1.00  0.00     0.124 S 
ATOM     93  O   UNL A   1      43.632  36.791  26.776  1.00  0.00    -0.237 OA
ATOM     94  O   UNL A   1      44.962  38.322  28.192  1.00  0.00    -0.237 OA
ATOM     95  O   UNL A   1      46.063  37.005  26.425  1.00  0.00    -0.744 OA
ENDBRANCH  88  92
ENDBRANCH  62  85
ENDBRANCH  36  37
ENDBRANCH  28  31
ENDBRANCH  26  27
ENDBRANCH  25  26
ENDBRANCH   1  25
TORSDOF 19
ENDMDL
