MODEL 1
REMARK VINA RESULT:     -14.0      0.000      0.000
REMARK SMILES CC(=O)Nc1cnc(N2CC=C(c3ccccc3C)CC2)c(C(=O)NCCCCNC(=O)c2ccc(-c3c4nc(c(-c5cc(S(=O)(=O)[O-])ccc5F)c5ccc([nH]5)c(-c5cc(S(=O)(=O)[O-])ccc5F)c5nc(c(-c6cc(S(=O)(=O)[O-])ccc6F)c6ccc3[nH]6)C=C5)C=C4)cc2)c1
REMARK SMILES IDX 28 1 27 2 26 3 25 4 23 5 24 6 22 8 5 9 6 10 96 11 7 12 8 13
REMARK SMILES IDX 4 14 1 15 2 16 3 17 9 19 10 20 21 21 11 22 20 23 12 24 13 25
REMARK SMILES IDX 14 26 18 27 15 28 17 29 19 30 16 31 29 32 30 33 31 34 32 36
REMARK SMILES IDX 33 37 34 38 95 39 35 40 94 41 36 42 37 43 38 44 88 45 39 46
REMARK SMILES IDX 93 47 87 48 89 49 40 50 92 51 86 52 85 53 41 55 73 56 53 57
REMARK SMILES IDX 72 58 54 59 57 60 71 61 90 62 55 63 56 64 70 66 91 67 58 68
REMARK SMILES IDX 42 69 43 70 51 71 44 72 50 73 52 74 49 75 45 76 46 77 47 78
REMARK SMILES IDX 48 79 74 80 75 81 83 82 76 83 82 84 84 85 81 86 77 87 78 88
REMARK SMILES IDX 79 89 80 90 59 91 60 92 68 93 61 94 67 95 69 96 66 97 62 98
REMARK SMILES IDX 63 99 64 100 65 101
REMARK H PARENT 25 7 4 18 30 35 89 54 57 65
REMARK Flexibility Score: inf
ROOT
ATOM      1  C   UNL A   1      33.720  29.785  27.595  1.00  0.00     0.023 C 
ENDROOT
BRANCH   1   2
ATOM      2  C   UNL A   1      34.354  28.570  26.901  1.00  0.00     0.023 C 
BRANCH   2   3
ATOM      3  C   UNL A   1      33.473  27.907  25.834  1.00  0.00     0.116 C 
BRANCH   3   4
ATOM      4  N   UNL A   1      32.630  26.844  26.370  1.00  0.00    -0.352 N 
ATOM      5  C   UNL A   1      32.461  25.498  26.160  1.00  0.00     0.255 C 
ATOM      6  O   UNL A   1      31.736  24.972  27.009  1.00  0.00    -0.269 OA
ATOM      7  H   UNL A   1      32.021  27.181  27.066  1.00  0.00     0.163 HD
BRANCH   5   8
ATOM      8  C   UNL A   1      33.075  24.672  25.057  1.00  0.00     0.084 A 
ATOM      9  C   UNL A   1      34.538  22.850  24.322  1.00  0.00     0.060 A 
ATOM     10  C   UNL A   1      34.046  23.043  23.048  1.00  0.00     0.139 A 
ATOM     11  C   UNL A   1      34.077  23.716  25.311  1.00  0.00     0.045 A 
ATOM     12  N   UNL A   1      33.105  23.951  22.740  1.00  0.00    -0.236 NA
ATOM     13  C   UNL A   1      32.603  24.755  23.723  1.00  0.00     0.141 A 
BRANCH   9  14
ATOM     14  N   UNL A   1      35.475  21.828  24.525  1.00  0.00    -0.325 N 
ATOM     15  C   UNL A   1      33.953  19.908  24.994  1.00  0.00     0.114 C 
ATOM     16  C   UNL A   1      35.324  20.519  24.891  1.00  0.00     0.221 C 
ATOM     17  O   UNL A   1      36.346  19.835  24.987  1.00  0.00    -0.275 OA
ATOM     18  H   UNL A   1      36.410  22.101  24.377  1.00  0.00     0.169 HD
ENDBRANCH   9  14
BRANCH  13  19
ATOM     19  N   UNL A   1      31.639  25.602  23.243  1.00  0.00    -0.352 N 
ATOM     20  C   UNL A   1      32.036  26.560  22.226  1.00  0.00     0.146 C 
ATOM     21  C   UNL A   1      30.230  25.479  23.571  1.00  0.00     0.123 C 
ATOM     22  C   UNL A   1      31.195  27.808  22.315  1.00  0.00    -0.002 C 
ATOM     23  C   UNL A   1      29.706  26.841  24.054  1.00  0.00     0.057 C 
ATOM     24  C   UNL A   1      30.145  27.967  23.146  1.00  0.00    -0.041 C 
BRANCH  24  25
ATOM     25  C   UNL A   1      29.400  29.243  23.166  1.00  0.00    -0.020 A 
ATOM     26  C   UNL A   1      28.277  29.363  22.326  1.00  0.00     0.008 A 
ATOM     27  C   UNL A   1      29.773  30.344  23.963  1.00  0.00    -0.044 A 
ATOM     28  C   UNL A   1      27.533  30.542  22.276  1.00  0.00     0.001 A 
ATOM     29  C   UNL A   1      29.001  31.520  23.917  1.00  0.00     0.004 A 
ATOM     30  C   UNL A   1      30.964  30.312  24.882  1.00  0.00     0.045 C 
ATOM     31  C   UNL A   1      27.894  31.621  23.074  1.00  0.00     0.000 A 
ENDBRANCH  24  25
ENDBRANCH  13  19
ENDBRANCH   5   8
ENDBRANCH   3   4
ENDBRANCH   2   3
ENDBRANCH   1   2
BRANCH   1  32
ATOM     32  C   UNL A   1      34.563  31.058  27.527  1.00  0.00     0.116 C 
BRANCH  32  33
ATOM     33  N   UNL A   1      34.972  31.644  28.791  1.00  0.00    -0.352 N 
ATOM     34  C   UNL A   1      35.916  31.166  29.697  1.00  0.00     0.251 C 
ATOM     35  H   UNL A   1      34.526  32.486  29.039  1.00  0.00     0.163 HD
ATOM     36  O   UNL A   1      36.075  31.691  30.779  1.00  0.00    -0.269 OA
BRANCH  34  37
ATOM     37  C   UNL A   1      36.824  30.061  29.269  1.00  0.00     0.039 A 
ATOM     38  C   UNL A   1      37.060  29.031  30.188  1.00  0.00     0.014 A 
ATOM     39  C   UNL A   1      37.587  30.141  28.106  1.00  0.00     0.014 A 
ATOM     40  C   UNL A   1      38.200  28.238  30.059  1.00  0.00     0.010 A 
ATOM     41  C   UNL A   1      38.767  29.422  28.025  1.00  0.00     0.010 A 
ATOM     42  C   UNL A   1      39.104  28.513  29.032  1.00  0.00    -0.014 A 
BRANCH  42  43
ATOM     43  C   UNL A   1      40.466  27.986  29.009  1.00  0.00     0.031 A 
ATOM     44  C   UNL A   1      40.742  26.611  28.548  1.00  0.00     0.074 A 
ATOM     45  C   UNL A   1      41.504  28.740  29.432  1.00  0.00     0.049 A 
ATOM     46  N   UNL A   1      41.707  25.879  28.995  1.00  0.00    -0.248 NA
ATOM     47  C   UNL A   1      39.914  25.938  27.557  1.00  0.00     0.031 C 
ATOM     48  C   UNL A   1      42.929  28.442  29.298  1.00  0.00     0.029 A 
ATOM     49  N   UNL A   1      41.456  29.806  30.320  1.00  0.00    -0.354 N 
ATOM     50  C   UNL A   1      41.810  24.784  28.172  1.00  0.00     0.074 A 
ATOM     51  C   UNL A   1      40.628  24.829  27.339  1.00  0.00     0.031 C 
ATOM     52  C   UNL A   1      43.600  29.105  30.252  1.00  0.00     0.029 A 
ATOM     53  C   UNL A   1      42.619  29.751  31.104  1.00  0.00     0.049 A 
ATOM     54  H   UNL A   1      40.739  30.475  30.387  1.00  0.00     0.167 HD
ATOM     55  C   UNL A   1      42.947  24.032  28.172  1.00  0.00     0.034 A 
ATOM     56  C   UNL A   1      42.554  29.651  32.463  1.00  0.00     0.034 A 
ATOM     57  C   UNL A   1      43.945  24.533  29.117  1.00  0.00     0.049 A 
ATOM     58  C   UNL A   1      43.252  28.434  33.026  1.00  0.00     0.074 A 
ATOM     59  C   UNL A   1      45.102  25.280  28.962  1.00  0.00     0.029 A 
ATOM     60  N   UNL A   1      43.690  24.493  30.482  1.00  0.00    -0.354 N 
ATOM     61  N   UNL A   1      43.671  27.424  32.316  1.00  0.00    -0.248 NA
ATOM     62  C   UNL A   1      43.486  28.244  34.451  1.00  0.00     0.031 C 
ATOM     63  C   UNL A   1      45.537  25.698  30.247  1.00  0.00     0.029 A 
ATOM     64  C   UNL A   1      44.658  25.190  31.185  1.00  0.00     0.049 A 
ATOM     65  H   UNL A   1      42.925  24.032  30.894  1.00  0.00     0.167 HD
ATOM     66  C   UNL A   1      44.174  26.446  33.144  1.00  0.00     0.074 A 
ATOM     67  C   UNL A   1      44.055  27.026  34.470  1.00  0.00     0.031 C 
ATOM     68  C   UNL A   1      44.612  25.245  32.644  1.00  0.00     0.034 A 
BRANCH  55  69
ATOM     69  C   UNL A   1      43.263  23.031  27.083  1.00  0.00     0.023 A 
ATOM     70  C   UNL A   1      42.697  21.741  27.130  1.00  0.00     0.031 A 
ATOM     71  C   UNL A   1      44.135  23.272  26.005  1.00  0.00     0.131 A 
ATOM     72  C   UNL A   1      43.089  20.735  26.228  1.00  0.00     0.055 A 
ATOM     73  C   UNL A   1      44.580  22.255  25.149  1.00  0.00     0.041 A 
ATOM     74  F   UNL A   1      44.559  24.511  25.713  1.00  0.00    -0.206 F 
ATOM     75  C   UNL A   1      44.070  20.971  25.270  1.00  0.00     0.022 A 
BRANCH  72  76
ATOM     76  S   UNL A   1      42.291  19.109  26.319  1.00  0.00     0.124 S 
ATOM     77  O   UNL A   1      40.946  19.392  25.828  1.00  0.00    -0.237 OA
ATOM     78  O   UNL A   1      43.139  18.302  25.450  1.00  0.00    -0.237 OA
ATOM     79  O   UNL A   1      42.368  18.772  27.741  1.00  0.00    -0.744 OA
ENDBRANCH  72  76
ENDBRANCH  55  69
BRANCH  56  80
ATOM     80  C   UNL A   1      41.336  30.293  33.040  1.00  0.00     0.023 A 
ATOM     81  C   UNL A   1      41.357  31.699  33.151  1.00  0.00     0.031 A 
ATOM     82  C   UNL A   1      40.091  29.652  33.062  1.00  0.00     0.131 A 
ATOM     83  C   UNL A   1      40.166  32.427  33.041  1.00  0.00     0.055 A 
ATOM     84  C   UNL A   1      38.898  30.387  33.073  1.00  0.00     0.041 A 
ATOM     85  F   UNL A   1      40.003  28.320  32.938  1.00  0.00    -0.206 F 
ATOM     86  C   UNL A   1      38.931  31.782  33.008  1.00  0.00     0.022 A 
BRANCH  83  87
ATOM     87  S   UNL A   1      40.306  34.174  32.570  1.00  0.00     0.124 S 
ATOM     88  O   UNL A   1      38.926  34.634  32.647  1.00  0.00    -0.237 OA
ATOM     89  O   UNL A   1      41.207  34.696  33.599  1.00  0.00    -0.237 OA
ATOM     90  O   UNL A   1      40.887  34.141  31.231  1.00  0.00    -0.744 OA
ENDBRANCH  83  87
ENDBRANCH  56  80
BRANCH  68  91
ATOM     91  C   UNL A   1      45.084  24.022  33.428  1.00  0.00     0.023 A 
ATOM     92  C   UNL A   1      46.410  23.790  33.821  1.00  0.00     0.031 A 
ATOM     93  C   UNL A   1      44.162  23.020  33.836  1.00  0.00     0.131 A 
ATOM     94  C   UNL A   1      46.780  22.640  34.548  1.00  0.00     0.055 A 
ATOM     95  C   UNL A   1      44.524  21.893  34.586  1.00  0.00     0.041 A 
ATOM     96  F   UNL A   1      42.858  23.084  33.535  1.00  0.00    -0.206 F 
ATOM     97  C   UNL A   1      45.844  21.694  34.946  1.00  0.00     0.022 A 
BRANCH  94  98
ATOM     98  S   UNL A   1      48.534  22.402  34.943  1.00  0.00     0.124 S 
ATOM     99  O   UNL A   1      49.144  23.587  34.344  1.00  0.00    -0.237 OA
ATOM    100  O   UNL A   1      48.522  22.367  36.401  1.00  0.00    -0.237 OA
ATOM    101  O   UNL A   1      48.869  21.136  34.293  1.00  0.00    -0.744 OA
ENDBRANCH  94  98
ENDBRANCH  68  91
ENDBRANCH  42  43
ENDBRANCH  34  37
ENDBRANCH  32  33
ENDBRANCH   1  32
TORSDOF 17
ENDMDL
MODEL 2
REMARK VINA RESULT:     -13.9      1.364      4.470
REMARK SMILES CC(=O)Nc1cnc(N2CC=C(c3ccccc3C)CC2)c(C(=O)NCCCCNC(=O)c2ccc(-c3c4nc(c(-c5cc(S(=O)(=O)[O-])ccc5F)c5ccc([nH]5)c(-c5cc(S(=O)(=O)[O-])ccc5F)c5nc(c(-c6cc(S(=O)(=O)[O-])ccc6F)c6ccc3[nH]6)C=C5)C=C4)cc2)c1
REMARK SMILES IDX 28 1 27 2 26 3 25 4 23 5 24 6 22 8 5 9 6 10 96 11 7 12 8 13
REMARK SMILES IDX 4 14 1 15 2 16 3 17 9 19 10 20 21 21 11 22 20 23 12 24 13 25
REMARK SMILES IDX 14 26 18 27 15 28 17 29 19 30 16 31 29 32 30 33 31 34 32 36
REMARK SMILES IDX 33 37 34 38 95 39 35 40 94 41 36 42 37 43 38 44 88 45 39 46
REMARK SMILES IDX 93 47 87 48 89 49 40 50 92 51 86 52 85 53 41 55 73 56 53 57
REMARK SMILES IDX 72 58 54 59 57 60 71 61 90 62 55 63 56 64 70 66 91 67 58 68
REMARK SMILES IDX 42 69 43 70 51 71 44 72 50 73 52 74 49 75 45 76 46 77 47 78
REMARK SMILES IDX 48 79 74 80 75 81 83 82 76 83 82 84 84 85 81 86 77 87 78 88
REMARK SMILES IDX 79 89 80 90 59 91 60 92 68 93 61 94 67 95 69 96 66 97 62 98
REMARK SMILES IDX 63 99 64 100 65 101
REMARK H PARENT 25 7 4 18 30 35 89 54 57 65
REMARK Flexibility Score: inf
ROOT
ATOM      1  C   UNL A   1      32.640  30.408  27.031  1.00  0.00     0.023 C 
ENDROOT
BRANCH   1   2
ATOM      2  C   UNL A   1      31.775  29.158  27.255  1.00  0.00     0.023 C 
BRANCH   2   3
ATOM      3  C   UNL A   1      32.520  27.825  27.102  1.00  0.00     0.116 C 
BRANCH   3   4
ATOM      4  N   UNL A   1      31.635  26.708  26.795  1.00  0.00    -0.352 N 
ATOM      5  C   UNL A   1      30.902  26.277  25.717  1.00  0.00     0.255 C 
ATOM      6  O   UNL A   1      30.443  25.143  25.877  1.00  0.00    -0.269 OA
ATOM      7  H   UNL A   1      31.535  26.103  27.565  1.00  0.00     0.163 HD
BRANCH   5   8
ATOM      8  C   UNL A   1      30.656  27.031  24.433  1.00  0.00     0.084 A 
ATOM      9  C   UNL A   1      29.421  28.717  23.157  1.00  0.00     0.060 A 
ATOM     10  C   UNL A   1      30.338  28.541  22.142  1.00  0.00     0.139 A 
ATOM     11  C   UNL A   1      29.566  27.909  24.282  1.00  0.00     0.045 A 
ATOM     12  N   UNL A   1      31.388  27.706  22.220  1.00  0.00    -0.236 NA
ATOM     13  C   UNL A   1      31.569  26.962  23.350  1.00  0.00     0.141 A 
BRANCH   9  14
ATOM     14  N   UNL A   1      28.405  29.665  22.976  1.00  0.00    -0.325 N 
ATOM     15  C   UNL A   1      29.345  31.585  24.262  1.00  0.00     0.114 C 
ATOM     16  C   UNL A   1      28.244  30.928  23.475  1.00  0.00     0.221 C 
ATOM     17  O   UNL A   1      27.233  31.548  23.134  1.00  0.00    -0.275 OA
ATOM     18  H   UNL A   1      27.676  29.369  22.383  1.00  0.00     0.169 HD
ENDBRANCH   9  14
BRANCH  13  19
ATOM     19  N   UNL A   1      32.695  26.186  23.273  1.00  0.00    -0.352 N 
ATOM     20  C   UNL A   1      32.707  25.121  22.286  1.00  0.00     0.146 C 
ATOM     21  C   UNL A   1      33.919  26.477  23.998  1.00  0.00     0.123 C 
ATOM     22  C   UNL A   1      33.570  23.976  22.750  1.00  0.00    -0.002 C 
ATOM     23  C   UNL A   1      34.368  25.214  24.751  1.00  0.00     0.057 C 
ATOM     24  C   UNL A   1      34.319  23.986  23.871  1.00  0.00    -0.041 C 
BRANCH  24  25
ATOM     25  C   UNL A   1      35.115  22.798  24.244  1.00  0.00    -0.020 A 
ATOM     26  C   UNL A   1      36.518  22.899  24.181  1.00  0.00     0.008 A 
ATOM     27  C   UNL A   1      34.539  21.572  24.634  1.00  0.00    -0.044 A 
ATOM     28  C   UNL A   1      37.337  21.816  24.501  1.00  0.00     0.001 A 
ATOM     29  C   UNL A   1      35.378  20.494  24.972  1.00  0.00     0.004 A 
ATOM     30  C   UNL A   1      33.051  21.368  24.719  1.00  0.00     0.045 C 
ATOM     31  C   UNL A   1      36.766  20.613  24.899  1.00  0.00     0.000 A 
ENDBRANCH  24  25
ENDBRANCH  13  19
ENDBRANCH   5   8
ENDBRANCH   3   4
ENDBRANCH   2   3
ENDBRANCH   1   2
BRANCH   1  32
ATOM     32  C   UNL A   1      34.113  30.226  27.397  1.00  0.00     0.116 C 
BRANCH  32  33
ATOM     33  N   UNL A   1      34.677  31.173  28.342  1.00  0.00    -0.352 N 
ATOM     34  C   UNL A   1      35.825  31.033  29.120  1.00  0.00     0.251 C 
ATOM     35  H   UNL A   1      34.188  32.020  28.446  1.00  0.00     0.163 HD
ATOM     36  O   UNL A   1      36.119  31.854  29.964  1.00  0.00    -0.269 OA
BRANCH  34  37
ATOM     37  C   UNL A   1      36.762  29.911  28.819  1.00  0.00     0.039 A 
ATOM     38  C   UNL A   1      37.047  29.015  29.858  1.00  0.00     0.014 A 
ATOM     39  C   UNL A   1      37.503  29.865  27.641  1.00  0.00     0.014 A 
ATOM     40  C   UNL A   1      38.211  28.248  29.808  1.00  0.00     0.010 A 
ATOM     41  C   UNL A   1      38.706  29.178  27.629  1.00  0.00     0.010 A 
ATOM     42  C   UNL A   1      39.089  28.417  28.737  1.00  0.00    -0.014 A 
BRANCH  42  43
ATOM     43  C   UNL A   1      40.467  27.934  28.755  1.00  0.00     0.031 A 
ATOM     44  C   UNL A   1      40.799  26.564  28.316  1.00  0.00     0.074 A 
ATOM     45  C   UNL A   1      41.469  28.725  29.195  1.00  0.00     0.049 A 
ATOM     46  N   UNL A   1      41.775  25.868  28.796  1.00  0.00    -0.248 NA
ATOM     47  C   UNL A   1      40.018  25.854  27.312  1.00  0.00     0.031 C 
ATOM     48  C   UNL A   1      42.905  28.472  29.101  1.00  0.00     0.029 A 
ATOM     49  N   UNL A   1      41.364  29.798  30.070  1.00  0.00    -0.354 N 
ATOM     50  C   UNL A   1      41.934  24.769  27.988  1.00  0.00     0.074 A 
ATOM     51  C   UNL A   1      40.774  24.767  27.125  1.00  0.00     0.031 C 
ATOM     52  C   UNL A   1      43.531  29.166  30.064  1.00  0.00     0.029 A 
ATOM     53  C   UNL A   1      42.508  29.789  30.884  1.00  0.00     0.049 A 
ATOM     54  H   UNL A   1      40.624  30.445  30.111  1.00  0.00     0.167 HD
ATOM     55  C   UNL A   1      43.094  24.053  28.025  1.00  0.00     0.034 A 
ATOM     56  C   UNL A   1      42.411  29.701  32.242  1.00  0.00     0.034 A 
ATOM     57  C   UNL A   1      44.051  24.596  28.989  1.00  0.00     0.049 A 
ATOM     58  C   UNL A   1      43.133  28.513  32.835  1.00  0.00     0.074 A 
ATOM     59  C   UNL A   1      45.187  25.379  28.856  1.00  0.00     0.029 A 
ATOM     60  N   UNL A   1      43.762  24.563  30.348  1.00  0.00    -0.354 N 
ATOM     61  N   UNL A   1      43.602  27.510  32.148  1.00  0.00    -0.248 NA
ATOM     62  C   UNL A   1      43.336  28.346  34.268  1.00  0.00     0.031 C 
ATOM     63  C   UNL A   1      45.576  25.824  30.146  1.00  0.00     0.029 A 
ATOM     64  C   UNL A   1      44.689  25.297  31.068  1.00  0.00     0.049 A 
ATOM     65  H   UNL A   1      43.002  24.081  30.746  1.00  0.00     0.167 HD
ATOM     66  C   UNL A   1      44.115  26.557  33.000  1.00  0.00     0.074 A 
ATOM     67  C   UNL A   1      43.943  27.147  34.316  1.00  0.00     0.031 C 
ATOM     68  C   UNL A   1      44.604  25.367  32.524  1.00  0.00     0.034 A 
BRANCH  55  69
ATOM     69  C   UNL A   1      43.470  23.053  26.956  1.00  0.00     0.023 A 
ATOM     70  C   UNL A   1      42.925  21.753  26.988  1.00  0.00     0.031 A 
ATOM     71  C   UNL A   1      44.381  23.302  25.912  1.00  0.00     0.131 A 
ATOM     72  C   UNL A   1      43.369  20.749  26.109  1.00  0.00     0.055 A 
ATOM     73  C   UNL A   1      44.876  22.288  25.080  1.00  0.00     0.041 A 
ATOM     74  F   UNL A   1      44.795  24.546  25.629  1.00  0.00    -0.206 F 
ATOM     75  C   UNL A   1      44.383  20.996  25.189  1.00  0.00     0.022 A 
BRANCH  72  76
ATOM     76  S   UNL A   1      42.595  19.110  26.178  1.00  0.00     0.124 S 
ATOM     77  O   UNL A   1      43.621  18.254  25.590  1.00  0.00    -0.237 OA
ATOM     78  O   UNL A   1      42.356  18.944  27.607  1.00  0.00    -0.237 OA
ATOM     79  O   UNL A   1      41.388  19.270  25.367  1.00  0.00    -0.744 OA
ENDBRANCH  72  76
ENDBRANCH  55  69
BRANCH  56  80
ATOM     80  C   UNL A   1      41.159  30.309  32.780  1.00  0.00     0.023 A 
ATOM     81  C   UNL A   1      41.086  31.718  32.769  1.00  0.00     0.031 A 
ATOM     82  C   UNL A   1      39.959  29.593  32.877  1.00  0.00     0.131 A 
ATOM     83  C   UNL A   1      39.848  32.354  32.616  1.00  0.00     0.055 A 
ATOM     84  C   UNL A   1      38.720  30.245  32.844  1.00  0.00     0.041 A 
ATOM     85  F   UNL A   1      39.960  28.251  32.869  1.00  0.00    -0.206 F 
ATOM     86  C   UNL A   1      38.659  31.628  32.658  1.00  0.00     0.022 A 
BRANCH  83  87
ATOM     87  S   UNL A   1      39.866  34.058  31.994  1.00  0.00     0.124 S 
ATOM     88  O   UNL A   1      39.782  33.871  30.552  1.00  0.00    -0.237 OA
ATOM     89  O   UNL A   1      38.677  34.628  32.630  1.00  0.00    -0.237 OA
ATOM     90  O   UNL A   1      41.125  34.609  32.487  1.00  0.00    -0.744 OA
ENDBRANCH  83  87
ENDBRANCH  56  80
BRANCH  68  91
ATOM     91  C   UNL A   1      45.095  24.167  33.333  1.00  0.00     0.023 A 
ATOM     92  C   UNL A   1      46.375  24.053  33.892  1.00  0.00     0.031 A 
ATOM     93  C   UNL A   1      44.236  23.064  33.592  1.00  0.00     0.131 A 
ATOM     94  C   UNL A   1      46.765  22.918  34.633  1.00  0.00     0.055 A 
ATOM     95  C   UNL A   1      44.612  21.952  34.356  1.00  0.00     0.041 A 
ATOM     96  F   UNL A   1      42.981  23.011  33.124  1.00  0.00    -0.206 F 
ATOM     97  C   UNL A   1      45.888  21.870  34.881  1.00  0.00     0.022 A 
BRANCH  94  98
ATOM     98  S   UNL A   1      48.470  22.840  35.249  1.00  0.00     0.124 S 
ATOM     99  O   UNL A   1      49.231  23.321  34.099  1.00  0.00    -0.237 OA
ATOM    100  O   UNL A   1      48.426  23.738  36.398  1.00  0.00    -0.237 OA
ATOM    101  O   UNL A   1      48.659  21.427  35.571  1.00  0.00    -0.744 OA
ENDBRANCH  94  98
ENDBRANCH  68  91
ENDBRANCH  42  43
ENDBRANCH  34  37
ENDBRANCH  32  33
ENDBRANCH   1  32
TORSDOF 17
ENDMDL
MODEL 3
REMARK VINA RESULT:     -13.7      4.077     10.724
REMARK SMILES CC(=O)Nc1cnc(N2CC=C(c3ccccc3C)CC2)c(C(=O)NCCCCNC(=O)c2ccc(-c3c4nc(c(-c5cc(S(=O)(=O)[O-])ccc5F)c5ccc([nH]5)c(-c5cc(S(=O)(=O)[O-])ccc5F)c5nc(c(-c6cc(S(=O)(=O)[O-])ccc6F)c6ccc3[nH]6)C=C5)C=C4)cc2)c1
REMARK SMILES IDX 28 1 27 2 26 3 25 4 23 5 24 6 22 8 5 9 6 10 96 11 7 12 8 13
REMARK SMILES IDX 4 14 1 15 2 16 3 17 9 19 10 20 21 21 11 22 20 23 12 24 13 25
REMARK SMILES IDX 14 26 18 27 15 28 17 29 19 30 16 31 29 32 30 33 31 34 32 36
REMARK SMILES IDX 33 37 34 38 95 39 35 40 94 41 36 42 37 43 38 44 88 45 39 46
REMARK SMILES IDX 93 47 87 48 89 49 40 50 92 51 86 52 85 53 41 55 73 56 53 57
REMARK SMILES IDX 72 58 54 59 57 60 71 61 90 62 55 63 56 64 70 66 91 67 58 68
REMARK SMILES IDX 42 69 43 70 51 71 44 72 50 73 52 74 49 75 45 76 46 77 47 78
REMARK SMILES IDX 48 79 74 80 75 81 83 82 76 83 82 84 84 85 81 86 77 87 78 88
REMARK SMILES IDX 79 89 80 90 59 91 60 92 68 93 61 94 67 95 69 96 66 97 62 98
REMARK SMILES IDX 63 99 64 100 65 101
REMARK H PARENT 25 7 4 18 30 35 89 54 57 65
REMARK Flexibility Score: inf
ROOT
ATOM      1  C   UNL A   1      38.035  22.689  25.509  1.00  0.00     0.023 C 
ENDROOT
BRANCH   1   2
ATOM      2  C   UNL A   1      37.222  23.992  25.454  1.00  0.00     0.023 C 
BRANCH   2   3
ATOM      3  C   UNL A   1      35.702  23.797  25.369  1.00  0.00     0.116 C 
BRANCH   3   4
ATOM      4  N   UNL A   1      35.144  24.213  24.088  1.00  0.00    -0.352 N 
ATOM      5  C   UNL A   1      34.084  24.970  23.655  1.00  0.00     0.255 C 
ATOM      6  O   UNL A   1      34.126  25.198  22.443  1.00  0.00    -0.269 OA
ATOM      7  H   UNL A   1      35.665  23.856  23.333  1.00  0.00     0.163 HD
BRANCH   5   8
ATOM      8  C   UNL A   1      32.964  25.522  24.501  1.00  0.00     0.084 A 
ATOM      9  C   UNL A   1      31.771  27.426  25.476  1.00  0.00     0.060 A 
ATOM     10  C   UNL A   1      30.803  26.536  25.893  1.00  0.00     0.139 A 
ATOM     11  C   UNL A   1      32.878  26.890  24.824  1.00  0.00     0.045 A 
ATOM     12  N   UNL A   1      30.838  25.218  25.632  1.00  0.00    -0.236 NA
ATOM     13  C   UNL A   1      31.891  24.702  24.933  1.00  0.00     0.141 A 
BRANCH   9  14
ATOM     14  N   UNL A   1      31.587  28.786  25.760  1.00  0.00    -0.325 N 
ATOM     15  C   UNL A   1      33.420  29.154  27.411  1.00  0.00     0.114 C 
ATOM     16  C   UNL A   1      32.213  29.621  26.644  1.00  0.00     0.221 C 
ATOM     17  O   UNL A   1      31.841  30.797  26.674  1.00  0.00    -0.275 OA
ATOM     18  H   UNL A   1      30.880  29.218  25.227  1.00  0.00     0.169 HD
ENDBRANCH   9  14
BRANCH  13  19
ATOM     19  N   UNL A   1      31.757  23.353  24.735  1.00  0.00    -0.352 N 
ATOM     20  C   UNL A   1      31.725  22.503  25.912  1.00  0.00     0.146 C 
ATOM     21  C   UNL A   1      31.480  22.757  23.439  1.00  0.00     0.123 C 
ATOM     22  C   UNL A   1      32.288  21.141  25.599  1.00  0.00    -0.002 C 
ATOM     23  C   UNL A   1      32.499  21.637  23.174  1.00  0.00     0.057 C 
ATOM     24  C   UNL A   1      32.662  20.729  24.371  1.00  0.00    -0.041 C 
BRANCH  24  25
ATOM     25  C   UNL A   1      33.221  19.374  24.179  1.00  0.00    -0.020 A 
ATOM     26  C   UNL A   1      32.373  18.379  23.659  1.00  0.00     0.008 A 
ATOM     27  C   UNL A   1      34.547  19.031  24.511  1.00  0.00    -0.044 A 
ATOM     28  C   UNL A   1      32.823  17.073  23.466  1.00  0.00     0.001 A 
ATOM     29  C   UNL A   1      34.993  17.715  24.293  1.00  0.00     0.004 A 
ATOM     30  C   UNL A   1      35.522  20.025  25.083  1.00  0.00     0.045 C 
ATOM     31  C   UNL A   1      34.135  16.741  23.781  1.00  0.00     0.000 A 
ENDBRANCH  24  25
ENDBRANCH  13  19
ENDBRANCH   5   8
ENDBRANCH   3   4
ENDBRANCH   2   3
ENDBRANCH   1   2
BRANCH   1  32
ATOM     32  C   UNL A   1      38.990  22.595  26.699  1.00  0.00     0.116 C 
BRANCH  32  33
ATOM     33  N   UNL A   1      40.397  22.834  26.432  1.00  0.00    -0.352 N 
ATOM     34  C   UNL A   1      41.072  24.053  26.398  1.00  0.00     0.251 C 
ATOM     35  H   UNL A   1      40.943  22.036  26.252  1.00  0.00     0.163 HD
ATOM     36  O   UNL A   1      42.229  24.123  26.040  1.00  0.00    -0.269 OA
BRANCH  34  37
ATOM     37  C   UNL A   1      40.384  25.268  26.926  1.00  0.00     0.039 A 
ATOM     38  C   UNL A   1      40.614  26.477  26.258  1.00  0.00     0.014 A 
ATOM     39  C   UNL A   1      39.723  25.267  28.151  1.00  0.00     0.014 A 
ATOM     40  C   UNL A   1      40.397  27.685  26.923  1.00  0.00     0.010 A 
ATOM     41  C   UNL A   1      39.595  26.457  28.849  1.00  0.00     0.010 A 
ATOM     42  C   UNL A   1      39.989  27.660  28.257  1.00  0.00    -0.014 A 
BRANCH  42  43
ATOM     43  C   UNL A   1      40.063  28.827  29.132  1.00  0.00     0.031 A 
ATOM     44  C   UNL A   1      39.000  29.851  29.127  1.00  0.00     0.074 A 
ATOM     45  C   UNL A   1      41.121  29.006  29.954  1.00  0.00     0.049 A 
ATOM     46  N   UNL A   1      39.201  31.103  29.373  1.00  0.00    -0.248 NA
ATOM     47  C   UNL A   1      37.615  29.538  28.805  1.00  0.00     0.031 C 
ATOM     48  C   UNL A   1      41.260  30.000  31.016  1.00  0.00     0.029 A 
ATOM     49  N   UNL A   1      42.399  28.488  29.795  1.00  0.00    -0.354 N 
ATOM     50  C   UNL A   1      37.972  31.696  29.528  1.00  0.00     0.074 A 
ATOM     51  C   UNL A   1      37.018  30.700  29.093  1.00  0.00     0.031 C 
ATOM     52  C   UNL A   1      42.566  30.218  31.235  1.00  0.00     0.029 A 
ATOM     53  C   UNL A   1      43.305  29.464  30.239  1.00  0.00     0.049 A 
ATOM     54  H   UNL A   1      42.627  27.601  29.437  1.00  0.00     0.167 HD
ATOM     55  C   UNL A   1      37.870  32.909  30.143  1.00  0.00     0.034 A 
ATOM     56  C   UNL A   1      44.269  29.966  29.413  1.00  0.00     0.034 A 
ATOM     57  C   UNL A   1      39.170  33.431  30.562  1.00  0.00     0.049 A 
ATOM     58  C   UNL A   1      44.203  31.464  29.227  1.00  0.00     0.074 A 
ATOM     59  C   UNL A   1      39.816  33.486  31.787  1.00  0.00     0.029 A 
ATOM     60  N   UNL A   1      40.118  33.780  29.608  1.00  0.00    -0.354 N 
ATOM     61  N   UNL A   1      43.201  32.214  29.591  1.00  0.00    -0.248 NA
ATOM     62  C   UNL A   1      45.252  32.226  28.564  1.00  0.00     0.031 C 
ATOM     63  C   UNL A   1      41.166  33.864  31.562  1.00  0.00     0.029 A 
ATOM     64  C   UNL A   1      41.337  34.057  30.203  1.00  0.00     0.049 A 
ATOM     65  H   UNL A   1      39.947  33.825  28.640  1.00  0.00     0.167 HD
ATOM     66  C   UNL A   1      43.418  33.513  29.191  1.00  0.00     0.074 A 
ATOM     67  C   UNL A   1      44.732  33.465  28.574  1.00  0.00     0.031 C 
ATOM     68  C   UNL A   1      42.473  34.488  29.391  1.00  0.00     0.034 A 
BRANCH  55  69
ATOM     69  C   UNL A   1      36.553  33.463  30.638  1.00  0.00     0.023 A 
ATOM     70  C   UNL A   1      35.652  34.052  29.728  1.00  0.00     0.031 A 
ATOM     71  C   UNL A   1      36.148  33.477  31.986  1.00  0.00     0.131 A 
ATOM     72  C   UNL A   1      34.494  34.718  30.168  1.00  0.00     0.055 A 
ATOM     73  C   UNL A   1      35.033  34.199  32.435  1.00  0.00     0.041 A 
ATOM     74  F   UNL A   1      36.793  32.757  32.916  1.00  0.00    -0.206 F 
ATOM     75  C   UNL A   1      34.208  34.841  31.525  1.00  0.00     0.022 A 
BRANCH  72  76
ATOM     76  S   UNL A   1      33.358  35.418  28.940  1.00  0.00     0.124 S 
ATOM     77  O   UNL A   1      34.243  36.255  28.135  1.00  0.00    -0.237 OA
ATOM     78  O   UNL A   1      32.833  34.222  28.291  1.00  0.00    -0.237 OA
ATOM     79  O   UNL A   1      32.389  36.152  29.753  1.00  0.00    -0.744 OA
ENDBRANCH  72  76
ENDBRANCH  55  69
BRANCH  56  80
ATOM     80  C   UNL A   1      44.726  28.985  28.385  1.00  0.00     0.023 A 
ATOM     81  C   UNL A   1      45.618  27.983  28.821  1.00  0.00     0.031 A 
ATOM     82  C   UNL A   1      44.019  28.761  27.197  1.00  0.00     0.131 A 
ATOM     83  C   UNL A   1      45.603  26.721  28.214  1.00  0.00     0.055 A 
ATOM     84  C   UNL A   1      44.100  27.534  26.526  1.00  0.00     0.041 A 
ATOM     85  F   UNL A   1      43.139  29.665  26.742  1.00  0.00    -0.206 F 
ATOM     86  C   UNL A   1      44.854  26.488  27.063  1.00  0.00     0.022 A 
BRANCH  83  87
ATOM     87  S   UNL A   1      46.275  25.335  29.173  1.00  0.00     0.124 S 
ATOM     88  O   UNL A   1      46.466  25.925  30.491  1.00  0.00    -0.237 OA
ATOM     89  O   UNL A   1      45.202  24.345  29.071  1.00  0.00    -0.237 OA
ATOM     90  O   UNL A   1      47.496  24.964  28.464  1.00  0.00    -0.744 OA
ENDBRANCH  83  87
ENDBRANCH  56  80
BRANCH  68  91
ATOM     91  C   UNL A   1      42.506  35.936  28.909  1.00  0.00     0.023 A 
ATOM     92  C   UNL A   1      43.125  36.991  29.594  1.00  0.00     0.031 A 
ATOM     93  C   UNL A   1      41.904  36.306  27.675  1.00  0.00     0.131 A 
ATOM     94  C   UNL A   1      43.124  38.309  29.091  1.00  0.00     0.055 A 
ATOM     95  C   UNL A   1      41.931  37.609  27.159  1.00  0.00     0.041 A 
ATOM     96  F   UNL A   1      41.264  35.421  26.899  1.00  0.00    -0.206 F 
ATOM     97  C   UNL A   1      42.542  38.624  27.870  1.00  0.00     0.022 A 
BRANCH  94  98
ATOM     98  S   UNL A   1      43.889  39.611  30.095  1.00  0.00     0.124 S 
ATOM     99  O   UNL A   1      44.749  40.279  29.122  1.00  0.00    -0.237 OA
ATOM    100  O   UNL A   1      42.732  40.376  30.547  1.00  0.00    -0.237 OA
ATOM    101  O   UNL A   1      44.594  38.873  31.142  1.00  0.00    -0.744 OA
ENDBRANCH  94  98
ENDBRANCH  68  91
ENDBRANCH  42  43
ENDBRANCH  34  37
ENDBRANCH  32  33
ENDBRANCH   1  32
TORSDOF 17
ENDMDL
