MODEL 1
REMARK VINA RESULT:     -14.2      0.000      0.000
REMARK SMILES Cc1cnn(C2(C(=O)NCCCCNC(=O)c3ccc(-c4c5nc(c(-c6cc(S(=O)(=O)[O-])ccc6F)c6ccc([nH]6)c(-c6cc(S(=O)(=O)[O-])ccc6F)c6nc(c(-c7cc(S(=O)(=O)[O-])ccc7F)c7ccc4[nH]7)C=C6)C=C5)cc3)CCN(C(=O)c3cc4ccccc4[nH]3)CC2)c1
REMARK SMILES IDX 12 1 11 2 10 3 9 4 7 5 8 6 6 8 80 9 95 10 81 11 94 12 82 13
REMARK SMILES IDX 83 14 84 15 5 16 1 17 2 18 3 19 96 20 4 21 85 22 86 23 93 24
REMARK SMILES IDX 87 25 92 26 88 28 91 29 89 30 90 31 13 32 14 33 15 34 16 36
REMARK SMILES IDX 17 37 18 38 79 39 19 40 78 41 20 42 21 43 22 44 72 45 23 46
REMARK SMILES IDX 77 47 71 48 73 49 24 50 76 51 70 52 69 53 25 55 57 56 37 57
REMARK SMILES IDX 56 58 38 59 41 60 55 61 74 62 39 63 40 64 54 66 75 67 42 68
REMARK SMILES IDX 26 69 27 70 35 71 28 72 34 73 36 74 33 75 29 76 30 77 31 78
REMARK SMILES IDX 32 79 58 80 59 81 67 82 60 83 66 84 68 85 65 86 61 87 62 88
REMARK SMILES IDX 63 89 64 90 43 91 44 92 52 93 45 94 51 95 53 96 50 97 46 98
REMARK SMILES IDX 47 99 48 100 49 101
REMARK H PARENT 9 7 93 27 14 35 73 54 41 65
REMARK Flexibility Score: inf
ROOT
ATOM      1  C   UNL A   1      33.805  29.524  26.932  1.00  0.00     0.023 C 
ENDROOT
BRANCH   1   2
ATOM      2  C   UNL A   1      32.686  28.576  27.379  1.00  0.00     0.023 C 
BRANCH   2   3
ATOM      3  C   UNL A   1      31.554  28.342  26.369  1.00  0.00     0.116 C 
BRANCH   3   4
ATOM      4  N   UNL A   1      30.745  27.173  26.694  1.00  0.00    -0.354 N 
ATOM      5  C   UNL A   1      30.770  25.853  26.296  1.00  0.00     0.248 C 
ATOM      6  O   UNL A   1      29.814  25.204  26.724  1.00  0.00    -0.272 OA
ATOM      7  H   UNL A   1      30.026  27.368  27.338  1.00  0.00     0.163 HD
BRANCH   5   8
ATOM      8  C   UNL A   1      31.904  25.290  25.366  1.00  0.00     0.144 C 
ATOM      9  C   UNL A   1      33.210  25.327  26.202  1.00  0.00     0.062 C 
ATOM     10  C   UNL A   1      31.444  23.888  24.900  1.00  0.00     0.062 C 
ATOM     11  C   UNL A   1      34.216  24.224  25.924  1.00  0.00     0.123 C 
ATOM     12  C   UNL A   1      32.569  22.909  24.616  1.00  0.00     0.123 C 
ATOM     13  N   UNL A   1      33.606  22.936  25.644  1.00  0.00    -0.337 N 
ATOM     14  C   UNL A   1      34.129  21.801  26.273  1.00  0.00     0.270 C 
ATOM     15  O   UNL A   1      34.777  21.885  27.314  1.00  0.00    -0.267 OA
BRANCH   8  16
ATOM     16  N   UNL A   1      32.154  26.088  24.117  1.00  0.00    -0.257 N 
ATOM     17  C   UNL A   1      34.060  28.279  21.876  1.00  0.00     0.048 C 
ATOM     18  C   UNL A   1      33.126  27.382  22.588  1.00  0.00    -0.013 A 
ATOM     19  C   UNL A   1      31.918  26.823  22.135  1.00  0.00     0.138 A 
ATOM     20  C   UNL A   1      33.251  26.887  23.865  1.00  0.00     0.113 A 
ATOM     21  N   UNL A   1      31.348  26.035  23.045  1.00  0.00    -0.180 NA
ENDBRANCH   8  16
BRANCH  14  22
ATOM     22  C   UNL A   1      33.870  20.516  25.664  1.00  0.00     0.105 A 
ATOM     23  C   UNL A   1      32.707  19.766  25.588  1.00  0.00     0.042 A 
ATOM     24  N   UNL A   1      34.827  19.814  24.965  1.00  0.00    -0.351 N 
ATOM     25  C   UNL A   1      33.030  18.502  25.036  1.00  0.00     0.000 A 
ATOM     26  C   UNL A   1      34.366  18.560  24.641  1.00  0.00     0.046 A 
ATOM     27  H   UNL A   1      35.718  20.162  24.730  1.00  0.00     0.167 HD
ATOM     28  C   UNL A   1      32.314  17.304  24.859  1.00  0.00     0.010 A 
ATOM     29  C   UNL A   1      35.022  17.476  24.050  1.00  0.00     0.026 A 
ATOM     30  C   UNL A   1      32.966  16.200  24.300  1.00  0.00     0.001 A 
ATOM     31  C   UNL A   1      34.297  16.289  23.897  1.00  0.00     0.002 A 
ENDBRANCH  14  22
ENDBRANCH   5   8
ENDBRANCH   3   4
ENDBRANCH   2   3
ENDBRANCH   1   2
BRANCH   1  32
ATOM     32  C   UNL A   1      35.163  29.246  27.561  1.00  0.00     0.116 C 
BRANCH  32  33
ATOM     33  N   UNL A   1      35.408  30.048  28.756  1.00  0.00    -0.352 N 
ATOM     34  C   UNL A   1      36.452  29.918  29.656  1.00  0.00     0.251 C 
ATOM     35  H   UNL A   1      34.758  30.763  28.942  1.00  0.00     0.163 HD
ATOM     36  O   UNL A   1      36.352  30.351  30.791  1.00  0.00    -0.269 OA
BRANCH  34  37
ATOM     37  C   UNL A   1      37.684  29.240  29.203  1.00  0.00     0.039 A 
ATOM     38  C   UNL A   1      38.360  29.670  28.061  1.00  0.00     0.014 A 
ATOM     39  C   UNL A   1      38.180  28.191  29.976  1.00  0.00     0.014 A 
ATOM     40  C   UNL A   1      39.596  29.099  27.760  1.00  0.00     0.010 A 
ATOM     41  C   UNL A   1      39.448  27.706  29.741  1.00  0.00     0.010 A 
ATOM     42  C   UNL A   1      40.156  28.138  28.623  1.00  0.00    -0.014 A 
BRANCH  42  43
ATOM     43  C   UNL A   1      41.557  27.732  28.468  1.00  0.00     0.031 A 
ATOM     44  C   UNL A   1      41.730  26.465  27.706  1.00  0.00     0.074 A 
ATOM     45  C   UNL A   1      42.620  28.510  28.774  1.00  0.00     0.049 A 
ATOM     46  N   UNL A   1      42.090  25.314  28.167  1.00  0.00    -0.248 NA
ATOM     47  C   UNL A   1      41.279  26.421  26.304  1.00  0.00     0.031 C 
ATOM     48  C   UNL A   1      42.603  29.891  29.265  1.00  0.00     0.029 A 
ATOM     49  N   UNL A   1      43.956  28.271  28.609  1.00  0.00    -0.354 N 
ATOM     50  C   UNL A   1      42.192  24.478  27.061  1.00  0.00     0.074 A 
ATOM     51  C   UNL A   1      41.457  25.130  26.011  1.00  0.00     0.031 C 
ATOM     52  C   UNL A   1      43.833  30.438  29.141  1.00  0.00     0.029 A 
ATOM     53  C   UNL A   1      44.764  29.403  28.727  1.00  0.00     0.049 A 
ATOM     54  H   UNL A   1      44.317  27.375  28.423  1.00  0.00     0.167 HD
ATOM     55  C   UNL A   1      43.119  23.478  27.030  1.00  0.00     0.034 A 
ATOM     56  C   UNL A   1      46.104  29.505  28.507  1.00  0.00     0.034 A 
ATOM     57  C   UNL A   1      43.621  23.207  28.362  1.00  0.00     0.049 A 
ATOM     58  C   UNL A   1      46.664  28.144  28.658  1.00  0.00     0.074 A 
ATOM     59  C   UNL A   1      43.047  22.854  29.568  1.00  0.00     0.029 A 
ATOM     60  N   UNL A   1      44.876  23.681  28.676  1.00  0.00    -0.354 N 
ATOM     61  N   UNL A   1      46.660  27.495  29.790  1.00  0.00    -0.248 NA
ATOM     62  C   UNL A   1      46.803  27.315  27.472  1.00  0.00     0.031 C 
ATOM     63  C   UNL A   1      43.777  23.587  30.552  1.00  0.00     0.029 A 
ATOM     64  C   UNL A   1      44.815  24.270  29.913  1.00  0.00     0.049 A 
ATOM     65  H   UNL A   1      45.679  23.610  28.109  1.00  0.00     0.167 HD
ATOM     66  C   UNL A   1      46.329  26.194  29.450  1.00  0.00     0.074 A 
ATOM     67  C   UNL A   1      46.556  26.115  28.009  1.00  0.00     0.031 C 
ATOM     68  C   UNL A   1      45.636  25.396  30.318  1.00  0.00     0.034 A 
BRANCH  55  69
ATOM     69  C   UNL A   1      43.890  23.052  25.791  1.00  0.00     0.023 A 
ATOM     70  C   UNL A   1      43.919  21.671  25.505  1.00  0.00     0.031 A 
ATOM     71  C   UNL A   1      44.830  23.838  25.085  1.00  0.00     0.131 A 
ATOM     72  C   UNL A   1      44.923  21.120  24.690  1.00  0.00     0.055 A 
ATOM     73  C   UNL A   1      45.782  23.292  24.219  1.00  0.00     0.041 A 
ATOM     74  F   UNL A   1      44.948  25.159  25.249  1.00  0.00    -0.206 F 
ATOM     75  C   UNL A   1      45.860  21.922  24.048  1.00  0.00     0.022 A 
BRANCH  72  76
ATOM     76  S   UNL A   1      45.100  19.319  24.653  1.00  0.00     0.124 S 
ATOM     77  O   UNL A   1      44.725  19.022  23.273  1.00  0.00    -0.237 OA
ATOM     78  O   UNL A   1      46.509  19.150  24.990  1.00  0.00    -0.237 OA
ATOM     79  O   UNL A   1      44.155  18.866  25.670  1.00  0.00    -0.744 OA
ENDBRANCH  72  76
ENDBRANCH  55  69
BRANCH  56  80
ATOM     80  C   UNL A   1      46.848  30.642  27.892  1.00  0.00     0.023 A 
ATOM     81  C   UNL A   1      46.233  31.655  27.121  1.00  0.00     0.031 A 
ATOM     82  C   UNL A   1      48.186  30.873  28.285  1.00  0.00     0.131 A 
ATOM     83  C   UNL A   1      46.950  32.832  26.784  1.00  0.00     0.055 A 
ATOM     84  C   UNL A   1      48.886  32.035  27.951  1.00  0.00     0.041 A 
ATOM     85  F   UNL A   1      48.830  30.008  29.084  1.00  0.00    -0.206 F 
ATOM     86  C   UNL A   1      48.267  33.024  27.205  1.00  0.00     0.022 A 
BRANCH  83  87
ATOM     87  S   UNL A   1      46.152  34.178  25.842  1.00  0.00     0.124 S 
ATOM     88  O   UNL A   1      45.646  35.045  26.899  1.00  0.00    -0.237 OA
ATOM     89  O   UNL A   1      47.256  34.698  25.045  1.00  0.00    -0.237 OA
ATOM     90  O   UNL A   1      45.116  33.488  25.070  1.00  0.00    -0.744 OA
ENDBRANCH  83  87
ENDBRANCH  56  80
BRANCH  68  91
ATOM     91  C   UNL A   1      45.568  25.811  31.776  1.00  0.00     0.023 A 
ATOM     92  C   UNL A   1      44.419  26.302  32.439  1.00  0.00     0.031 A 
ATOM     93  C   UNL A   1      46.726  25.603  32.548  1.00  0.00     0.131 A 
ATOM     94  C   UNL A   1      44.468  26.577  33.822  1.00  0.00     0.055 A 
ATOM     95  C   UNL A   1      46.763  25.854  33.917  1.00  0.00     0.041 A 
ATOM     96  F   UNL A   1      47.844  25.120  31.981  1.00  0.00    -0.206 F 
ATOM     97  C   UNL A   1      45.635  26.348  34.559  1.00  0.00     0.022 A 
BRANCH  94  98
ATOM     98  S   UNL A   1      43.020  27.263  34.693  1.00  0.00     0.124 S 
ATOM     99  O   UNL A   1      42.342  28.046  33.667  1.00  0.00    -0.237 OA
ATOM    100  O   UNL A   1      42.323  26.061  35.145  1.00  0.00    -0.237 OA
ATOM    101  O   UNL A   1      43.615  28.057  35.769  1.00  0.00    -0.744 OA
ENDBRANCH  94  98
ENDBRANCH  68  91
ENDBRANCH  42  43
ENDBRANCH  34  37
ENDBRANCH  32  33
ENDBRANCH   1  32
TORSDOF 16
ENDMDL
MODEL 2
REMARK VINA RESULT:     -14.0      4.009      5.228
REMARK SMILES Cc1cnn(C2(C(=O)NCCCCNC(=O)c3ccc(-c4c5nc(c(-c6cc(S(=O)(=O)[O-])ccc6F)c6ccc([nH]6)c(-c6cc(S(=O)(=O)[O-])ccc6F)c6nc(c(-c7cc(S(=O)(=O)[O-])ccc7F)c7ccc4[nH]7)C=C6)C=C5)cc3)CCN(C(=O)c3cc4ccccc4[nH]3)CC2)c1
REMARK SMILES IDX 12 1 11 2 10 3 9 4 7 5 8 6 6 8 80 9 95 10 81 11 94 12 82 13
REMARK SMILES IDX 83 14 84 15 5 16 1 17 2 18 3 19 96 20 4 21 85 22 86 23 93 24
REMARK SMILES IDX 87 25 92 26 88 28 91 29 89 30 90 31 13 32 14 33 15 34 16 36
REMARK SMILES IDX 17 37 18 38 79 39 19 40 78 41 20 42 21 43 22 44 72 45 23 46
REMARK SMILES IDX 77 47 71 48 73 49 24 50 76 51 70 52 69 53 25 55 57 56 37 57
REMARK SMILES IDX 56 58 38 59 41 60 55 61 74 62 39 63 40 64 54 66 75 67 42 68
REMARK SMILES IDX 26 69 27 70 35 71 28 72 34 73 36 74 33 75 29 76 30 77 31 78
REMARK SMILES IDX 32 79 58 80 59 81 67 82 60 83 66 84 68 85 65 86 61 87 62 88
REMARK SMILES IDX 63 89 64 90 43 91 44 92 52 93 45 94 51 95 53 96 50 97 46 98
REMARK SMILES IDX 47 99 48 100 49 101
REMARK H PARENT 9 7 93 27 14 35 73 54 41 65
REMARK Flexibility Score: inf
ROOT
ATOM      1  C   UNL A   1      31.496  30.636  26.702  1.00  0.00     0.023 C 
ENDROOT
BRANCH   1   2
ATOM      2  C   UNL A   1      31.881  29.331  25.995  1.00  0.00     0.023 C 
BRANCH   2   3
ATOM      3  C   UNL A   1      32.199  28.137  26.904  1.00  0.00     0.116 C 
BRANCH   3   4
ATOM      4  N   UNL A   1      31.139  27.136  26.908  1.00  0.00    -0.354 N 
ATOM      5  C   UNL A   1      30.955  25.936  26.255  1.00  0.00     0.248 C 
ATOM      6  O   UNL A   1      29.841  25.448  26.451  1.00  0.00    -0.272 OA
ATOM      7  H   UNL A   1      30.392  27.368  27.508  1.00  0.00     0.163 HD
BRANCH   5   8
ATOM      8  C   UNL A   1      32.070  25.311  25.342  1.00  0.00     0.144 C 
ATOM      9  C   UNL A   1      33.373  25.316  26.182  1.00  0.00     0.062 C 
ATOM     10  C   UNL A   1      31.558  23.918  24.903  1.00  0.00     0.062 C 
ATOM     11  C   UNL A   1      34.338  24.169  25.930  1.00  0.00     0.123 C 
ATOM     12  C   UNL A   1      32.646  22.892  24.643  1.00  0.00     0.123 C 
ATOM     13  N   UNL A   1      33.680  22.900  25.674  1.00  0.00    -0.337 N 
ATOM     14  C   UNL A   1      34.157  21.758  26.328  1.00  0.00     0.270 C 
ATOM     15  O   UNL A   1      34.804  21.840  27.370  1.00  0.00    -0.267 OA
BRANCH   8  16
ATOM     16  N   UNL A   1      32.355  26.073  24.078  1.00  0.00    -0.257 N 
ATOM     17  C   UNL A   1      34.252  28.319  21.884  1.00  0.00     0.048 C 
ATOM     18  C   UNL A   1      33.339  27.378  22.566  1.00  0.00    -0.013 A 
ATOM     19  C   UNL A   1      32.220  26.701  22.050  1.00  0.00     0.138 A 
ATOM     20  C   UNL A   1      33.400  26.950  23.872  1.00  0.00     0.113 A 
ATOM     21  N   UNL A   1      31.644  25.906  22.951  1.00  0.00    -0.180 NA
ENDBRANCH   8  16
BRANCH  14  22
ATOM     22  C   UNL A   1      33.851  20.473  25.744  1.00  0.00     0.105 A 
ATOM     23  C   UNL A   1      32.718  19.681  25.836  1.00  0.00     0.042 A 
ATOM     24  N   UNL A   1      34.712  19.815  24.893  1.00  0.00    -0.351 N 
ATOM     25  C   UNL A   1      32.994  18.437  25.219  1.00  0.00     0.000 A 
ATOM     26  C   UNL A   1      34.249  18.548  24.623  1.00  0.00     0.046 A 
ATOM     27  H   UNL A   1      35.543  20.198  24.530  1.00  0.00     0.167 HD
ATOM     28  C   UNL A   1      32.302  17.215  25.133  1.00  0.00     0.010 A 
ATOM     29  C   UNL A   1      34.844  17.496  23.919  1.00  0.00     0.026 A 
ATOM     30  C   UNL A   1      32.896  16.143  24.461  1.00  0.00     0.001 A 
ATOM     31  C   UNL A   1      34.145  16.286  23.859  1.00  0.00     0.002 A 
ENDBRANCH  14  22
ENDBRANCH   5   8
ENDBRANCH   3   4
ENDBRANCH   2   3
ENDBRANCH   1   2
BRANCH   1  32
ATOM     32  C   UNL A   1      32.674  31.472  27.183  1.00  0.00     0.116 C 
BRANCH  32  33
ATOM     33  N   UNL A   1      32.360  32.894  27.274  1.00  0.00    -0.352 N 
ATOM     34  C   UNL A   1      32.958  33.836  28.092  1.00  0.00     0.251 C 
ATOM     35  H   UNL A   1      31.641  33.220  26.685  1.00  0.00     0.163 HD
ATOM     36  O   UNL A   1      32.379  34.871  28.377  1.00  0.00    -0.269 OA
BRANCH  34  37
ATOM     37  C   UNL A   1      34.312  33.553  28.609  1.00  0.00     0.039 A 
ATOM     38  C   UNL A   1      34.491  32.882  29.821  1.00  0.00     0.014 A 
ATOM     39  C   UNL A   1      35.407  33.927  27.831  1.00  0.00     0.014 A 
ATOM     40  C   UNL A   1      35.780  32.503  30.192  1.00  0.00     0.010 A 
ATOM     41  C   UNL A   1      36.663  33.458  28.144  1.00  0.00     0.010 A 
ATOM     42  C   UNL A   1      36.865  32.762  29.333  1.00  0.00    -0.014 A 
BRANCH  42  43
ATOM     43  C   UNL A   1      38.169  32.139  29.579  1.00  0.00     0.031 A 
ATOM     44  C   UNL A   1      38.238  30.712  29.156  1.00  0.00     0.074 A 
ATOM     45  C   UNL A   1      39.285  32.810  29.943  1.00  0.00     0.049 A 
ATOM     46  N   UNL A   1      38.286  29.669  29.915  1.00  0.00    -0.248 NA
ATOM     47  C   UNL A   1      38.051  30.393  27.729  1.00  0.00     0.031 C 
ATOM     48  C   UNL A   1      39.437  34.258  30.119  1.00  0.00     0.029 A 
ATOM     49  N   UNL A   1      40.559  32.354  30.131  1.00  0.00    -0.354 N 
ATOM     50  C   UNL A   1      38.430  28.584  29.058  1.00  0.00     0.074 A 
ATOM     51  C   UNL A   1      38.035  29.058  27.759  1.00  0.00     0.031 C 
ATOM     52  C   UNL A   1      40.749  34.580  30.158  1.00  0.00     0.029 A 
ATOM     53  C   UNL A   1      41.530  33.356  30.185  1.00  0.00     0.049 A 
ATOM     54  H   UNL A   1      40.774  31.398  30.220  1.00  0.00     0.167 HD
ATOM     55  C   UNL A   1      39.143  27.487  29.441  1.00  0.00     0.034 A 
ATOM     56  C   UNL A   1      42.883  33.213  30.250  1.00  0.00     0.034 A 
ATOM     57  C   UNL A   1      39.334  27.480  30.878  1.00  0.00     0.049 A 
ATOM     58  C   UNL A   1      43.141  31.864  30.801  1.00  0.00     0.074 A 
ATOM     59  C   UNL A   1      38.494  27.514  31.974  1.00  0.00     0.029 A 
ATOM     60  N   UNL A   1      40.577  27.835  31.355  1.00  0.00    -0.354 N 
ATOM     61  N   UNL A   1      42.809  31.516  32.014  1.00  0.00    -0.248 NA
ATOM     62  C   UNL A   1      43.337  30.761  29.875  1.00  0.00     0.031 C 
ATOM     63  C   UNL A   1      39.156  28.354  32.920  1.00  0.00     0.029 A 
ATOM     64  C   UNL A   1      40.402  28.709  32.397  1.00  0.00     0.049 A 
ATOM     65  H   UNL A   1      41.442  27.516  31.006  1.00  0.00     0.167 HD
ATOM     66  C   UNL A   1      42.308  30.231  31.889  1.00  0.00     0.074 A 
ATOM     67  C   UNL A   1      42.776  29.774  30.582  1.00  0.00     0.031 C 
ATOM     68  C   UNL A   1      41.332  29.774  32.729  1.00  0.00     0.034 A 
BRANCH  55  69
ATOM     69  C   UNL A   1      40.034  26.669  28.521  1.00  0.00     0.023 A 
ATOM     70  C   UNL A   1      41.148  27.329  27.963  1.00  0.00     0.031 A 
ATOM     71  C   UNL A   1      39.697  25.433  27.920  1.00  0.00     0.131 A 
ATOM     72  C   UNL A   1      41.767  26.848  26.796  1.00  0.00     0.055 A 
ATOM     73  C   UNL A   1      40.363  24.924  26.801  1.00  0.00     0.041 A 
ATOM     74  F   UNL A   1      38.661  24.687  28.315  1.00  0.00    -0.206 F 
ATOM     75  C   UNL A   1      41.378  25.650  26.206  1.00  0.00     0.022 A 
BRANCH  72  76
ATOM     76  S   UNL A   1      42.952  27.925  25.952  1.00  0.00     0.124 S 
ATOM     77  O   UNL A   1      42.883  29.128  26.776  1.00  0.00    -0.237 OA
ATOM     78  O   UNL A   1      44.183  27.147  26.046  1.00  0.00    -0.237 OA
ATOM     79  O   UNL A   1      42.395  28.053  24.608  1.00  0.00    -0.744 OA
ENDBRANCH  72  76
ENDBRANCH  55  69
BRANCH  56  80
ATOM     80  C   UNL A   1      43.926  34.050  29.590  1.00  0.00     0.023 A 
ATOM     81  C   UNL A   1      44.371  33.847  28.264  1.00  0.00     0.031 A 
ATOM     82  C   UNL A   1      44.325  35.255  30.212  1.00  0.00     0.131 A 
ATOM     83  C   UNL A   1      45.170  34.826  27.620  1.00  0.00     0.055 A 
ATOM     84  C   UNL A   1      45.112  36.216  29.572  1.00  0.00     0.041 A 
ATOM     85  F   UNL A   1      43.889  35.576  31.441  1.00  0.00    -0.206 F 
ATOM     86  C   UNL A   1      45.530  36.009  28.268  1.00  0.00     0.022 A 
BRANCH  83  87
ATOM     87  S   UNL A   1      45.702  34.610  25.887  1.00  0.00     0.124 S 
ATOM     88  O   UNL A   1      44.434  34.461  25.184  1.00  0.00    -0.237 OA
ATOM     89  O   UNL A   1      46.447  35.837  25.633  1.00  0.00    -0.237 OA
ATOM     90  O   UNL A   1      46.522  33.396  25.929  1.00  0.00    -0.744 OA
ENDBRANCH  83  87
ENDBRANCH  56  80
BRANCH  68  91
ATOM     91  C   UNL A   1      41.077  30.535  34.016  1.00  0.00     0.023 A 
ATOM     92  C   UNL A   1      40.028  31.460  34.232  1.00  0.00     0.031 A 
ATOM     93  C   UNL A   1      41.904  30.223  35.111  1.00  0.00     0.131 A 
ATOM     94  C   UNL A   1      39.854  32.042  35.506  1.00  0.00     0.055 A 
ATOM     95  C   UNL A   1      41.714  30.782  36.372  1.00  0.00     0.041 A 
ATOM     96  F   UNL A   1      42.905  29.336  34.976  1.00  0.00    -0.206 F 
ATOM     97  C   UNL A   1      40.692  31.699  36.573  1.00  0.00     0.022 A 
BRANCH  94  98
ATOM     98  S   UNL A   1      38.547  33.279  35.800  1.00  0.00     0.124 S 
ATOM     99  O   UNL A   1      38.261  33.799  34.468  1.00  0.00    -0.237 OA
ATOM    100  O   UNL A   1      37.488  32.482  36.415  1.00  0.00    -0.237 OA
ATOM    101  O   UNL A   1      39.184  34.239  36.703  1.00  0.00    -0.744 OA
ENDBRANCH  94  98
ENDBRANCH  68  91
ENDBRANCH  42  43
ENDBRANCH  34  37
ENDBRANCH  32  33
ENDBRANCH   1  32
TORSDOF 16
ENDMDL
MODEL 3
REMARK VINA RESULT:     -13.9      3.086      9.060
REMARK SMILES Cc1cnn(C2(C(=O)NCCCCNC(=O)c3ccc(-c4c5nc(c(-c6cc(S(=O)(=O)[O-])ccc6F)c6ccc([nH]6)c(-c6cc(S(=O)(=O)[O-])ccc6F)c6nc(c(-c7cc(S(=O)(=O)[O-])ccc7F)c7ccc4[nH]7)C=C6)C=C5)cc3)CCN(C(=O)c3cc4ccccc4[nH]3)CC2)c1
REMARK SMILES IDX 12 1 11 2 10 3 9 4 7 5 8 6 6 8 80 9 95 10 81 11 94 12 82 13
REMARK SMILES IDX 83 14 84 15 5 16 1 17 2 18 3 19 96 20 4 21 85 22 86 23 93 24
REMARK SMILES IDX 87 25 92 26 88 28 91 29 89 30 90 31 13 32 14 33 15 34 16 36
REMARK SMILES IDX 17 37 18 38 79 39 19 40 78 41 20 42 21 43 22 44 72 45 23 46
REMARK SMILES IDX 77 47 71 48 73 49 24 50 76 51 70 52 69 53 25 55 57 56 37 57
REMARK SMILES IDX 56 58 38 59 41 60 55 61 74 62 39 63 40 64 54 66 75 67 42 68
REMARK SMILES IDX 26 69 27 70 35 71 28 72 34 73 36 74 33 75 29 76 30 77 31 78
REMARK SMILES IDX 32 79 58 80 59 81 67 82 60 83 66 84 68 85 65 86 61 87 62 88
REMARK SMILES IDX 63 89 64 90 43 91 44 92 52 93 45 94 51 95 53 96 50 97 46 98
REMARK SMILES IDX 47 99 48 100 49 101
REMARK H PARENT 9 7 93 27 14 35 73 54 41 65
REMARK Flexibility Score: inf
ROOT
ATOM      1  C   UNL A   1      39.280  20.927  25.465  1.00  0.00     0.023 C 
ENDROOT
BRANCH   1   2
ATOM      2  C   UNL A   1      38.957  22.258  26.154  1.00  0.00     0.023 C 
BRANCH   2   3
ATOM      3  C   UNL A   1      37.582  22.866  25.843  1.00  0.00     0.116 C 
BRANCH   3   4
ATOM      4  N   UNL A   1      37.346  23.016  24.412  1.00  0.00    -0.354 N 
ATOM      5  C   UNL A   1      36.212  23.153  23.640  1.00  0.00     0.248 C 
ATOM      6  O   UNL A   1      36.448  23.129  22.431  1.00  0.00    -0.272 OA
ATOM      7  H   UNL A   1      38.177  23.021  23.882  1.00  0.00     0.163 HD
BRANCH   5   8
ATOM      8  C   UNL A   1      34.785  23.290  24.282  1.00  0.00     0.144 C 
ATOM      9  C   UNL A   1      34.981  24.061  25.614  1.00  0.00     0.062 C 
ATOM     10  C   UNL A   1      33.888  23.985  23.229  1.00  0.00     0.062 C 
ATOM     11  C   UNL A   1      33.841  24.973  26.034  1.00  0.00     0.123 C 
ATOM     12  C   UNL A   1      32.763  24.825  23.805  1.00  0.00     0.123 C 
ATOM     13  N   UNL A   1      33.202  25.656  24.924  1.00  0.00    -0.337 N 
ATOM     14  C   UNL A   1      32.935  27.025  25.047  1.00  0.00     0.270 C 
ATOM     15  O   UNL A   1      33.557  27.730  25.840  1.00  0.00    -0.267 OA
BRANCH   8  16
ATOM     16  N   UNL A   1      34.112  21.989  24.616  1.00  0.00    -0.257 N 
ATOM     17  C   UNL A   1      32.231  18.920  23.910  1.00  0.00     0.048 C 
ATOM     18  C   UNL A   1      33.010  20.063  24.430  1.00  0.00    -0.013 A 
ATOM     19  C   UNL A   1      33.535  20.264  25.718  1.00  0.00     0.138 A 
ATOM     20  C   UNL A   1      33.401  21.190  23.745  1.00  0.00     0.113 A 
ATOM     21  N   UNL A   1      34.210  21.407  25.823  1.00  0.00    -0.180 NA
ENDBRANCH   8  16
BRANCH  14  22
ATOM     22  C   UNL A   1      31.911  27.589  24.199  1.00  0.00     0.105 A 
ATOM     23  C   UNL A   1      31.998  28.485  23.145  1.00  0.00     0.042 A 
ATOM     24  N   UNL A   1      30.582  27.243  24.302  1.00  0.00    -0.351 N 
ATOM     25  C   UNL A   1      30.683  28.850  22.764  1.00  0.00     0.000 A 
ATOM     26  C   UNL A   1      29.810  28.047  23.497  1.00  0.00     0.046 A 
ATOM     27  H   UNL A   1      30.233  26.520  24.873  1.00  0.00     0.167 HD
ATOM     28  C   UNL A   1      30.154  29.807  21.879  1.00  0.00     0.010 A 
ATOM     29  C   UNL A   1      28.420  28.140  23.372  1.00  0.00     0.026 A 
ATOM     30  C   UNL A   1      28.767  29.935  21.767  1.00  0.00     0.001 A 
ATOM     31  C   UNL A   1      27.915  29.109  22.499  1.00  0.00     0.002 A 
ENDBRANCH  14  22
ENDBRANCH   5   8
ENDBRANCH   3   4
ENDBRANCH   2   3
ENDBRANCH   1   2
BRANCH   1  32
ATOM     32  C   UNL A   1      39.798  19.838  26.395  1.00  0.00     0.116 C 
BRANCH  32  33
ATOM     33  N   UNL A   1      41.014  19.201  25.897  1.00  0.00    -0.352 N 
ATOM     34  C   UNL A   1      42.236  19.802  25.648  1.00  0.00     0.251 C 
ATOM     35  H   UNL A   1      40.957  18.235  25.718  1.00  0.00     0.163 HD
ATOM     36  O   UNL A   1      43.036  19.290  24.884  1.00  0.00    -0.269 OA
BRANCH  34  37
ATOM     37  C   UNL A   1      42.539  21.076  26.331  1.00  0.00     0.039 A 
ATOM     38  C   UNL A   1      42.675  22.262  25.607  1.00  0.00     0.014 A 
ATOM     39  C   UNL A   1      42.635  21.072  27.722  1.00  0.00     0.014 A 
ATOM     40  C   UNL A   1      42.810  23.461  26.307  1.00  0.00     0.010 A 
ATOM     41  C   UNL A   1      42.658  22.263  28.412  1.00  0.00     0.010 A 
ATOM     42  C   UNL A   1      42.766  23.463  27.714  1.00  0.00    -0.014 A 
BRANCH  42  43
ATOM     43  C   UNL A   1      42.636  24.727  28.447  1.00  0.00     0.031 A 
ATOM     44  C   UNL A   1      41.311  25.384  28.271  1.00  0.00     0.074 A 
ATOM     45  C   UNL A   1      43.514  25.171  29.374  1.00  0.00     0.049 A 
ATOM     46  N   UNL A   1      41.051  26.458  27.603  1.00  0.00    -0.248 NA
ATOM     47  C   UNL A   1      40.106  24.675  28.737  1.00  0.00     0.031 C 
ATOM     48  C   UNL A   1      44.718  24.490  29.860  1.00  0.00     0.029 A 
ATOM     49  N   UNL A   1      43.464  26.284  30.165  1.00  0.00    -0.354 N 
ATOM     50  C   UNL A   1      39.700  26.715  27.811  1.00  0.00     0.074 A 
ATOM     51  C   UNL A   1      39.139  25.482  28.292  1.00  0.00     0.031 C 
ATOM     52  C   UNL A   1      45.149  25.076  30.999  1.00  0.00     0.029 A 
ATOM     53  C   UNL A   1      44.363  26.275  31.233  1.00  0.00     0.049 A 
ATOM     54  H   UNL A   1      42.845  27.030  29.995  1.00  0.00     0.167 HD
ATOM     55  C   UNL A   1      39.235  27.996  27.851  1.00  0.00     0.034 A 
ATOM     56  C   UNL A   1      44.473  27.177  32.247  1.00  0.00     0.034 A 
ATOM     57  C   UNL A   1      40.207  28.909  27.282  1.00  0.00     0.049 A 
ATOM     58  C   UNL A   1      43.876  28.440  31.758  1.00  0.00     0.074 A 
ATOM     59  C   UNL A   1      40.852  29.012  26.064  1.00  0.00     0.029 A 
ATOM     60  N   UNL A   1      40.943  29.679  28.156  1.00  0.00    -0.354 N 
ATOM     61  N   UNL A   1      44.380  29.131  30.773  1.00  0.00    -0.248 NA
ATOM     62  C   UNL A   1      42.473  28.699  32.037  1.00  0.00     0.031 C 
ATOM     63  C   UNL A   1      42.182  29.417  26.385  1.00  0.00     0.029 A 
ATOM     64  C   UNL A   1      42.256  29.634  27.763  1.00  0.00     0.049 A 
ATOM     65  H   UNL A   1      40.587  30.175  28.928  1.00  0.00     0.167 HD
ATOM     66  C   UNL A   1      43.286  29.541  30.031  1.00  0.00     0.074 A 
ATOM     67  C   UNL A   1      42.142  29.358  30.921  1.00  0.00     0.031 C 
ATOM     68  C   UNL A   1      43.380  29.717  28.679  1.00  0.00     0.034 A 
BRANCH  55  69
ATOM     69  C   UNL A   1      38.135  28.488  28.777  1.00  0.00     0.023 A 
ATOM     70  C   UNL A   1      37.175  29.356  28.217  1.00  0.00     0.031 A 
ATOM     71  C   UNL A   1      38.147  28.428  30.190  1.00  0.00     0.131 A 
ATOM     72  C   UNL A   1      36.403  30.206  29.029  1.00  0.00     0.055 A 
ATOM     73  C   UNL A   1      37.326  29.225  30.994  1.00  0.00     0.041 A 
ATOM     74  F   UNL A   1      39.004  27.670  30.881  1.00  0.00    -0.206 F 
ATOM     75  C   UNL A   1      36.476  30.150  30.416  1.00  0.00     0.022 A 
BRANCH  72  76
ATOM     76  S   UNL A   1      35.455  31.524  28.228  1.00  0.00     0.124 S 
ATOM     77  O   UNL A   1      34.811  30.793  27.141  1.00  0.00    -0.237 OA
ATOM     78  O   UNL A   1      34.586  31.969  29.312  1.00  0.00    -0.237 OA
ATOM     79  O   UNL A   1      36.483  32.478  27.820  1.00  0.00    -0.744 OA
ENDBRANCH  72  76
ENDBRANCH  55  69
BRANCH  56  80
ATOM     80  C   UNL A   1      44.787  26.912  33.681  1.00  0.00     0.023 A 
ATOM     81  C   UNL A   1      43.804  26.809  34.692  1.00  0.00     0.031 A 
ATOM     82  C   UNL A   1      46.093  26.500  34.027  1.00  0.00     0.131 A 
ATOM     83  C   UNL A   1      44.147  26.308  35.974  1.00  0.00     0.055 A 
ATOM     84  C   UNL A   1      46.424  26.006  35.291  1.00  0.00     0.041 A 
ATOM     85  F   UNL A   1      47.078  26.485  33.114  1.00  0.00    -0.206 F 
ATOM     86  C   UNL A   1      45.449  25.899  36.268  1.00  0.00     0.022 A 
BRANCH  83  87
ATOM     87  S   UNL A   1      42.878  26.109  37.272  1.00  0.00     0.124 S 
ATOM     88  O   UNL A   1      42.347  24.781  36.993  1.00  0.00    -0.237 OA
ATOM     89  O   UNL A   1      43.658  26.254  38.496  1.00  0.00    -0.237 OA
ATOM     90  O   UNL A   1      41.945  27.208  37.010  1.00  0.00    -0.744 OA
ENDBRANCH  83  87
ENDBRANCH  56  80
BRANCH  68  91
ATOM     91  C   UNL A   1      44.763  29.829  28.064  1.00  0.00     0.023 A 
ATOM     92  C   UNL A   1      45.492  28.768  27.478  1.00  0.00     0.031 A 
ATOM     93  C   UNL A   1      45.323  31.119  27.996  1.00  0.00     0.131 A 
ATOM     94  C   UNL A   1      46.739  29.024  26.868  1.00  0.00     0.055 A 
ATOM     95  C   UNL A   1      46.543  31.369  27.372  1.00  0.00     0.041 A 
ATOM     96  F   UNL A   1      44.671  32.172  28.516  1.00  0.00    -0.206 F 
ATOM     97  C   UNL A   1      47.259  30.321  26.811  1.00  0.00     0.022 A 
BRANCH  94  98
ATOM     98  S   UNL A   1      47.727  27.668  26.154  1.00  0.00     0.124 S 
ATOM     99  O   UNL A   1      46.796  27.002  25.250  1.00  0.00    -0.237 OA
ATOM    100  O   UNL A   1      48.833  28.380  25.520  1.00  0.00    -0.237 OA
ATOM    101  O   UNL A   1      48.110  26.873  27.323  1.00  0.00    -0.744 OA
ENDBRANCH  94  98
ENDBRANCH  68  91
ENDBRANCH  42  43
ENDBRANCH  34  37
ENDBRANCH  32  33
ENDBRANCH   1  32
TORSDOF 16
ENDMDL
