MODEL 1
REMARK VINA RESULT:     -12.5      0.000      0.000
REMARK SMILES Cc1ccc(-c2nnc(S[C@@H](C)C(=O)NCCCCNC(=O)c3ccc(-c4c5nc(c(-c6cc(S(=O)(=O)[O-])ccc6F)c6ccc([nH]6)c(-c6cc(S(=O)(=O)[O-])ccc6F)c6nc(c(-c7cc(S(=O)(=O)[O-])ccc7F)c7ccc4[nH]7)C=C6)C=C5)cc3)n2C)cc1
REMARK SMILES IDX 17 1 16 2 15 3 13 4 14 5 11 7 12 8 10 9 9 10 6 11 7 12 86 13
REMARK SMILES IDX 8 14 87 15 5 16 1 17 2 18 3 19 89 20 4 21 88 22 18 23 19 24
REMARK SMILES IDX 20 25 21 26 22 28 23 29 24 30 85 31 25 32 84 33 26 34 27 35
REMARK SMILES IDX 28 36 78 37 29 38 83 39 77 40 79 41 30 42 82 43 76 44 75 45
REMARK SMILES IDX 31 47 63 48 43 49 62 50 44 51 47 52 61 53 80 54 45 55 46 56
REMARK SMILES IDX 60 58 81 59 48 60 32 61 33 62 41 63 34 64 40 65 42 66 39 67
REMARK SMILES IDX 35 68 36 69 37 70 38 71 64 72 65 73 73 74 66 75 72 76 74 77
REMARK SMILES IDX 71 78 67 79 68 80 69 81 70 82 49 83 50 84 58 85 51 86 57 87
REMARK SMILES IDX 59 88 56 89 52 90 53 91 54 92 55 93
REMARK H PARENT 15 6 20 27 79 46 47 57
REMARK Flexibility Score: inf
ROOT
ATOM      1  C   UNL A   1      37.458  23.005  25.201  1.00  0.00     0.023 C 
ENDROOT
BRANCH   1   2
ATOM      2  C   UNL A   1      36.686  21.747  25.587  1.00  0.00     0.116 C 
BRANCH   2   3
ATOM      3  N   UNL A   1      35.525  21.775  26.439  1.00  0.00    -0.355 N 
ATOM      4  C   UNL A   1      34.318  21.145  26.280  1.00  0.00     0.233 C 
ATOM      5  O   UNL A   1      33.667  21.050  27.338  1.00  0.00    -0.274 OA
ATOM      6  H   UNL A   1      35.611  22.325  27.252  1.00  0.00     0.163 HD
BRANCH   4   7
ATOM      7  C   UNL A   1      33.648  20.585  24.990  1.00  0.00     0.141 C 
ATOM      8  C   UNL A   1      34.030  19.155  24.582  1.00  0.00     0.030 C 
BRANCH   7   9
ATOM      9  S   UNL A   1      33.257  21.525  23.526  1.00  0.00    -0.073 SA
BRANCH   9  10
ATOM     10  C   UNL A   1      33.502  23.233  23.707  1.00  0.00     0.191 A 
ATOM     11  C   UNL A   1      33.266  25.423  23.998  1.00  0.00     0.164 A 
ATOM     12  N   UNL A   1      33.989  25.177  22.910  1.00  0.00    -0.129 NA
ATOM     13  N   UNL A   1      32.912  24.187  24.518  1.00  0.00    -0.305 N 
ATOM     14  N   UNL A   1      34.184  23.841  22.765  1.00  0.00    -0.123 NA
ATOM     15  C   UNL A   1      31.907  24.020  25.522  1.00  0.00     0.154 C 
BRANCH  11  16
ATOM     16  C   UNL A   1      32.965  26.826  24.412  1.00  0.00     0.019 A 
ATOM     17  C   UNL A   1      32.192  31.239  26.874  1.00  0.00     0.044 C 
ATOM     18  C   UNL A   1      32.069  29.749  26.606  1.00  0.00    -0.051 A 
ATOM     19  C   UNL A   1      33.233  28.539  27.057  1.00  0.00     0.004 A 
ATOM     20  C   UNL A   1      31.262  29.562  25.051  1.00  0.00     0.004 A 
ATOM     21  C   UNL A   1      33.658  27.143  26.027  1.00  0.00     0.012 A 
ATOM     22  C   UNL A   1      31.774  28.067  23.780  1.00  0.00     0.012 A 
ENDBRANCH  11  16
ENDBRANCH   9  10
ENDBRANCH   7   9
ENDBRANCH   4   7
ENDBRANCH   2   3
ENDBRANCH   1   2
BRANCH   1  23
ATOM     23  C   UNL A   1      38.069  23.860  26.294  1.00  0.00     0.023 C 
BRANCH  23  24
ATOM     24  C   UNL A   1      39.565  23.730  26.542  1.00  0.00     0.116 C 
BRANCH  24  25
ATOM     25  N   UNL A   1      40.275  22.588  25.975  1.00  0.00    -0.352 N 
ATOM     26  C   UNL A   1      41.635  22.265  26.038  1.00  0.00     0.251 C 
ATOM     27  H   UNL A   1      39.714  21.951  25.475  1.00  0.00     0.163 HD
ATOM     28  O   UNL A   1      42.045  21.287  25.414  1.00  0.00    -0.269 OA
BRANCH  26  29
ATOM     29  C   UNL A   1      42.576  22.974  26.979  1.00  0.00     0.039 A 
ATOM     30  C   UNL A   1      42.513  22.708  28.355  1.00  0.00     0.014 A 
ATOM     31  C   UNL A   1      43.150  24.167  26.593  1.00  0.00     0.014 A 
ATOM     32  C   UNL A   1      42.625  23.788  29.250  1.00  0.00     0.010 A 
ATOM     33  C   UNL A   1      42.987  25.267  27.384  1.00  0.00     0.010 A 
ATOM     34  C   UNL A   1      42.649  25.095  28.713  1.00  0.00    -0.014 A 
BRANCH  34  35
ATOM     35  C   UNL A   1      42.792  26.347  29.458  1.00  0.00     0.031 A 
ATOM     36  C   UNL A   1      41.673  27.242  29.065  1.00  0.00     0.074 A 
ATOM     37  C   UNL A   1      43.708  26.486  30.467  1.00  0.00     0.049 A 
ATOM     38  N   UNL A   1      41.725  28.494  28.775  1.00  0.00    -0.248 NA
ATOM     39  C   UNL A   1      40.345  26.662  28.720  1.00  0.00     0.031 C 
ATOM     40  C   UNL A   1      43.846  27.475  31.527  1.00  0.00     0.029 A 
ATOM     41  N   UNL A   1      44.856  25.749  30.735  1.00  0.00    -0.354 N 
ATOM     42  C   UNL A   1      40.397  28.892  28.798  1.00  0.00     0.074 A 
ATOM     43  C   UNL A   1      39.639  27.743  28.406  1.00  0.00     0.031 C 
ATOM     44  C   UNL A   1      45.124  27.497  31.988  1.00  0.00     0.029 A 
ATOM     45  C   UNL A   1      45.916  26.567  31.191  1.00  0.00     0.049 A 
ATOM     46  H   UNL A   1      44.923  24.772  30.621  1.00  0.00     0.167 HD
ATOM     47  C   UNL A   1      40.033  29.923  29.613  1.00  0.00     0.034 A 
ATOM     48  C   UNL A   1      47.042  26.917  30.435  1.00  0.00     0.034 A 
ATOM     49  C   UNL A   1      41.222  30.446  30.292  1.00  0.00     0.049 A 
ATOM     50  C   UNL A   1      46.828  28.397  29.950  1.00  0.00     0.074 A 
ATOM     51  C   UNL A   1      41.731  30.263  31.567  1.00  0.00     0.029 A 
ATOM     52  N   UNL A   1      42.283  30.895  29.517  1.00  0.00    -0.354 N 
ATOM     53  N   UNL A   1      45.655  28.988  29.937  1.00  0.00    -0.248 NA
ATOM     54  C   UNL A   1      47.890  29.318  29.526  1.00  0.00     0.031 C 
ATOM     55  C   UNL A   1      43.133  30.533  31.519  1.00  0.00     0.029 A 
ATOM     56  C   UNL A   1      43.477  30.827  30.212  1.00  0.00     0.049 A 
ATOM     57  H   UNL A   1      42.197  31.221  28.592  1.00  0.00     0.167 HD
ATOM     58  C   UNL A   1      45.775  30.307  29.596  1.00  0.00     0.074 A 
ATOM     59  C   UNL A   1      47.203  30.466  29.356  1.00  0.00     0.031 C 
ATOM     60  C   UNL A   1      44.716  31.180  29.534  1.00  0.00     0.034 A 
BRANCH  47  61
ATOM     61  C   UNL A   1      38.611  30.149  30.084  1.00  0.00     0.023 A 
ATOM     62  C   UNL A   1      37.855  31.172  29.484  1.00  0.00     0.031 A 
ATOM     63  C   UNL A   1      37.936  29.406  31.078  1.00  0.00     0.131 A 
ATOM     64  C   UNL A   1      36.540  31.454  29.893  1.00  0.00     0.055 A 
ATOM     65  C   UNL A   1      36.647  29.725  31.530  1.00  0.00     0.041 A 
ATOM     66  F   UNL A   1      38.468  28.300  31.617  1.00  0.00    -0.206 F 
ATOM     67  C   UNL A   1      35.937  30.755  30.932  1.00  0.00     0.022 A 
BRANCH  64  68
ATOM     68  S   UNL A   1      35.608  32.713  28.983  1.00  0.00     0.124 S 
ATOM     69  O   UNL A   1      34.359  32.769  29.736  1.00  0.00    -0.237 OA
ATOM     70  O   UNL A   1      36.479  33.878  29.090  1.00  0.00    -0.237 OA
ATOM     71  O   UNL A   1      35.498  32.147  27.640  1.00  0.00    -0.744 OA
ENDBRANCH  64  68
ENDBRANCH  47  61
BRANCH  48  72
ATOM     72  C   UNL A   1      47.496  25.799  29.455  1.00  0.00     0.023 A 
ATOM     73  C   UNL A   1      46.824  25.304  27.845  1.00  0.00     0.031 A 
ATOM     74  C   UNL A   1      49.220  25.754  29.759  1.00  0.00     0.131 A 
ATOM     75  C   UNL A   1      48.003  24.899  26.459  1.00  0.00     0.055 A 
ATOM     76  C   UNL A   1      50.406  25.583  28.572  1.00  0.00     0.041 A 
ATOM     77  F   UNL A   1      49.601  25.555  31.036  1.00  0.00    -0.206 F 
ATOM     78  C   UNL A   1      49.948  25.192  26.933  1.00  0.00     0.022 A 
BRANCH  75  79
ATOM     79  S   UNL A   1      46.866  24.621  24.949  1.00  0.00     0.124 S 
ATOM     80  O   UNL A   1      47.827  24.782  23.858  1.00  0.00    -0.237 OA
ATOM     81  O   UNL A   1      46.453  23.234  25.191  1.00  0.00    -0.237 OA
ATOM     82  O   UNL A   1      45.781  25.594  24.919  1.00  0.00    -0.744 OA
ENDBRANCH  75  79
ENDBRANCH  48  72
BRANCH  60  83
ATOM     83  C   UNL A   1      44.789  32.522  28.854  1.00  0.00     0.023 A 
ATOM     84  C   UNL A   1      44.285  32.704  27.568  1.00  0.00     0.031 A 
ATOM     85  C   UNL A   1      45.299  33.678  29.493  1.00  0.00     0.131 A 
ATOM     86  C   UNL A   1      44.500  33.903  26.886  1.00  0.00     0.055 A 
ATOM     87  C   UNL A   1      45.352  34.922  28.867  1.00  0.00     0.041 A 
ATOM     88  F   UNL A   1      45.771  33.649  30.750  1.00  0.00    -0.206 F 
ATOM     89  C   UNL A   1      44.999  35.030  27.530  1.00  0.00     0.022 A 
BRANCH  86  90
ATOM     90  S   UNL A   1      44.311  33.854  25.091  1.00  0.00     0.124 S 
ATOM     91  O   UNL A   1      43.052  34.577  24.915  1.00  0.00    -0.237 OA
ATOM     92  O   UNL A   1      45.507  34.549  24.629  1.00  0.00    -0.237 OA
ATOM     93  O   UNL A   1      44.256  32.426  24.792  1.00  0.00    -0.744 OA
ENDBRANCH  86  90
ENDBRANCH  60  83
ENDBRANCH  34  35
ENDBRANCH  26  29
ENDBRANCH  24  25
ENDBRANCH  23  24
ENDBRANCH   1  23
TORSDOF 17
ENDMDL
MODEL 2
REMARK VINA RESULT:     -12.2      3.894      9.263
REMARK SMILES Cc1ccc(-c2nnc(S[C@@H](C)C(=O)NCCCCNC(=O)c3ccc(-c4c5nc(c(-c6cc(S(=O)(=O)[O-])ccc6F)c6ccc([nH]6)c(-c6cc(S(=O)(=O)[O-])ccc6F)c6nc(c(-c7cc(S(=O)(=O)[O-])ccc7F)c7ccc4[nH]7)C=C6)C=C5)cc3)n2C)cc1
REMARK SMILES IDX 17 1 16 2 15 3 13 4 14 5 11 7 12 8 10 9 9 10 6 11 7 12 86 13
REMARK SMILES IDX 8 14 87 15 5 16 1 17 2 18 3 19 89 20 4 21 88 22 18 23 19 24
REMARK SMILES IDX 20 25 21 26 22 28 23 29 24 30 85 31 25 32 84 33 26 34 27 35
REMARK SMILES IDX 28 36 78 37 29 38 83 39 77 40 79 41 30 42 82 43 76 44 75 45
REMARK SMILES IDX 31 47 63 48 43 49 62 50 44 51 47 52 61 53 80 54 45 55 46 56
REMARK SMILES IDX 60 58 81 59 48 60 32 61 33 62 41 63 34 64 40 65 42 66 39 67
REMARK SMILES IDX 35 68 36 69 37 70 38 71 64 72 65 73 73 74 66 75 72 76 74 77
REMARK SMILES IDX 71 78 67 79 68 80 69 81 70 82 49 83 50 84 58 85 51 86 57 87
REMARK SMILES IDX 59 88 56 89 52 90 53 91 54 92 55 93
REMARK H PARENT 15 6 20 27 79 46 47 57
REMARK Flexibility Score: inf
ROOT
ATOM      1  C   UNL A   1      32.259  28.524  25.400  1.00  0.00     0.023 C 
ENDROOT
BRANCH   1   2
ATOM      2  C   UNL A   1      31.236  29.491  24.815  1.00  0.00     0.116 C 
BRANCH   2   3
ATOM      3  N   UNL A   1      31.045  29.662  23.398  1.00  0.00    -0.355 N 
ATOM      4  C   UNL A   1      29.964  29.331  22.623  1.00  0.00     0.233 C 
ATOM      5  O   UNL A   1      29.935  29.931  21.532  1.00  0.00    -0.274 OA
ATOM      6  H   UNL A   1      31.798  30.076  22.916  1.00  0.00     0.163 HD
BRANCH   4   7
ATOM      7  C   UNL A   1      28.821  28.307  22.892  1.00  0.00     0.141 C 
ATOM      8  C   UNL A   1      27.419  28.887  23.130  1.00  0.00     0.030 C 
BRANCH   7   9
ATOM      9  S   UNL A   1      28.982  26.778  23.797  1.00  0.00    -0.073 SA
BRANCH   9  10
ATOM     10  C   UNL A   1      30.475  25.946  23.502  1.00  0.00     0.191 A 
ATOM     11  C   UNL A   1      32.457  24.956  23.668  1.00  0.00     0.164 A 
ATOM     12  N   UNL A   1      32.472  25.856  22.692  1.00  0.00    -0.129 NA
ATOM     13  N   UNL A   1      31.190  25.011  24.231  1.00  0.00    -0.305 N 
ATOM     14  N   UNL A   1      31.244  26.419  22.549  1.00  0.00    -0.123 NA
ATOM     15  C   UNL A   1      30.862  24.400  25.482  1.00  0.00     0.154 C 
BRANCH  11  16
ATOM     16  C   UNL A   1      33.675  24.151  23.982  1.00  0.00     0.019 A 
ATOM     17  C   UNL A   1      38.128  22.310  25.690  1.00  0.00     0.044 C 
ATOM     18  C   UNL A   1      37.180  23.324  25.074  1.00  0.00    -0.051 A 
ATOM     19  C   UNL A   1      36.136  24.400  25.955  1.00  0.00     0.004 A 
ATOM     20  C   UNL A   1      36.555  22.619  23.585  1.00  0.00     0.004 A 
ATOM     21  C   UNL A   1      34.475  24.806  25.439  1.00  0.00     0.012 A 
ATOM     22  C   UNL A   1      34.641  22.944  22.998  1.00  0.00     0.012 A 
ENDBRANCH  11  16
ENDBRANCH   9  10
ENDBRANCH   7   9
ENDBRANCH   4   7
ENDBRANCH   2   3
ENDBRANCH   1   2
BRANCH   1  23
ATOM     23  C   UNL A   1      33.609  29.055  25.841  1.00  0.00     0.023 C 
BRANCH  23  24
ATOM     24  C   UNL A   1      33.707  29.676  27.228  1.00  0.00     0.116 C 
BRANCH  24  25
ATOM     25  N   UNL A   1      34.517  30.877  27.405  1.00  0.00    -0.352 N 
ATOM     26  C   UNL A   1      35.826  31.005  27.883  1.00  0.00     0.251 C 
ATOM     27  H   UNL A   1      34.078  31.721  27.151  1.00  0.00     0.163 HD
ATOM     28  O   UNL A   1      36.298  32.131  28.032  1.00  0.00    -0.269 OA
BRANCH  26  29
ATOM     29  C   UNL A   1      36.728  29.810  28.056  1.00  0.00     0.039 A 
ATOM     30  C   UNL A   1      37.024  29.343  29.346  1.00  0.00     0.014 A 
ATOM     31  C   UNL A   1      37.604  29.469  27.046  1.00  0.00     0.014 A 
ATOM     32  C   UNL A   1      38.345  28.948  29.625  1.00  0.00     0.010 A 
ATOM     33  C   UNL A   1      38.935  29.369  27.329  1.00  0.00     0.010 A 
ATOM     34  C   UNL A   1      39.330  29.178  28.640  1.00  0.00    -0.014 A 
BRANCH  34  35
ATOM     35  C   UNL A   1      40.747  28.816  28.714  1.00  0.00     0.031 A 
ATOM     36  C   UNL A   1      40.849  27.342  28.547  1.00  0.00     0.074 A 
ATOM     37  C   UNL A   1      41.736  29.764  28.727  1.00  0.00     0.049 A 
ATOM     38  N   UNL A   1      41.562  26.517  29.229  1.00  0.00    -0.248 NA
ATOM     39  C   UNL A   1      39.883  26.626  27.668  1.00  0.00     0.031 C 
ATOM     40  C   UNL A   1      43.170  29.677  28.497  1.00  0.00     0.029 A 
ATOM     41  N   UNL A   1      41.669  31.114  29.052  1.00  0.00    -0.354 N 
ATOM     42  C   UNL A   1      41.534  25.356  28.470  1.00  0.00     0.074 A 
ATOM     43  C   UNL A   1      40.273  25.362  27.795  1.00  0.00     0.031 C 
ATOM     44  C   UNL A   1      43.804  30.738  29.063  1.00  0.00     0.029 A 
ATOM     45  C   UNL A   1      42.812  31.543  29.767  1.00  0.00     0.049 A 
ATOM     46  H   UNL A   1      40.916  31.703  28.811  1.00  0.00     0.167 HD
ATOM     47  C   UNL A   1      42.715  24.797  28.079  1.00  0.00     0.034 A 
ATOM     48  C   UNL A   1      42.839  31.830  31.138  1.00  0.00     0.034 A 
ATOM     49  C   UNL A   1      43.825  25.579  28.628  1.00  0.00     0.049 A 
ATOM     50  C   UNL A   1      43.520  30.606  31.851  1.00  0.00     0.074 A 
ATOM     51  C   UNL A   1      44.661  26.538  28.078  1.00  0.00     0.029 A 
ATOM     52  N   UNL A   1      43.895  25.755  30.004  1.00  0.00    -0.354 N 
ATOM     53  N   UNL A   1      43.644  29.424  31.290  1.00  0.00    -0.248 NA
ATOM     54  C   UNL A   1      44.156  30.635  33.173  1.00  0.00     0.031 C 
ATOM     55  C   UNL A   1      45.165  27.341  29.147  1.00  0.00     0.029 A 
ATOM     56  C   UNL A   1      44.597  26.901  30.329  1.00  0.00     0.049 A 
ATOM     57  H   UNL A   1      43.497  25.142  30.664  1.00  0.00     0.167 HD
ATOM     58  C   UNL A   1      44.387  28.586  32.075  1.00  0.00     0.074 A 
ATOM     59  C   UNL A   1      44.693  29.399  33.245  1.00  0.00     0.031 C 
ATOM     60  C   UNL A   1      44.707  27.296  31.726  1.00  0.00     0.034 A 
BRANCH  47  61
ATOM     61  C   UNL A   1      42.836  23.846  26.906  1.00  0.00     0.023 A 
ATOM     62  C   UNL A   1      42.454  22.504  27.082  1.00  0.00     0.031 A 
ATOM     63  C   UNL A   1      43.288  24.179  25.609  1.00  0.00     0.131 A 
ATOM     64  C   UNL A   1      42.568  21.563  26.043  1.00  0.00     0.055 A 
ATOM     65  C   UNL A   1      43.461  23.229  24.591  1.00  0.00     0.041 A 
ATOM     66  F   UNL A   1      43.527  25.448  25.247  1.00  0.00    -0.206 F 
ATOM     67  C   UNL A   1      43.096  21.909  24.804  1.00  0.00     0.022 A 
BRANCH  64  68
ATOM     68  S   UNL A   1      41.944  19.887  26.329  1.00  0.00     0.124 S 
ATOM     69  O   UNL A   1      42.644  19.123  25.302  1.00  0.00    -0.237 OA
ATOM     70  O   UNL A   1      42.349  19.639  27.708  1.00  0.00    -0.237 OA
ATOM     71  O   UNL A   1      40.503  20.025  26.127  1.00  0.00    -0.744 OA
ENDBRANCH  64  68
ENDBRANCH  47  61
BRANCH  48  72
ATOM     72  C   UNL A   1      41.510  32.441  31.664  1.00  0.00     0.023 A 
ATOM     73  C   UNL A   1      40.071  31.642  32.424  1.00  0.00     0.031 A 
ATOM     74  C   UNL A   1      42.044  34.021  32.198  1.00  0.00     0.131 A 
ATOM     75  C   UNL A   1      39.259  32.451  33.896  1.00  0.00     0.055 A 
ATOM     76  C   UNL A   1      41.532  34.788  33.610  1.00  0.00     0.041 A 
ATOM     77  F   UNL A   1      42.677  34.783  31.284  1.00  0.00    -0.206 F 
ATOM     78  C   UNL A   1      40.210  34.119  34.534  1.00  0.00     0.022 A 
BRANCH  75  79
ATOM     79  S   UNL A   1      37.940  31.186  34.452  1.00  0.00     0.124 S 
ATOM     80  O   UNL A   1      38.794  30.066  34.846  1.00  0.00    -0.237 OA
ATOM     81  O   UNL A   1      37.343  31.916  35.576  1.00  0.00    -0.237 OA
ATOM     82  O   UNL A   1      37.023  30.867  33.364  1.00  0.00    -0.744 OA
ENDBRANCH  75  79
ENDBRANCH  48  72
BRANCH  60  83
ATOM     83  C   UNL A   1      45.231  26.280  32.707  1.00  0.00     0.023 A 
ATOM     84  C   UNL A   1      44.377  25.632  33.596  1.00  0.00     0.031 A 
ATOM     85  C   UNL A   1      46.587  25.875  32.738  1.00  0.00     0.131 A 
ATOM     86  C   UNL A   1      44.890  24.815  34.605  1.00  0.00     0.055 A 
ATOM     87  C   UNL A   1      47.068  24.924  33.637  1.00  0.00     0.041 A 
ATOM     88  F   UNL A   1      47.504  26.387  31.902  1.00  0.00    -0.206 F 
ATOM     89  C   UNL A   1      46.225  24.424  34.619  1.00  0.00     0.022 A 
BRANCH  86  90
ATOM     90  S   UNL A   1      43.798  24.478  36.003  1.00  0.00     0.124 S 
ATOM     91  O   UNL A   1      44.685  23.717  36.883  1.00  0.00    -0.237 OA
ATOM     92  O   UNL A   1      43.451  25.817  36.462  1.00  0.00    -0.237 OA
ATOM     93  O   UNL A   1      42.707  23.712  35.407  1.00  0.00    -0.744 OA
ENDBRANCH  86  90
ENDBRANCH  60  83
ENDBRANCH  34  35
ENDBRANCH  26  29
ENDBRANCH  24  25
ENDBRANCH  23  24
ENDBRANCH   1  23
TORSDOF 17
ENDMDL
MODEL 3
REMARK VINA RESULT:     -12.2      4.376      9.825
REMARK SMILES Cc1ccc(-c2nnc(S[C@@H](C)C(=O)NCCCCNC(=O)c3ccc(-c4c5nc(c(-c6cc(S(=O)(=O)[O-])ccc6F)c6ccc([nH]6)c(-c6cc(S(=O)(=O)[O-])ccc6F)c6nc(c(-c7cc(S(=O)(=O)[O-])ccc7F)c7ccc4[nH]7)C=C6)C=C5)cc3)n2C)cc1
REMARK SMILES IDX 17 1 16 2 15 3 13 4 14 5 11 7 12 8 10 9 9 10 6 11 7 12 86 13
REMARK SMILES IDX 8 14 87 15 5 16 1 17 2 18 3 19 89 20 4 21 88 22 18 23 19 24
REMARK SMILES IDX 20 25 21 26 22 28 23 29 24 30 85 31 25 32 84 33 26 34 27 35
REMARK SMILES IDX 28 36 78 37 29 38 83 39 77 40 79 41 30 42 82 43 76 44 75 45
REMARK SMILES IDX 31 47 63 48 43 49 62 50 44 51 47 52 61 53 80 54 45 55 46 56
REMARK SMILES IDX 60 58 81 59 48 60 32 61 33 62 41 63 34 64 40 65 42 66 39 67
REMARK SMILES IDX 35 68 36 69 37 70 38 71 64 72 65 73 73 74 66 75 72 76 74 77
REMARK SMILES IDX 71 78 67 79 68 80 69 81 70 82 49 83 50 84 58 85 51 86 57 87
REMARK SMILES IDX 59 88 56 89 52 90 53 91 54 92 55 93
REMARK H PARENT 15 6 20 27 79 46 47 57
REMARK Flexibility Score: inf
ROOT
ATOM      1  C   UNL A   1      33.300  30.565  27.173  1.00  0.00     0.023 C 
ENDROOT
BRANCH   1   2
ATOM      2  C   UNL A   1      32.649  29.610  26.177  1.00  0.00     0.116 C 
BRANCH   2   3
ATOM      3  N   UNL A   1      31.656  30.035  25.224  1.00  0.00    -0.355 N 
ATOM      4  C   UNL A   1      31.230  29.410  24.081  1.00  0.00     0.233 C 
ATOM      5  O   UNL A   1      30.123  29.817  23.678  1.00  0.00    -0.274 OA
ATOM      6  H   UNL A   1      31.222  30.897  25.421  1.00  0.00     0.163 HD
BRANCH   4   7
ATOM      7  C   UNL A   1      31.935  28.323  23.216  1.00  0.00     0.141 C 
ATOM      8  C   UNL A   1      33.329  28.671  22.674  1.00  0.00     0.030 C 
BRANCH   7   9
ATOM      9  S   UNL A   1      31.129  27.209  22.081  1.00  0.00    -0.073 SA
BRANCH   9  10
ATOM     10  C   UNL A   1      31.846  25.630  22.023  1.00  0.00     0.191 A 
ATOM     11  C   UNL A   1      32.851  23.705  22.488  1.00  0.00     0.164 A 
ATOM     12  N   UNL A   1      33.420  24.279  21.433  1.00  0.00    -0.129 NA
ATOM     13  N   UNL A   1      31.851  24.566  22.910  1.00  0.00    -0.305 N 
ATOM     14  N   UNL A   1      32.768  25.426  21.112  1.00  0.00    -0.123 NA
ATOM     15  C   UNL A   1      31.195  24.445  24.176  1.00  0.00     0.154 C 
BRANCH  11  16
ATOM     16  C   UNL A   1      33.349  22.393  23.002  1.00  0.00     0.019 A 
ATOM     17  C   UNL A   1      33.984  17.559  24.537  1.00  0.00     0.044 C 
ATOM     18  C   UNL A   1      33.312  18.917  24.443  1.00  0.00    -0.051 A 
ATOM     19  C   UNL A   1      32.246  19.433  23.170  1.00  0.00     0.004 A 
ATOM     20  C   UNL A   1      34.439  20.105  25.093  1.00  0.00     0.004 A 
ATOM     21  C   UNL A   1      32.249  21.083  22.486  1.00  0.00     0.012 A 
ATOM     22  C   UNL A   1      34.579  21.963  24.291  1.00  0.00     0.012 A 
ENDBRANCH  11  16
ENDBRANCH   9  10
ENDBRANCH   7   9
ENDBRANCH   4   7
ENDBRANCH   2   3
ENDBRANCH   1   2
BRANCH   1  23
ATOM     23  C   UNL A   1      34.754  30.359  27.550  1.00  0.00     0.023 C 
BRANCH  23  24
ATOM     24  C   UNL A   1      35.242  30.977  28.853  1.00  0.00     0.116 C 
BRANCH  24  25
ATOM     25  N   UNL A   1      34.427  32.006  29.491  1.00  0.00    -0.352 N 
ATOM     26  C   UNL A   1      34.816  33.049  30.340  1.00  0.00     0.251 C 
ATOM     27  H   UNL A   1      33.463  31.959  29.296  1.00  0.00     0.163 HD
ATOM     28  O   UNL A   1      33.949  33.764  30.840  1.00  0.00    -0.269 OA
BRANCH  26  29
ATOM     29  C   UNL A   1      36.264  33.427  30.520  1.00  0.00     0.039 A 
ATOM     30  C   UNL A   1      37.019  33.834  29.410  1.00  0.00     0.014 A 
ATOM     31  C   UNL A   1      36.957  32.954  31.615  1.00  0.00     0.014 A 
ATOM     32  C   UNL A   1      38.340  33.364  29.293  1.00  0.00     0.010 A 
ATOM     33  C   UNL A   1      38.111  32.254  31.417  1.00  0.00     0.010 A 
ATOM     34  C   UNL A   1      38.784  32.393  30.218  1.00  0.00    -0.014 A 
BRANCH  34  35
ATOM     35  C   UNL A   1      40.120  31.799  30.293  1.00  0.00     0.031 A 
ATOM     36  C   UNL A   1      40.002  30.365  29.920  1.00  0.00     0.074 A 
ATOM     37  C   UNL A   1      41.241  32.564  30.480  1.00  0.00     0.049 A 
ATOM     38  N   UNL A   1      40.535  29.350  30.502  1.00  0.00    -0.248 NA
ATOM     39  C   UNL A   1      38.992  29.941  28.911  1.00  0.00     0.031 C 
ATOM     40  C   UNL A   1      42.656  32.276  30.295  1.00  0.00     0.029 A 
ATOM     41  N   UNL A   1      41.366  33.849  30.994  1.00  0.00    -0.354 N 
ATOM     42  C   UNL A   1      40.373  28.323  29.584  1.00  0.00     0.074 A 
ATOM     43  C   UNL A   1      39.172  28.625  28.869  1.00  0.00     0.031 C 
ATOM     44  C   UNL A   1      43.411  33.133  31.032  1.00  0.00     0.029 A 
ATOM     45  C   UNL A   1      42.515  33.985  31.806  1.00  0.00     0.049 A 
ATOM     46  H   UNL A   1      40.729  34.579  30.812  1.00  0.00     0.167 HD
ATOM     47  C   UNL A   1      41.475  27.639  29.161  1.00  0.00     0.034 A 
ATOM     48  C   UNL A   1      42.504  34.075  33.204  1.00  0.00     0.034 A 
ATOM     49  C   UNL A   1      42.658  28.148  29.860  1.00  0.00     0.049 A 
ATOM     50  C   UNL A   1      42.942  32.671  33.759  1.00  0.00     0.074 A 
ATOM     51  C   UNL A   1      43.664  29.024  29.486  1.00  0.00     0.029 A 
ATOM     52  N   UNL A   1      42.670  28.121  31.248  1.00  0.00    -0.354 N 
ATOM     53  N   UNL A   1      42.914  31.572  33.039  1.00  0.00    -0.248 NA
ATOM     54  C   UNL A   1      43.493  32.416  35.095  1.00  0.00     0.031 C 
ATOM     55  C   UNL A   1      44.221  29.581  30.677  1.00  0.00     0.029 A 
ATOM     56  C   UNL A   1      43.521  29.082  31.762  1.00  0.00     0.049 A 
ATOM     57  H   UNL A   1      42.143  27.497  31.797  1.00  0.00     0.167 HD
ATOM     58  C   UNL A   1      43.469  30.526  33.723  1.00  0.00     0.074 A 
ATOM     59  C   UNL A   1      43.826  31.112  35.008  1.00  0.00     0.031 C 
ATOM     60  C   UNL A   1      43.605  29.261  33.204  1.00  0.00     0.034 A 
BRANCH  47  61
ATOM     61  C   UNL A   1      41.518  26.849  27.869  1.00  0.00     0.023 A 
ATOM     62  C   UNL A   1      41.548  25.445  27.936  1.00  0.00     0.031 A 
ATOM     63  C   UNL A   1      41.512  27.390  26.564  1.00  0.00     0.131 A 
ATOM     64  C   UNL A   1      41.617  24.652  26.776  1.00  0.00     0.055 A 
ATOM     65  C   UNL A   1      41.643  26.605  25.409  1.00  0.00     0.041 A 
ATOM     66  F   UNL A   1      41.318  28.698  26.341  1.00  0.00    -0.206 F 
ATOM     67  C   UNL A   1      41.693  25.223  25.510  1.00  0.00     0.022 A 
BRANCH  64  68
ATOM     68  S   UNL A   1      41.535  22.852  26.958  1.00  0.00     0.124 S 
ATOM     69  O   UNL A   1      40.139  22.648  27.332  1.00  0.00    -0.237 OA
ATOM     70  O   UNL A   1      41.922  22.391  25.629  1.00  0.00    -0.237 OA
ATOM     71  O   UNL A   1      42.508  22.575  28.013  1.00  0.00    -0.744 OA
ENDBRANCH  64  68
ENDBRANCH  47  61
BRANCH  48  72
ATOM     72  C   UNL A   1      41.256  34.816  33.761  1.00  0.00     0.023 A 
ATOM     73  C   UNL A   1      39.563  34.225  34.032  1.00  0.00     0.031 A 
ATOM     74  C   UNL A   1      41.997  35.953  34.869  1.00  0.00     0.131 A 
ATOM     75  C   UNL A   1      38.673  34.717  35.595  1.00  0.00     0.055 A 
ATOM     76  C   UNL A   1      41.396  36.345  36.396  1.00  0.00     0.041 A 
ATOM     77  F   UNL A   1      42.938  36.769  34.355  1.00  0.00    -0.206 F 
ATOM     78  C   UNL A   1      39.811  35.792  36.877  1.00  0.00     0.022 A 
BRANCH  75  79
ATOM     79  S   UNL A   1      37.036  33.733  35.526  1.00  0.00     0.124 S 
ATOM     80  O   UNL A   1      36.265  34.563  34.601  1.00  0.00    -0.237 OA
ATOM     81  O   UNL A   1      37.519  32.473  34.949  1.00  0.00    -0.237 OA
ATOM     82  O   UNL A   1      36.434  33.618  36.849  1.00  0.00    -0.744 OA
ENDBRANCH  75  79
ENDBRANCH  48  72
BRANCH  60  83
ATOM     83  C   UNL A   1      43.906  28.050  34.047  1.00  0.00     0.023 A 
ATOM     84  C   UNL A   1      42.940  27.505  34.892  1.00  0.00     0.031 A 
ATOM     85  C   UNL A   1      45.139  27.358  33.983  1.00  0.00     0.131 A 
ATOM     86  C   UNL A   1      43.274  26.486  35.785  1.00  0.00     0.055 A 
ATOM     87  C   UNL A   1      45.409  26.228  34.754  1.00  0.00     0.041 A 
ATOM     88  F   UNL A   1      46.135  27.750  33.173  1.00  0.00    -0.206 F 
ATOM     89  C   UNL A   1      44.489  25.815  35.706  1.00  0.00     0.022 A 
BRANCH  86  90
ATOM     90  S   UNL A   1      42.152  26.236  37.179  1.00  0.00     0.124 S 
ATOM     91  O   UNL A   1      43.051  26.450  38.312  1.00  0.00    -0.237 OA
ATOM     92  O   UNL A   1      41.148  27.271  36.965  1.00  0.00    -0.237 OA
ATOM     93  O   UNL A   1      41.690  24.862  37.002  1.00  0.00    -0.744 OA
ENDBRANCH  86  90
ENDBRANCH  60  83
ENDBRANCH  34  35
ENDBRANCH  26  29
ENDBRANCH  24  25
ENDBRANCH  23  24
ENDBRANCH   1  23
TORSDOF 17
ENDMDL
