MODEL 1
REMARK VINA RESULT:     -11.3      0.000      0.000
REMARK SMILES COCCNC(=O)Cn1ccc(C(=O)NCCCCNC(=O)c2ccc(-c3c4nc(c(-c5cc(S(=O)(=O)[O-])ccc5F)c5ccc([nH]5)c(-c5cc(S(=O)(=O)[O-])ccc5F)c5nc(c(-c6cc(S(=O)(=O)[O-])ccc6F)c6ccc3[nH]6)C=C5)C=C4)cc2)c1
REMARK SMILES IDX 16 1 15 2 13 3 14 4 12 6 9 7 10 8 86 9 11 10 8 11 6 12 5 13
REMARK SMILES IDX 7 15 4 16 3 17 2 18 1 19 17 20 18 21 19 22 20 23 21 24 22 26
REMARK SMILES IDX 23 27 24 28 85 29 25 30 84 31 26 32 27 33 28 34 78 35 29 36
REMARK SMILES IDX 83 37 77 38 79 39 30 40 82 41 76 42 75 43 31 45 63 46 43 47
REMARK SMILES IDX 62 48 44 49 47 50 61 51 80 52 45 53 46 54 60 56 81 57 48 58
REMARK SMILES IDX 32 59 33 60 41 61 34 62 40 63 42 64 39 65 35 66 36 67 37 68
REMARK SMILES IDX 38 69 64 70 65 71 73 72 66 73 72 74 74 75 71 76 67 77 68 78
REMARK SMILES IDX 69 79 70 80 49 81 50 82 58 83 51 84 57 85 59 86 56 87 52 88
REMARK SMILES IDX 53 89 54 90 55 91
REMARK H PARENT 15 5 5 14 20 25 79 44 47 55
REMARK Flexibility Score: inf
ROOT
ATOM      1  C   UNL A   1      31.404  29.496  25.343  1.00  0.00     0.116 C 
ENDROOT
BRANCH   1   2
ATOM      2  N   UNL A   1      31.015  29.566  23.951  1.00  0.00    -0.352 N 
ATOM      3  C   UNL A   1      30.705  28.551  23.069  1.00  0.00     0.252 C 
ATOM      4  O   UNL A   1      30.122  28.856  22.033  1.00  0.00    -0.269 OA
ATOM      5  H   UNL A   1      30.964  30.474  23.577  1.00  0.00     0.163 HD
BRANCH   3   6
ATOM      6  C   UNL A   1      31.028  27.156  23.377  1.00  0.00     0.057 A 
ATOM      7  N   UNL A   1      31.868  25.076  23.336  1.00  0.00    -0.344 N 
ATOM      8  C   UNL A   1      31.164  25.178  24.504  1.00  0.00     0.087 A 
ATOM      9  C   UNL A   1      31.662  26.208  22.588  1.00  0.00     0.100 A 
ATOM     10  C   UNL A   1      30.647  26.455  24.565  1.00  0.00     0.033 A 
BRANCH   7  11
ATOM     11  C   UNL A   1      32.634  23.918  22.905  1.00  0.00     0.221 C 
BRANCH  11  12
ATOM     12  C   UNL A   1      33.844  23.647  23.780  1.00  0.00     0.239 C 
ATOM     13  N   UNL A   1      34.002  22.453  24.422  1.00  0.00    -0.352 N 
ATOM     14  H   UNL A   1      34.766  22.421  25.042  1.00  0.00     0.163 HD
ATOM     15  O   UNL A   1      34.691  24.522  23.978  1.00  0.00    -0.273 OA
BRANCH  13  16
ATOM     16  C   UNL A   1      33.232  21.220  24.346  1.00  0.00     0.144 C 
BRANCH  16  17
ATOM     17  C   UNL A   1      33.944  20.029  24.999  1.00  0.00     0.181 C 
BRANCH  17  18
ATOM     18  O   UNL A   1      33.843  18.819  24.253  1.00  0.00    -0.383 OA
ATOM     19  C   UNL A   1      32.535  18.534  23.780  1.00  0.00     0.194 C 
ENDBRANCH  17  18
ENDBRANCH  16  17
ENDBRANCH  13  16
ENDBRANCH  11  12
ENDBRANCH   7  11
ENDBRANCH   3   6
ENDBRANCH   1   2
BRANCH   1  20
ATOM     20  C   UNL A   1      32.843  29.953  25.590  1.00  0.00     0.023 C 
BRANCH  20  21
ATOM     21  C   UNL A   1      33.812  28.805  25.909  1.00  0.00     0.023 C 
BRANCH  21  22
ATOM     22  C   UNL A   1      34.598  28.977  27.219  1.00  0.00     0.116 C 
BRANCH  22  23
ATOM     23  N   UNL A   1      35.145  30.317  27.348  1.00  0.00    -0.352 N 
ATOM     24  C   UNL A   1      36.288  30.733  27.992  1.00  0.00     0.251 C 
ATOM     25  H   UNL A   1      34.623  31.030  26.914  1.00  0.00     0.163 HD
ATOM     26  O   UNL A   1      36.371  31.914  28.324  1.00  0.00    -0.269 OA
BRANCH  24  27
ATOM     27  C   UNL A   1      37.400  29.804  28.309  1.00  0.00     0.039 A 
ATOM     28  C   UNL A   1      38.458  29.711  27.394  1.00  0.00     0.014 A 
ATOM     29  C   UNL A   1      37.372  28.957  29.424  1.00  0.00     0.014 A 
ATOM     30  C   UNL A   1      39.512  28.827  27.627  1.00  0.00     0.010 A 
ATOM     31  C   UNL A   1      38.429  28.068  29.660  1.00  0.00     0.010 A 
ATOM     32  C   UNL A   1      39.516  28.022  28.777  1.00  0.00    -0.014 A 
BRANCH  32  33
ATOM     33  C   UNL A   1      40.806  27.379  29.165  1.00  0.00     0.031 A 
ATOM     34  C   UNL A   1      41.132  26.221  28.170  1.00  0.00     0.074 A 
ATOM     35  C   UNL A   1      41.447  27.819  30.301  1.00  0.00     0.049 A 
ATOM     36  N   UNL A   1      41.694  25.066  28.364  1.00  0.00    -0.248 NA
ATOM     37  C   UNL A   1      40.644  26.323  26.761  1.00  0.00     0.031 C 
ATOM     38  C   UNL A   1      41.038  28.992  31.112  1.00  0.00     0.029 A 
ATOM     39  N   UNL A   1      42.557  27.393  31.014  1.00  0.00    -0.354 N 
ATOM     40  C   UNL A   1      41.861  24.447  27.096  1.00  0.00     0.074 A 
ATOM     41  C   UNL A   1      41.046  25.188  26.188  1.00  0.00     0.031 C 
ATOM     42  C   UNL A   1      41.811  29.127  32.220  1.00  0.00     0.029 A 
ATOM     43  C   UNL A   1      42.808  28.072  32.254  1.00  0.00     0.049 A 
ATOM     44  H   UNL A   1      43.139  26.669  30.690  1.00  0.00     0.167 HD
ATOM     45  C   UNL A   1      42.797  23.478  26.847  1.00  0.00     0.034 A 
ATOM     46  C   UNL A   1      43.720  27.773  33.247  1.00  0.00     0.034 A 
ATOM     47  C   UNL A   1      43.487  23.183  28.056  1.00  0.00     0.049 A 
ATOM     48  C   UNL A   1      44.518  26.688  32.661  1.00  0.00     0.074 A 
ATOM     49  C   UNL A   1      43.109  22.583  29.226  1.00  0.00     0.029 A 
ATOM     50  N   UNL A   1      44.678  23.844  28.249  1.00  0.00    -0.354 N 
ATOM     51  N   UNL A   1      45.435  26.847  31.759  1.00  0.00    -0.248 NA
ATOM     52  C   UNL A   1      44.231  25.306  33.074  1.00  0.00     0.031 C 
ATOM     53  C   UNL A   1      43.780  23.359  30.192  1.00  0.00     0.029 A 
ATOM     54  C   UNL A   1      44.717  24.194  29.569  1.00  0.00     0.049 A 
ATOM     55  H   UNL A   1      45.367  24.027  27.571  1.00  0.00     0.167 HD
ATOM     56  C   UNL A   1      45.595  25.571  31.283  1.00  0.00     0.074 A 
ATOM     57  C   UNL A   1      45.132  24.679  32.323  1.00  0.00     0.031 C 
ATOM     58  C   UNL A   1      45.507  25.345  29.948  1.00  0.00     0.034 A 
BRANCH  45  59
ATOM     59  C   UNL A   1      43.431  22.928  25.582  1.00  0.00     0.023 A 
ATOM     60  C   UNL A   1      43.478  21.510  25.489  1.00  0.00     0.031 A 
ATOM     61  C   UNL A   1      44.270  23.626  24.706  1.00  0.00     0.131 A 
ATOM     62  C   UNL A   1      44.466  20.854  24.744  1.00  0.00     0.055 A 
ATOM     63  C   UNL A   1      45.194  22.960  23.882  1.00  0.00     0.041 A 
ATOM     64  F   UNL A   1      44.294  24.963  24.664  1.00  0.00    -0.206 F 
ATOM     65  C   UNL A   1      45.335  21.575  23.938  1.00  0.00     0.022 A 
BRANCH  62  66
ATOM     66  S   UNL A   1      44.724  19.081  25.054  1.00  0.00     0.124 S 
ATOM     67  O   UNL A   1      46.004  19.082  25.752  1.00  0.00    -0.237 OA
ATOM     68  O   UNL A   1      43.555  18.738  25.860  1.00  0.00    -0.237 OA
ATOM     69  O   UNL A   1      44.742  18.504  23.711  1.00  0.00    -0.744 OA
ENDBRANCH  62  66
ENDBRANCH  45  59
BRANCH  46  70
ATOM     70  C   UNL A   1      44.115  28.129  34.694  1.00  0.00     0.023 A 
ATOM     71  C   UNL A   1      44.366  27.254  35.767  1.00  0.00     0.031 A 
ATOM     72  C   UNL A   1      44.304  29.517  35.031  1.00  0.00     0.131 A 
ATOM     73  C   UNL A   1      44.854  27.765  37.018  1.00  0.00     0.055 A 
ATOM     74  C   UNL A   1      44.875  29.996  36.210  1.00  0.00     0.041 A 
ATOM     75  F   UNL A   1      43.923  30.516  34.225  1.00  0.00    -0.206 F 
ATOM     76  C   UNL A   1      45.171  29.113  37.212  1.00  0.00     0.022 A 
BRANCH  73  77
ATOM     77  S   UNL A   1      45.099  26.703  38.478  1.00  0.00     0.124 S 
ATOM     78  O   UNL A   1      45.495  25.438  37.867  1.00  0.00    -0.237 OA
ATOM     79  O   UNL A   1      46.131  27.408  39.229  1.00  0.00    -0.237 OA
ATOM     80  O   UNL A   1      43.779  26.695  39.111  1.00  0.00    -0.744 OA
ENDBRANCH  73  77
ENDBRANCH  46  70
BRANCH  58  81
ATOM     81  C   UNL A   1      45.873  26.537  29.070  1.00  0.00     0.023 A 
ATOM     82  C   UNL A   1      44.857  27.334  28.504  1.00  0.00     0.031 A 
ATOM     83  C   UNL A   1      47.187  26.848  28.676  1.00  0.00     0.131 A 
ATOM     84  C   UNL A   1      45.162  28.357  27.584  1.00  0.00     0.055 A 
ATOM     85  C   UNL A   1      47.496  27.872  27.768  1.00  0.00     0.041 A 
ATOM     86  F   UNL A   1      48.224  26.152  29.141  1.00  0.00    -0.206 F 
ATOM     87  C   UNL A   1      46.478  28.632  27.213  1.00  0.00     0.022 A 
BRANCH  84  88
ATOM     88  S   UNL A   1      43.815  29.344  26.875  1.00  0.00     0.124 S 
ATOM     89  O   UNL A   1      42.983  29.634  28.037  1.00  0.00    -0.237 OA
ATOM     90  O   UNL A   1      44.526  30.481  26.298  1.00  0.00    -0.237 OA
ATOM     91  O   UNL A   1      43.209  28.442  25.894  1.00  0.00    -0.744 OA
ENDBRANCH  84  88
ENDBRANCH  58  81
ENDBRANCH  32  33
ENDBRANCH  24  27
ENDBRANCH  22  23
ENDBRANCH  21  22
ENDBRANCH  20  21
ENDBRANCH   1  20
TORSDOF 19
ENDMDL
MODEL 2
REMARK VINA RESULT:     -11.3      2.970      7.971
REMARK SMILES COCCNC(=O)Cn1ccc(C(=O)NCCCCNC(=O)c2ccc(-c3c4nc(c(-c5cc(S(=O)(=O)[O-])ccc5F)c5ccc([nH]5)c(-c5cc(S(=O)(=O)[O-])ccc5F)c5nc(c(-c6cc(S(=O)(=O)[O-])ccc6F)c6ccc3[nH]6)C=C5)C=C4)cc2)c1
REMARK SMILES IDX 16 1 15 2 13 3 14 4 12 6 9 7 10 8 86 9 11 10 8 11 6 12 5 13
REMARK SMILES IDX 7 15 4 16 3 17 2 18 1 19 17 20 18 21 19 22 20 23 21 24 22 26
REMARK SMILES IDX 23 27 24 28 85 29 25 30 84 31 26 32 27 33 28 34 78 35 29 36
REMARK SMILES IDX 83 37 77 38 79 39 30 40 82 41 76 42 75 43 31 45 63 46 43 47
REMARK SMILES IDX 62 48 44 49 47 50 61 51 80 52 45 53 46 54 60 56 81 57 48 58
REMARK SMILES IDX 32 59 33 60 41 61 34 62 40 63 42 64 39 65 35 66 36 67 37 68
REMARK SMILES IDX 38 69 64 70 65 71 73 72 66 73 72 74 74 75 71 76 67 77 68 78
REMARK SMILES IDX 69 79 70 80 49 81 50 82 58 83 51 84 57 85 59 86 56 87 52 88
REMARK SMILES IDX 53 89 54 90 55 91
REMARK H PARENT 15 5 5 14 20 25 79 44 47 55
REMARK Flexibility Score: inf
ROOT
ATOM      1  C   UNL A   1      31.409  29.420  24.714  1.00  0.00     0.116 C 
ENDROOT
BRANCH   1   2
ATOM      2  N   UNL A   1      32.575  29.229  23.878  1.00  0.00    -0.352 N 
ATOM      3  C   UNL A   1      33.187  28.063  23.469  1.00  0.00     0.252 C 
ATOM      4  O   UNL A   1      33.977  28.132  22.532  1.00  0.00    -0.269 OA
ATOM      5  H   UNL A   1      32.996  30.057  23.553  1.00  0.00     0.163 HD
BRANCH   3   6
ATOM      6  C   UNL A   1      32.875  26.781  24.108  1.00  0.00     0.057 A 
ATOM      7  N   UNL A   1      32.047  24.750  24.577  1.00  0.00    -0.344 N 
ATOM      8  C   UNL A   1      32.970  25.018  25.551  1.00  0.00     0.087 A 
ATOM      9  C   UNL A   1      31.880  25.867  23.799  1.00  0.00     0.100 A 
ATOM     10  C   UNL A   1      33.508  26.258  25.280  1.00  0.00     0.033 A 
BRANCH   7  11
ATOM     11  C   UNL A   1      31.291  23.515  24.442  1.00  0.00     0.221 C 
BRANCH  11  12
ATOM     12  C   UNL A   1      31.128  22.772  25.754  1.00  0.00     0.239 C 
ATOM     13  N   UNL A   1      31.902  21.689  26.056  1.00  0.00    -0.352 N 
ATOM     14  H   UNL A   1      31.644  21.221  26.884  1.00  0.00     0.163 HD
ATOM     15  O   UNL A   1      30.252  23.093  26.560  1.00  0.00    -0.273 OA
BRANCH  13  16
ATOM     16  C   UNL A   1      33.042  21.108  25.363  1.00  0.00     0.144 C 
BRANCH  16  17
ATOM     17  C   UNL A   1      32.639  20.051  24.328  1.00  0.00     0.181 C 
BRANCH  17  18
ATOM     18  O   UNL A   1      31.984  18.916  24.889  1.00  0.00    -0.383 OA
ATOM     19  C   UNL A   1      32.791  18.157  25.776  1.00  0.00     0.194 C 
ENDBRANCH  17  18
ENDBRANCH  16  17
ENDBRANCH  13  16
ENDBRANCH  11  12
ENDBRANCH   7  11
ENDBRANCH   3   6
ENDBRANCH   1   2
BRANCH   1  20
ATOM     20  C   UNL A   1      31.702  30.222  25.983  1.00  0.00     0.023 C 
BRANCH  20  21
ATOM     21  C   UNL A   1      32.157  29.360  27.170  1.00  0.00     0.023 C 
BRANCH  21  22
ATOM     22  C   UNL A   1      33.655  29.465  27.499  1.00  0.00     0.116 C 
BRANCH  22  23
ATOM     23  N   UNL A   1      33.997  30.769  28.043  1.00  0.00    -0.352 N 
ATOM     24  C   UNL A   1      35.089  31.138  28.796  1.00  0.00     0.251 C 
ATOM     25  H   UNL A   1      33.358  31.490  27.846  1.00  0.00     0.163 HD
ATOM     26  O   UNL A   1      35.005  32.157  29.479  1.00  0.00    -0.269 OA
BRANCH  24  27
ATOM     27  C   UNL A   1      36.340  30.342  28.822  1.00  0.00     0.039 A 
ATOM     28  C   UNL A   1      37.093  30.266  27.642  1.00  0.00     0.014 A 
ATOM     29  C   UNL A   1      36.725  29.591  29.939  1.00  0.00     0.014 A 
ATOM     30  C   UNL A   1      38.260  29.501  27.602  1.00  0.00     0.010 A 
ATOM     31  C   UNL A   1      37.896  28.822  29.902  1.00  0.00     0.010 A 
ATOM     32  C   UNL A   1      38.681  28.799  28.741  1.00  0.00    -0.014 A 
BRANCH  32  33
ATOM     33  C   UNL A   1      40.091  28.307  28.767  1.00  0.00     0.031 A 
ATOM     34  C   UNL A   1      41.056  29.504  29.037  1.00  0.00     0.074 A 
ATOM     35  C   UNL A   1      40.331  26.979  28.502  1.00  0.00     0.049 A 
ATOM     36  N   UNL A   1      42.246  29.756  28.582  1.00  0.00    -0.248 NA
ATOM     37  C   UNL A   1      40.562  30.660  29.847  1.00  0.00     0.031 C 
ATOM     38  C   UNL A   1      39.286  25.940  28.331  1.00  0.00     0.029 A 
ATOM     39  N   UNL A   1      41.476  26.217  28.323  1.00  0.00    -0.354 N 
ATOM     40  C   UNL A   1      42.726  30.919  29.243  1.00  0.00     0.074 A 
ATOM     41  C   UNL A   1      41.588  31.513  29.867  1.00  0.00     0.031 C 
ATOM     42  C   UNL A   1      39.825  24.741  27.993  1.00  0.00     0.029 A 
ATOM     43  C   UNL A   1      41.270  24.856  27.916  1.00  0.00     0.049 A 
ATOM     44  H   UNL A   1      42.376  26.587  28.465  1.00  0.00     0.167 HD
ATOM     45  C   UNL A   1      44.057  31.214  29.381  1.00  0.00     0.034 A 
ATOM     46  C   UNL A   1      42.194  23.915  27.506  1.00  0.00     0.034 A 
ATOM     47  C   UNL A   1      44.821  30.218  28.712  1.00  0.00     0.049 A 
ATOM     48  C   UNL A   1      43.484  24.574  27.754  1.00  0.00     0.074 A 
ATOM     49  C   UNL A   1      44.981  29.890  27.393  1.00  0.00     0.029 A 
ATOM     50  N   UNL A   1      45.290  29.188  29.494  1.00  0.00    -0.354 N 
ATOM     51  N   UNL A   1      44.030  24.716  28.921  1.00  0.00    -0.248 NA
ATOM     52  C   UNL A   1      44.195  25.172  26.615  1.00  0.00     0.031 C 
ATOM     53  C   UNL A   1      45.016  28.482  27.434  1.00  0.00     0.029 A 
ATOM     54  C   UNL A   1      45.144  28.045  28.760  1.00  0.00     0.049 A 
ATOM     55  H   UNL A   1      45.658  29.260  30.404  1.00  0.00     0.167 HD
ATOM     56  C   UNL A   1      44.970  25.686  28.682  1.00  0.00     0.074 A 
ATOM     57  C   UNL A   1      45.253  25.649  27.264  1.00  0.00     0.031 C 
ATOM     58  C   UNL A   1      44.996  26.792  29.467  1.00  0.00     0.034 A 
BRANCH  45  59
ATOM     59  C   UNL A   1      44.843  32.130  30.303  1.00  0.00     0.023 A 
ATOM     60  C   UNL A   1      45.543  33.188  29.662  1.00  0.00     0.031 A 
ATOM     61  C   UNL A   1      45.237  31.843  31.614  1.00  0.00     0.131 A 
ATOM     62  C   UNL A   1      46.704  33.743  30.214  1.00  0.00     0.055 A 
ATOM     63  C   UNL A   1      46.343  32.475  32.207  1.00  0.00     0.041 A 
ATOM     64  F   UNL A   1      44.633  30.897  32.343  1.00  0.00    -0.206 F 
ATOM     65  C   UNL A   1      47.115  33.387  31.490  1.00  0.00     0.022 A 
BRANCH  62  66
ATOM     66  S   UNL A   1      47.767  34.741  29.128  1.00  0.00     0.124 S 
ATOM     67  O   UNL A   1      47.124  36.048  29.200  1.00  0.00    -0.237 OA
ATOM     68  O   UNL A   1      49.066  34.630  29.786  1.00  0.00    -0.237 OA
ATOM     69  O   UNL A   1      47.663  34.061  27.838  1.00  0.00    -0.744 OA
ENDBRANCH  62  66
ENDBRANCH  45  59
BRANCH  46  70
ATOM     70  C   UNL A   1      42.317  22.521  26.858  1.00  0.00     0.023 A 
ATOM     71  C   UNL A   1      43.442  21.949  26.236  1.00  0.00     0.031 A 
ATOM     72  C   UNL A   1      41.179  21.640  26.907  1.00  0.00     0.131 A 
ATOM     73  C   UNL A   1      43.410  20.579  25.803  1.00  0.00     0.055 A 
ATOM     74  C   UNL A   1      41.188  20.284  26.581  1.00  0.00     0.041 A 
ATOM     75  F   UNL A   1      39.959  22.054  27.267  1.00  0.00    -0.206 F 
ATOM     76  C   UNL A   1      42.319  19.737  26.038  1.00  0.00     0.022 A 
BRANCH  73  77
ATOM     77  S   UNL A   1      44.791  19.808  24.898  1.00  0.00     0.124 S 
ATOM     78  O   UNL A   1      45.943  20.513  25.449  1.00  0.00    -0.237 OA
ATOM     79  O   UNL A   1      44.668  18.398  25.248  1.00  0.00    -0.237 OA
ATOM     80  O   UNL A   1      44.489  20.121  23.500  1.00  0.00    -0.744 OA
ENDBRANCH  73  77
ENDBRANCH  46  70
BRANCH  58  81
ATOM     81  C   UNL A   1      44.449  26.591  30.877  1.00  0.00     0.023 A 
ATOM     82  C   UNL A   1      43.327  27.327  31.308  1.00  0.00     0.031 A 
ATOM     83  C   UNL A   1      45.066  25.785  31.851  1.00  0.00     0.131 A 
ATOM     84  C   UNL A   1      42.883  27.261  32.644  1.00  0.00     0.055 A 
ATOM     85  C   UNL A   1      44.622  25.709  33.179  1.00  0.00     0.041 A 
ATOM     86  F   UNL A   1      46.142  25.056  31.555  1.00  0.00    -0.206 F 
ATOM     87  C   UNL A   1      43.525  26.453  33.583  1.00  0.00     0.022 A 
BRANCH  84  88
ATOM     88  S   UNL A   1      41.441  28.238  33.150  1.00  0.00     0.124 S 
ATOM     89  O   UNL A   1      41.973  29.595  33.201  1.00  0.00    -0.237 OA
ATOM     90  O   UNL A   1      40.484  27.966  32.081  1.00  0.00    -0.237 OA
ATOM     91  O   UNL A   1      41.081  27.669  34.450  1.00  0.00    -0.744 OA
ENDBRANCH  84  88
ENDBRANCH  58  81
ENDBRANCH  32  33
ENDBRANCH  24  27
ENDBRANCH  22  23
ENDBRANCH  21  22
ENDBRANCH  20  21
ENDBRANCH   1  20
TORSDOF 19
ENDMDL
MODEL 3
REMARK VINA RESULT:     -11.2      3.135      8.040
REMARK SMILES COCCNC(=O)Cn1ccc(C(=O)NCCCCNC(=O)c2ccc(-c3c4nc(c(-c5cc(S(=O)(=O)[O-])ccc5F)c5ccc([nH]5)c(-c5cc(S(=O)(=O)[O-])ccc5F)c5nc(c(-c6cc(S(=O)(=O)[O-])ccc6F)c6ccc3[nH]6)C=C5)C=C4)cc2)c1
REMARK SMILES IDX 16 1 15 2 13 3 14 4 12 6 9 7 10 8 86 9 11 10 8 11 6 12 5 13
REMARK SMILES IDX 7 15 4 16 3 17 2 18 1 19 17 20 18 21 19 22 20 23 21 24 22 26
REMARK SMILES IDX 23 27 24 28 85 29 25 30 84 31 26 32 27 33 28 34 78 35 29 36
REMARK SMILES IDX 83 37 77 38 79 39 30 40 82 41 76 42 75 43 31 45 63 46 43 47
REMARK SMILES IDX 62 48 44 49 47 50 61 51 80 52 45 53 46 54 60 56 81 57 48 58
REMARK SMILES IDX 32 59 33 60 41 61 34 62 40 63 42 64 39 65 35 66 36 67 37 68
REMARK SMILES IDX 38 69 64 70 65 71 73 72 66 73 72 74 74 75 71 76 67 77 68 78
REMARK SMILES IDX 69 79 70 80 49 81 50 82 58 83 51 84 57 85 59 86 56 87 52 88
REMARK SMILES IDX 53 89 54 90 55 91
REMARK H PARENT 15 5 5 14 20 25 79 44 47 55
REMARK Flexibility Score: inf
ROOT
ATOM      1  C   UNL A   1      31.460  29.205  24.716  1.00  0.00     0.116 C 
ENDROOT
BRANCH   1   2
ATOM      2  N   UNL A   1      32.606  29.184  23.832  1.00  0.00    -0.352 N 
ATOM      3  C   UNL A   1      33.276  28.112  23.281  1.00  0.00     0.252 C 
ATOM      4  O   UNL A   1      34.027  28.334  22.335  1.00  0.00    -0.269 OA
ATOM      5  H   UNL A   1      32.960  30.068  23.586  1.00  0.00     0.163 HD
BRANCH   3   6
ATOM      6  C   UNL A   1      33.071  26.751  23.785  1.00  0.00     0.057 A 
ATOM      7  N   UNL A   1      32.253  24.703  24.194  1.00  0.00    -0.344 N 
ATOM      8  C   UNL A   1      33.465  24.761  24.826  1.00  0.00     0.087 A 
ATOM      9  C   UNL A   1      31.947  25.944  23.699  1.00  0.00     0.100 A 
ATOM     10  C   UNL A   1      34.001  26.007  24.579  1.00  0.00     0.033 A 
BRANCH   7  11
ATOM     11  C   UNL A   1      31.381  23.541  24.139  1.00  0.00     0.221 C 
BRANCH  11  12
ATOM     12  C   UNL A   1      31.249  22.832  25.473  1.00  0.00     0.239 C 
ATOM     13  N   UNL A   1      31.974  21.711  25.755  1.00  0.00    -0.352 N 
ATOM     14  H   UNL A   1      31.737  21.275  26.606  1.00  0.00     0.163 HD
ATOM     15  O   UNL A   1      30.440  23.221  26.320  1.00  0.00    -0.273 OA
BRANCH  13  16
ATOM     16  C   UNL A   1      33.037  21.050  25.012  1.00  0.00     0.144 C 
BRANCH  16  17
ATOM     17  C   UNL A   1      32.555  19.808  24.254  1.00  0.00     0.181 C 
BRANCH  17  18
ATOM     18  O   UNL A   1      31.965  18.816  25.090  1.00  0.00    -0.383 OA
ATOM     19  C   UNL A   1      32.885  18.147  25.939  1.00  0.00     0.194 C 
ENDBRANCH  17  18
ENDBRANCH  16  17
ENDBRANCH  13  16
ENDBRANCH  11  12
ENDBRANCH   7  11
ENDBRANCH   3   6
ENDBRANCH   1   2
BRANCH   1  20
ATOM     20  C   UNL A   1      31.661  30.100  25.941  1.00  0.00     0.023 C 
BRANCH  20  21
ATOM     21  C   UNL A   1      32.201  29.355  27.170  1.00  0.00     0.023 C 
BRANCH  21  22
ATOM     22  C   UNL A   1      33.712  29.518  27.403  1.00  0.00     0.116 C 
BRANCH  22  23
ATOM     23  N   UNL A   1      34.031  30.807  27.994  1.00  0.00    -0.352 N 
ATOM     24  C   UNL A   1      35.094  31.157  28.795  1.00  0.00     0.251 C 
ATOM     25  H   UNL A   1      33.397  31.532  27.793  1.00  0.00     0.163 HD
ATOM     26  O   UNL A   1      34.983  32.158  29.501  1.00  0.00    -0.269 OA
BRANCH  24  27
ATOM     27  C   UNL A   1      36.345  30.363  28.845  1.00  0.00     0.039 A 
ATOM     28  C   UNL A   1      37.136  30.312  27.688  1.00  0.00     0.014 A 
ATOM     29  C   UNL A   1      36.697  29.590  29.959  1.00  0.00     0.014 A 
ATOM     30  C   UNL A   1      38.305  29.550  27.670  1.00  0.00     0.010 A 
ATOM     31  C   UNL A   1      37.870  28.824  29.943  1.00  0.00     0.010 A 
ATOM     32  C   UNL A   1      38.692  28.826  28.808  1.00  0.00    -0.014 A 
BRANCH  32  33
ATOM     33  C   UNL A   1      40.101  28.336  28.869  1.00  0.00     0.031 A 
ATOM     34  C   UNL A   1      41.057  29.533  29.169  1.00  0.00     0.074 A 
ATOM     35  C   UNL A   1      40.350  27.009  28.605  1.00  0.00     0.049 A 
ATOM     36  N   UNL A   1      42.258  29.788  28.747  1.00  0.00    -0.248 NA
ATOM     37  C   UNL A   1      40.540  30.685  29.970  1.00  0.00     0.031 C 
ATOM     38  C   UNL A   1      39.311  25.969  28.402  1.00  0.00     0.029 A 
ATOM     39  N   UNL A   1      41.500  26.250  28.453  1.00  0.00    -0.354 N 
ATOM     40  C   UNL A   1      42.719  30.950  29.425  1.00  0.00     0.074 A 
ATOM     41  C   UNL A   1      41.563  31.539  30.020  1.00  0.00     0.031 C 
ATOM     42  C   UNL A   1      39.861  24.772  28.074  1.00  0.00     0.029 A 
ATOM     43  C   UNL A   1      41.307  24.889  28.035  1.00  0.00     0.049 A 
ATOM     44  H   UNL A   1      42.396  26.621  28.620  1.00  0.00     0.167 HD
ATOM     45  C   UNL A   1      44.045  31.246  29.598  1.00  0.00     0.034 A 
ATOM     46  C   UNL A   1      42.243  23.952  27.646  1.00  0.00     0.034 A 
ATOM     47  C   UNL A   1      44.828  30.253  28.945  1.00  0.00     0.049 A 
ATOM     48  C   UNL A   1      43.525  24.611  27.930  1.00  0.00     0.074 A 
ATOM     49  C   UNL A   1      45.023  29.931  27.630  1.00  0.00     0.029 A 
ATOM     50  N   UNL A   1      45.277  29.221  29.736  1.00  0.00    -0.354 N 
ATOM     51  N   UNL A   1      44.040  24.750  29.112  1.00  0.00    -0.248 NA
ATOM     52  C   UNL A   1      44.265  25.215  26.813  1.00  0.00     0.031 C 
ATOM     53  C   UNL A   1      45.059  28.523  27.667  1.00  0.00     0.029 A 
ATOM     54  C   UNL A   1      45.153  28.081  28.994  1.00  0.00     0.049 A 
ATOM     55  H   UNL A   1      45.622  29.290  30.656  1.00  0.00     0.167 HD
ATOM     56  C   UNL A   1      44.984  25.722  28.902  1.00  0.00     0.074 A 
ATOM     57  C   UNL A   1      45.305  25.691  27.492  1.00  0.00     0.031 C 
ATOM     58  C   UNL A   1      44.989  26.824  29.691  1.00  0.00     0.034 A 
BRANCH  45  59
ATOM     59  C   UNL A   1      44.805  32.159  30.544  1.00  0.00     0.023 A 
ATOM     60  C   UNL A   1      44.378  32.125  31.900  1.00  0.00     0.031 A 
ATOM     61  C   UNL A   1      45.596  33.254  30.180  1.00  0.00     0.131 A 
ATOM     62  C   UNL A   1      44.536  33.227  32.749  1.00  0.00     0.055 A 
ATOM     63  C   UNL A   1      45.840  34.316  31.067  1.00  0.00     0.041 A 
ATOM     64  F   UNL A   1      46.095  33.386  28.946  1.00  0.00    -0.206 F 
ATOM     65  C   UNL A   1      45.265  34.334  32.337  1.00  0.00     0.022 A 
BRANCH  62  66
ATOM     66  S   UNL A   1      43.565  33.260  34.286  1.00  0.00     0.124 S 
ATOM     67  O   UNL A   1      44.112  34.432  34.960  1.00  0.00    -0.237 OA
ATOM     68  O   UNL A   1      42.200  33.391  33.782  1.00  0.00    -0.237 OA
ATOM     69  O   UNL A   1      43.877  31.975  34.908  1.00  0.00    -0.744 OA
ENDBRANCH  62  66
ENDBRANCH  45  59
BRANCH  46  70
ATOM     70  C   UNL A   1      42.386  22.561  26.996  1.00  0.00     0.023 A 
ATOM     71  C   UNL A   1      43.487  22.039  26.293  1.00  0.00     0.031 A 
ATOM     72  C   UNL A   1      41.299  21.626  27.133  1.00  0.00     0.131 A 
ATOM     73  C   UNL A   1      43.490  20.667  25.869  1.00  0.00     0.055 A 
ATOM     74  C   UNL A   1      41.349  20.269  26.813  1.00  0.00     0.041 A 
ATOM     75  F   UNL A   1      40.090  21.982  27.583  1.00  0.00    -0.206 F 
ATOM     76  C   UNL A   1      42.462  19.774  26.189  1.00  0.00     0.022 A 
BRANCH  73  77
ATOM     77  S   UNL A   1      44.835  19.956  24.865  1.00  0.00     0.124 S 
ATOM     78  O   UNL A   1      44.548  20.507  23.545  1.00  0.00    -0.237 OA
ATOM     79  O   UNL A   1      46.036  20.452  25.525  1.00  0.00    -0.237 OA
ATOM     80  O   UNL A   1      44.618  18.514  24.990  1.00  0.00    -0.744 OA
ENDBRANCH  73  77
ENDBRANCH  46  70
BRANCH  58  81
ATOM     81  C   UNL A   1      44.405  26.618  31.086  1.00  0.00     0.023 A 
ATOM     82  C   UNL A   1      43.303  27.387  31.509  1.00  0.00     0.031 A 
ATOM     83  C   UNL A   1      44.970  25.769  32.055  1.00  0.00     0.131 A 
ATOM     84  C   UNL A   1      42.829  27.312  32.835  1.00  0.00     0.055 A 
ATOM     85  C   UNL A   1      44.496  25.684  33.372  1.00  0.00     0.041 A 
ATOM     86  F   UNL A   1      46.023  25.005  31.766  1.00  0.00    -0.206 F 
ATOM     87  C   UNL A   1      43.420  26.462  33.770  1.00  0.00     0.022 A 
BRANCH  84  88
ATOM     88  S   UNL A   1      41.415  28.335  33.331  1.00  0.00     0.124 S 
ATOM     89  O   UNL A   1      41.121  27.846  34.674  1.00  0.00    -0.237 OA
ATOM     90  O   UNL A   1      41.957  29.688  33.247  1.00  0.00    -0.237 OA
ATOM     91  O   UNL A   1      40.397  28.022  32.326  1.00  0.00    -0.744 OA
ENDBRANCH  84  88
ENDBRANCH  58  81
ENDBRANCH  32  33
ENDBRANCH  24  27
ENDBRANCH  22  23
ENDBRANCH  21  22
ENDBRANCH  20  21
ENDBRANCH   1  20
TORSDOF 19
ENDMDL
