MODEL 1
REMARK VINA RESULT:     -13.5      0.000      0.000
REMARK SMILES CCC(=O)N1CCC[C@](C[C@H]2CC(c3ccc(C)cc3)=NO2)(C(=O)NCCCCNC(=O)c2ccc(-c3c4nc(c(-c5cc(S(=O)(=O)[O-])ccc5F)c5ccc([nH]5)c(-c5cc(S(=O)(=O)[O-])ccc5F)c5nc(c(-c6cc(S(=O)(=O)[O-])ccc6F)c6ccc3[nH]6)C=C5)C=C4)cc2)C1
REMARK SMILES IDX 27 1 26 2 25 3 23 4 24 5 9 7 5 8 6 9 96 10 7 11 8 12 3 13
REMARK SMILES IDX 4 14 2 15 1 16 10 17 11 18 12 19 22 20 13 21 21 22 14 23
REMARK SMILES IDX 15 24 20 25 16 26 19 27 17 28 18 29 28 30 29 31 30 32 31 33
REMARK SMILES IDX 32 35 33 36 34 37 95 38 35 39 94 40 36 41 37 42 38 43 88 44
REMARK SMILES IDX 39 45 93 46 87 47 89 48 40 49 92 50 86 51 85 52 41 54 73 55
REMARK SMILES IDX 53 56 72 57 54 58 57 59 71 60 90 61 55 62 56 63 70 65 91 66
REMARK SMILES IDX 58 67 42 68 43 69 51 70 44 71 50 72 52 73 49 74 45 75 46 76
REMARK SMILES IDX 47 77 48 78 74 79 75 80 83 81 76 82 82 83 84 84 81 85 77 86
REMARK SMILES IDX 78 87 79 88 80 89 59 90 60 91 68 92 61 93 67 94 69 95 66 96
REMARK SMILES IDX 62 97 63 98 64 99 65 100
REMARK H PARENT 25 6 30 34 89 53 57 64
REMARK Flexibility Score: inf
ROOT
ATOM      1  C   UNL A   1      33.878  26.687  24.287  1.00  0.00     0.023 C 
ENDROOT
BRANCH   1   2
ATOM      2  C   UNL A   1      34.592  25.328  24.295  1.00  0.00     0.116 C 
BRANCH   2   3
ATOM      3  N   UNL A   1      33.988  24.361  23.377  1.00  0.00    -0.356 N 
ATOM      4  C   UNL A   1      33.273  23.213  23.559  1.00  0.00     0.228 C 
ATOM      5  O   UNL A   1      32.977  22.601  22.525  1.00  0.00    -0.274 OA
ATOM      6  H   UNL A   1      34.127  24.586  22.429  1.00  0.00     0.163 HD
BRANCH   4   7
ATOM      7  C   UNL A   1      32.961  22.624  24.963  1.00  0.00     0.070 C 
ATOM      8  N   UNL A   1      35.125  21.292  25.113  1.00  0.00    -0.342 N 
ATOM      9  C   UNL A   1      34.434  20.027  24.874  1.00  0.00     0.119 C 
ATOM     10  C   UNL A   1      34.320  22.375  25.709  1.00  0.00     0.136 C 
ATOM     11  C   UNL A   1      33.116  20.219  24.147  1.00  0.00     0.023 C 
ATOM     12  C   UNL A   1      32.264  21.253  24.878  1.00  0.00     0.021 C 
BRANCH   8  13
ATOM     13  C   UNL A   1      36.485  21.331  24.846  1.00  0.00     0.222 C 
ATOM     14  O   UNL A   1      37.206  20.336  24.980  1.00  0.00    -0.275 OA
BRANCH  13  15
ATOM     15  C   UNL A   1      37.156  22.671  24.585  1.00  0.00     0.097 C 
ATOM     16  C   UNL A   1      37.618  23.478  25.779  1.00  0.00     0.014 C 
ENDBRANCH  13  15
ENDBRANCH   8  13
BRANCH   7  17
ATOM     17  C   UNL A   1      32.149  23.765  25.663  1.00  0.00     0.067 C 
BRANCH  17  18
ATOM     18  C   UNL A   1      30.692  24.093  25.328  1.00  0.00     0.211 C 
ATOM     19  C   UNL A   1      30.239  25.513  25.567  1.00  0.00     0.108 C 
ATOM     20  O   UNL A   1      30.366  23.759  23.977  1.00  0.00    -0.392 OA
ATOM     21  C   UNL A   1      29.922  25.889  24.168  1.00  0.00     0.091 C 
ATOM     22  N   UNL A   1      29.934  24.923  23.306  1.00  0.00    -0.090 NA
BRANCH  21  23
ATOM     23  C   UNL A   1      29.568  27.270  23.815  1.00  0.00    -0.001 A 
ATOM     24  C   UNL A   1      30.534  28.277  23.843  1.00  0.00     0.010 A 
ATOM     25  C   UNL A   1      28.261  27.550  23.414  1.00  0.00     0.010 A 
ATOM     26  C   UNL A   1      30.192  29.569  23.445  1.00  0.00     0.004 A 
ATOM     27  C   UNL A   1      27.917  28.851  23.044  1.00  0.00     0.004 A 
ATOM     28  C   UNL A   1      28.884  29.864  23.038  1.00  0.00    -0.051 A 
ATOM     29  C   UNL A   1      28.511  31.259  22.634  1.00  0.00     0.044 C 
ENDBRANCH  21  23
ENDBRANCH  17  18
ENDBRANCH   7  17
ENDBRANCH   4   7
ENDBRANCH   2   3
ENDBRANCH   1   2
BRANCH   1  30
ATOM     30  C   UNL A   1      33.625  27.313  25.656  1.00  0.00     0.023 C 
BRANCH  30  31
ATOM     31  C   UNL A   1      34.058  28.768  25.780  1.00  0.00     0.116 C 
BRANCH  31  32
ATOM     32  N   UNL A   1      32.974  29.733  25.682  1.00  0.00    -0.352 N 
ATOM     33  C   UNL A   1      32.667  30.793  26.530  1.00  0.00     0.251 C 
ATOM     34  H   UNL A   1      32.374  29.621  24.910  1.00  0.00     0.163 HD
ATOM     35  O   UNL A   1      31.685  31.476  26.354  1.00  0.00    -0.269 OA
BRANCH  33  36
ATOM     36  C   UNL A   1      33.643  31.154  27.596  1.00  0.00     0.039 A 
ATOM     37  C   UNL A   1      34.081  32.484  27.643  1.00  0.00     0.014 A 
ATOM     38  C   UNL A   1      34.260  30.187  28.384  1.00  0.00     0.014 A 
ATOM     39  C   UNL A   1      35.274  32.790  28.294  1.00  0.00     0.010 A 
ATOM     40  C   UNL A   1      35.490  30.468  28.950  1.00  0.00     0.010 A 
ATOM     41  C   UNL A   1      36.026  31.756  28.852  1.00  0.00    -0.014 A 
BRANCH  41  42
ATOM     42  C   UNL A   1      37.427  31.907  29.230  1.00  0.00     0.031 A 
ATOM     43  C   UNL A   1      38.423  30.866  28.916  1.00  0.00     0.074 A 
ATOM     44  C   UNL A   1      37.836  33.028  29.862  1.00  0.00     0.049 A 
ATOM     45  N   UNL A   1      39.475  30.634  29.629  1.00  0.00    -0.248 NA
ATOM     46  C   UNL A   1      38.292  29.976  27.771  1.00  0.00     0.031 C 
ATOM     47  C   UNL A   1      39.208  33.452  30.121  1.00  0.00     0.029 A 
ATOM     48  N   UNL A   1      37.055  33.889  30.627  1.00  0.00    -0.354 N 
ATOM     49  C   UNL A   1      40.289  29.798  28.904  1.00  0.00     0.074 A 
ATOM     50  C   UNL A   1      39.476  29.359  27.790  1.00  0.00     0.031 C 
ATOM     51  C   UNL A   1      39.210  34.296  31.164  1.00  0.00     0.029 A 
ATOM     52  C   UNL A   1      37.858  34.342  31.688  1.00  0.00     0.049 A 
ATOM     53  H   UNL A   1      36.118  34.135  30.456  1.00  0.00     0.167 HD
ATOM     54  C   UNL A   1      41.608  29.678  29.226  1.00  0.00     0.034 A 
ATOM     55  C   UNL A   1      37.499  34.121  32.986  1.00  0.00     0.034 A 
ATOM     56  C   UNL A   1      41.972  30.504  30.376  1.00  0.00     0.049 A 
ATOM     57  C   UNL A   1      38.515  33.322  33.769  1.00  0.00     0.074 A 
ATOM     58  C   UNL A   1      42.602  31.733  30.485  1.00  0.00     0.029 A 
ATOM     59  N   UNL A   1      41.445  30.222  31.631  1.00  0.00    -0.354 N 
ATOM     60  N   UNL A   1      39.494  32.648  33.231  1.00  0.00    -0.248 NA
ATOM     61  C   UNL A   1      38.495  33.200  35.223  1.00  0.00     0.031 C 
ATOM     62  C   UNL A   1      42.420  32.207  31.810  1.00  0.00     0.029 A 
ATOM     63  C   UNL A   1      41.700  31.257  32.512  1.00  0.00     0.049 A 
ATOM     64  H   UNL A   1      40.958  29.398  31.862  1.00  0.00     0.167 HD
ATOM     65  C   UNL A   1      40.207  31.997  34.210  1.00  0.00     0.074 A 
ATOM     66  C   UNL A   1      39.555  32.403  35.442  1.00  0.00     0.031 C 
ATOM     67  C   UNL A   1      41.261  31.177  33.902  1.00  0.00     0.034 A 
BRANCH  54  68
ATOM     68  C   UNL A   1      42.625  29.058  28.295  1.00  0.00     0.023 A 
ATOM     69  C   UNL A   1      43.682  29.842  27.788  1.00  0.00     0.031 A 
ATOM     70  C   UNL A   1      42.589  27.725  27.844  1.00  0.00     0.131 A 
ATOM     71  C   UNL A   1      44.553  29.346  26.801  1.00  0.00     0.055 A 
ATOM     72  C   UNL A   1      43.409  27.251  26.812  1.00  0.00     0.041 A 
ATOM     73  F   UNL A   1      41.783  26.817  28.416  1.00  0.00    -0.206 F 
ATOM     74  C   UNL A   1      44.389  28.071  26.271  1.00  0.00     0.022 A 
BRANCH  71  75
ATOM     75  S   UNL A   1      45.924  30.390  26.230  1.00  0.00     0.124 S 
ATOM     76  O   UNL A   1      46.455  29.623  25.109  1.00  0.00    -0.237 OA
ATOM     77  O   UNL A   1      45.242  31.636  25.896  1.00  0.00    -0.237 OA
ATOM     78  O   UNL A   1      46.802  30.464  27.398  1.00  0.00    -0.744 OA
ENDBRANCH  71  75
ENDBRANCH  54  68
BRANCH  55  79
ATOM     79  C   UNL A   1      36.020  34.096  33.182  1.00  0.00     0.023 A 
ATOM     80  C   UNL A   1      35.359  35.346  33.198  1.00  0.00     0.031 A 
ATOM     81  C   UNL A   1      35.254  32.951  32.930  1.00  0.00     0.131 A 
ATOM     82  C   UNL A   1      34.027  35.447  32.775  1.00  0.00     0.055 A 
ATOM     83  C   UNL A   1      33.898  33.049  32.594  1.00  0.00     0.041 A 
ATOM     84  F   UNL A   1      35.829  31.740  32.878  1.00  0.00    -0.206 F 
ATOM     85  C   UNL A   1      33.292  34.302  32.464  1.00  0.00     0.022 A 
BRANCH  82  86
ATOM     86  S   UNL A   1      33.374  37.093  32.351  1.00  0.00     0.124 S 
ATOM     87  O   UNL A   1      33.471  37.102  30.897  1.00  0.00    -0.237 OA
ATOM     88  O   UNL A   1      32.014  37.070  32.889  1.00  0.00    -0.237 OA
ATOM     89  O   UNL A   1      34.268  38.012  33.051  1.00  0.00    -0.744 OA
ENDBRANCH  82  86
ENDBRANCH  55  79
BRANCH  67  90
ATOM     90  C   UNL A   1      42.041  30.286  34.858  1.00  0.00     0.023 A 
ATOM     91  C   UNL A   1      41.697  28.961  35.157  1.00  0.00     0.031 A 
ATOM     92  C   UNL A   1      43.232  30.751  35.479  1.00  0.00     0.131 A 
ATOM     93  C   UNL A   1      42.449  28.191  36.068  1.00  0.00     0.055 A 
ATOM     94  C   UNL A   1      44.016  29.964  36.329  1.00  0.00     0.041 A 
ATOM     95  F   UNL A   1      43.699  31.992  35.282  1.00  0.00    -0.206 F 
ATOM     96  C   UNL A   1      43.619  28.676  36.643  1.00  0.00     0.022 A 
BRANCH  93  97
ATOM     97  S   UNL A   1      41.829  26.548  36.522  1.00  0.00     0.124 S 
ATOM     98  O   UNL A   1      43.040  25.894  37.009  1.00  0.00    -0.237 OA
ATOM     99  O   UNL A   1      40.829  26.861  37.537  1.00  0.00    -0.237 OA
ATOM    100  O   UNL A   1      41.300  26.019  35.268  1.00  0.00    -0.744 OA
ENDBRANCH  93  97
ENDBRANCH  67  90
ENDBRANCH  41  42
ENDBRANCH  33  36
ENDBRANCH  31  32
ENDBRANCH  30  31
ENDBRANCH   1  30
TORSDOF 19
ENDMDL
MODEL 2
REMARK VINA RESULT:     -12.9      3.250      6.031
REMARK SMILES CCC(=O)N1CCC[C@](C[C@H]2CC(c3ccc(C)cc3)=NO2)(C(=O)NCCCCNC(=O)c2ccc(-c3c4nc(c(-c5cc(S(=O)(=O)[O-])ccc5F)c5ccc([nH]5)c(-c5cc(S(=O)(=O)[O-])ccc5F)c5nc(c(-c6cc(S(=O)(=O)[O-])ccc6F)c6ccc3[nH]6)C=C5)C=C4)cc2)C1
REMARK SMILES IDX 27 1 26 2 25 3 23 4 24 5 9 7 5 8 6 9 96 10 7 11 8 12 3 13
REMARK SMILES IDX 4 14 2 15 1 16 10 17 11 18 12 19 22 20 13 21 21 22 14 23
REMARK SMILES IDX 15 24 20 25 16 26 19 27 17 28 18 29 28 30 29 31 30 32 31 33
REMARK SMILES IDX 32 35 33 36 34 37 95 38 35 39 94 40 36 41 37 42 38 43 88 44
REMARK SMILES IDX 39 45 93 46 87 47 89 48 40 49 92 50 86 51 85 52 41 54 73 55
REMARK SMILES IDX 53 56 72 57 54 58 57 59 71 60 90 61 55 62 56 63 70 65 91 66
REMARK SMILES IDX 58 67 42 68 43 69 51 70 44 71 50 72 52 73 49 74 45 75 46 76
REMARK SMILES IDX 47 77 48 78 74 79 75 80 83 81 76 82 82 83 84 84 81 85 77 86
REMARK SMILES IDX 78 87 79 88 80 89 59 90 60 91 68 92 61 93 67 94 69 95 66 96
REMARK SMILES IDX 62 97 63 98 64 99 65 100
REMARK H PARENT 25 6 30 34 89 53 57 64
REMARK Flexibility Score: inf
ROOT
ATOM      1  C   UNL A   1      33.582  29.069  27.477  1.00  0.00     0.023 C 
ENDROOT
BRANCH   1   2
ATOM      2  C   UNL A   1      33.488  27.891  26.498  1.00  0.00     0.116 C 
BRANCH   2   3
ATOM      3  N   UNL A   1      32.313  27.050  26.727  1.00  0.00    -0.356 N 
ATOM      4  C   UNL A   1      31.953  25.803  26.305  1.00  0.00     0.228 C 
ATOM      5  O   UNL A   1      30.825  25.430  26.650  1.00  0.00    -0.274 OA
ATOM      6  H   UNL A   1      31.640  27.473  27.307  1.00  0.00     0.163 HD
BRANCH   4   7
ATOM      7  C   UNL A   1      32.827  24.950  25.344  1.00  0.00     0.070 C 
ATOM      8  N   UNL A   1      32.431  26.447  23.323  1.00  0.00    -0.342 N 
ATOM      9  C   UNL A   1      31.525  25.479  22.708  1.00  0.00     0.119 C 
ATOM     10  C   UNL A   1      33.437  25.901  24.253  1.00  0.00     0.136 C 
ATOM     11  C   UNL A   1      30.904  24.542  23.727  1.00  0.00     0.023 C 
ATOM     12  C   UNL A   1      31.996  23.901  24.578  1.00  0.00     0.021 C 
BRANCH   8  13
ATOM     13  C   UNL A   1      32.324  27.766  22.910  1.00  0.00     0.222 C 
ATOM     14  O   UNL A   1      33.200  28.311  22.231  1.00  0.00    -0.275 OA
BRANCH  13  15
ATOM     15  C   UNL A   1      31.210  28.636  23.473  1.00  0.00     0.097 C 
ATOM     16  C   UNL A   1      30.208  29.222  22.501  1.00  0.00     0.014 C 
ENDBRANCH  13  15
ENDBRANCH   8  13
BRANCH   7  17
ATOM     17  C   UNL A   1      33.951  24.388  26.277  1.00  0.00     0.067 C 
BRANCH  17  18
ATOM     18  C   UNL A   1      34.999  23.370  25.818  1.00  0.00     0.211 C 
ATOM     19  C   UNL A   1      34.821  21.948  26.290  1.00  0.00     0.108 C 
ATOM     20  O   UNL A   1      35.127  23.339  24.395  1.00  0.00    -0.392 OA
ATOM     21  C   UNL A   1      34.618  21.296  24.974  1.00  0.00     0.091 C 
ATOM     22  N   UNL A   1      34.840  22.036  23.936  1.00  0.00    -0.090 NA
BRANCH  21  23
ATOM     23  C   UNL A   1      34.239  19.880  24.880  1.00  0.00    -0.001 A 
ATOM     24  C   UNL A   1      35.194  18.910  24.574  1.00  0.00     0.010 A 
ATOM     25  C   UNL A   1      32.917  19.517  25.140  1.00  0.00     0.010 A 
ATOM     26  C   UNL A   1      34.825  17.565  24.551  1.00  0.00     0.004 A 
ATOM     27  C   UNL A   1      32.546  18.173  25.087  1.00  0.00     0.004 A 
ATOM     28  C   UNL A   1      33.502  17.187  24.812  1.00  0.00    -0.051 A 
ATOM     29  C   UNL A   1      33.101  15.743  24.761  1.00  0.00     0.044 C 
ENDBRANCH  21  23
ENDBRANCH  17  18
ENDBRANCH   7  17
ENDBRANCH   4   7
ENDBRANCH   2   3
ENDBRANCH   1   2
BRANCH   1  30
ATOM     30  C   UNL A   1      33.641  30.457  26.844  1.00  0.00     0.023 C 
BRANCH  30  31
ATOM     31  C   UNL A   1      34.533  31.452  27.576  1.00  0.00     0.116 C 
BRANCH  31  32
ATOM     32  N   UNL A   1      33.826  32.579  28.165  1.00  0.00    -0.352 N 
ATOM     33  C   UNL A   1      34.215  33.401  29.218  1.00  0.00     0.251 C 
ATOM     34  H   UNL A   1      32.952  32.788  27.765  1.00  0.00     0.163 HD
ATOM     35  O   UNL A   1      33.485  34.266  29.645  1.00  0.00    -0.269 OA
BRANCH  33  36
ATOM     36  C   UNL A   1      35.607  33.281  29.735  1.00  0.00     0.039 A 
ATOM     37  C   UNL A   1      36.627  33.865  28.973  1.00  0.00     0.014 A 
ATOM     38  C   UNL A   1      35.923  32.455  30.810  1.00  0.00     0.014 A 
ATOM     39  C   UNL A   1      37.942  33.435  29.144  1.00  0.00     0.010 A 
ATOM     40  C   UNL A   1      37.207  31.957  30.918  1.00  0.00     0.010 A 
ATOM     41  C   UNL A   1      38.205  32.402  30.045  1.00  0.00    -0.014 A 
BRANCH  41  42
ATOM     42  C   UNL A   1      39.451  31.644  30.042  1.00  0.00     0.031 A 
ATOM     43  C   UNL A   1      39.525  30.291  29.462  1.00  0.00     0.074 A 
ATOM     44  C   UNL A   1      40.572  32.191  30.561  1.00  0.00     0.049 A 
ATOM     45  N   UNL A   1      40.338  29.373  29.870  1.00  0.00    -0.248 NA
ATOM     46  C   UNL A   1      38.654  29.854  28.379  1.00  0.00     0.031 C 
ATOM     47  C   UNL A   1      41.938  31.687  30.455  1.00  0.00     0.029 A 
ATOM     48  N   UNL A   1      40.646  33.200  31.516  1.00  0.00    -0.354 N 
ATOM     49  C   UNL A   1      40.313  28.359  28.943  1.00  0.00     0.074 A 
ATOM     50  C   UNL A   1      39.197  28.671  28.077  1.00  0.00     0.031 C 
ATOM     51  C   UNL A   1      42.660  32.180  31.472  1.00  0.00     0.029 A 
ATOM     52  C   UNL A   1      41.752  32.913  32.335  1.00  0.00     0.049 A 
ATOM     53  H   UNL A   1      40.039  33.969  31.602  1.00  0.00     0.167 HD
ATOM     54  C   UNL A   1      41.322  27.442  28.905  1.00  0.00     0.034 A 
ATOM     55  C   UNL A   1      41.604  32.724  33.678  1.00  0.00     0.034 A 
ATOM     56  C   UNL A   1      42.333  27.692  29.929  1.00  0.00     0.049 A 
ATOM     57  C   UNL A   1      42.060  31.364  34.154  1.00  0.00     0.074 A 
ATOM     58  C   UNL A   1      43.585  28.285  29.887  1.00  0.00     0.029 A 
ATOM     59  N   UNL A   1      42.010  27.560  31.275  1.00  0.00    -0.354 N 
ATOM     60  N   UNL A   1      42.297  30.351  33.367  1.00  0.00    -0.248 NA
ATOM     61  C   UNL A   1      42.264  31.031  35.560  1.00  0.00     0.031 C 
ATOM     62  C   UNL A   1      43.998  28.543  31.219  1.00  0.00     0.029 A 
ATOM     63  C   UNL A   1      43.010  28.085  32.072  1.00  0.00     0.049 A 
ATOM     64  H   UNL A   1      41.182  27.147  31.614  1.00  0.00     0.167 HD
ATOM     65  C   UNL A   1      42.651  29.252  34.114  1.00  0.00     0.074 A 
ATOM     66  C   UNL A   1      42.642  29.744  35.481  1.00  0.00     0.031 C 
ATOM     67  C   UNL A   1      42.903  28.039  33.528  1.00  0.00     0.034 A 
BRANCH  54  68
ATOM     68  C   UNL A   1      41.541  26.517  27.729  1.00  0.00     0.023 A 
ATOM     69  C   UNL A   1      41.143  25.166  27.816  1.00  0.00     0.031 A 
ATOM     70  C   UNL A   1      42.163  26.890  26.523  1.00  0.00     0.131 A 
ATOM     71  C   UNL A   1      41.469  24.241  26.808  1.00  0.00     0.055 A 
ATOM     72  C   UNL A   1      42.551  25.959  25.551  1.00  0.00     0.041 A 
ATOM     73  F   UNL A   1      42.382  28.179  26.221  1.00  0.00    -0.206 F 
ATOM     74  C   UNL A   1      42.220  24.620  25.699  1.00  0.00     0.022 A 
BRANCH  71  75
ATOM     75  S   UNL A   1      40.882  22.530  26.956  1.00  0.00     0.124 S 
ATOM     76  O   UNL A   1      39.440  22.680  26.802  1.00  0.00    -0.237 OA
ATOM     77  O   UNL A   1      41.584  21.869  25.862  1.00  0.00    -0.237 OA
ATOM     78  O   UNL A   1      41.322  22.137  28.295  1.00  0.00    -0.744 OA
ENDBRANCH  71  75
ENDBRANCH  54  68
BRANCH  55  79
ATOM     79  C   UNL A   1      40.489  33.530  34.256  1.00  0.00     0.023 A 
ATOM     80  C   UNL A   1      39.491  32.819  34.962  1.00  0.00     0.031 A 
ATOM     81  C   UNL A   1      40.607  34.905  34.491  1.00  0.00     0.131 A 
ATOM     82  C   UNL A   1      38.786  33.435  36.004  1.00  0.00     0.055 A 
ATOM     83  C   UNL A   1      39.836  35.538  35.475  1.00  0.00     0.041 A 
ATOM     84  F   UNL A   1      41.550  35.628  33.870  1.00  0.00    -0.206 F 
ATOM     85  C   UNL A   1      38.960  34.794  36.271  1.00  0.00     0.022 A 
BRANCH  82  86
ATOM     86  S   UNL A   1      37.883  32.383  37.183  1.00  0.00     0.124 S 
ATOM     87  O   UNL A   1      38.793  32.338  38.322  1.00  0.00    -0.237 OA
ATOM     88  O   UNL A   1      36.635  33.112  37.406  1.00  0.00    -0.237 OA
ATOM     89  O   UNL A   1      37.708  31.125  36.462  1.00  0.00    -0.744 OA
ENDBRANCH  82  86
ENDBRANCH  55  79
BRANCH  67  90
ATOM     90  C   UNL A   1      43.157  26.714  34.232  1.00  0.00     0.023 A 
ATOM     91  C   UNL A   1      44.429  26.158  34.429  1.00  0.00     0.031 A 
ATOM     92  C   UNL A   1      42.085  25.970  34.792  1.00  0.00     0.131 A 
ATOM     93  C   UNL A   1      44.599  24.915  35.072  1.00  0.00     0.055 A 
ATOM     94  C   UNL A   1      42.261  24.770  35.490  1.00  0.00     0.041 A 
ATOM     95  F   UNL A   1      40.811  26.377  34.697  1.00  0.00    -0.206 F 
ATOM     96  C   UNL A   1      43.525  24.225  35.623  1.00  0.00     0.022 A 
BRANCH  93  97
ATOM     97  S   UNL A   1      46.264  24.197  35.128  1.00  0.00     0.124 S 
ATOM     98  O   UNL A   1      46.229  23.268  34.002  1.00  0.00    -0.237 OA
ATOM     99  O   UNL A   1      47.115  25.369  34.955  1.00  0.00    -0.237 OA
ATOM    100  O   UNL A   1      46.327  23.571  36.446  1.00  0.00    -0.744 OA
ENDBRANCH  93  97
ENDBRANCH  67  90
ENDBRANCH  41  42
ENDBRANCH  33  36
ENDBRANCH  31  32
ENDBRANCH  30  31
ENDBRANCH   1  30
TORSDOF 19
ENDMDL
MODEL 3
REMARK VINA RESULT:     -12.2      2.804      5.876
REMARK SMILES CCC(=O)N1CCC[C@](C[C@H]2CC(c3ccc(C)cc3)=NO2)(C(=O)NCCCCNC(=O)c2ccc(-c3c4nc(c(-c5cc(S(=O)(=O)[O-])ccc5F)c5ccc([nH]5)c(-c5cc(S(=O)(=O)[O-])ccc5F)c5nc(c(-c6cc(S(=O)(=O)[O-])ccc6F)c6ccc3[nH]6)C=C5)C=C4)cc2)C1
REMARK SMILES IDX 27 1 26 2 25 3 23 4 24 5 9 7 5 8 6 9 96 10 7 11 8 12 3 13
REMARK SMILES IDX 4 14 2 15 1 16 10 17 11 18 12 19 22 20 13 21 21 22 14 23
REMARK SMILES IDX 15 24 20 25 16 26 19 27 17 28 18 29 28 30 29 31 30 32 31 33
REMARK SMILES IDX 32 35 33 36 34 37 95 38 35 39 94 40 36 41 37 42 38 43 88 44
REMARK SMILES IDX 39 45 93 46 87 47 89 48 40 49 92 50 86 51 85 52 41 54 73 55
REMARK SMILES IDX 53 56 72 57 54 58 57 59 71 60 90 61 55 62 56 63 70 65 91 66
REMARK SMILES IDX 58 67 42 68 43 69 51 70 44 71 50 72 52 73 49 74 45 75 46 76
REMARK SMILES IDX 47 77 48 78 74 79 75 80 83 81 76 82 82 83 84 84 81 85 77 86
REMARK SMILES IDX 78 87 79 88 80 89 59 90 60 91 68 92 61 93 67 94 69 95 66 96
REMARK SMILES IDX 62 97 63 98 64 99 65 100
REMARK H PARENT 25 6 30 34 89 53 57 64
REMARK Flexibility Score: inf
ROOT
ATOM      1  C   UNL A   1      33.917  28.908  27.290  1.00  0.00     0.023 C 
ENDROOT
BRANCH   1   2
ATOM      2  C   UNL A   1      34.283  28.032  26.084  1.00  0.00     0.116 C 
BRANCH   2   3
ATOM      3  N   UNL A   1      34.063  28.704  24.803  1.00  0.00    -0.356 N 
ATOM      4  C   UNL A   1      33.306  28.410  23.705  1.00  0.00     0.228 C 
ATOM      5  O   UNL A   1      33.424  29.192  22.754  1.00  0.00    -0.274 OA
ATOM      6  H   UNL A   1      34.567  29.544  24.713  1.00  0.00     0.163 HD
BRANCH   4   7
ATOM      7  C   UNL A   1      32.455  27.115  23.586  1.00  0.00     0.070 C 
ATOM      8  N   UNL A   1      30.253  28.346  23.243  1.00  0.00    -0.342 N 
ATOM      9  C   UNL A   1      29.800  28.037  24.596  1.00  0.00     0.119 C 
ATOM     10  C   UNL A   1      31.229  27.413  22.650  1.00  0.00     0.136 C 
ATOM     11  C   UNL A   1      30.953  27.750  25.540  1.00  0.00     0.023 C 
ATOM     12  C   UNL A   1      31.862  26.681  24.940  1.00  0.00     0.021 C 
BRANCH   8  13
ATOM     13  C   UNL A   1      29.662  29.428  22.608  1.00  0.00     0.222 C 
ATOM     14  O   UNL A   1      29.562  29.489  21.379  1.00  0.00    -0.275 OA
BRANCH  13  15
ATOM     15  C   UNL A   1      29.313  30.668  23.417  1.00  0.00     0.097 C 
ATOM     16  C   UNL A   1      27.865  31.108  23.452  1.00  0.00     0.014 C 
ENDBRANCH  13  15
ENDBRANCH   8  13
BRANCH   7  17
ATOM     17  C   UNL A   1      33.433  26.100  22.906  1.00  0.00     0.067 C 
BRANCH  17  18
ATOM     18  C   UNL A   1      32.964  24.872  22.120  1.00  0.00     0.211 C 
ATOM     19  C   UNL A   1      33.745  23.596  22.319  1.00  0.00     0.108 C 
ATOM     20  O   UNL A   1      31.587  24.577  22.362  1.00  0.00    -0.392 OA
ATOM     21  C   UNL A   1      32.671  22.764  22.916  1.00  0.00     0.091 C 
ATOM     22  N   UNL A   1      31.482  23.272  22.890  1.00  0.00    -0.090 NA
BRANCH  21  23
ATOM     23  C   UNL A   1      32.958  21.427  23.452  1.00  0.00    -0.001 A 
ATOM     24  C   UNL A   1      33.934  21.252  24.433  1.00  0.00     0.010 A 
ATOM     25  C   UNL A   1      32.209  20.342  22.994  1.00  0.00     0.010 A 
ATOM     26  C   UNL A   1      34.147  19.983  24.973  1.00  0.00     0.004 A 
ATOM     27  C   UNL A   1      32.445  19.070  23.516  1.00  0.00     0.004 A 
ATOM     28  C   UNL A   1      33.402  18.886  24.523  1.00  0.00    -0.051 A 
ATOM     29  C   UNL A   1      33.649  17.518  25.086  1.00  0.00     0.044 C 
ENDBRANCH  21  23
ENDBRANCH  17  18
ENDBRANCH   7  17
ENDBRANCH   4   7
ENDBRANCH   2   3
ENDBRANCH   1   2
BRANCH   1  30
ATOM     30  C   UNL A   1      34.245  30.393  27.156  1.00  0.00     0.023 C 
BRANCH  30  31
ATOM     31  C   UNL A   1      34.722  31.057  28.442  1.00  0.00     0.116 C 
BRANCH  31  32
ATOM     32  N   UNL A   1      34.078  32.326  28.743  1.00  0.00    -0.352 N 
ATOM     33  C   UNL A   1      34.528  33.365  29.553  1.00  0.00     0.251 C 
ATOM     34  H   UNL A   1      33.203  32.470  28.317  1.00  0.00     0.163 HD
ATOM     35  O   UNL A   1      33.846  34.341  29.762  1.00  0.00    -0.269 OA
BRANCH  33  36
ATOM     36  C   UNL A   1      35.927  33.312  30.062  1.00  0.00     0.039 A 
ATOM     37  C   UNL A   1      36.929  33.849  29.242  1.00  0.00     0.014 A 
ATOM     38  C   UNL A   1      36.269  32.584  31.197  1.00  0.00     0.014 A 
ATOM     39  C   UNL A   1      38.253  33.457  29.432  1.00  0.00     0.010 A 
ATOM     40  C   UNL A   1      37.563  32.119  31.331  1.00  0.00     0.010 A 
ATOM     41  C   UNL A   1      38.544  32.507  30.413  1.00  0.00    -0.014 A 
BRANCH  41  42
ATOM     42  C   UNL A   1      39.804  31.773  30.458  1.00  0.00     0.031 A 
ATOM     43  C   UNL A   1      39.951  30.460  29.806  1.00  0.00     0.074 A 
ATOM     44  C   UNL A   1      40.871  32.308  31.091  1.00  0.00     0.049 A 
ATOM     45  N   UNL A   1      40.752  29.534  30.217  1.00  0.00    -0.248 NA
ATOM     46  C   UNL A   1      39.172  30.074  28.636  1.00  0.00     0.031 C 
ATOM     47  C   UNL A   1      42.252  31.837  31.058  1.00  0.00     0.029 A 
ATOM     48  N   UNL A   1      40.852  33.258  32.108  1.00  0.00    -0.354 N 
ATOM     49  C   UNL A   1      40.819  28.578  29.233  1.00  0.00     0.074 A 
ATOM     50  C   UNL A   1      39.763  28.922  28.305  1.00  0.00     0.031 C 
ATOM     51  C   UNL A   1      42.886  32.279  32.154  1.00  0.00     0.029 A 
ATOM     52  C   UNL A   1      41.900  32.941  32.988  1.00  0.00     0.049 A 
ATOM     53  H   UNL A   1      40.222  34.009  32.194  1.00  0.00     0.167 HD
ATOM     54  C   UNL A   1      41.847  27.683  29.215  1.00  0.00     0.034 A 
ATOM     55  C   UNL A   1      41.658  32.668  34.303  1.00  0.00     0.034 A 
ATOM     56  C   UNL A   1      42.774  27.889  30.326  1.00  0.00     0.049 A 
ATOM     57  C   UNL A   1      42.109  31.290  34.730  1.00  0.00     0.074 A 
ATOM     58  C   UNL A   1      44.012  28.506  30.413  1.00  0.00     0.029 A 
ATOM     59  N   UNL A   1      42.356  27.668  31.634  1.00  0.00    -0.354 N 
ATOM     60  N   UNL A   1      42.426  30.331  33.904  1.00  0.00    -0.248 NA
ATOM     61  C   UNL A   1      42.216  30.875  36.125  1.00  0.00     0.031 C 
ATOM     62  C   UNL A   1      44.321  28.689  31.786  1.00  0.00     0.029 A 
ATOM     63  C   UNL A   1      43.282  28.162  32.533  1.00  0.00     0.049 A 
ATOM     64  H   UNL A   1      41.516  27.221  31.884  1.00  0.00     0.167 HD
ATOM     65  C   UNL A   1      42.748  29.195  34.608  1.00  0.00     0.074 A 
ATOM     66  C   UNL A   1      42.627  29.602  35.997  1.00  0.00     0.031 C 
ATOM     67  C   UNL A   1      43.070  28.025  33.971  1.00  0.00     0.034 A 
BRANCH  54  68
ATOM     68  C   UNL A   1      42.174  26.836  28.007  1.00  0.00     0.023 A 
ATOM     69  C   UNL A   1      43.435  26.956  27.386  1.00  0.00     0.031 A 
ATOM     70  C   UNL A   1      41.285  25.928  27.402  1.00  0.00     0.131 A 
ATOM     71  C   UNL A   1      43.719  26.303  26.173  1.00  0.00     0.055 A 
ATOM     72  C   UNL A   1      41.538  25.332  26.160  1.00  0.00     0.041 A 
ATOM     73  F   UNL A   1      40.151  25.550  28.013  1.00  0.00    -0.206 F 
ATOM     74  C   UNL A   1      42.756  25.533  25.528  1.00  0.00     0.022 A 
BRANCH  71  75
ATOM     75  S   UNL A   1      45.378  26.459  25.455  1.00  0.00     0.124 S 
ATOM     76  O   UNL A   1      45.491  25.242  24.659  1.00  0.00    -0.237 OA
ATOM     77  O   UNL A   1      45.274  27.710  24.712  1.00  0.00    -0.237 OA
ATOM     78  O   UNL A   1      46.251  26.512  26.628  1.00  0.00    -0.744 OA
ENDBRANCH  71  75
ENDBRANCH  54  68
BRANCH  55  79
ATOM     79  C   UNL A   1      40.485  33.416  34.843  1.00  0.00     0.023 A 
ATOM     80  C   UNL A   1      39.493  32.654  35.502  1.00  0.00     0.031 A 
ATOM     81  C   UNL A   1      40.531  34.793  35.095  1.00  0.00     0.131 A 
ATOM     82  C   UNL A   1      38.721  33.227  36.520  1.00  0.00     0.055 A 
ATOM     83  C   UNL A   1      39.694  35.380  36.053  1.00  0.00     0.041 A 
ATOM     84  F   UNL A   1      41.465  35.564  34.519  1.00  0.00    -0.206 F 
ATOM     85  C   UNL A   1      38.822  34.589  36.806  1.00  0.00     0.022 A 
BRANCH  82  86
ATOM     86  S   UNL A   1      37.820  32.122  37.653  1.00  0.00     0.124 S 
ATOM     87  O   UNL A   1      37.830  30.857  36.928  1.00  0.00    -0.237 OA
ATOM     88  O   UNL A   1      38.627  32.151  38.872  1.00  0.00    -0.237 OA
ATOM     89  O   UNL A   1      36.515  32.760  37.796  1.00  0.00    -0.744 OA
ENDBRANCH  82  86
ENDBRANCH  55  79
BRANCH  67  90
ATOM     90  C   UNL A   1      43.302  26.664  34.612  1.00  0.00     0.023 A 
ATOM     91  C   UNL A   1      44.567  26.127  34.883  1.00  0.00     0.031 A 
ATOM     92  C   UNL A   1      42.207  25.862  35.032  1.00  0.00     0.131 A 
ATOM     93  C   UNL A   1      44.718  24.849  35.461  1.00  0.00     0.055 A 
ATOM     94  C   UNL A   1      42.357  24.624  35.668  1.00  0.00     0.041 A 
ATOM     95  F   UNL A   1      40.935  26.244  34.853  1.00  0.00    -0.206 F 
ATOM     96  C   UNL A   1      43.622  24.101  35.874  1.00  0.00     0.022 A 
BRANCH  93  97
ATOM     97  S   UNL A   1      46.392  24.168  35.615  1.00  0.00     0.124 S 
ATOM     98  O   UNL A   1      46.571  23.515  34.321  1.00  0.00    -0.237 OA
ATOM     99  O   UNL A   1      47.197  25.364  35.837  1.00  0.00    -0.237 OA
ATOM    100  O   UNL A   1      46.294  23.262  36.757  1.00  0.00    -0.744 OA
ENDBRANCH  93  97
ENDBRANCH  67  90
ENDBRANCH  41  42
ENDBRANCH  33  36
ENDBRANCH  31  32
ENDBRANCH  30  31
ENDBRANCH   1  30
TORSDOF 19
ENDMDL
