MODEL 1
REMARK VINA RESULT:     -12.3      0.000      0.000
REMARK SMILES O=C(C[C@H](NC(=O)[C@]12C[C@H]3C[C@H](C[C@H](C3)C1)C2)c1cccc([N+](=O)[O-])c1)NCCCCNC(=O)c1ccc(-c2c3nc(c(-c4cc(S(=O)(=O)[O-])ccc4F)c4ccc([nH]4)c(-c4cc(S(=O)(=O)[O-])ccc4F)c4nc(c(-c5cc(S(=O)(=O)[O-])ccc5F)c5ccc2[nH]5)C=C4)C=C3)cc1
REMARK SMILES IDX 29 1 28 2 27 3 1 4 2 5 3 7 4 8 18 9 19 10 26 11 20 12 22 13
REMARK SMILES IDX 21 14 23 15 24 16 25 17 5 18 6 19 7 21 8 22 9 23 16 24 17 25
REMARK SMILES IDX 10 26 14 27 12 28 11 29 15 30 13 31 30 32 31 33 32 34 33 35
REMARK SMILES IDX 34 37 35 38 36 39 97 40 37 41 96 42 38 43 39 44 40 45 90 46
REMARK SMILES IDX 41 47 95 48 89 49 91 50 42 51 94 52 88 53 87 54 43 56 75 57
REMARK SMILES IDX 55 58 74 59 56 60 59 61 73 62 92 63 57 64 58 65 72 67 93 68
REMARK SMILES IDX 60 69 44 70 45 71 53 72 46 73 52 74 54 75 51 76 47 77 48 78
REMARK SMILES IDX 49 79 50 80 76 81 77 82 85 83 78 84 84 85 86 86 83 87 79 88
REMARK SMILES IDX 80 89 81 90 82 91 61 92 62 93 70 94 63 95 69 96 71 97 68 98
REMARK SMILES IDX 64 99 65 100 66 101 67 102
REMARK H PARENT 27 6 5 20 32 36 91 55 59 66
REMARK Flexibility Score: inf
ROOT
ATOM      1  C   UNL A   1      34.894  31.501  28.137  1.00  0.00     0.023 C 
ENDROOT
BRANCH   1   2
ATOM      2  C   UNL A   1      34.776  30.034  27.736  1.00  0.00     0.116 C 
BRANCH   2   3
ATOM      3  N   UNL A   1      34.291  29.908  26.380  1.00  0.00    -0.356 N 
ATOM      4  O   UNL A   1      32.189  29.137  26.914  1.00  0.00    -0.275 OA
ATOM      5  C   UNL A   1      33.029  29.448  26.084  1.00  0.00     0.222 C 
ATOM      6  H   UNL A   1      34.887  30.163  25.640  1.00  0.00     0.163 HD
BRANCH   5   7
ATOM      7  C   UNL A   1      32.793  29.310  24.607  1.00  0.00     0.129 C 
BRANCH   7   8
ATOM      8  C   UNL A   1      32.261  27.946  24.168  1.00  0.00     0.122 C 
BRANCH   8   9
ATOM      9  C   UNL A   1      30.758  27.861  23.977  1.00  0.00    -0.018 A 
ATOM     10  C   UNL A   1      30.082  26.692  24.368  1.00  0.00     0.006 A 
ATOM     11  C   UNL A   1      30.024  28.885  23.351  1.00  0.00     0.091 A 
ATOM     12  C   UNL A   1      28.722  26.522  24.102  1.00  0.00     0.007 A 
ATOM     13  C   UNL A   1      28.661  28.705  23.077  1.00  0.00     0.269 A 
ATOM     14  C   UNL A   1      28.008  27.523  23.445  1.00  0.00     0.085 A 
BRANCH  13  15
ATOM     15  N   UNL A   1      27.914  29.751  22.365  1.00  0.00     0.062 N 
ATOM     16  O   UNL A   1      28.207  29.961  21.179  1.00  0.00    -0.258 OA
ATOM     17  O   UNL A   1      27.036  30.361  22.991  1.00  0.00    -0.258 OA
ENDBRANCH  13  15
ENDBRANCH   8   9
BRANCH   8  18
ATOM     18  N   UNL A   1      32.974  27.342  23.048  1.00  0.00    -0.348 N 
ATOM     19  C   UNL A   1      33.492  26.109  22.814  1.00  0.00     0.226 C 
ATOM     20  H   UNL A   1      33.109  27.965  22.297  1.00  0.00     0.164 HD
ATOM     21  O   UNL A   1      33.926  25.962  21.663  1.00  0.00    -0.274 OA
BRANCH  19  22
ATOM     22  C   UNL A   1      33.497  24.925  23.814  1.00  0.00     0.050 C 
ATOM     23  C   UNL A   1      33.630  25.296  25.304  1.00  0.00     0.020 C 
ATOM     24  C   UNL A   1      34.697  24.002  23.444  1.00  0.00     0.020 C 
ATOM     25  C   UNL A   1      32.210  24.079  23.644  1.00  0.00     0.020 C 
ATOM     26  C   UNL A   1      33.703  24.068  26.212  1.00  0.00    -0.010 C 
ATOM     27  C   UNL A   1      34.758  22.764  24.356  1.00  0.00    -0.010 C 
ATOM     28  C   UNL A   1      32.247  22.839  24.566  1.00  0.00    -0.010 C 
ATOM     29  C   UNL A   1      32.395  23.279  26.033  1.00  0.00     0.007 C 
ATOM     30  C   UNL A   1      34.909  23.219  25.812  1.00  0.00     0.007 C 
ATOM     31  C   UNL A   1      33.456  21.960  24.204  1.00  0.00     0.007 C 
ENDBRANCH  19  22
ENDBRANCH   8  18
ENDBRANCH   7   8
ENDBRANCH   5   7
ENDBRANCH   2   3
ENDBRANCH   1   2
BRANCH   1  32
ATOM     32  C   UNL A   1      33.603  32.314  27.988  1.00  0.00     0.023 C 
BRANCH  32  33
ATOM     33  C   UNL A   1      33.804  33.809  27.756  1.00  0.00     0.116 C 
BRANCH  33  34
ATOM     34  N   UNL A   1      33.143  34.612  28.771  1.00  0.00    -0.352 N 
ATOM     35  C   UNL A   1      33.374  34.674  30.124  1.00  0.00     0.251 C 
ATOM     36  H   UNL A   1      32.422  35.196  28.441  1.00  0.00     0.163 HD
ATOM     37  O   UNL A   1      32.568  35.254  30.847  1.00  0.00    -0.269 OA
BRANCH  35  38
ATOM     38  C   UNL A   1      34.567  34.020  30.706  1.00  0.00     0.039 A 
ATOM     39  C   UNL A   1      34.387  32.962  31.599  1.00  0.00     0.014 A 
ATOM     40  C   UNL A   1      35.857  34.447  30.378  1.00  0.00     0.014 A 
ATOM     41  C   UNL A   1      35.500  32.291  32.112  1.00  0.00     0.010 A 
ATOM     42  C   UNL A   1      36.962  33.728  30.827  1.00  0.00     0.010 A 
ATOM     43  C   UNL A   1      36.797  32.641  31.700  1.00  0.00    -0.014 A 
BRANCH  43  44
ATOM     44  C   UNL A   1      37.985  31.879  32.169  1.00  0.00     0.031 A 
ATOM     45  C   UNL A   1      38.643  32.229  33.477  1.00  0.00     0.074 A 
ATOM     46  C   UNL A   1      38.503  30.907  31.391  1.00  0.00     0.049 A 
ATOM     47  N   UNL A   1      39.719  31.723  34.024  1.00  0.00    -0.248 NA
ATOM     48  C   UNL A   1      38.023  33.308  34.260  1.00  0.00     0.031 C 
ATOM     49  C   UNL A   1      37.974  30.496  30.089  1.00  0.00     0.029 A 
ATOM     50  N   UNL A   1      39.592  30.091  31.576  1.00  0.00    -0.354 N 
ATOM     51  C   UNL A   1      39.913  32.429  35.208  1.00  0.00     0.074 A 
ATOM     52  C   UNL A   1      38.876  33.437  35.266  1.00  0.00     0.031 C 
ATOM     53  C   UNL A   1      38.718  29.486  29.610  1.00  0.00     0.029 A 
ATOM     54  C   UNL A   1      39.810  29.213  30.539  1.00  0.00     0.049 A 
ATOM     55  H   UNL A   1      40.163  30.129  32.378  1.00  0.00     0.167 HD
ATOM     56  C   UNL A   1      40.855  32.240  36.164  1.00  0.00     0.034 A 
ATOM     57  C   UNL A   1      40.786  28.303  30.348  1.00  0.00     0.034 A 
ATOM     58  C   UNL A   1      41.880  31.226  36.092  1.00  0.00     0.049 A 
ATOM     59  C   UNL A   1      41.851  28.144  31.405  1.00  0.00     0.074 A 
ATOM     60  C   UNL A   1      42.848  30.912  37.030  1.00  0.00     0.029 A 
ATOM     61  N   UNL A   1      42.082  30.370  35.016  1.00  0.00    -0.354 N 
ATOM     62  N   UNL A   1      41.987  28.783  32.544  1.00  0.00    -0.248 NA
ATOM     63  C   UNL A   1      42.886  27.134  31.155  1.00  0.00     0.031 C 
ATOM     64  C   UNL A   1      43.683  29.930  36.488  1.00  0.00     0.029 A 
ATOM     65  C   UNL A   1      43.183  29.560  35.250  1.00  0.00     0.049 A 
ATOM     66  H   UNL A   1      41.525  30.344  34.205  1.00  0.00     0.167 HD
ATOM     67  C   UNL A   1      43.104  28.225  33.161  1.00  0.00     0.074 A 
ATOM     68  C   UNL A   1      43.593  27.189  32.274  1.00  0.00     0.031 C 
ATOM     69  C   UNL A   1      43.671  28.535  34.355  1.00  0.00     0.034 A 
BRANCH  56  70
ATOM     70  C   UNL A   1      40.840  33.172  37.354  1.00  0.00     0.023 A 
ATOM     71  C   UNL A   1      40.051  32.912  38.489  1.00  0.00     0.031 A 
ATOM     72  C   UNL A   1      41.611  34.347  37.347  1.00  0.00     0.131 A 
ATOM     73  C   UNL A   1      39.996  33.849  39.534  1.00  0.00     0.055 A 
ATOM     74  C   UNL A   1      41.618  35.233  38.427  1.00  0.00     0.041 A 
ATOM     75  F   UNL A   1      42.368  34.662  36.284  1.00  0.00    -0.206 F 
ATOM     76  C   UNL A   1      40.794  34.994  39.523  1.00  0.00     0.022 A 
BRANCH  73  77
ATOM     77  S   UNL A   1      38.753  33.622  40.836  1.00  0.00     0.124 S 
ATOM     78  O   UNL A   1      39.541  32.979  41.886  1.00  0.00    -0.237 OA
ATOM     79  O   UNL A   1      38.326  34.989  41.106  1.00  0.00    -0.237 OA
ATOM     80  O   UNL A   1      37.750  32.766  40.208  1.00  0.00    -0.744 OA
ENDBRANCH  73  77
ENDBRANCH  56  70
BRANCH  57  81
ATOM     81  C   UNL A   1      40.821  27.476  29.105  1.00  0.00     0.023 A 
ATOM     82  C   UNL A   1      41.733  27.757  28.075  1.00  0.00     0.031 A 
ATOM     83  C   UNL A   1      39.908  26.425  28.906  1.00  0.00     0.131 A 
ATOM     84  C   UNL A   1      41.678  27.032  26.875  1.00  0.00     0.055 A 
ATOM     85  C   UNL A   1      39.898  25.666  27.734  1.00  0.00     0.041 A 
ATOM     86  F   UNL A   1      39.013  26.112  29.857  1.00  0.00    -0.206 F 
ATOM     87  C   UNL A   1      40.778  25.979  26.703  1.00  0.00     0.022 A 
BRANCH  84  88
ATOM     88  S   UNL A   1      42.735  27.556  25.496  1.00  0.00     0.124 S 
ATOM     89  O   UNL A   1      42.719  26.371  24.645  1.00  0.00    -0.237 OA
ATOM     90  O   UNL A   1      42.018  28.721  24.990  1.00  0.00    -0.237 OA
ATOM     91  O   UNL A   1      44.014  27.845  26.140  1.00  0.00    -0.744 OA
ENDBRANCH  84  88
ENDBRANCH  57  81
BRANCH  69  92
ATOM     92  C   UNL A   1      44.855  27.707  34.794  1.00  0.00     0.023 A 
ATOM     93  C   UNL A   1      44.700  26.515  35.525  1.00  0.00     0.031 A 
ATOM     94  C   UNL A   1      46.161  28.125  34.485  1.00  0.00     0.131 A 
ATOM     95  C   UNL A   1      45.833  25.817  35.972  1.00  0.00     0.055 A 
ATOM     96  C   UNL A   1      47.282  27.388  34.871  1.00  0.00     0.041 A 
ATOM     97  F   UNL A   1      46.372  29.256  33.794  1.00  0.00    -0.206 F 
ATOM     98  C   UNL A   1      47.121  26.234  35.633  1.00  0.00     0.022 A 
BRANCH  95  99
ATOM     99  S   UNL A   1      45.602  24.410  37.094  1.00  0.00     0.124 S 
ATOM    100  O   UNL A   1      45.088  23.383  36.192  1.00  0.00    -0.237 OA
ATOM    101  O   UNL A   1      46.951  24.193  37.605  1.00  0.00    -0.237 OA
ATOM    102  O   UNL A   1      44.641  24.908  38.076  1.00  0.00    -0.744 OA
ENDBRANCH  95  99
ENDBRANCH  69  92
ENDBRANCH  43  44
ENDBRANCH  35  38
ENDBRANCH  33  34
ENDBRANCH  32  33
ENDBRANCH   1  32
TORSDOF 19
ENDMDL
MODEL 2
REMARK VINA RESULT:     -11.9      5.831     10.107
REMARK SMILES O=C(C[C@H](NC(=O)[C@]12C[C@H]3C[C@H](C[C@H](C3)C1)C2)c1cccc([N+](=O)[O-])c1)NCCCCNC(=O)c1ccc(-c2c3nc(c(-c4cc(S(=O)(=O)[O-])ccc4F)c4ccc([nH]4)c(-c4cc(S(=O)(=O)[O-])ccc4F)c4nc(c(-c5cc(S(=O)(=O)[O-])ccc5F)c5ccc2[nH]5)C=C4)C=C3)cc1
REMARK SMILES IDX 29 1 28 2 27 3 1 4 2 5 3 7 4 8 18 9 19 10 26 11 20 12 22 13
REMARK SMILES IDX 21 14 23 15 24 16 25 17 5 18 6 19 7 21 8 22 9 23 16 24 17 25
REMARK SMILES IDX 10 26 14 27 12 28 11 29 15 30 13 31 30 32 31 33 32 34 33 35
REMARK SMILES IDX 34 37 35 38 36 39 97 40 37 41 96 42 38 43 39 44 40 45 90 46
REMARK SMILES IDX 41 47 95 48 89 49 91 50 42 51 94 52 88 53 87 54 43 56 75 57
REMARK SMILES IDX 55 58 74 59 56 60 59 61 73 62 92 63 57 64 58 65 72 67 93 68
REMARK SMILES IDX 60 69 44 70 45 71 53 72 46 73 52 74 54 75 51 76 47 77 48 78
REMARK SMILES IDX 49 79 50 80 76 81 77 82 85 83 78 84 84 85 86 86 83 87 79 88
REMARK SMILES IDX 80 89 81 90 82 91 61 92 62 93 70 94 63 95 69 96 71 97 68 98
REMARK SMILES IDX 64 99 65 100 66 101 67 102
REMARK H PARENT 27 6 5 20 32 36 91 55 59 66
REMARK Flexibility Score: inf
ROOT
ATOM      1  C   UNL A   1      37.684  20.626  24.692  1.00  0.00     0.023 C 
ENDROOT
BRANCH   1   2
ATOM      2  C   UNL A   1      37.657  21.740  25.735  1.00  0.00     0.116 C 
BRANCH   2   3
ATOM      3  N   UNL A   1      36.307  21.991  26.186  1.00  0.00    -0.356 N 
ATOM      4  O   UNL A   1      36.083  24.071  25.225  1.00  0.00    -0.275 OA
ATOM      5  C   UNL A   1      35.637  23.158  25.902  1.00  0.00     0.222 C 
ATOM      6  H   UNL A   1      35.850  21.300  26.716  1.00  0.00     0.163 HD
BRANCH   5   7
ATOM      7  C   UNL A   1      34.290  23.229  26.563  1.00  0.00     0.129 C 
BRANCH   7   8
ATOM      8  C   UNL A   1      33.117  23.451  25.607  1.00  0.00     0.122 C 
BRANCH   8   9
ATOM      9  C   UNL A   1      32.860  22.330  24.618  1.00  0.00    -0.018 A 
ATOM     10  C   UNL A   1      32.454  22.650  23.310  1.00  0.00     0.006 A 
ATOM     11  C   UNL A   1      32.940  20.975  24.984  1.00  0.00     0.091 A 
ATOM     12  C   UNL A   1      32.091  21.653  22.403  1.00  0.00     0.007 A 
ATOM     13  C   UNL A   1      32.563  19.978  24.073  1.00  0.00     0.269 A 
ATOM     14  C   UNL A   1      32.132  20.313  22.784  1.00  0.00     0.085 A 
BRANCH  13  15
ATOM     15  N   UNL A   1      32.587  18.567  24.482  1.00  0.00     0.062 N 
ATOM     16  O   UNL A   1      32.245  18.299  25.644  1.00  0.00    -0.258 OA
ATOM     17  O   UNL A   1      32.946  17.728  23.644  1.00  0.00    -0.258 OA
ENDBRANCH  13  15
ENDBRANCH   8   9
BRANCH   8  18
ATOM     18  N   UNL A   1      31.882  23.892  26.246  1.00  0.00    -0.348 N 
ATOM     19  C   UNL A   1      31.111  25.004  26.140  1.00  0.00     0.226 C 
ATOM     20  H   UNL A   1      31.530  23.239  26.895  1.00  0.00     0.164 HD
ATOM     21  O   UNL A   1      30.054  24.939  26.783  1.00  0.00    -0.274 OA
BRANCH  19  22
ATOM     22  C   UNL A   1      31.418  26.237  25.253  1.00  0.00     0.050 C 
ATOM     23  C   UNL A   1      30.569  26.383  23.976  1.00  0.00     0.020 C 
ATOM     24  C   UNL A   1      32.914  26.145  24.824  1.00  0.00     0.020 C 
ATOM     25  C   UNL A   1      31.268  27.539  26.080  1.00  0.00     0.020 C 
ATOM     26  C   UNL A   1      30.990  27.580  23.123  1.00  0.00    -0.010 C 
ATOM     27  C   UNL A   1      33.332  27.358  23.975  1.00  0.00    -0.010 C 
ATOM     28  C   UNL A   1      31.668  28.770  25.236  1.00  0.00    -0.010 C 
ATOM     29  C   UNL A   1      30.794  28.848  23.973  1.00  0.00     0.007 C 
ATOM     30  C   UNL A   1      32.455  27.419  22.718  1.00  0.00     0.007 C 
ATOM     31  C   UNL A   1      33.137  28.642  24.797  1.00  0.00     0.007 C 
ENDBRANCH  19  22
ENDBRANCH   8  18
ENDBRANCH   7   8
ENDBRANCH   5   7
ENDBRANCH   2   3
ENDBRANCH   1   2
BRANCH   1  32
ATOM     32  C   UNL A   1      38.634  19.468  25.013  1.00  0.00     0.023 C 
BRANCH  32  33
ATOM     33  C   UNL A   1      39.644  19.748  26.122  1.00  0.00     0.116 C 
BRANCH  33  34
ATOM     34  N   UNL A   1      40.869  18.985  25.951  1.00  0.00    -0.352 N 
ATOM     35  C   UNL A   1      42.167  19.424  25.865  1.00  0.00     0.251 C 
ATOM     36  H   UNL A   1      40.750  18.010  25.886  1.00  0.00     0.163 HD
ATOM     37  O   UNL A   1      43.045  18.644  25.507  1.00  0.00    -0.269 OA
BRANCH  35  38
ATOM     38  C   UNL A   1      42.498  20.834  26.172  1.00  0.00     0.039 A 
ATOM     39  C   UNL A   1      42.678  21.210  27.504  1.00  0.00     0.014 A 
ATOM     40  C   UNL A   1      42.626  21.784  25.154  1.00  0.00     0.014 A 
ATOM     41  C   UNL A   1      43.052  22.521  27.811  1.00  0.00     0.010 A 
ATOM     42  C   UNL A   1      43.074  23.068  25.454  1.00  0.00     0.010 A 
ATOM     43  C   UNL A   1      43.292  23.452  26.786  1.00  0.00    -0.014 A 
BRANCH  43  44
ATOM     44  C   UNL A   1      43.775  24.825  27.093  1.00  0.00     0.031 A 
ATOM     45  C   UNL A   1      42.835  25.847  27.675  1.00  0.00     0.074 A 
ATOM     46  C   UNL A   1      45.045  25.167  26.797  1.00  0.00     0.049 A 
ATOM     47  N   UNL A   1      43.052  27.108  27.953  1.00  0.00    -0.248 NA
ATOM     48  C   UNL A   1      41.464  25.398  27.958  1.00  0.00     0.031 C 
ATOM     49  C   UNL A   1      46.042  24.275  26.203  1.00  0.00     0.029 A 
ATOM     50  N   UNL A   1      45.716  26.355  26.950  1.00  0.00    -0.354 N 
ATOM     51  C   UNL A   1      41.843  27.606  28.430  1.00  0.00     0.074 A 
ATOM     52  C   UNL A   1      40.885  26.524  28.347  1.00  0.00     0.031 C 
ATOM     53  C   UNL A   1      47.204  24.936  26.072  1.00  0.00     0.029 A 
ATOM     54  C   UNL A   1      47.022  26.314  26.518  1.00  0.00     0.049 A 
ATOM     55  H   UNL A   1      45.302  27.162  27.334  1.00  0.00     0.167 HD
ATOM     56  C   UNL A   1      41.566  28.843  28.912  1.00  0.00     0.034 A 
ATOM     57  C   UNL A   1      47.963  27.278  26.471  1.00  0.00     0.034 A 
ATOM     58  C   UNL A   1      42.536  29.909  28.991  1.00  0.00     0.049 A 
ATOM     59  C   UNL A   1      47.616  28.660  26.968  1.00  0.00     0.074 A 
ATOM     60  C   UNL A   1      42.375  31.181  29.512  1.00  0.00     0.029 A 
ATOM     61  N   UNL A   1      43.843  29.836  28.524  1.00  0.00    -0.354 N 
ATOM     62  N   UNL A   1      46.484  29.098  27.467  1.00  0.00    -0.248 NA
ATOM     63  C   UNL A   1      48.677  29.672  26.904  1.00  0.00     0.031 C 
ATOM     64  C   UNL A   1      43.553  31.901  29.284  1.00  0.00     0.029 A 
ATOM     65  C   UNL A   1      44.483  31.053  28.707  1.00  0.00     0.049 A 
ATOM     66  H   UNL A   1      44.253  29.038  28.121  1.00  0.00     0.167 HD
ATOM     67  C   UNL A   1      46.711  30.429  27.810  1.00  0.00     0.074 A 
ATOM     68  C   UNL A   1      48.090  30.714  27.474  1.00  0.00     0.031 C 
ATOM     69  C   UNL A   1      45.858  31.332  28.359  1.00  0.00     0.034 A 
BRANCH  56  70
ATOM     70  C   UNL A   1      40.148  29.118  29.356  1.00  0.00     0.023 A 
ATOM     71  C   UNL A   1      39.773  29.071  30.711  1.00  0.00     0.031 A 
ATOM     72  C   UNL A   1      39.150  29.414  28.411  1.00  0.00     0.131 A 
ATOM     73  C   UNL A   1      38.428  29.242  31.074  1.00  0.00     0.055 A 
ATOM     74  C   UNL A   1      37.829  29.669  28.787  1.00  0.00     0.041 A 
ATOM     75  F   UNL A   1      39.439  29.453  27.101  1.00  0.00    -0.206 F 
ATOM     76  C   UNL A   1      37.458  29.568  30.124  1.00  0.00     0.022 A 
BRANCH  73  77
ATOM     77  S   UNL A   1      37.939  28.887  32.784  1.00  0.00     0.124 S 
ATOM     78  O   UNL A   1      36.584  29.431  32.823  1.00  0.00    -0.237 OA
ATOM     79  O   UNL A   1      38.045  27.434  32.847  1.00  0.00    -0.237 OA
ATOM     80  O   UNL A   1      38.920  29.619  33.581  1.00  0.00    -0.744 OA
ENDBRANCH  73  77
ENDBRANCH  56  70
BRANCH  57  81
ATOM     81  C   UNL A   1      49.322  26.988  25.924  1.00  0.00     0.023 A 
ATOM     82  C   UNL A   1      49.700  27.440  24.649  1.00  0.00     0.031 A 
ATOM     83  C   UNL A   1      50.245  26.209  26.645  1.00  0.00     0.131 A 
ATOM     84  C   UNL A   1      50.942  27.067  24.114  1.00  0.00     0.055 A 
ATOM     85  C   UNL A   1      51.505  25.893  26.134  1.00  0.00     0.041 A 
ATOM     86  F   UNL A   1      49.937  25.749  27.869  1.00  0.00    -0.206 F 
ATOM     87  C   UNL A   1      51.853  26.311  24.854  1.00  0.00     0.022 A 
BRANCH  84  88
ATOM     88  S   UNL A   1      51.311  27.501  22.391  1.00  0.00     0.124 S 
ATOM     89  O   UNL A   1      50.283  26.755  21.673  1.00  0.00    -0.237 OA
ATOM     90  O   UNL A   1      51.161  28.952  22.405  1.00  0.00    -0.237 OA
ATOM     91  O   UNL A   1      52.678  27.019  22.205  1.00  0.00    -0.744 OA
ENDBRANCH  84  88
ENDBRANCH  57  81
BRANCH  69  92
ATOM     92  C   UNL A   1      46.412  32.700  28.678  1.00  0.00     0.023 A 
ATOM     93  C   UNL A   1      46.401  33.747  27.738  1.00  0.00     0.031 A 
ATOM     94  C   UNL A   1      46.972  32.957  29.943  1.00  0.00     0.131 A 
ATOM     95  C   UNL A   1      46.992  34.979  28.058  1.00  0.00     0.055 A 
ATOM     96  C   UNL A   1      47.494  34.207  30.279  1.00  0.00     0.041 A 
ATOM     97  F   UNL A   1      47.015  31.996  30.879  1.00  0.00    -0.206 F 
ATOM     98  C   UNL A   1      47.519  35.222  29.328  1.00  0.00     0.022 A 
BRANCH  95  99
ATOM     99  S   UNL A   1      47.156  36.230  26.754  1.00  0.00     0.124 S 
ATOM    100  O   UNL A   1      45.836  36.853  26.763  1.00  0.00    -0.237 OA
ATOM    101  O   UNL A   1      48.254  37.055  27.247  1.00  0.00    -0.237 OA
ATOM    102  O   UNL A   1      47.462  35.444  25.560  1.00  0.00    -0.744 OA
ENDBRANCH  95  99
ENDBRANCH  69  92
ENDBRANCH  43  44
ENDBRANCH  35  38
ENDBRANCH  33  34
ENDBRANCH  32  33
ENDBRANCH   1  32
TORSDOF 19
ENDMDL
MODEL 3
REMARK VINA RESULT:     -11.8      5.491     10.726
REMARK SMILES O=C(C[C@H](NC(=O)[C@]12C[C@H]3C[C@H](C[C@H](C3)C1)C2)c1cccc([N+](=O)[O-])c1)NCCCCNC(=O)c1ccc(-c2c3nc(c(-c4cc(S(=O)(=O)[O-])ccc4F)c4ccc([nH]4)c(-c4cc(S(=O)(=O)[O-])ccc4F)c4nc(c(-c5cc(S(=O)(=O)[O-])ccc5F)c5ccc2[nH]5)C=C4)C=C3)cc1
REMARK SMILES IDX 29 1 28 2 27 3 1 4 2 5 3 7 4 8 18 9 19 10 26 11 20 12 22 13
REMARK SMILES IDX 21 14 23 15 24 16 25 17 5 18 6 19 7 21 8 22 9 23 16 24 17 25
REMARK SMILES IDX 10 26 14 27 12 28 11 29 15 30 13 31 30 32 31 33 32 34 33 35
REMARK SMILES IDX 34 37 35 38 36 39 97 40 37 41 96 42 38 43 39 44 40 45 90 46
REMARK SMILES IDX 41 47 95 48 89 49 91 50 42 51 94 52 88 53 87 54 43 56 75 57
REMARK SMILES IDX 55 58 74 59 56 60 59 61 73 62 92 63 57 64 58 65 72 67 93 68
REMARK SMILES IDX 60 69 44 70 45 71 53 72 46 73 52 74 54 75 51 76 47 77 48 78
REMARK SMILES IDX 49 79 50 80 76 81 77 82 85 83 78 84 84 85 86 86 83 87 79 88
REMARK SMILES IDX 80 89 81 90 82 91 61 92 62 93 70 94 63 95 69 96 71 97 68 98
REMARK SMILES IDX 64 99 65 100 66 101 67 102
REMARK H PARENT 27 6 5 20 32 36 91 55 59 66
REMARK Flexibility Score: inf
ROOT
ATOM      1  C   UNL A   1      36.065  21.567  24.907  1.00  0.00     0.023 C 
ENDROOT
BRANCH   1   2
ATOM      2  C   UNL A   1      36.122  22.527  26.092  1.00  0.00     0.116 C 
BRANCH   2   3
ATOM      3  N   UNL A   1      34.797  22.975  26.457  1.00  0.00    -0.356 N 
ATOM      4  O   UNL A   1      34.195  21.098  27.645  1.00  0.00    -0.275 OA
ATOM      5  C   UNL A   1      33.932  22.202  27.196  1.00  0.00     0.222 C 
ATOM      6  H   UNL A   1      34.503  23.867  26.165  1.00  0.00     0.163 HD
BRANCH   5   7
ATOM      7  C   UNL A   1      32.581  22.838  27.360  1.00  0.00     0.129 C 
BRANCH   7   8
ATOM      8  C   UNL A   1      32.192  23.813  26.248  1.00  0.00     0.122 C 
BRANCH   8   9
ATOM      9  C   UNL A   1      32.255  23.255  24.839  1.00  0.00    -0.018 A 
ATOM     10  C   UNL A   1      32.019  21.884  24.633  1.00  0.00     0.006 A 
ATOM     11  C   UNL A   1      32.615  24.048  23.734  1.00  0.00     0.091 A 
ATOM     12  C   UNL A   1      32.183  21.305  23.374  1.00  0.00     0.007 A 
ATOM     13  C   UNL A   1      32.790  23.459  22.474  1.00  0.00     0.269 A 
ATOM     14  C   UNL A   1      32.580  22.087  22.291  1.00  0.00     0.085 A 
BRANCH  13  15
ATOM     15  N   UNL A   1      33.229  24.280  21.338  1.00  0.00     0.062 N 
ATOM     16  O   UNL A   1      33.463  25.479  21.551  1.00  0.00    -0.258 OA
ATOM     17  O   UNL A   1      33.339  23.728  20.234  1.00  0.00    -0.258 OA
ENDBRANCH  13  15
ENDBRANCH   8   9
BRANCH   8  18
ATOM     18  N   UNL A   1      30.948  24.539  26.478  1.00  0.00    -0.348 N 
ATOM     19  C   UNL A   1      30.607  25.853  26.467  1.00  0.00     0.226 C 
ATOM     20  H   UNL A   1      30.189  23.946  26.686  1.00  0.00     0.164 HD
ATOM     21  O   UNL A   1      29.392  26.053  26.599  1.00  0.00    -0.274 OA
BRANCH  19  22
ATOM     22  C   UNL A   1      31.579  27.037  26.232  1.00  0.00     0.050 C 
ATOM     23  C   UNL A   1      33.080  26.689  26.208  1.00  0.00     0.020 C 
ATOM     24  C   UNL A   1      31.347  28.069  27.378  1.00  0.00     0.020 C 
ATOM     25  C   UNL A   1      31.231  27.755  24.904  1.00  0.00     0.020 C 
ATOM     26  C   UNL A   1      33.967  27.924  26.048  1.00  0.00    -0.010 C 
ATOM     27  C   UNL A   1      32.237  29.312  27.204  1.00  0.00    -0.010 C 
ATOM     28  C   UNL A   1      32.129  28.999  24.706  1.00  0.00    -0.010 C 
ATOM     29  C   UNL A   1      33.610  28.583  24.705  1.00  0.00     0.007 C 
ATOM     30  C   UNL A   1      33.709  28.883  27.210  1.00  0.00     0.007 C 
ATOM     31  C   UNL A   1      31.907  29.987  25.863  1.00  0.00     0.007 C 
ENDBRANCH  19  22
ENDBRANCH   8  18
ENDBRANCH   7   8
ENDBRANCH   5   7
ENDBRANCH   2   3
ENDBRANCH   1   2
BRANCH   1  32
ATOM     32  C   UNL A   1      37.167  20.502  24.890  1.00  0.00     0.023 C 
BRANCH  32  33
ATOM     33  C   UNL A   1      38.577  21.027  25.141  1.00  0.00     0.116 C 
BRANCH  33  34
ATOM     34  N   UNL A   1      39.332  20.159  26.029  1.00  0.00    -0.352 N 
ATOM     35  C   UNL A   1      40.341  20.472  26.907  1.00  0.00     0.251 C 
ATOM     36  H   UNL A   1      39.085  19.206  25.996  1.00  0.00     0.163 HD
ATOM     37  O   UNL A   1      41.001  19.568  27.414  1.00  0.00    -0.269 OA
BRANCH  35  38
ATOM     38  C   UNL A   1      40.649  21.886  27.213  1.00  0.00     0.039 A 
ATOM     39  C   UNL A   1      41.561  22.173  28.231  1.00  0.00     0.014 A 
ATOM     40  C   UNL A   1      40.041  22.928  26.506  1.00  0.00     0.014 A 
ATOM     41  C   UNL A   1      41.913  23.499  28.494  1.00  0.00     0.010 A 
ATOM     42  C   UNL A   1      40.451  24.242  26.715  1.00  0.00     0.010 A 
ATOM     43  C   UNL A   1      41.392  24.544  27.712  1.00  0.00    -0.014 A 
BRANCH  43  44
ATOM     44  C   UNL A   1      41.824  25.951  27.923  1.00  0.00     0.031 A 
ATOM     45  C   UNL A   1      43.160  26.420  27.411  1.00  0.00     0.074 A 
ATOM     46  C   UNL A   1      41.036  26.793  28.623  1.00  0.00     0.049 A 
ATOM     47  N   UNL A   1      43.737  27.587  27.548  1.00  0.00    -0.248 NA
ATOM     48  C   UNL A   1      43.963  25.437  26.668  1.00  0.00     0.031 C 
ATOM     49  C   UNL A   1      39.733  26.449  29.196  1.00  0.00     0.029 A 
ATOM     50  N   UNL A   1      41.214  28.108  28.975  1.00  0.00    -0.354 N 
ATOM     51  C   UNL A   1      44.974  27.476  26.921  1.00  0.00     0.074 A 
ATOM     52  C   UNL A   1      45.085  26.110  26.457  1.00  0.00     0.031 C 
ATOM     53  C   UNL A   1      39.218  27.532  29.800  1.00  0.00     0.029 A 
ATOM     54  C   UNL A   1      40.173  28.631  29.708  1.00  0.00     0.049 A 
ATOM     55  H   UNL A   1      42.012  28.629  28.727  1.00  0.00     0.167 HD
ATOM     56  C   UNL A   1      45.918  28.431  26.734  1.00  0.00     0.034 A 
ATOM     57  C   UNL A   1      40.011  29.852  30.257  1.00  0.00     0.034 A 
ATOM     58  C   UNL A   1      45.789  29.790  27.201  1.00  0.00     0.049 A 
ATOM     59  C   UNL A   1      41.097  30.883  30.075  1.00  0.00     0.074 A 
ATOM     60  C   UNL A   1      46.660  30.850  27.017  1.00  0.00     0.029 A 
ATOM     61  N   UNL A   1      44.730  30.278  27.957  1.00  0.00    -0.354 N 
ATOM     62  N   UNL A   1      42.238  30.777  29.433  1.00  0.00    -0.248 NA
ATOM     63  C   UNL A   1      40.870  32.199  30.684  1.00  0.00     0.031 C 
ATOM     64  C   UNL A   1      46.172  31.950  27.730  1.00  0.00     0.029 A 
ATOM     65  C   UNL A   1      44.948  31.609  28.282  1.00  0.00     0.049 A 
ATOM     66  H   UNL A   1      43.941  29.754  28.224  1.00  0.00     0.167 HD
ATOM     67  C   UNL A   1      42.846  32.027  29.531  1.00  0.00     0.074 A 
ATOM     68  C   UNL A   1      41.939  32.871  30.281  1.00  0.00     0.031 C 
ATOM     69  C   UNL A   1      44.042  32.441  29.041  1.00  0.00     0.034 A 
BRANCH  56  70
ATOM     70  C   UNL A   1      47.190  28.026  26.023  1.00  0.00     0.023 A 
ATOM     71  C   UNL A   1      47.329  28.144  24.628  1.00  0.00     0.031 A 
ATOM     72  C   UNL A   1      48.272  27.498  26.747  1.00  0.00     0.131 A 
ATOM     73  C   UNL A   1      48.490  27.672  23.997  1.00  0.00     0.055 A 
ATOM     74  C   UNL A   1      49.460  27.109  26.122  1.00  0.00     0.041 A 
ATOM     75  F   UNL A   1      48.194  27.340  28.078  1.00  0.00    -0.206 F 
ATOM     76  C   UNL A   1      49.568  27.180  24.736  1.00  0.00     0.022 A 
BRANCH  73  77
ATOM     77  S   UNL A   1      48.512  27.572  22.186  1.00  0.00     0.124 S 
ATOM     78  O   UNL A   1      47.186  28.084  21.845  1.00  0.00    -0.237 OA
ATOM     79  O   UNL A   1      49.637  28.431  21.836  1.00  0.00    -0.237 OA
ATOM     80  O   UNL A   1      48.708  26.148  21.923  1.00  0.00    -0.744 OA
ENDBRANCH  73  77
ENDBRANCH  56  70
BRANCH  57  81
ATOM     81  C   UNL A   1      38.783  30.174  31.043  1.00  0.00     0.023 A 
ATOM     82  C   UNL A   1      37.717  30.880  30.463  1.00  0.00     0.031 A 
ATOM     83  C   UNL A   1      38.678  29.827  32.402  1.00  0.00     0.131 A 
ATOM     84  C   UNL A   1      36.619  31.262  31.249  1.00  0.00     0.055 A 
ATOM     85  C   UNL A   1      37.556  30.155  33.165  1.00  0.00     0.041 A 
ATOM     86  F   UNL A   1      39.668  29.152  33.010  1.00  0.00    -0.206 F 
ATOM     87  C   UNL A   1      36.524  30.891  32.591  1.00  0.00     0.022 A 
BRANCH  84  88
ATOM     88  S   UNL A   1      35.360  32.343  30.516  1.00  0.00     0.124 S 
ATOM     89  O   UNL A   1      36.099  33.591  30.356  1.00  0.00    -0.237 OA
ATOM     90  O   UNL A   1      35.028  31.631  29.287  1.00  0.00    -0.237 OA
ATOM     91  O   UNL A   1      34.304  32.367  31.525  1.00  0.00    -0.744 OA
ENDBRANCH  84  88
ENDBRANCH  57  81
BRANCH  69  92
ATOM     92  C   UNL A   1      44.413  33.889  29.257  1.00  0.00     0.023 A 
ATOM     93  C   UNL A   1      43.986  34.906  28.384  1.00  0.00     0.031 A 
ATOM     94  C   UNL A   1      45.219  34.254  30.350  1.00  0.00     0.131 A 
ATOM     95  C   UNL A   1      44.416  36.227  28.586  1.00  0.00     0.055 A 
ATOM     96  C   UNL A   1      45.584  35.580  30.586  1.00  0.00     0.041 A 
ATOM     97  F   UNL A   1      45.661  33.327  31.214  1.00  0.00    -0.206 F 
ATOM     98  C   UNL A   1      45.194  36.574  29.692  1.00  0.00     0.022 A 
BRANCH  95  99
ATOM     99  S   UNL A   1      44.029  37.472  27.324  1.00  0.00     0.124 S 
ATOM    100  O   UNL A   1      43.630  38.616  28.138  1.00  0.00    -0.237 OA
ATOM    101  O   UNL A   1      45.298  37.604  26.615  1.00  0.00    -0.237 OA
ATOM    102  O   UNL A   1      42.951  36.855  26.552  1.00  0.00    -0.744 OA
ENDBRANCH  95  99
ENDBRANCH  69  92
ENDBRANCH  43  44
ENDBRANCH  35  38
ENDBRANCH  33  34
ENDBRANCH  32  33
ENDBRANCH   1  32
TORSDOF 19
ENDMDL
