MODEL 1
REMARK VINA RESULT:     -13.0      0.000      0.000
REMARK SMILES CCOc1ccc2[nH]c(C)c/c(=N\c3cccc(C(=O)NCCCCNC(=O)c4ccc(-c5c6nc(c(-c7cc(S(=O)(=O)[O-])ccc7F)c7ccc([nH]7)c(-c7cc(S(=O)(=O)[O-])ccc7F)c7nc(c(-c8cc(S(=O)(=O)[O-])ccc8F)c8ccc5[nH]8)C=C7)C=C6)cc4)c3)c2c1
REMARK SMILES IDX 23 1 22 2 21 3 19 4 20 5 18 7 14 8 15 9 92 10 16 11 17 12
REMARK SMILES IDX 13 13 4 14 5 15 94 16 6 17 93 18 7 19 12 20 8 21 11 22 9 23
REMARK SMILES IDX 10 25 3 26 2 27 1 28 24 29 25 30 26 31 27 32 28 34 29 35
REMARK SMILES IDX 30 36 91 37 31 38 90 39 32 40 33 41 34 42 84 43 35 44 89 45
REMARK SMILES IDX 83 46 85 47 36 48 88 49 82 50 81 51 37 53 69 54 49 55 68 56
REMARK SMILES IDX 50 57 53 58 67 59 86 60 51 61 52 62 66 64 87 65 54 66 38 67
REMARK SMILES IDX 39 68 47 69 40 70 46 71 48 72 45 73 41 74 42 75 43 76 44 77
REMARK SMILES IDX 70 78 71 79 79 80 72 81 78 82 80 83 77 84 73 85 74 86 75 87
REMARK SMILES IDX 76 88 55 89 56 90 64 91 57 92 63 93 65 94 62 95 58 96 59 97
REMARK SMILES IDX 60 98 61 99
REMARK H PARENT 21 6 8 24 26 33 85 52 53 63
REMARK Flexibility Score: inf
ROOT
ATOM      1  C   UNL A   1      35.211  21.772  26.254  1.00  0.00     0.023 C 
ENDROOT
BRANCH   1   2
ATOM      2  C   UNL A   1      34.260  20.873  25.474  1.00  0.00     0.116 C 
BRANCH   2   3
ATOM      3  N   UNL A   1      32.851  21.025  25.796  1.00  0.00    -0.352 N 
ATOM      4  C   UNL A   1      31.887  21.863  25.278  1.00  0.00     0.251 C 
ATOM      5  O   UNL A   1      30.737  21.766  25.705  1.00  0.00    -0.269 OA
ATOM      6  H   UNL A   1      32.529  20.424  26.507  1.00  0.00     0.163 HD
BRANCH   4   7
ATOM      7  C   UNL A   1      32.194  22.929  24.282  1.00  0.00     0.041 A 
ATOM      8  C   UNL A   1      31.823  25.127  23.338  1.00  0.00     0.064 A 
ATOM      9  C   UNL A   1      32.573  24.780  22.211  1.00  0.00     0.028 A 
ATOM     10  C   UNL A   1      31.764  24.246  24.416  1.00  0.00     0.042 A 
ATOM     11  C   UNL A   1      33.125  23.502  22.109  1.00  0.00     0.003 A 
ATOM     12  C   UNL A   1      32.903  22.568  23.126  1.00  0.00     0.014 A 
BRANCH   8  13
ATOM     13  N   UNL A   1      31.008  26.271  23.395  1.00  0.00    -0.248 NA
ATOM     14  C   UNL A   1      28.902  29.966  22.961  1.00  0.00     0.120 A 
ATOM     15  C   UNL A   1      29.245  31.018  23.809  1.00  0.00     0.048 A 
ATOM     16  C   UNL A   1      29.589  28.754  23.021  1.00  0.00     0.059 A 
ATOM     17  C   UNL A   1      30.334  30.894  24.669  1.00  0.00     0.030 A 
ATOM     18  C   UNL A   1      30.675  28.623  23.897  1.00  0.00     0.027 A 
ATOM     19  C   UNL A   1      31.068  29.706  24.707  1.00  0.00     0.048 A 
ATOM     20  C   UNL A   1      31.471  27.352  23.964  1.00  0.00     0.075 A 
ATOM     21  N   UNL A   1      32.199  29.613  25.526  1.00  0.00    -0.359 N 
ATOM     22  C   UNL A   1      32.781  27.461  24.704  1.00  0.00     0.050 A 
ATOM     23  C   UNL A   1      33.045  28.534  25.465  1.00  0.00     0.014 A 
ATOM     24  H   UNL A   1      32.392  30.339  26.162  1.00  0.00     0.166 HD
ATOM     25  C   UNL A   1      34.294  28.601  26.300  1.00  0.00     0.064 C 
BRANCH  14  26
ATOM     26  O   UNL A   1      27.820  30.078  22.132  1.00  0.00    -0.494 OA
BRANCH  26  27
ATOM     27  C   UNL A   1      28.131  30.735  20.894  1.00  0.00     0.226 C 
ATOM     28  C   UNL A   1      28.021  32.249  21.018  1.00  0.00     0.049 C 
ENDBRANCH  26  27
ENDBRANCH  14  26
ENDBRANCH   8  13
ENDBRANCH   4   7
ENDBRANCH   2   3
ENDBRANCH   1   2
BRANCH   1  29
ATOM     29  C   UNL A   1      35.713  23.022  25.547  1.00  0.00     0.023 C 
BRANCH  29  30
ATOM     30  C   UNL A   1      36.939  22.846  24.661  1.00  0.00     0.116 C 
BRANCH  30  31
ATOM     31  N   UNL A   1      37.776  21.712  25.026  1.00  0.00    -0.352 N 
ATOM     32  C   UNL A   1      38.881  21.633  25.850  1.00  0.00     0.251 C 
ATOM     33  H   UNL A   1      37.509  20.858  24.616  1.00  0.00     0.163 HD
ATOM     34  O   UNL A   1      39.485  20.574  25.945  1.00  0.00    -0.269 OA
BRANCH  32  35
ATOM     35  C   UNL A   1      39.365  22.835  26.571  1.00  0.00     0.039 A 
ATOM     36  C   UNL A   1      38.801  24.086  26.343  1.00  0.00     0.014 A 
ATOM     37  C   UNL A   1      40.428  22.709  27.472  1.00  0.00     0.014 A 
ATOM     38  C   UNL A   1      39.441  25.226  26.817  1.00  0.00     0.010 A 
ATOM     39  C   UNL A   1      40.998  23.852  28.047  1.00  0.00     0.010 A 
ATOM     40  C   UNL A   1      40.553  25.128  27.669  1.00  0.00    -0.014 A 
BRANCH  40  41
ATOM     41  C   UNL A   1      41.207  26.379  28.148  1.00  0.00     0.031 A 
ATOM     42  C   UNL A   1      42.630  26.712  27.779  1.00  0.00     0.074 A 
ATOM     43  C   UNL A   1      40.474  27.264  28.852  1.00  0.00     0.049 A 
ATOM     44  N   UNL A   1      43.303  27.809  28.019  1.00  0.00    -0.248 NA
ATOM     45  C   UNL A   1      43.400  25.688  27.057  1.00  0.00     0.031 C 
ATOM     46  C   UNL A   1      39.092  27.042  29.281  1.00  0.00     0.029 A 
ATOM     47  N   UNL A   1      40.757  28.533  29.290  1.00  0.00    -0.354 N 
ATOM     48  C   UNL A   1      44.574  27.604  27.492  1.00  0.00     0.074 A 
ATOM     49  C   UNL A   1      44.592  26.262  26.955  1.00  0.00     0.031 C 
ATOM     50  C   UNL A   1      38.621  28.163  29.840  1.00  0.00     0.029 A 
ATOM     51  C   UNL A   1      39.686  29.162  29.884  1.00  0.00     0.049 A 
ATOM     52  H   UNL A   1      41.642  28.953  29.189  1.00  0.00     0.167 HD
ATOM     53  C   UNL A   1      45.622  28.464  27.444  1.00  0.00     0.034 A 
ATOM     54  C   UNL A   1      39.567  30.399  30.408  1.00  0.00     0.034 A 
ATOM     55  C   UNL A   1      45.585  29.809  27.964  1.00  0.00     0.049 A 
ATOM     56  C   UNL A   1      40.748  31.329  30.349  1.00  0.00     0.074 A 
ATOM     57  C   UNL A   1      46.582  30.767  27.924  1.00  0.00     0.029 A 
ATOM     58  N   UNL A   1      44.502  30.390  28.609  1.00  0.00    -0.354 N 
ATOM     59  N   UNL A   1      41.923  31.136  29.798  1.00  0.00    -0.248 NA
ATOM     60  C   UNL A   1      40.593  32.644  30.986  1.00  0.00     0.031 C 
ATOM     61  C   UNL A   1      46.127  31.903  28.596  1.00  0.00     0.029 A 
ATOM     62  C   UNL A   1      44.820  31.682  29.000  1.00  0.00     0.049 A 
ATOM     63  H   UNL A   1      43.636  29.950  28.766  1.00  0.00     0.167 HD
ATOM     64  C   UNL A   1      42.649  32.300  30.027  1.00  0.00     0.074 A 
ATOM     65  C   UNL A   1      41.762  33.211  30.721  1.00  0.00     0.031 C 
ATOM     66  C   UNL A   1      43.938  32.581  29.705  1.00  0.00     0.034 A 
BRANCH  53  67
ATOM     67  C   UNL A   1      46.907  28.003  26.797  1.00  0.00     0.023 A 
ATOM     68  C   UNL A   1      47.064  28.086  25.401  1.00  0.00     0.031 A 
ATOM     69  C   UNL A   1      47.914  27.365  27.543  1.00  0.00     0.131 A 
ATOM     70  C   UNL A   1      48.188  27.515  24.791  1.00  0.00     0.055 A 
ATOM     71  C   UNL A   1      49.051  26.830  26.933  1.00  0.00     0.041 A 
ATOM     72  F   UNL A   1      47.811  27.259  28.877  1.00  0.00    -0.206 F 
ATOM     73  C   UNL A   1      49.185  26.893  25.550  1.00  0.00     0.022 A 
BRANCH  70  74
ATOM     74  S   UNL A   1      48.375  27.500  22.986  1.00  0.00     0.124 S 
ATOM     75  O   UNL A   1      49.665  28.164  22.813  1.00  0.00    -0.237 OA
ATOM     76  O   UNL A   1      48.367  26.069  22.690  1.00  0.00    -0.237 OA
ATOM     77  O   UNL A   1      47.221  28.252  22.507  1.00  0.00    -0.744 OA
ENDBRANCH  70  74
ENDBRANCH  53  67
BRANCH  54  78
ATOM     78  C   UNL A   1      38.254  30.816  30.983  1.00  0.00     0.023 A 
ATOM     79  C   UNL A   1      37.265  31.401  30.170  1.00  0.00     0.031 A 
ATOM     80  C   UNL A   1      38.020  30.753  32.366  1.00  0.00     0.131 A 
ATOM     81  C   UNL A   1      36.132  31.977  30.757  1.00  0.00     0.055 A 
ATOM     82  C   UNL A   1      36.851  31.257  32.938  1.00  0.00     0.041 A 
ATOM     83  F   UNL A   1      38.937  30.214  33.184  1.00  0.00    -0.206 F 
ATOM     84  C   UNL A   1      35.909  31.894  32.134  1.00  0.00     0.022 A 
BRANCH  81  85
ATOM     85  S   UNL A   1      34.997  32.995  29.772  1.00  0.00     0.124 S 
ATOM     86  O   UNL A   1      34.445  32.018  28.838  1.00  0.00    -0.237 OA
ATOM     87  O   UNL A   1      34.072  33.485  30.791  1.00  0.00    -0.237 OA
ATOM     88  O   UNL A   1      35.866  34.010  29.185  1.00  0.00    -0.744 OA
ENDBRANCH  81  85
ENDBRANCH  54  78
BRANCH  66  89
ATOM     89  C   UNL A   1      44.502  33.915  30.130  1.00  0.00     0.023 A 
ATOM     90  C   UNL A   1      44.491  35.010  29.247  1.00  0.00     0.031 A 
ATOM     91  C   UNL A   1      45.158  34.064  31.366  1.00  0.00     0.131 A 
ATOM     92  C   UNL A   1      45.149  36.196  29.598  1.00  0.00     0.055 A 
ATOM     93  C   UNL A   1      45.774  35.261  31.729  1.00  0.00     0.041 A 
ATOM     94  F   UNL A   1      45.205  33.045  32.239  1.00  0.00    -0.206 F 
ATOM     95  C   UNL A   1      45.782  36.330  30.838  1.00  0.00     0.022 A 
BRANCH  92  96
ATOM     96  S   UNL A   1      45.281  37.577  28.430  1.00  0.00     0.124 S 
ATOM     97  O   UNL A   1      46.141  37.012  27.393  1.00  0.00    -0.237 OA
ATOM     98  O   UNL A   1      43.889  37.786  28.038  1.00  0.00    -0.237 OA
ATOM     99  O   UNL A   1      45.877  38.650  29.219  1.00  0.00    -0.744 OA
ENDBRANCH  92  96
ENDBRANCH  66  89
ENDBRANCH  40  41
ENDBRANCH  32  35
ENDBRANCH  30  31
ENDBRANCH  29  30
ENDBRANCH   1  29
TORSDOF 17
ENDMDL
MODEL 2
REMARK VINA RESULT:     -12.3      2.551      2.897
REMARK SMILES CCOc1ccc2[nH]c(C)c/c(=N\c3cccc(C(=O)NCCCCNC(=O)c4ccc(-c5c6nc(c(-c7cc(S(=O)(=O)[O-])ccc7F)c7ccc([nH]7)c(-c7cc(S(=O)(=O)[O-])ccc7F)c7nc(c(-c8cc(S(=O)(=O)[O-])ccc8F)c8ccc5[nH]8)C=C7)C=C6)cc4)c3)c2c1
REMARK SMILES IDX 23 1 22 2 21 3 19 4 20 5 18 7 14 8 15 9 92 10 16 11 17 12
REMARK SMILES IDX 13 13 4 14 5 15 94 16 6 17 93 18 7 19 12 20 8 21 11 22 9 23
REMARK SMILES IDX 10 25 3 26 2 27 1 28 24 29 25 30 26 31 27 32 28 34 29 35
REMARK SMILES IDX 30 36 91 37 31 38 90 39 32 40 33 41 34 42 84 43 35 44 89 45
REMARK SMILES IDX 83 46 85 47 36 48 88 49 82 50 81 51 37 53 69 54 49 55 68 56
REMARK SMILES IDX 50 57 53 58 67 59 86 60 51 61 52 62 66 64 87 65 54 66 38 67
REMARK SMILES IDX 39 68 47 69 40 70 46 71 48 72 45 73 41 74 42 75 43 76 44 77
REMARK SMILES IDX 70 78 71 79 79 80 72 81 78 82 80 83 77 84 73 85 74 86 75 87
REMARK SMILES IDX 76 88 55 89 56 90 64 91 57 92 63 93 65 94 62 95 58 96 59 97
REMARK SMILES IDX 60 98 61 99
REMARK H PARENT 21 6 8 24 26 33 85 52 53 63
REMARK Flexibility Score: inf
ROOT
ATOM      1  C   UNL A   1      35.412  21.508  26.156  1.00  0.00     0.023 C 
ENDROOT
BRANCH   1   2
ATOM      2  C   UNL A   1      34.374  20.834  25.267  1.00  0.00     0.116 C 
BRANCH   2   3
ATOM      3  N   UNL A   1      32.990  21.029  25.664  1.00  0.00    -0.352 N 
ATOM      4  C   UNL A   1      32.038  21.926  25.226  1.00  0.00     0.251 C 
ATOM      5  O   UNL A   1      30.907  21.859  25.705  1.00  0.00    -0.269 OA
ATOM      6  H   UNL A   1      32.677  20.415  26.367  1.00  0.00     0.163 HD
BRANCH   4   7
ATOM      7  C   UNL A   1      32.342  23.016  24.256  1.00  0.00     0.041 A 
ATOM      8  C   UNL A   1      31.964  25.236  23.366  1.00  0.00     0.064 A 
ATOM      9  C   UNL A   1      32.715  24.919  22.231  1.00  0.00     0.028 A 
ATOM     10  C   UNL A   1      31.907  24.329  24.423  1.00  0.00     0.042 A 
ATOM     11  C   UNL A   1      33.272  23.646  22.099  1.00  0.00     0.003 A 
ATOM     12  C   UNL A   1      33.053  22.687  23.092  1.00  0.00     0.014 A 
BRANCH   8  13
ATOM     13  N   UNL A   1      31.144  26.375  23.450  1.00  0.00    -0.248 NA
ATOM     14  C   UNL A   1      29.031  30.077  23.111  1.00  0.00     0.120 A 
ATOM     15  C   UNL A   1      29.361  31.101  23.997  1.00  0.00     0.048 A 
ATOM     16  C   UNL A   1      29.721  28.865  23.141  1.00  0.00     0.059 A 
ATOM     17  C   UNL A   1      30.440  30.952  24.866  1.00  0.00     0.030 A 
ATOM     18  C   UNL A   1      30.798  28.709  24.025  1.00  0.00     0.027 A 
ATOM     19  C   UNL A   1      31.177  29.766  24.874  1.00  0.00     0.048 A 
ATOM     20  C   UNL A   1      31.597  27.438  24.060  1.00  0.00     0.075 A 
ATOM     21  N   UNL A   1      32.298  29.649  25.703  1.00  0.00    -0.359 N 
ATOM     22  C   UNL A   1      32.897  27.527  24.819  1.00  0.00     0.050 A 
ATOM     23  C   UNL A   1      33.149  28.576  25.617  1.00  0.00     0.014 A 
ATOM     24  H   UNL A   1      32.482  30.355  26.364  1.00  0.00     0.166 HD
ATOM     25  C   UNL A   1      34.387  28.618  26.469  1.00  0.00     0.064 C 
BRANCH  14  26
ATOM     26  O   UNL A   1      27.959  30.212  22.274  1.00  0.00    -0.494 OA
BRANCH  26  27
ATOM     27  C   UNL A   1      28.321  30.727  20.983  1.00  0.00     0.226 C 
ATOM     28  C   UNL A   1      27.931  32.192  20.833  1.00  0.00     0.049 C 
ENDBRANCH  26  27
ENDBRANCH  14  26
ENDBRANCH   8  13
ENDBRANCH   4   7
ENDBRANCH   2   3
ENDBRANCH   1   2
BRANCH   1  29
ATOM     29  C   UNL A   1      35.752  22.957  25.843  1.00  0.00     0.023 C 
BRANCH  29  30
ATOM     30  C   UNL A   1      37.036  23.192  25.059  1.00  0.00     0.116 C 
BRANCH  30  31
ATOM     31  N   UNL A   1      38.147  22.346  25.473  1.00  0.00    -0.352 N 
ATOM     32  C   UNL A   1      39.285  22.641  26.196  1.00  0.00     0.251 C 
ATOM     33  H   UNL A   1      38.072  21.406  25.192  1.00  0.00     0.163 HD
ATOM     34  O   UNL A   1      40.136  21.776  26.357  1.00  0.00    -0.269 OA
BRANCH  32  35
ATOM     35  C   UNL A   1      39.504  24.009  26.725  1.00  0.00     0.039 A 
ATOM     36  C   UNL A   1      40.039  25.012  25.924  1.00  0.00     0.014 A 
ATOM     37  C   UNL A   1      39.193  24.281  28.062  1.00  0.00     0.014 A 
ATOM     38  C   UNL A   1      40.484  26.193  26.508  1.00  0.00     0.010 A 
ATOM     39  C   UNL A   1      39.533  25.520  28.621  1.00  0.00     0.010 A 
ATOM     40  C   UNL A   1      40.245  26.463  27.866  1.00  0.00    -0.014 A 
BRANCH  40  41
ATOM     41  C   UNL A   1      40.745  27.742  28.445  1.00  0.00     0.031 A 
ATOM     42  C   UNL A   1      42.210  28.096  28.419  1.00  0.00     0.074 A 
ATOM     43  C   UNL A   1      39.851  28.631  28.920  1.00  0.00     0.049 A 
ATOM     44  N   UNL A   1      42.789  29.214  28.777  1.00  0.00    -0.248 NA
ATOM     45  C   UNL A   1      43.147  27.069  27.940  1.00  0.00     0.031 C 
ATOM     46  C   UNL A   1      38.409  28.391  29.010  1.00  0.00     0.029 A 
ATOM     47  N   UNL A   1      40.001  29.919  29.370  1.00  0.00    -0.354 N 
ATOM     48  C   UNL A   1      44.153  29.023  28.580  1.00  0.00     0.074 A 
ATOM     49  C   UNL A   1      44.320  27.666  28.109  1.00  0.00     0.031 C 
ATOM     50  C   UNL A   1      37.801  29.517  29.400  1.00  0.00     0.029 A 
ATOM     51  C   UNL A   1      38.809  30.540  29.666  1.00  0.00     0.049 A 
ATOM     52  H   UNL A   1      40.878  30.355  29.472  1.00  0.00     0.167 HD
ATOM     53  C   UNL A   1      45.169  29.903  28.758  1.00  0.00     0.034 A 
ATOM     54  C   UNL A   1      38.549  31.789  30.103  1.00  0.00     0.034 A 
ATOM     55  C   UNL A   1      44.987  31.262  29.207  1.00  0.00     0.049 A 
ATOM     56  C   UNL A   1      39.695  32.743  30.300  1.00  0.00     0.074 A 
ATOM     57  C   UNL A   1      45.951  32.241  29.377  1.00  0.00     0.029 A 
ATOM     58  N   UNL A   1      43.772  31.838  29.551  1.00  0.00    -0.354 N 
ATOM     59  N   UNL A   1      40.971  32.560  30.056  1.00  0.00    -0.248 NA
ATOM     60  C   UNL A   1      39.372  34.073  30.835  1.00  0.00     0.031 C 
ATOM     61  C   UNL A   1      45.330  33.386  29.879  1.00  0.00     0.029 A 
ATOM     62  C   UNL A   1      43.967  33.147  29.963  1.00  0.00     0.049 A 
ATOM     63  H   UNL A   1      42.900  31.383  29.509  1.00  0.00     0.167 HD
ATOM     64  C   UNL A   1      41.604  33.747  30.414  1.00  0.00     0.074 A 
ATOM     65  C   UNL A   1      40.562  34.658  30.842  1.00  0.00     0.031 C 
ATOM     66  C   UNL A   1      42.928  34.047  30.403  1.00  0.00     0.034 A 
BRANCH  53  67
ATOM     67  C   UNL A   1      46.579  29.453  28.456  1.00  0.00     0.023 A 
ATOM     68  C   UNL A   1      47.402  28.967  29.491  1.00  0.00     0.031 A 
ATOM     69  C   UNL A   1      47.146  29.626  27.182  1.00  0.00     0.131 A 
ATOM     70  C   UNL A   1      48.754  28.701  29.238  1.00  0.00     0.055 A 
ATOM     71  C   UNL A   1      48.485  29.324  26.927  1.00  0.00     0.041 A 
ATOM     72  F   UNL A   1      46.404  30.088  26.162  1.00  0.00    -0.206 F 
ATOM     73  C   UNL A   1      49.298  28.870  27.961  1.00  0.00     0.022 A 
BRANCH  70  74
ATOM     74  S   UNL A   1      49.875  28.182  30.567  1.00  0.00     0.124 S 
ATOM     75  O   UNL A   1      50.605  29.418  30.842  1.00  0.00    -0.237 OA
ATOM     76  O   UNL A   1      48.941  27.765  31.609  1.00  0.00    -0.237 OA
ATOM     77  O   UNL A   1      50.665  27.116  29.963  1.00  0.00    -0.744 OA
ENDBRANCH  70  74
ENDBRANCH  53  67
BRANCH  54  78
ATOM     78  C   UNL A   1      37.130  32.194  30.330  1.00  0.00     0.023 A 
ATOM     79  C   UNL A   1      36.361  32.739  29.285  1.00  0.00     0.031 A 
ATOM     80  C   UNL A   1      36.567  32.159  31.616  1.00  0.00     0.131 A 
ATOM     81  C   UNL A   1      35.111  33.306  29.562  1.00  0.00     0.055 A 
ATOM     82  C   UNL A   1      35.287  32.654  31.872  1.00  0.00     0.041 A 
ATOM     83  F   UNL A   1      37.265  31.659  32.647  1.00  0.00    -0.206 F 
ATOM     84  C   UNL A   1      34.561  33.252  30.845  1.00  0.00     0.022 A 
BRANCH  81  85
ATOM     85  S   UNL A   1      34.237  34.277  28.302  1.00  0.00     0.124 S 
ATOM     86  O   UNL A   1      33.121  33.399  27.962  1.00  0.00    -0.237 OA
ATOM     87  O   UNL A   1      33.886  35.485  29.044  1.00  0.00    -0.237 OA
ATOM     88  O   UNL A   1      35.237  34.463  27.255  1.00  0.00    -0.744 OA
ENDBRANCH  81  85
ENDBRANCH  54  78
BRANCH  66  89
ATOM     89  C   UNL A   1      43.353  35.405  30.906  1.00  0.00     0.023 A 
ATOM     90  C   UNL A   1      43.384  35.678  32.287  1.00  0.00     0.031 A 
ATOM     91  C   UNL A   1      43.608  36.462  30.014  1.00  0.00     0.131 A 
ATOM     92  C   UNL A   1      43.635  36.982  32.734  1.00  0.00     0.055 A 
ATOM     93  C   UNL A   1      43.901  37.748  30.464  1.00  0.00     0.041 A 
ATOM     94  F   UNL A   1      43.580  36.254  28.688  1.00  0.00    -0.206 F 
ATOM     95  C   UNL A   1      43.903  38.016  31.830  1.00  0.00     0.022 A 
BRANCH  92  96
ATOM     96  S   UNL A   1      43.542  37.405  34.495  1.00  0.00     0.124 S 
ATOM     97  O   UNL A   1      44.563  36.532  35.068  1.00  0.00    -0.237 OA
ATOM     98  O   UNL A   1      43.871  38.828  34.490  1.00  0.00    -0.237 OA
ATOM     99  O   UNL A   1      42.167  37.081  34.862  1.00  0.00    -0.744 OA
ENDBRANCH  92  96
ENDBRANCH  66  89
ENDBRANCH  40  41
ENDBRANCH  32  35
ENDBRANCH  30  31
ENDBRANCH  29  30
ENDBRANCH   1  29
TORSDOF 17
ENDMDL
MODEL 3
REMARK VINA RESULT:     -12.3      4.736     10.169
REMARK SMILES CCOc1ccc2[nH]c(C)c/c(=N\c3cccc(C(=O)NCCCCNC(=O)c4ccc(-c5c6nc(c(-c7cc(S(=O)(=O)[O-])ccc7F)c7ccc([nH]7)c(-c7cc(S(=O)(=O)[O-])ccc7F)c7nc(c(-c8cc(S(=O)(=O)[O-])ccc8F)c8ccc5[nH]8)C=C7)C=C6)cc4)c3)c2c1
REMARK SMILES IDX 23 1 22 2 21 3 19 4 20 5 18 7 14 8 15 9 92 10 16 11 17 12
REMARK SMILES IDX 13 13 4 14 5 15 94 16 6 17 93 18 7 19 12 20 8 21 11 22 9 23
REMARK SMILES IDX 10 25 3 26 2 27 1 28 24 29 25 30 26 31 27 32 28 34 29 35
REMARK SMILES IDX 30 36 91 37 31 38 90 39 32 40 33 41 34 42 84 43 35 44 89 45
REMARK SMILES IDX 83 46 85 47 36 48 88 49 82 50 81 51 37 53 69 54 49 55 68 56
REMARK SMILES IDX 50 57 53 58 67 59 86 60 51 61 52 62 66 64 87 65 54 66 38 67
REMARK SMILES IDX 39 68 47 69 40 70 46 71 48 72 45 73 41 74 42 75 43 76 44 77
REMARK SMILES IDX 70 78 71 79 79 80 72 81 78 82 80 83 77 84 73 85 74 86 75 87
REMARK SMILES IDX 76 88 55 89 56 90 64 91 57 92 63 93 65 94 62 95 58 96 59 97
REMARK SMILES IDX 60 98 61 99
REMARK H PARENT 21 6 8 24 26 33 85 52 53 63
REMARK Flexibility Score: inf
ROOT
ATOM      1  C   UNL A   1      32.004  29.488  25.291  1.00  0.00     0.023 C 
ENDROOT
BRANCH   1   2
ATOM      2  C   UNL A   1      30.890  28.768  24.543  1.00  0.00     0.116 C 
BRANCH   2   3
ATOM      3  N   UNL A   1      31.299  28.053  23.346  1.00  0.00    -0.352 N 
ATOM      4  C   UNL A   1      31.497  26.707  23.116  1.00  0.00     0.251 C 
ATOM      5  O   UNL A   1      31.813  26.348  21.983  1.00  0.00    -0.269 OA
ATOM      6  H   UNL A   1      31.465  28.628  22.564  1.00  0.00     0.163 HD
BRANCH   4   7
ATOM      7  C   UNL A   1      31.417  25.684  24.196  1.00  0.00     0.041 A 
ATOM      8  C   UNL A   1      31.933  23.494  25.092  1.00  0.00     0.064 A 
ATOM      9  C   UNL A   1      30.985  23.674  26.104  1.00  0.00     0.028 A 
ATOM     10  C   UNL A   1      32.233  24.556  24.241  1.00  0.00     0.042 A 
ATOM     11  C   UNL A   1      30.241  24.854  26.157  1.00  0.00     0.003 A 
ATOM     12  C   UNL A   1      30.431  25.838  25.183  1.00  0.00     0.014 A 
BRANCH   8  13
ATOM     13  N   UNL A   1      32.513  22.248  24.798  1.00  0.00    -0.248 NA
ATOM     14  C   UNL A   1      34.143  18.300  24.617  1.00  0.00     0.120 A 
ATOM     15  C   UNL A   1      35.531  18.164  24.628  1.00  0.00     0.048 A 
ATOM     16  C   UNL A   1      33.553  19.559  24.725  1.00  0.00     0.059 A 
ATOM     17  C   UNL A   1      36.339  19.280  24.831  1.00  0.00     0.030 A 
ATOM     18  C   UNL A   1      34.367  20.685  24.915  1.00  0.00     0.027 A 
ATOM     19  C   UNL A   1      35.766  20.543  24.994  1.00  0.00     0.048 A 
ATOM     20  C   UNL A   1      33.774  22.054  25.081  1.00  0.00     0.075 A 
ATOM     21  N   UNL A   1      36.582  21.648  25.263  1.00  0.00    -0.359 N 
ATOM     22  C   UNL A   1      34.732  23.104  25.585  1.00  0.00     0.050 A 
ATOM     23  C   UNL A   1      36.053  22.868  25.601  1.00  0.00     0.014 A 
ATOM     24  H   UNL A   1      37.559  21.548  25.208  1.00  0.00     0.166 HD
ATOM     25  C   UNL A   1      37.026  23.948  25.989  1.00  0.00     0.064 C 
BRANCH  14  26
ATOM     26  O   UNL A   1      33.348  17.209  24.395  1.00  0.00    -0.494 OA
BRANCH  26  27
ATOM     27  C   UNL A   1      32.978  16.534  25.607  1.00  0.00     0.226 C 
ATOM     28  C   UNL A   1      32.612  15.078  25.351  1.00  0.00     0.049 C 
ENDBRANCH  26  27
ENDBRANCH  14  26
ENDBRANCH   8  13
ENDBRANCH   4   7
ENDBRANCH   2   3
ENDBRANCH   1   2
BRANCH   1  29
ATOM     29  C   UNL A   1      33.264  28.689  25.588  1.00  0.00     0.023 C 
BRANCH  29  30
ATOM     30  C   UNL A   1      34.318  29.388  26.435  1.00  0.00     0.116 C 
BRANCH  30  31
ATOM     31  N   UNL A   1      33.930  30.715  26.891  1.00  0.00    -0.352 N 
ATOM     32  C   UNL A   1      34.506  31.555  27.822  1.00  0.00     0.251 C 
ATOM     33  H   UNL A   1      33.121  31.075  26.461  1.00  0.00     0.163 HD
ATOM     34  O   UNL A   1      33.951  32.607  28.109  1.00  0.00    -0.269 OA
BRANCH  32  35
ATOM     35  C   UNL A   1      35.759  31.161  28.512  1.00  0.00     0.039 A 
ATOM     36  C   UNL A   1      36.924  31.907  28.367  1.00  0.00     0.014 A 
ATOM     37  C   UNL A   1      35.771  30.002  29.295  1.00  0.00     0.014 A 
ATOM     38  C   UNL A   1      38.137  31.377  28.793  1.00  0.00     0.010 A 
ATOM     39  C   UNL A   1      36.978  29.531  29.829  1.00  0.00     0.010 A 
ATOM     40  C   UNL A   1      38.184  30.178  29.524  1.00  0.00    -0.014 A 
BRANCH  40  41
ATOM     41  C   UNL A   1      39.509  29.649  29.956  1.00  0.00     0.031 A 
ATOM     42  C   UNL A   1      40.180  30.143  31.212  1.00  0.00     0.074 A 
ATOM     43  C   UNL A   1      40.068  28.646  29.250  1.00  0.00     0.049 A 
ATOM     44  N   UNL A   1      41.274  29.706  31.783  1.00  0.00    -0.248 NA
ATOM     45  C   UNL A   1      39.555  31.275  31.914  1.00  0.00     0.031 C 
ATOM     46  C   UNL A   1      39.517  28.097  28.009  1.00  0.00     0.029 A 
ATOM     47  N   UNL A   1      41.182  27.881  29.485  1.00  0.00    -0.354 N 
ATOM     48  C   UNL A   1      41.475  30.512  32.900  1.00  0.00     0.074 A 
ATOM     49  C   UNL A   1      40.412  31.492  32.903  1.00  0.00     0.031 C 
ATOM     50  C   UNL A   1      40.241  27.034  27.642  1.00  0.00     0.029 A 
ATOM     51  C   UNL A   1      41.356  26.867  28.571  1.00  0.00     0.049 A 
ATOM     52  H   UNL A   1      41.799  28.042  30.236  1.00  0.00     0.167 HD
ATOM     53  C   UNL A   1      42.445  30.429  33.843  1.00  0.00     0.034 A 
ATOM     54  C   UNL A   1      42.301  25.909  28.482  1.00  0.00     0.034 A 
ATOM     55  C   UNL A   1      43.487  29.432  33.841  1.00  0.00     0.049 A 
ATOM     56  C   UNL A   1      43.370  25.845  29.538  1.00  0.00     0.074 A 
ATOM     57  C   UNL A   1      44.489  29.242  34.777  1.00  0.00     0.029 A 
ATOM     58  N   UNL A   1      43.663  28.457  32.869  1.00  0.00    -0.354 N 
ATOM     59  N   UNL A   1      43.511  26.581  30.615  1.00  0.00    -0.248 NA
ATOM     60  C   UNL A   1      44.414  24.824  29.369  1.00  0.00     0.031 C 
ATOM     61  C   UNL A   1      45.304  28.196  34.341  1.00  0.00     0.029 A 
ATOM     62  C   UNL A   1      44.776  27.685  33.166  1.00  0.00     0.049 A 
ATOM     63  H   UNL A   1      43.083  28.332  32.083  1.00  0.00     0.167 HD
ATOM     64  C   UNL A   1      44.661  26.118  31.247  1.00  0.00     0.074 A 
ATOM     65  C   UNL A   1      45.147  25.005  30.460  1.00  0.00     0.031 C 
ATOM     66  C   UNL A   1      45.266  26.586  32.369  1.00  0.00     0.034 A 
BRANCH  53  67
ATOM     67  C   UNL A   1      42.437  31.424  34.979  1.00  0.00     0.023 A 
ATOM     68  C   UNL A   1      41.347  31.471  35.870  1.00  0.00     0.031 A 
ATOM     69  C   UNL A   1      43.437  32.406  35.100  1.00  0.00     0.131 A 
ATOM     70  C   UNL A   1      41.269  32.496  36.822  1.00  0.00     0.055 A 
ATOM     71  C   UNL A   1      43.372  33.403  36.075  1.00  0.00     0.041 A 
ATOM     72  F   UNL A   1      44.495  32.405  34.274  1.00  0.00    -0.206 F 
ATOM     73  C   UNL A   1      42.279  33.458  36.933  1.00  0.00     0.022 A 
BRANCH  70  74
ATOM     74  S   UNL A   1      39.829  32.660  37.913  1.00  0.00     0.124 S 
ATOM     75  O   UNL A   1      39.456  34.058  37.708  1.00  0.00    -0.237 OA
ATOM     76  O   UNL A   1      38.906  31.680  37.348  1.00  0.00    -0.237 OA
ATOM     77  O   UNL A   1      40.355  32.346  39.237  1.00  0.00    -0.744 OA
ENDBRANCH  70  74
ENDBRANCH  53  67
BRANCH  54  78
ATOM     78  C   UNL A   1      42.223  24.918  27.368  1.00  0.00     0.023 A 
ATOM     79  C   UNL A   1      41.417  23.771  27.480  1.00  0.00     0.031 A 
ATOM     80  C   UNL A   1      43.046  25.040  26.237  1.00  0.00     0.131 A 
ATOM     81  C   UNL A   1      41.517  22.752  26.523  1.00  0.00     0.055 A 
ATOM     82  C   UNL A   1      43.083  24.058  25.245  1.00  0.00     0.041 A 
ATOM     83  F   UNL A   1      43.841  26.111  26.090  1.00  0.00    -0.206 F 
ATOM     84  C   UNL A   1      42.332  22.896  25.398  1.00  0.00     0.022 A 
BRANCH  81  85
ATOM     85  S   UNL A   1      40.721  21.144  26.798  1.00  0.00     0.124 S 
ATOM     86  O   UNL A   1      41.625  20.235  26.101  1.00  0.00    -0.237 OA
ATOM     87  O   UNL A   1      40.731  21.050  28.256  1.00  0.00    -0.237 OA
ATOM     88  O   UNL A   1      39.401  21.307  26.198  1.00  0.00    -0.744 OA
ENDBRANCH  81  85
ENDBRANCH  54  78
BRANCH  66  89
ATOM     89  C   UNL A   1      46.552  25.930  32.809  1.00  0.00     0.023 A 
ATOM     90  C   UNL A   1      46.534  24.874  33.739  1.00  0.00     0.031 A 
ATOM     91  C   UNL A   1      47.800  26.432  32.397  1.00  0.00     0.131 A 
ATOM     92  C   UNL A   1      47.740  24.374  34.249  1.00  0.00     0.055 A 
ATOM     93  C   UNL A   1      48.998  25.902  32.875  1.00  0.00     0.041 A 
ATOM     94  F   UNL A   1      47.869  27.445  31.519  1.00  0.00    -0.206 F 
ATOM     95  C   UNL A   1      48.971  24.877  33.815  1.00  0.00     0.022 A 
BRANCH  92  96
ATOM     96  S   UNL A   1      47.756  23.115  35.555  1.00  0.00     0.124 S 
ATOM     97  O   UNL A   1      49.079  22.521  35.383  1.00  0.00    -0.237 OA
ATOM     98  O   UNL A   1      47.587  23.919  36.763  1.00  0.00    -0.237 OA
ATOM     99  O   UNL A   1      46.633  22.246  35.220  1.00  0.00    -0.744 OA
ENDBRANCH  92  96
ENDBRANCH  66  89
ENDBRANCH  40  41
ENDBRANCH  32  35
ENDBRANCH  30  31
ENDBRANCH  29  30
ENDBRANCH   1  29
TORSDOF 17
ENDMDL
