MODEL 1
REMARK VINA RESULT:     -11.1      0.000      0.000
REMARK SMILES CC[C@H](C)[NH+]1CCN(C(=O)CC(=O)NCCCCNC(=O)c2ccc(-c3c4nc(c(-c5cc(S(=O)(=O)[O-])ccc5F)c5ccc([nH]5)c(-c5cc(S(=O)(=O)[O-])ccc5F)c5nc(c(-c6cc(S(=O)(=O)[O-])ccc6F)c6ccc3[nH]6)C=C5)C=C4)cc2)CC1
REMARK SMILES IDX 16 1 15 2 14 3 12 4 13 5 11 7 9 8 5 9 6 10 86 11 7 13 85 14
REMARK SMILES IDX 8 15 10 16 3 17 4 18 2 19 1 20 17 21 18 22 19 23 20 24 21 26
REMARK SMILES IDX 22 27 23 28 84 29 24 30 83 31 25 32 26 33 27 34 77 35 28 36
REMARK SMILES IDX 82 37 76 38 78 39 29 40 81 41 75 42 74 43 30 45 62 46 42 47
REMARK SMILES IDX 61 48 43 49 46 50 60 51 79 52 44 53 45 54 59 56 80 57 47 58
REMARK SMILES IDX 31 59 32 60 40 61 33 62 39 63 41 64 38 65 34 66 35 67 36 68
REMARK SMILES IDX 37 69 63 70 64 71 72 72 65 73 71 74 73 75 70 76 66 77 67 78
REMARK SMILES IDX 68 79 69 80 48 81 49 82 57 83 50 84 56 85 58 86 55 87 51 88
REMARK SMILES IDX 52 89 53 90 54 91
REMARK H PARENT 14 6 5 12 19 25 78 44 46 55
REMARK Flexibility Score: inf
ROOT
ATOM      1  C   UNL A   1      31.748  28.041  26.425  1.00  0.00     0.023 C 
ENDROOT
BRANCH   1   2
ATOM      2  C   UNL A   1      31.087  26.860  25.714  1.00  0.00     0.116 C 
BRANCH   2   3
ATOM      3  N   UNL A   1      30.898  25.733  26.612  1.00  0.00    -0.356 N 
ATOM      4  C   UNL A   1      30.910  24.400  26.334  1.00  0.00     0.229 C 
ATOM      5  O   UNL A   1      30.656  23.608  27.243  1.00  0.00    -0.275 OA
ATOM      6  H   UNL A   1      30.740  25.967  27.555  1.00  0.00     0.163 HD
BRANCH   4   7
ATOM      7  C   UNL A   1      31.279  23.903  24.962  1.00  0.00     0.200 C 
BRANCH   7   8
ATOM      8  C   UNL A   1      32.730  23.544  24.779  1.00  0.00     0.232 C 
ATOM      9  N   UNL A   1      34.245  19.543  25.408  1.00  0.00    -0.330 N 
ATOM     10  C   UNL A   1      35.083  20.743  25.247  1.00  0.00     0.284 C 
ATOM     11  C   UNL A   1      32.902  19.962  25.884  1.00  0.00     0.284 C 
ATOM     12  H   UNL A   1      34.740  18.973  26.094  1.00  0.00     0.348 HD
ATOM     13  C   UNL A   1      34.473  21.872  24.403  1.00  0.00     0.181 C 
ATOM     14  C   UNL A   1      32.224  21.069  25.042  1.00  0.00     0.181 C 
ATOM     15  N   UNL A   1      33.113  22.217  24.819  1.00  0.00    -0.331 N 
ATOM     16  O   UNL A   1      33.554  24.449  24.611  1.00  0.00    -0.274 OA
BRANCH   9  17
ATOM     17  C   UNL A   1      34.146  18.603  24.265  1.00  0.00     0.180 C 
ATOM     18  C   UNL A   1      34.889  17.265  24.398  1.00  0.00     0.075 C 
BRANCH  17  19
ATOM     19  C   UNL A   1      32.634  18.393  23.958  1.00  0.00     0.061 C 
ATOM     20  C   UNL A   1      32.270  18.165  22.494  1.00  0.00     0.010 C 
ENDBRANCH  17  19
ENDBRANCH   9  17
ENDBRANCH   7   8
ENDBRANCH   4   7
ENDBRANCH   2   3
ENDBRANCH   1   2
BRANCH   1  21
ATOM     21  C   UNL A   1      33.226  27.832  26.777  1.00  0.00     0.023 C 
BRANCH  21  22
ATOM     22  C   UNL A   1      34.190  28.872  26.211  1.00  0.00     0.116 C 
BRANCH  22  23
ATOM     23  N   UNL A   1      33.869  30.229  26.618  1.00  0.00    -0.352 N 
ATOM     24  C   UNL A   1      34.510  31.028  27.537  1.00  0.00     0.251 C 
ATOM     25  H   UNL A   1      33.086  30.632  26.177  1.00  0.00     0.163 HD
ATOM     26  O   UNL A   1      34.022  32.111  27.848  1.00  0.00    -0.269 OA
BRANCH  24  27
ATOM     27  C   UNL A   1      35.761  30.558  28.174  1.00  0.00     0.039 A 
ATOM     28  C   UNL A   1      35.678  29.812  29.353  1.00  0.00     0.014 A 
ATOM     29  C   UNL A   1      37.006  30.833  27.605  1.00  0.00     0.014 A 
ATOM     30  C   UNL A   1      36.839  29.278  29.921  1.00  0.00     0.010 A 
ATOM     31  C   UNL A   1      38.154  30.248  28.135  1.00  0.00     0.010 A 
ATOM     32  C   UNL A   1      38.083  29.460  29.295  1.00  0.00    -0.014 A 
BRANCH  32  33
ATOM     33  C   UNL A   1      39.322  28.841  29.834  1.00  0.00     0.031 A 
ATOM     34  C   UNL A   1      39.979  29.416  31.059  1.00  0.00     0.074 A 
ATOM     35  C   UNL A   1      39.896  27.811  29.183  1.00  0.00     0.049 A 
ATOM     36  N   UNL A   1      41.116  29.094  31.621  1.00  0.00    -0.248 NA
ATOM     37  C   UNL A   1      39.272  30.523  31.718  1.00  0.00     0.031 C 
ATOM     38  C   UNL A   1      39.371  27.179  27.970  1.00  0.00     0.029 A 
ATOM     39  N   UNL A   1      41.053  27.119  29.441  1.00  0.00    -0.354 N 
ATOM     40  C   UNL A   1      41.268  29.967  32.693  1.00  0.00     0.074 A 
ATOM     41  C   UNL A   1      40.138  30.872  32.655  1.00  0.00     0.031 C 
ATOM     42  C   UNL A   1      40.190  26.178  27.607  1.00  0.00     0.029 A 
ATOM     43  C   UNL A   1      41.321  26.127  28.528  1.00  0.00     0.049 A 
ATOM     44  H   UNL A   1      41.636  27.315  30.210  1.00  0.00     0.167 HD
ATOM     45  C   UNL A   1      42.244  29.993  33.637  1.00  0.00     0.034 A 
ATOM     46  C   UNL A   1      42.366  25.282  28.434  1.00  0.00     0.034 A 
ATOM     47  C   UNL A   1      43.363  29.083  33.660  1.00  0.00     0.049 A 
ATOM     48  C   UNL A   1      43.467  25.362  29.459  1.00  0.00     0.074 A 
ATOM     49  C   UNL A   1      44.389  28.996  34.585  1.00  0.00     0.029 A 
ATOM     50  N   UNL A   1      43.609  28.099  32.708  1.00  0.00    -0.354 N 
ATOM     51  N   UNL A   1      43.584  26.174  30.485  1.00  0.00    -0.248 NA
ATOM     52  C   UNL A   1      44.574  24.407  29.318  1.00  0.00     0.031 C 
ATOM     53  C   UNL A   1      45.284  28.009  34.160  1.00  0.00     0.029 A 
ATOM     54  C   UNL A   1      44.782  27.424  33.009  1.00  0.00     0.049 A 
ATOM     55  H   UNL A   1      43.032  27.910  31.932  1.00  0.00     0.167 HD
ATOM     56  C   UNL A   1      44.761  25.803  31.129  1.00  0.00     0.074 A 
ATOM     57  C   UNL A   1      45.312  24.692  30.380  1.00  0.00     0.031 C 
ATOM     58  C   UNL A   1      45.328  26.325  32.247  1.00  0.00     0.034 A 
BRANCH  45  59
ATOM     59  C   UNL A   1      42.144  31.067  34.695  1.00  0.00     0.023 A 
ATOM     60  C   UNL A   1      42.682  32.351  34.492  1.00  0.00     0.031 A 
ATOM     61  C   UNL A   1      41.560  30.793  35.945  1.00  0.00     0.131 A 
ATOM     62  C   UNL A   1      42.719  33.272  35.548  1.00  0.00     0.055 A 
ATOM     63  C   UNL A   1      41.515  31.748  36.963  1.00  0.00     0.041 A 
ATOM     64  F   UNL A   1      41.045  29.582  36.208  1.00  0.00    -0.206 F 
ATOM     65  C   UNL A   1      42.116  32.990  36.776  1.00  0.00     0.022 A 
BRANCH  62  66
ATOM     66  S   UNL A   1      43.727  34.768  35.353  1.00  0.00     0.124 S 
ATOM     67  O   UNL A   1      44.755  34.310  34.421  1.00  0.00    -0.237 OA
ATOM     68  O   UNL A   1      42.766  35.728  34.823  1.00  0.00    -0.237 OA
ATOM     69  O   UNL A   1      44.202  35.041  36.708  1.00  0.00    -0.744 OA
ENDBRANCH  62  66
ENDBRANCH  45  59
BRANCH  46  70
ATOM     70  C   UNL A   1      42.428  24.282  27.330  1.00  0.00     0.023 A 
ATOM     71  C   UNL A   1      41.637  23.123  27.367  1.00  0.00     0.031 A 
ATOM     72  C   UNL A   1      43.299  24.455  26.240  1.00  0.00     0.131 A 
ATOM     73  C   UNL A   1      41.760  22.162  26.353  1.00  0.00     0.055 A 
ATOM     74  C   UNL A   1      43.383  23.517  25.209  1.00  0.00     0.041 A 
ATOM     75  F   UNL A   1      44.071  25.550  26.154  1.00  0.00    -0.206 F 
ATOM     76  C   UNL A   1      42.618  22.356  25.268  1.00  0.00     0.022 A 
BRANCH  73  77
ATOM     77  S   UNL A   1      40.823  20.615  26.505  1.00  0.00     0.124 S 
ATOM     78  O   UNL A   1      41.587  19.720  25.643  1.00  0.00    -0.237 OA
ATOM     79  O   UNL A   1      40.905  20.352  27.938  1.00  0.00    -0.237 OA
ATOM     80  O   UNL A   1      39.494  20.973  26.015  1.00  0.00    -0.744 OA
ENDBRANCH  73  77
ENDBRANCH  46  70
BRANCH  58  81
ATOM     81  C   UNL A   1      46.585  25.661  32.753  1.00  0.00     0.023 A 
ATOM     82  C   UNL A   1      47.843  25.922  32.185  1.00  0.00     0.031 A 
ATOM     83  C   UNL A   1      46.515  24.744  33.816  1.00  0.00     0.131 A 
ATOM     84  C   UNL A   1      48.976  25.236  32.652  1.00  0.00     0.055 A 
ATOM     85  C   UNL A   1      47.652  24.106  34.312  1.00  0.00     0.041 A 
ATOM     86  F   UNL A   1      45.337  24.455  34.394  1.00  0.00    -0.206 F 
ATOM     87  C   UNL A   1      48.890  24.341  33.723  1.00  0.00     0.022 A 
BRANCH  84  88
ATOM     88  S   UNL A   1      50.555  25.468  31.789  1.00  0.00     0.124 S 
ATOM     89  O   UNL A   1      50.878  24.106  31.374  1.00  0.00    -0.237 OA
ATOM     90  O   UNL A   1      50.194  26.392  30.719  1.00  0.00    -0.237 OA
ATOM     91  O   UNL A   1      51.430  26.026  32.819  1.00  0.00    -0.744 OA
ENDBRANCH  84  88
ENDBRANCH  58  81
ENDBRANCH  32  33
ENDBRANCH  24  27
ENDBRANCH  22  23
ENDBRANCH  21  22
ENDBRANCH   1  21
TORSDOF 17
ENDMDL
MODEL 2
REMARK VINA RESULT:     -11.0      3.743      8.807
REMARK SMILES CC[C@H](C)[NH+]1CCN(C(=O)CC(=O)NCCCCNC(=O)c2ccc(-c3c4nc(c(-c5cc(S(=O)(=O)[O-])ccc5F)c5ccc([nH]5)c(-c5cc(S(=O)(=O)[O-])ccc5F)c5nc(c(-c6cc(S(=O)(=O)[O-])ccc6F)c6ccc3[nH]6)C=C5)C=C4)cc2)CC1
REMARK SMILES IDX 16 1 15 2 14 3 12 4 13 5 11 7 9 8 5 9 6 10 86 11 7 13 85 14
REMARK SMILES IDX 8 15 10 16 3 17 4 18 2 19 1 20 17 21 18 22 19 23 20 24 21 26
REMARK SMILES IDX 22 27 23 28 84 29 24 30 83 31 25 32 26 33 27 34 77 35 28 36
REMARK SMILES IDX 82 37 76 38 78 39 29 40 81 41 75 42 74 43 30 45 62 46 42 47
REMARK SMILES IDX 61 48 43 49 46 50 60 51 79 52 44 53 45 54 59 56 80 57 47 58
REMARK SMILES IDX 31 59 32 60 40 61 33 62 39 63 41 64 38 65 34 66 35 67 36 68
REMARK SMILES IDX 37 69 63 70 64 71 72 72 65 73 71 74 73 75 70 76 66 77 67 78
REMARK SMILES IDX 68 79 69 80 48 81 49 82 57 83 50 84 56 85 58 86 55 87 51 88
REMARK SMILES IDX 52 89 53 90 54 91
REMARK H PARENT 14 6 5 12 19 25 78 44 46 55
REMARK Flexibility Score: inf
ROOT
ATOM      1  C   UNL A   1      31.769  30.030  26.638  1.00  0.00     0.023 C 
ENDROOT
BRANCH   1   2
ATOM      2  C   UNL A   1      31.895  29.357  25.271  1.00  0.00     0.116 C 
BRANCH   2   3
ATOM      3  N   UNL A   1      31.033  29.985  24.285  1.00  0.00    -0.356 N 
ATOM      4  C   UNL A   1      30.111  29.415  23.459  1.00  0.00     0.229 C 
ATOM      5  O   UNL A   1      29.533  30.131  22.641  1.00  0.00    -0.275 OA
ATOM      6  H   UNL A   1      31.128  30.961  24.202  1.00  0.00     0.163 HD
BRANCH   4   7
ATOM      7  C   UNL A   1      29.767  27.955  23.583  1.00  0.00     0.200 C 
BRANCH   7   8
ATOM      8  C   UNL A   1      30.728  27.010  22.910  1.00  0.00     0.232 C 
ATOM      9  N   UNL A   1      33.059  24.096  25.094  1.00  0.00    -0.330 N 
ATOM     10  C   UNL A   1      33.279  24.462  23.686  1.00  0.00     0.284 C 
ATOM     11  C   UNL A   1      32.362  25.219  25.774  1.00  0.00     0.284 C 
ATOM     12  H   UNL A   1      33.994  23.937  25.469  1.00  0.00     0.348 HD
ATOM     13  C   UNL A   1      32.037  24.946  22.923  1.00  0.00     0.181 C 
ATOM     14  C   UNL A   1      31.079  25.717  25.067  1.00  0.00     0.181 C 
ATOM     15  N   UNL A   1      31.302  25.988  23.641  1.00  0.00    -0.331 N 
ATOM     16  O   UNL A   1      30.996  27.179  21.716  1.00  0.00    -0.274 OA
BRANCH   9  17
ATOM     17  C   UNL A   1      32.405  22.798  25.385  1.00  0.00     0.180 C 
ATOM     18  C   UNL A   1      32.787  21.610  24.489  1.00  0.00     0.075 C 
BRANCH  17  19
ATOM     19  C   UNL A   1      32.637  22.480  26.891  1.00  0.00     0.061 C 
ATOM     20  C   UNL A   1      34.075  22.178  27.302  1.00  0.00     0.010 C 
ENDBRANCH  17  19
ENDBRANCH   9  17
ENDBRANCH   7   8
ENDBRANCH   4   7
ENDBRANCH   2   3
ENDBRANCH   1   2
BRANCH   1  21
ATOM     21  C   UNL A   1      31.612  31.555  26.591  1.00  0.00     0.023 C 
BRANCH  21  22
ATOM     22  C   UNL A   1      32.837  32.355  27.028  1.00  0.00     0.116 C 
BRANCH  22  23
ATOM     23  N   UNL A   1      32.515  33.714  27.431  1.00  0.00    -0.352 N 
ATOM     24  C   UNL A   1      33.086  34.476  28.425  1.00  0.00     0.251 C 
ATOM     25  H   UNL A   1      31.790  34.148  26.926  1.00  0.00     0.163 HD
ATOM     26  O   UNL A   1      32.601  35.567  28.710  1.00  0.00    -0.269 OA
BRANCH  24  27
ATOM     27  C   UNL A   1      34.257  33.957  29.169  1.00  0.00     0.039 A 
ATOM     28  C   UNL A   1      34.052  32.987  30.154  1.00  0.00     0.014 A 
ATOM     29  C   UNL A   1      35.548  34.409  28.886  1.00  0.00     0.014 A 
ATOM     30  C   UNL A   1      35.150  32.416  30.804  1.00  0.00     0.010 A 
ATOM     31  C   UNL A   1      36.643  33.793  29.487  1.00  0.00     0.010 A 
ATOM     32  C   UNL A   1      36.457  32.787  30.448  1.00  0.00    -0.014 A 
BRANCH  32  33
ATOM     33  C   UNL A   1      37.644  32.141  31.068  1.00  0.00     0.031 A 
ATOM     34  C   UNL A   1      38.415  31.098  30.307  1.00  0.00     0.074 A 
ATOM     35  C   UNL A   1      37.985  32.438  32.337  1.00  0.00     0.049 A 
ATOM     36  N   UNL A   1      39.406  30.341  30.706  1.00  0.00    -0.248 NA
ATOM     37  C   UNL A   1      37.989  30.854  28.922  1.00  0.00     0.031 C 
ATOM     38  C   UNL A   1      37.302  33.415  33.190  1.00  0.00     0.029 A 
ATOM     39  N   UNL A   1      38.983  31.943  33.137  1.00  0.00    -0.354 N 
ATOM     40  C   UNL A   1      39.715  29.523  29.625  1.00  0.00     0.074 A 
ATOM     41  C   UNL A   1      38.759  29.832  28.582  1.00  0.00     0.031 C 
ATOM     42  C   UNL A   1      37.918  33.463  34.382  1.00  0.00     0.029 A 
ATOM     43  C   UNL A   1      39.005  32.489  34.399  1.00  0.00     0.049 A 
ATOM     44  H   UNL A   1      39.625  31.259  32.836  1.00  0.00     0.167 HD
ATOM     45  C   UNL A   1      40.720  28.617  29.502  1.00  0.00     0.034 A 
ATOM     46  C   UNL A   1      39.802  32.227  35.454  1.00  0.00     0.034 A 
ATOM     47  C   UNL A   1      41.666  28.321  30.552  1.00  0.00     0.049 A 
ATOM     48  C   UNL A   1      40.877  31.180  35.317  1.00  0.00     0.074 A 
ATOM     49  C   UNL A   1      42.741  27.450  30.527  1.00  0.00     0.029 A 
ATOM     50  N   UNL A   1      41.647  28.886  31.822  1.00  0.00    -0.354 N 
ATOM     51  N   UNL A   1      41.176  30.432  34.279  1.00  0.00    -0.248 NA
ATOM     52  C   UNL A   1      41.725  30.945  36.493  1.00  0.00     0.031 C 
ATOM     53  C   UNL A   1      43.331  27.441  31.795  1.00  0.00     0.029 A 
ATOM     54  C   UNL A   1      42.671  28.361  32.595  1.00  0.00     0.049 A 
ATOM     55  H   UNL A   1      40.999  29.561  32.129  1.00  0.00     0.167 HD
ATOM     56  C   UNL A   1      42.269  29.664  34.669  1.00  0.00     0.074 A 
ATOM     57  C   UNL A   1      42.579  30.043  36.032  1.00  0.00     0.031 C 
ATOM     58  C   UNL A   1      42.963  28.739  33.958  1.00  0.00     0.034 A 
BRANCH  45  59
ATOM     59  C   UNL A   1      40.812  27.869  28.193  1.00  0.00     0.023 A 
ATOM     60  C   UNL A   1      40.257  26.585  28.041  1.00  0.00     0.031 A 
ATOM     61  C   UNL A   1      41.512  28.412  27.102  1.00  0.00     0.131 A 
ATOM     62  C   UNL A   1      40.499  25.850  26.871  1.00  0.00     0.055 A 
ATOM     63  C   UNL A   1      41.668  27.712  25.903  1.00  0.00     0.041 A 
ATOM     64  F   UNL A   1      42.081  29.626  27.189  1.00  0.00    -0.206 F 
ATOM     65  C   UNL A   1      41.179  26.414  25.790  1.00  0.00     0.022 A 
BRANCH  62  66
ATOM     66  S   UNL A   1      40.072  24.087  26.858  1.00  0.00     0.124 S 
ATOM     67  O   UNL A   1      38.803  24.097  26.132  1.00  0.00    -0.237 OA
ATOM     68  O   UNL A   1      41.204  23.493  26.157  1.00  0.00    -0.237 OA
ATOM     69  O   UNL A   1      39.967  23.749  28.276  1.00  0.00    -0.744 OA
ENDBRANCH  62  66
ENDBRANCH  45  59
BRANCH  46  70
ATOM     70  C   UNL A   1      39.620  32.965  36.735  1.00  0.00     0.023 A 
ATOM     71  C   UNL A   1      38.753  32.479  37.726  1.00  0.00     0.031 A 
ATOM     72  C   UNL A   1      40.286  34.180  36.977  1.00  0.00     0.131 A 
ATOM     73  C   UNL A   1      38.543  33.222  38.897  1.00  0.00     0.055 A 
ATOM     74  C   UNL A   1      40.109  34.893  38.164  1.00  0.00     0.041 A 
ATOM     75  F   UNL A   1      41.132  34.683  36.064  1.00  0.00    -0.206 F 
ATOM     76  C   UNL A   1      39.225  34.420  39.128  1.00  0.00     0.022 A 
BRANCH  73  77
ATOM     77  S   UNL A   1      37.312  32.632  40.092  1.00  0.00     0.124 S 
ATOM     78  O   UNL A   1      37.235  33.756  41.018  1.00  0.00    -0.237 OA
ATOM     79  O   UNL A   1      36.144  32.417  39.242  1.00  0.00    -0.237 OA
ATOM     80  O   UNL A   1      37.917  31.417  40.632  1.00  0.00    -0.744 OA
ENDBRANCH  73  77
ENDBRANCH  46  70
BRANCH  58  81
ATOM     81  C   UNL A   1      44.159  28.112  34.632  1.00  0.00     0.023 A 
ATOM     82  C   UNL A   1      44.069  26.889  35.319  1.00  0.00     0.031 A 
ATOM     83  C   UNL A   1      45.407  28.759  34.592  1.00  0.00     0.131 A 
ATOM     84  C   UNL A   1      45.196  26.375  35.979  1.00  0.00     0.055 A 
ATOM     85  C   UNL A   1      46.537  28.216  35.204  1.00  0.00     0.041 A 
ATOM     86  F   UNL A   1      45.548  29.931  33.951  1.00  0.00    -0.206 F 
ATOM     87  C   UNL A   1      46.433  27.023  35.913  1.00  0.00     0.022 A 
BRANCH  84  88
ATOM     88  S   UNL A   1      45.008  24.884  36.997  1.00  0.00     0.124 S 
ATOM     89  O   UNL A   1      44.698  23.870  35.994  1.00  0.00    -0.237 OA
ATOM     90  O   UNL A   1      46.317  24.773  37.633  1.00  0.00    -0.237 OA
ATOM     91  O   UNL A   1      43.908  25.221  37.899  1.00  0.00    -0.744 OA
ENDBRANCH  84  88
ENDBRANCH  58  81
ENDBRANCH  32  33
ENDBRANCH  24  27
ENDBRANCH  22  23
ENDBRANCH  21  22
ENDBRANCH   1  21
TORSDOF 17
ENDMDL
MODEL 3
REMARK VINA RESULT:     -11.0      1.986      2.292
REMARK SMILES CC[C@H](C)[NH+]1CCN(C(=O)CC(=O)NCCCCNC(=O)c2ccc(-c3c4nc(c(-c5cc(S(=O)(=O)[O-])ccc5F)c5ccc([nH]5)c(-c5cc(S(=O)(=O)[O-])ccc5F)c5nc(c(-c6cc(S(=O)(=O)[O-])ccc6F)c6ccc3[nH]6)C=C5)C=C4)cc2)CC1
REMARK SMILES IDX 16 1 15 2 14 3 12 4 13 5 11 7 9 8 5 9 6 10 86 11 7 13 85 14
REMARK SMILES IDX 8 15 10 16 3 17 4 18 2 19 1 20 17 21 18 22 19 23 20 24 21 26
REMARK SMILES IDX 22 27 23 28 84 29 24 30 83 31 25 32 26 33 27 34 77 35 28 36
REMARK SMILES IDX 82 37 76 38 78 39 29 40 81 41 75 42 74 43 30 45 62 46 42 47
REMARK SMILES IDX 61 48 43 49 46 50 60 51 79 52 44 53 45 54 59 56 80 57 47 58
REMARK SMILES IDX 31 59 32 60 40 61 33 62 39 63 41 64 38 65 34 66 35 67 36 68
REMARK SMILES IDX 37 69 63 70 64 71 72 72 65 73 71 74 73 75 70 76 66 77 67 78
REMARK SMILES IDX 68 79 69 80 48 81 49 82 57 83 50 84 56 85 58 86 55 87 51 88
REMARK SMILES IDX 52 89 53 90 54 91
REMARK H PARENT 14 6 5 12 19 25 78 44 46 55
REMARK Flexibility Score: inf
ROOT
ATOM      1  C   UNL A   1      31.814  28.070  26.462  1.00  0.00     0.023 C 
ENDROOT
BRANCH   1   2
ATOM      2  C   UNL A   1      31.017  27.002  25.712  1.00  0.00     0.116 C 
BRANCH   2   3
ATOM      3  N   UNL A   1      30.759  25.843  26.549  1.00  0.00    -0.356 N 
ATOM      4  C   UNL A   1      30.687  24.528  26.199  1.00  0.00     0.229 C 
ATOM      5  O   UNL A   1      30.385  23.705  27.065  1.00  0.00    -0.275 OA
ATOM      6  H   UNL A   1      30.618  26.034  27.504  1.00  0.00     0.163 HD
BRANCH   4   7
ATOM      7  C   UNL A   1      31.022  24.085  24.801  1.00  0.00     0.200 C 
BRANCH   7   8
ATOM      8  C   UNL A   1      32.464  23.715  24.573  1.00  0.00     0.232 C 
ATOM      9  N   UNL A   1      34.100  19.875  25.703  1.00  0.00    -0.330 N 
ATOM     10  C   UNL A   1      34.900  21.043  25.301  1.00  0.00     0.284 C 
ATOM     11  C   UNL A   1      32.784  20.350  26.203  1.00  0.00     0.284 C 
ATOM     12  H   UNL A   1      34.651  19.423  26.432  1.00  0.00     0.348 HD
ATOM     13  C   UNL A   1      34.211  22.022  24.338  1.00  0.00     0.181 C 
ATOM     14  C   UNL A   1      32.028  21.307  25.250  1.00  0.00     0.181 C 
ATOM     15  N   UNL A   1      32.876  22.414  24.790  1.00  0.00    -0.331 N 
ATOM     16  O   UNL A   1      33.257  24.591  24.210  1.00  0.00    -0.274 OA
BRANCH   9  17
ATOM     17  C   UNL A   1      33.942  18.768  24.729  1.00  0.00     0.180 C 
ATOM     18  C   UNL A   1      35.215  18.007  24.328  1.00  0.00     0.075 C 
BRANCH  17  19
ATOM     19  C   UNL A   1      32.848  17.808  25.281  1.00  0.00     0.061 C 
ATOM     20  C   UNL A   1      32.850  16.390  24.719  1.00  0.00     0.010 C 
ENDBRANCH  17  19
ENDBRANCH   9  17
ENDBRANCH   7   8
ENDBRANCH   4   7
ENDBRANCH   2   3
ENDBRANCH   1   2
BRANCH   1  21
ATOM     21  C   UNL A   1      33.323  27.813  26.533  1.00  0.00     0.023 C 
BRANCH  21  22
ATOM     22  C   UNL A   1      34.208  28.936  25.996  1.00  0.00     0.116 C 
BRANCH  22  23
ATOM     23  N   UNL A   1      33.799  30.253  26.454  1.00  0.00    -0.352 N 
ATOM     24  C   UNL A   1      34.357  31.034  27.440  1.00  0.00     0.251 C 
ATOM     25  H   UNL A   1      33.017  30.639  25.997  1.00  0.00     0.163 HD
ATOM     26  O   UNL A   1      33.800  32.074  27.780  1.00  0.00    -0.269 OA
BRANCH  24  27
ATOM     27  C   UNL A   1      35.601  30.594  28.111  1.00  0.00     0.039 A 
ATOM     28  C   UNL A   1      35.505  29.776  29.240  1.00  0.00     0.014 A 
ATOM     29  C   UNL A   1      36.854  30.970  27.622  1.00  0.00     0.014 A 
ATOM     30  C   UNL A   1      36.666  29.272  29.833  1.00  0.00     0.010 A 
ATOM     31  C   UNL A   1      38.007  30.416  28.174  1.00  0.00     0.010 A 
ATOM     32  C   UNL A   1      37.926  29.558  29.282  1.00  0.00    -0.014 A 
BRANCH  32  33
ATOM     33  C   UNL A   1      39.171  28.975  29.846  1.00  0.00     0.031 A 
ATOM     34  C   UNL A   1      39.765  29.545  31.106  1.00  0.00     0.074 A 
ATOM     35  C   UNL A   1      39.807  27.985  29.190  1.00  0.00     0.049 A 
ATOM     36  N   UNL A   1      40.896  29.254  31.696  1.00  0.00    -0.248 NA
ATOM     37  C   UNL A   1      38.994  30.605  31.767  1.00  0.00     0.031 C 
ATOM     38  C   UNL A   1      39.346  27.363  27.946  1.00  0.00     0.029 A 
ATOM     39  N   UNL A   1      40.982  27.333  29.469  1.00  0.00    -0.354 N 
ATOM     40  C   UNL A   1      40.979  30.104  32.793  1.00  0.00     0.074 A 
ATOM     41  C   UNL A   1      39.815  30.965  32.741  1.00  0.00     0.031 C 
ATOM     42  C   UNL A   1      40.216  26.406  27.586  1.00  0.00     0.029 A 
ATOM     43  C   UNL A   1      41.319  26.377  28.542  1.00  0.00     0.049 A 
ATOM     44  H   UNL A   1      41.533  27.533  30.262  1.00  0.00     0.167 HD
ATOM     45  C   UNL A   1      41.922  30.146  33.769  1.00  0.00     0.034 A 
ATOM     46  C   UNL A   1      42.400  25.576  28.462  1.00  0.00     0.034 A 
ATOM     47  C   UNL A   1      43.076  29.280  33.807  1.00  0.00     0.049 A 
ATOM     48  C   UNL A   1      43.464  25.673  29.524  1.00  0.00     0.074 A 
ATOM     49  C   UNL A   1      44.075  29.211  34.763  1.00  0.00     0.029 A 
ATOM     50  N   UNL A   1      43.391  28.332  32.841  1.00  0.00    -0.354 N 
ATOM     51  N   UNL A   1      43.515  26.463  30.572  1.00  0.00    -0.248 NA
ATOM     52  C   UNL A   1      44.612  24.767  29.396  1.00  0.00     0.031 C 
ATOM     53  C   UNL A   1      45.022  28.271  34.344  1.00  0.00     0.029 A 
ATOM     54  C   UNL A   1      44.581  27.696  33.163  1.00  0.00     0.049 A 
ATOM     55  H   UNL A   1      42.848  28.140  32.042  1.00  0.00     0.167 HD
ATOM     56  C   UNL A   1      44.685  26.123  31.245  1.00  0.00     0.074 A 
ATOM     57  C   UNL A   1      45.304  25.055  30.488  1.00  0.00     0.031 C 
ATOM     58  C   UNL A   1      45.194  26.639  32.394  1.00  0.00     0.034 A 
BRANCH  45  59
ATOM     59  C   UNL A   1      41.745  31.188  34.849  1.00  0.00     0.023 A 
ATOM     60  C   UNL A   1      40.651  31.152  35.732  1.00  0.00     0.031 A 
ATOM     61  C   UNL A   1      42.642  32.265  34.963  1.00  0.00     0.131 A 
ATOM     62  C   UNL A   1      40.425  32.218  36.615  1.00  0.00     0.055 A 
ATOM     63  C   UNL A   1      42.464  33.277  35.909  1.00  0.00     0.041 A 
ATOM     64  F   UNL A   1      43.697  32.367  34.138  1.00  0.00    -0.206 F 
ATOM     65  C   UNL A   1      41.338  33.269  36.728  1.00  0.00     0.022 A 
BRANCH  62  66
ATOM     66  S   UNL A   1      38.830  32.301  37.475  1.00  0.00     0.124 S 
ATOM     67  O   UNL A   1      38.202  31.052  37.053  1.00  0.00    -0.237 OA
ATOM     68  O   UNL A   1      39.231  32.374  38.875  1.00  0.00    -0.237 OA
ATOM     69  O   UNL A   1      38.213  33.513  36.938  1.00  0.00    -0.744 OA
ENDBRANCH  62  66
ENDBRANCH  45  59
BRANCH  46  70
ATOM     70  C   UNL A   1      42.537  24.607  27.337  1.00  0.00     0.023 A 
ATOM     71  C   UNL A   1      41.964  23.329  27.417  1.00  0.00     0.031 A 
ATOM     72  C   UNL A   1      43.268  24.934  26.180  1.00  0.00     0.131 A 
ATOM     73  C   UNL A   1      42.161  22.408  26.377  1.00  0.00     0.055 A 
ATOM     74  C   UNL A   1      43.422  24.030  25.128  1.00  0.00     0.041 A 
ATOM     75  F   UNL A   1      43.829  26.146  26.052  1.00  0.00    -0.206 F 
ATOM     76  C   UNL A   1      42.876  22.754  25.228  1.00  0.00     0.022 A 
BRANCH  73  77
ATOM     77  S   UNL A   1      41.522  20.722  26.577  1.00  0.00     0.124 S 
ATOM     78  O   UNL A   1      40.083  20.940  26.495  1.00  0.00    -0.237 OA
ATOM     79  O   UNL A   1      42.133  20.031  25.447  1.00  0.00    -0.237 OA
ATOM     80  O   UNL A   1      42.021  20.323  27.891  1.00  0.00    -0.744 OA
ENDBRANCH  73  77
ENDBRANCH  46  70
BRANCH  58  81
ATOM     81  C   UNL A   1      46.461  26.013  32.924  1.00  0.00     0.023 A 
ATOM     82  C   UNL A   1      46.437  24.912  33.796  1.00  0.00     0.031 A 
ATOM     83  C   UNL A   1      47.712  26.538  32.553  1.00  0.00     0.131 A 
ATOM     84  C   UNL A   1      47.640  24.401  34.308  1.00  0.00     0.055 A 
ATOM     85  C   UNL A   1      48.906  25.991  33.022  1.00  0.00     0.041 A 
ATOM     86  F   UNL A   1      47.792  27.591  31.724  1.00  0.00    -0.206 F 
ATOM     87  C   UNL A   1      48.876  24.924  33.914  1.00  0.00     0.022 A 
BRANCH  84  88
ATOM     88  S   UNL A   1      47.570  23.090  35.561  1.00  0.00     0.124 S 
ATOM     89  O   UNL A   1      48.670  22.221  35.154  1.00  0.00    -0.237 OA
ATOM     90  O   UNL A   1      47.769  23.833  36.802  1.00  0.00    -0.237 OA
ATOM     91  O   UNL A   1      46.234  22.521  35.388  1.00  0.00    -0.744 OA
ENDBRANCH  84  88
ENDBRANCH  58  81
ENDBRANCH  32  33
ENDBRANCH  24  27
ENDBRANCH  22  23
ENDBRANCH  21  22
ENDBRANCH   1  21
TORSDOF 17
ENDMDL
