MODEL 1
REMARK VINA RESULT:     -13.2      0.000      0.000
REMARK SMILES O=C(NCCCCNC(=O)[C@@H]1CC2(CC[NH2+]CC2)C[N@@H+]1Cc1cccc2nonc12)c1ccc(-c2c3nc(c(-c4cc(S(=O)(=O)[O-])ccc4F)c4ccc([nH]4)c(-c4cc(S(=O)(=O)[O-])ccc4F)c4nc(c(-c5cc(S(=O)(=O)[O-])ccc5F)c5ccc2[nH]5)C=C4)C=C3)cc1
REMARK SMILES IDX 5 1 4 2 3 3 1 4 2 5 31 7 32 8 93 9 33 10 92 11 34 12 35 13
REMARK SMILES IDX 36 14 86 15 37 16 91 17 85 18 87 19 38 20 90 21 84 22 83 23
REMARK SMILES IDX 39 25 71 26 51 27 70 28 52 29 55 30 69 31 88 32 53 33 54 34
REMARK SMILES IDX 68 36 89 37 56 38 40 39 41 40 49 41 42 42 48 43 50 44 47 45
REMARK SMILES IDX 43 46 44 47 45 48 46 49 72 50 73 51 81 52 74 53 80 54 82 55
REMARK SMILES IDX 79 56 75 57 76 58 77 59 78 60 57 61 58 62 66 63 59 64 65 65
REMARK SMILES IDX 67 66 64 67 60 68 61 69 62 70 63 71 6 72 7 73 8 74 9 75
REMARK SMILES IDX 10 77 11 78 12 79 20 80 13 81 19 82 14 84 18 85 15 86 17 87
REMARK SMILES IDX 16 88 21 91 22 92 23 93 30 94 24 95 26 96 29 97 25 98 27 99
REMARK SMILES IDX 28 100
REMARK H PARENT 3 6 87 24 55 35 8 76 20 83 16 89 16 90
REMARK Flexibility Score: inf
ROOT
ATOM      1  C   UNL A   1      34.772  30.891  27.274  1.00  0.00     0.023 C 
ENDROOT
BRANCH   1   2
ATOM      2  C   UNL A   1      33.644  31.814  27.762  1.00  0.00     0.116 C 
BRANCH   2   3
ATOM      3  N   UNL A   1      34.207  33.068  28.228  1.00  0.00    -0.352 N 
ATOM      4  O   UNL A   1      35.078  34.438  29.745  1.00  0.00    -0.269 OA
ATOM      5  C   UNL A   1      35.123  33.330  29.208  1.00  0.00     0.251 C 
ATOM      6  H   UNL A   1      33.870  33.866  27.759  1.00  0.00     0.163 HD
BRANCH   5   7
ATOM      7  C   UNL A   1      36.175  32.366  29.608  1.00  0.00     0.039 A 
ATOM      8  C   UNL A   1      35.908  31.555  30.721  1.00  0.00     0.014 A 
ATOM      9  C   UNL A   1      37.457  32.373  29.055  1.00  0.00     0.014 A 
ATOM     10  C   UNL A   1      36.911  30.763  31.282  1.00  0.00     0.010 A 
ATOM     11  C   UNL A   1      38.462  31.577  29.619  1.00  0.00     0.010 A 
ATOM     12  C   UNL A   1      38.199  30.770  30.737  1.00  0.00    -0.014 A 
BRANCH  12  13
ATOM     13  C   UNL A   1      39.225  29.885  31.332  1.00  0.00     0.031 A 
ATOM     14  C   UNL A   1      39.313  28.520  30.747  1.00  0.00     0.074 A 
ATOM     15  C   UNL A   1      40.303  30.361  31.991  1.00  0.00     0.049 A 
ATOM     16  N   UNL A   1      39.900  28.307  29.608  1.00  0.00    -0.248 NA
ATOM     17  C   UNL A   1      38.577  27.368  31.263  1.00  0.00     0.031 C 
ATOM     18  C   UNL A   1      40.833  31.719  31.815  1.00  0.00     0.029 A 
ATOM     19  N   UNL A   1      41.261  29.720  32.746  1.00  0.00    -0.354 N 
ATOM     20  C   UNL A   1      39.569  27.029  29.209  1.00  0.00     0.074 A 
ATOM     21  C   UNL A   1      38.763  26.474  30.277  1.00  0.00     0.031 C 
ATOM     22  C   UNL A   1      42.092  31.759  32.298  1.00  0.00     0.029 A 
ATOM     23  C   UNL A   1      42.403  30.492  32.957  1.00  0.00     0.049 A 
ATOM     24  H   UNL A   1      41.151  28.808  33.101  1.00  0.00     0.167 HD
ATOM     25  C   UNL A   1      39.984  26.509  28.024  1.00  0.00     0.034 A 
ATOM     26  C   UNL A   1      43.670  30.013  33.084  1.00  0.00     0.034 A 
ATOM     27  C   UNL A   1      40.863  27.355  27.266  1.00  0.00     0.049 A 
ATOM     28  C   UNL A   1      43.889  29.337  31.754  1.00  0.00     0.074 A 
ATOM     29  C   UNL A   1      40.831  28.176  26.164  1.00  0.00     0.029 A 
ATOM     30  N   UNL A   1      42.141  27.462  27.753  1.00  0.00    -0.354 N 
ATOM     31  N   UNL A   1      44.203  29.925  30.627  1.00  0.00    -0.248 NA
ATOM     32  C   UNL A   1      43.519  27.929  31.617  1.00  0.00     0.031 C 
ATOM     33  C   UNL A   1      41.996  29.010  26.261  1.00  0.00     0.029 A 
ATOM     34  C   UNL A   1      42.659  28.691  27.449  1.00  0.00     0.049 A 
ATOM     35  H   UNL A   1      42.615  26.757  28.251  1.00  0.00     0.167 HD
ATOM     36  C   UNL A   1      43.826  29.030  29.621  1.00  0.00     0.074 A 
ATOM     37  C   UNL A   1      43.554  27.782  30.301  1.00  0.00     0.031 C 
ATOM     38  C   UNL A   1      43.575  29.405  28.330  1.00  0.00     0.034 A 
BRANCH  25  39
ATOM     39  C   UNL A   1      39.816  25.087  27.657  1.00  0.00     0.023 A 
ATOM     40  C   UNL A   1      38.750  24.616  26.882  1.00  0.00     0.031 A 
ATOM     41  C   UNL A   1      40.856  24.198  27.993  1.00  0.00     0.131 A 
ATOM     42  C   UNL A   1      38.767  23.282  26.441  1.00  0.00     0.055 A 
ATOM     43  C   UNL A   1      40.875  22.883  27.543  1.00  0.00     0.041 A 
ATOM     44  F   UNL A   1      41.886  24.618  28.748  1.00  0.00    -0.206 F 
ATOM     45  C   UNL A   1      39.828  22.421  26.756  1.00  0.00     0.022 A 
BRANCH  42  46
ATOM     46  S   UNL A   1      37.425  22.609  25.424  1.00  0.00     0.124 S 
ATOM     47  O   UNL A   1      36.315  22.553  26.378  1.00  0.00    -0.237 OA
ATOM     48  O   UNL A   1      37.295  23.632  24.384  1.00  0.00    -0.237 OA
ATOM     49  O   UNL A   1      37.934  21.326  24.974  1.00  0.00    -0.744 OA
ENDBRANCH  42  46
ENDBRANCH  25  39
BRANCH  26  50
ATOM     50  C   UNL A   1      43.993  29.364  34.401  1.00  0.00     0.023 A 
ATOM     51  C   UNL A   1      43.324  28.246  34.925  1.00  0.00     0.031 A 
ATOM     52  C   UNL A   1      45.030  29.898  35.197  1.00  0.00     0.131 A 
ATOM     53  C   UNL A   1      43.542  27.836  36.250  1.00  0.00     0.055 A 
ATOM     54  C   UNL A   1      45.306  29.434  36.490  1.00  0.00     0.041 A 
ATOM     55  F   UNL A   1      45.802  30.893  34.730  1.00  0.00    -0.206 F 
ATOM     56  C   UNL A   1      44.533  28.419  37.038  1.00  0.00     0.022 A 
BRANCH  53  57
ATOM     57  S   UNL A   1      42.469  26.583  37.010  1.00  0.00     0.124 S 
ATOM     58  O   UNL A   1      41.165  27.241  37.006  1.00  0.00    -0.237 OA
ATOM     59  O   UNL A   1      42.619  25.472  36.075  1.00  0.00    -0.237 OA
ATOM     60  O   UNL A   1      43.065  26.382  38.327  1.00  0.00    -0.744 OA
ENDBRANCH  53  57
ENDBRANCH  26  50
BRANCH  38  61
ATOM     61  C   UNL A   1      44.134  30.735  27.909  1.00  0.00     0.023 A 
ATOM     62  C   UNL A   1      43.629  31.953  28.401  1.00  0.00     0.031 A 
ATOM     63  C   UNL A   1      45.113  30.788  26.899  1.00  0.00     0.131 A 
ATOM     64  C   UNL A   1      44.053  33.165  27.837  1.00  0.00     0.055 A 
ATOM     65  C   UNL A   1      45.577  31.999  26.384  1.00  0.00     0.041 A 
ATOM     66  F   UNL A   1      45.596  29.659  26.353  1.00  0.00    -0.206 F 
ATOM     67  C   UNL A   1      45.036  33.195  26.843  1.00  0.00     0.022 A 
BRANCH  64  68
ATOM     68  S   UNL A   1      43.287  34.741  28.312  1.00  0.00     0.124 S 
ATOM     69  O   UNL A   1      42.225  34.316  29.222  1.00  0.00    -0.237 OA
ATOM     70  O   UNL A   1      44.404  35.437  28.949  1.00  0.00    -0.237 OA
ATOM     71  O   UNL A   1      42.832  35.313  27.050  1.00  0.00    -0.744 OA
ENDBRANCH  64  68
ENDBRANCH  38  61
ENDBRANCH  12  13
ENDBRANCH   5   7
ENDBRANCH   2   3
ENDBRANCH   1   2
BRANCH   1  72
ATOM     72  C   UNL A   1      34.350  29.436  26.969  1.00  0.00     0.023 C 
BRANCH  72  73
ATOM     73  C   UNL A   1      33.030  28.999  27.614  1.00  0.00     0.116 C 
BRANCH  73  74
ATOM     74  N   UNL A   1      32.439  27.947  26.821  1.00  0.00    -0.351 N 
ATOM     75  C   UNL A   1      31.596  28.069  25.757  1.00  0.00     0.278 C 
ATOM     76  H   UNL A   1      32.672  27.026  27.082  1.00  0.00     0.163 HD
ATOM     77  O   UNL A   1      30.687  27.241  25.683  1.00  0.00    -0.268 OA
BRANCH  75  78
ATOM     78  C   UNL A   1      31.853  29.169  24.706  1.00  0.00     0.275 C 
ATOM     79  C   UNL A   1      30.538  29.752  24.192  1.00  0.00     0.089 C 
ATOM     80  N   UNL A   1      32.502  28.698  23.476  1.00  0.00    -0.320 N 
ATOM     81  C   UNL A   1      30.217  29.015  22.869  1.00  0.00     0.036 C 
ATOM     82  C   UNL A   1      31.610  28.632  22.340  1.00  0.00     0.270 C 
ATOM     83  H   UNL A   1      33.143  29.470  23.293  1.00  0.00     0.349 HD
ATOM     84  C   UNL A   1      29.461  29.930  21.883  1.00  0.00     0.074 C 
ATOM     85  C   UNL A   1      29.340  27.752  23.047  1.00  0.00     0.074 C 
ATOM     86  C   UNL A   1      28.030  30.208  22.350  1.00  0.00     0.261 C 
ATOM     87  C   UNL A   1      27.923  28.086  23.506  1.00  0.00     0.261 C 
ATOM     88  N   UNL A   1      27.258  28.979  22.552  1.00  0.00    -0.346 N 
ATOM     89  H   UNL A   1      27.161  28.498  21.657  1.00  0.00     0.346 HD
ATOM     90  H   UNL A   1      26.343  29.230  22.927  1.00  0.00     0.346 HD
BRANCH  80  91
ATOM     91  C   UNL A   1      33.743  27.943  23.486  1.00  0.00     0.302 C 
BRANCH  91  92
ATOM     92  C   UNL A   1      33.572  26.451  23.501  1.00  0.00     0.038 A 
ATOM     93  C   UNL A   1      33.705  25.673  24.681  1.00  0.00     0.012 A 
ATOM     94  C   UNL A   1      33.422  25.664  22.332  1.00  0.00     0.144 A 
ATOM     95  C   UNL A   1      33.779  24.254  24.693  1.00  0.00     0.003 A 
ATOM     96  C   UNL A   1      33.511  24.211  22.345  1.00  0.00     0.135 A 
ATOM     97  N   UNL A   1      33.245  26.057  21.063  1.00  0.00    -0.049 NA
ATOM     98  C   UNL A   1      33.707  23.474  23.526  1.00  0.00     0.034 A 
ATOM     99  N   UNL A   1      33.413  23.773  21.085  1.00  0.00    -0.050 NA
ATOM    100  O   UNL A   1      33.228  24.900  20.305  1.00  0.00    -0.243 OA
ENDBRANCH  91  92
ENDBRANCH  80  91
ENDBRANCH  75  78
ENDBRANCH  73  74
ENDBRANCH  72  73
ENDBRANCH   1  72
TORSDOF 16
ENDMDL
MODEL 2
REMARK VINA RESULT:     -12.8      2.954      8.229
REMARK SMILES O=C(NCCCCNC(=O)[C@@H]1CC2(CC[NH2+]CC2)C[N@@H+]1Cc1cccc2nonc12)c1ccc(-c2c3nc(c(-c4cc(S(=O)(=O)[O-])ccc4F)c4ccc([nH]4)c(-c4cc(S(=O)(=O)[O-])ccc4F)c4nc(c(-c5cc(S(=O)(=O)[O-])ccc5F)c5ccc2[nH]5)C=C4)C=C3)cc1
REMARK SMILES IDX 5 1 4 2 3 3 1 4 2 5 31 7 32 8 93 9 33 10 92 11 34 12 35 13
REMARK SMILES IDX 36 14 86 15 37 16 91 17 85 18 87 19 38 20 90 21 84 22 83 23
REMARK SMILES IDX 39 25 71 26 51 27 70 28 52 29 55 30 69 31 88 32 53 33 54 34
REMARK SMILES IDX 68 36 89 37 56 38 40 39 41 40 49 41 42 42 48 43 50 44 47 45
REMARK SMILES IDX 43 46 44 47 45 48 46 49 72 50 73 51 81 52 74 53 80 54 82 55
REMARK SMILES IDX 79 56 75 57 76 58 77 59 78 60 57 61 58 62 66 63 59 64 65 65
REMARK SMILES IDX 67 66 64 67 60 68 61 69 62 70 63 71 6 72 7 73 8 74 9 75
REMARK SMILES IDX 10 77 11 78 12 79 20 80 13 81 19 82 14 84 18 85 15 86 17 87
REMARK SMILES IDX 16 88 21 91 22 92 23 93 30 94 24 95 26 96 29 97 25 98 27 99
REMARK SMILES IDX 28 100
REMARK H PARENT 3 6 87 24 55 35 8 76 20 83 16 89 16 90
REMARK Flexibility Score: inf
ROOT
ATOM      1  C   UNL A   1      37.945  20.433  25.253  1.00  0.00     0.023 C 
ENDROOT
BRANCH   1   2
ATOM      2  C   UNL A   1      38.718  21.666  25.746  1.00  0.00     0.116 C 
BRANCH   2   3
ATOM      3  N   UNL A   1      39.953  21.244  26.383  1.00  0.00    -0.352 N 
ATOM      4  O   UNL A   1      42.147  21.274  26.726  1.00  0.00    -0.269 OA
ATOM      5  C   UNL A   1      41.107  21.928  26.640  1.00  0.00     0.251 C 
ATOM      6  H   UNL A   1      39.959  20.305  26.680  1.00  0.00     0.163 HD
BRANCH   5   7
ATOM      7  C   UNL A   1      41.145  23.394  26.858  1.00  0.00     0.039 A 
ATOM      8  C   UNL A   1      41.909  24.154  25.960  1.00  0.00     0.014 A 
ATOM      9  C   UNL A   1      40.626  24.002  28.003  1.00  0.00     0.014 A 
ATOM     10  C   UNL A   1      42.158  25.505  26.203  1.00  0.00     0.010 A 
ATOM     11  C   UNL A   1      40.875  25.359  28.244  1.00  0.00     0.010 A 
ATOM     12  C   UNL A   1      41.645  26.118  27.350  1.00  0.00    -0.014 A 
BRANCH  12  13
ATOM     13  C   UNL A   1      41.894  27.564  27.552  1.00  0.00     0.031 A 
ATOM     14  C   UNL A   1      40.680  28.410  27.696  1.00  0.00     0.074 A 
ATOM     15  C   UNL A   1      43.059  28.040  28.043  1.00  0.00     0.049 A 
ATOM     16  N   UNL A   1      40.007  28.449  28.807  1.00  0.00    -0.248 NA
ATOM     17  C   UNL A   1      40.019  29.076  26.576  1.00  0.00     0.031 C 
ATOM     18  C   UNL A   1      43.998  27.240  28.838  1.00  0.00     0.029 A 
ATOM     19  N   UNL A   1      43.541  29.327  28.145  1.00  0.00    -0.354 N 
ATOM     20  C   UNL A   1      38.809  29.076  28.539  1.00  0.00     0.074 A 
ATOM     21  C   UNL A   1      38.867  29.469  27.146  1.00  0.00     0.031 C 
ATOM     22  C   UNL A   1      44.841  28.073  29.482  1.00  0.00     0.029 A 
ATOM     23  C   UNL A   1      44.614  29.444  29.029  1.00  0.00     0.049 A 
ATOM     24  H   UNL A   1      43.167  30.088  27.644  1.00  0.00     0.167 HD
ATOM     25  C   UNL A   1      37.846  29.235  29.486  1.00  0.00     0.034 A 
ATOM     26  C   UNL A   1      44.895  30.534  29.792  1.00  0.00     0.034 A 
ATOM     27  C   UNL A   1      38.208  28.783  30.800  1.00  0.00     0.049 A 
ATOM     28  C   UNL A   1      43.661  30.648  30.650  1.00  0.00     0.074 A 
ATOM     29  C   UNL A   1      37.967  27.727  31.646  1.00  0.00     0.029 A 
ATOM     30  N   UNL A   1      39.104  29.578  31.469  1.00  0.00    -0.354 N 
ATOM     31  N   UNL A   1      43.392  29.945  31.720  1.00  0.00    -0.248 NA
ATOM     32  C   UNL A   1      42.542  31.453  30.160  1.00  0.00     0.031 C 
ATOM     33  C   UNL A   1      39.010  27.766  32.631  1.00  0.00     0.029 A 
ATOM     34  C   UNL A   1      39.871  28.818  32.309  1.00  0.00     0.049 A 
ATOM     35  H   UNL A   1      39.184  30.553  31.359  1.00  0.00     0.167 HD
ATOM     36  C   UNL A   1      42.005  30.026  31.882  1.00  0.00     0.074 A 
ATOM     37  C   UNL A   1      41.576  31.077  30.985  1.00  0.00     0.031 C 
ATOM     38  C   UNL A   1      41.271  29.114  32.590  1.00  0.00     0.034 A 
BRANCH  25  39
ATOM     39  C   UNL A   1      36.643  30.071  29.288  1.00  0.00     0.023 A 
ATOM     40  C   UNL A   1      36.402  31.250  30.004  1.00  0.00     0.031 A 
ATOM     41  C   UNL A   1      35.774  29.727  28.235  1.00  0.00     0.131 A 
ATOM     42  C   UNL A   1      35.322  32.065  29.627  1.00  0.00     0.055 A 
ATOM     43  C   UNL A   1      34.714  30.544  27.857  1.00  0.00     0.041 A 
ATOM     44  F   UNL A   1      35.971  28.592  27.539  1.00  0.00    -0.206 F 
ATOM     45  C   UNL A   1      34.489  31.724  28.552  1.00  0.00     0.022 A 
BRANCH  42  46
ATOM     46  S   UNL A   1      34.960  33.612  30.500  1.00  0.00     0.124 S 
ATOM     47  O   UNL A   1      34.279  34.396  29.467  1.00  0.00    -0.237 OA
ATOM     48  O   UNL A   1      34.101  33.147  31.591  1.00  0.00    -0.237 OA
ATOM     49  O   UNL A   1      36.265  34.102  30.904  1.00  0.00    -0.744 OA
ENDBRANCH  42  46
ENDBRANCH  25  39
BRANCH  26  50
ATOM     50  C   UNL A   1      45.504  31.700  29.064  1.00  0.00     0.023 A 
ATOM     51  C   UNL A   1      44.915  32.353  27.969  1.00  0.00     0.031 A 
ATOM     52  C   UNL A   1      46.762  32.191  29.478  1.00  0.00     0.131 A 
ATOM     53  C   UNL A   1      45.641  33.289  27.216  1.00  0.00     0.055 A 
ATOM     54  C   UNL A   1      47.453  33.186  28.775  1.00  0.00     0.041 A 
ATOM     55  F   UNL A   1      47.350  31.708  30.584  1.00  0.00    -0.206 F 
ATOM     56  C   UNL A   1      46.908  33.715  27.613  1.00  0.00     0.022 A 
BRANCH  53  57
ATOM     57  S   UNL A   1      44.982  33.907  25.641  1.00  0.00     0.124 S 
ATOM     58  O   UNL A   1      43.896  34.781  26.075  1.00  0.00    -0.237 OA
ATOM     59  O   UNL A   1      46.152  34.581  25.086  1.00  0.00    -0.237 OA
ATOM     60  O   UNL A   1      44.570  32.691  24.947  1.00  0.00    -0.744 OA
ENDBRANCH  53  57
ENDBRANCH  26  50
BRANCH  38  61
ATOM     61  C   UNL A   1      42.038  28.256  33.556  1.00  0.00     0.023 A 
ATOM     62  C   UNL A   1      42.938  27.261  33.128  1.00  0.00     0.031 A 
ATOM     63  C   UNL A   1      41.771  28.354  34.934  1.00  0.00     0.131 A 
ATOM     64  C   UNL A   1      43.482  26.364  34.057  1.00  0.00     0.055 A 
ATOM     65  C   UNL A   1      42.363  27.497  35.862  1.00  0.00     0.041 A 
ATOM     66  F   UNL A   1      40.882  29.249  35.397  1.00  0.00    -0.206 F 
ATOM     67  C   UNL A   1      43.212  26.486  35.424  1.00  0.00     0.022 A 
BRANCH  64  68
ATOM     68  S   UNL A   1      44.492  24.954  33.522  1.00  0.00     0.124 S 
ATOM     69  O   UNL A   1      43.890  23.838  34.249  1.00  0.00    -0.237 OA
ATOM     70  O   UNL A   1      44.260  24.950  32.079  1.00  0.00    -0.237 OA
ATOM     71  O   UNL A   1      45.847  25.306  33.935  1.00  0.00    -0.744 OA
ENDBRANCH  64  68
ENDBRANCH  38  61
ENDBRANCH  12  13
ENDBRANCH   5   7
ENDBRANCH   2   3
ENDBRANCH   1   2
BRANCH   1  72
ATOM     72  C   UNL A   1      36.435  20.654  25.008  1.00  0.00     0.023 C 
BRANCH  72  73
ATOM     73  C   UNL A   1      36.076  22.003  24.376  1.00  0.00     0.116 C 
BRANCH  73  74
ATOM     74  N   UNL A   1      35.206  22.731  25.271  1.00  0.00    -0.351 N 
ATOM     75  C   UNL A   1      34.529  23.888  25.028  1.00  0.00     0.278 C 
ATOM     76  H   UNL A   1      35.088  22.343  26.168  1.00  0.00     0.163 HD
ATOM     77  O   UNL A   1      34.472  24.692  25.958  1.00  0.00    -0.268 OA
BRANCH  75  78
ATOM     78  C   UNL A   1      33.843  24.094  23.661  1.00  0.00     0.275 C 
ATOM     79  C   UNL A   1      34.089  25.508  23.135  1.00  0.00     0.089 C 
ATOM     80  N   UNL A   1      32.379  24.011  23.694  1.00  0.00    -0.320 N 
ATOM     81  C   UNL A   1      32.844  26.343  23.521  1.00  0.00     0.036 C 
ATOM     82  C   UNL A   1      31.722  25.293  23.564  1.00  0.00     0.270 C 
ATOM     83  H   UNL A   1      32.198  23.507  22.825  1.00  0.00     0.349 HD
ATOM     84  C   UNL A   1      32.558  27.445  22.479  1.00  0.00     0.074 C 
ATOM     85  C   UNL A   1      32.965  27.061  24.887  1.00  0.00     0.074 C 
ATOM     86  C   UNL A   1      33.611  28.556  22.525  1.00  0.00     0.261 C 
ATOM     87  C   UNL A   1      34.022  28.163  24.875  1.00  0.00     0.261 C 
ATOM     88  N   UNL A   1      33.721  29.168  23.851  1.00  0.00    -0.346 N 
ATOM     89  H   UNL A   1      32.838  29.624  24.081  1.00  0.00     0.346 HD
ATOM     90  H   UNL A   1      34.482  29.847  23.831  1.00  0.00     0.346 HD
BRANCH  80  91
ATOM     91  C   UNL A   1      31.673  22.872  24.257  1.00  0.00     0.302 C 
BRANCH  91  92
ATOM     92  C   UNL A   1      32.062  21.542  23.679  1.00  0.00     0.038 A 
ATOM     93  C   UNL A   1      31.856  21.206  22.314  1.00  0.00     0.012 A 
ATOM     94  C   UNL A   1      32.518  20.449  24.456  1.00  0.00     0.144 A 
ATOM     95  C   UNL A   1      31.997  19.893  21.790  1.00  0.00     0.003 A 
ATOM     96  C   UNL A   1      32.648  19.101  23.919  1.00  0.00     0.135 A 
ATOM     97  N   UNL A   1      32.839  20.409  25.757  1.00  0.00    -0.049 NA
ATOM     98  C   UNL A   1      32.376  18.791  22.575  1.00  0.00     0.034 A 
ATOM     99  N   UNL A   1      33.017  18.287  24.914  1.00  0.00    -0.050 NA
ATOM    100  O   UNL A   1      33.154  19.090  26.031  1.00  0.00    -0.243 OA
ENDBRANCH  91  92
ENDBRANCH  80  91
ENDBRANCH  75  78
ENDBRANCH  73  74
ENDBRANCH  72  73
ENDBRANCH   1  72
TORSDOF 16
ENDMDL
MODEL 3
REMARK VINA RESULT:     -12.6      5.512     10.364
REMARK SMILES O=C(NCCCCNC(=O)[C@@H]1CC2(CC[NH2+]CC2)C[N@@H+]1Cc1cccc2nonc12)c1ccc(-c2c3nc(c(-c4cc(S(=O)(=O)[O-])ccc4F)c4ccc([nH]4)c(-c4cc(S(=O)(=O)[O-])ccc4F)c4nc(c(-c5cc(S(=O)(=O)[O-])ccc5F)c5ccc2[nH]5)C=C4)C=C3)cc1
REMARK SMILES IDX 5 1 4 2 3 3 1 4 2 5 31 7 32 8 93 9 33 10 92 11 34 12 35 13
REMARK SMILES IDX 36 14 86 15 37 16 91 17 85 18 87 19 38 20 90 21 84 22 83 23
REMARK SMILES IDX 39 25 71 26 51 27 70 28 52 29 55 30 69 31 88 32 53 33 54 34
REMARK SMILES IDX 68 36 89 37 56 38 40 39 41 40 49 41 42 42 48 43 50 44 47 45
REMARK SMILES IDX 43 46 44 47 45 48 46 49 72 50 73 51 81 52 74 53 80 54 82 55
REMARK SMILES IDX 79 56 75 57 76 58 77 59 78 60 57 61 58 62 66 63 59 64 65 65
REMARK SMILES IDX 67 66 64 67 60 68 61 69 62 70 63 71 6 72 7 73 8 74 9 75
REMARK SMILES IDX 10 77 11 78 12 79 20 80 13 81 19 82 14 84 18 85 15 86 17 87
REMARK SMILES IDX 16 88 21 91 22 92 23 93 30 94 24 95 26 96 29 97 25 98 27 99
REMARK SMILES IDX 28 100
REMARK H PARENT 3 6 87 24 55 35 8 76 20 83 16 89 16 90
REMARK Flexibility Score: inf
ROOT
ATOM      1  C   UNL A   1      42.239  27.079  36.476  1.00  0.00     0.023 C 
ENDROOT
BRANCH   1   2
ATOM      2  C   UNL A   1      41.932  25.602  36.183  1.00  0.00     0.116 C 
BRANCH   2   3
ATOM      3  N   UNL A   1      43.070  24.783  36.560  1.00  0.00    -0.352 N 
ATOM      4  O   UNL A   1      44.587  23.189  36.254  1.00  0.00    -0.269 OA
ATOM      5  C   UNL A   1      44.044  24.198  35.801  1.00  0.00     0.251 C 
ATOM      6  H   UNL A   1      43.153  24.621  37.528  1.00  0.00     0.163 HD
BRANCH   5   7
ATOM      7  C   UNL A   1      44.493  24.747  34.500  1.00  0.00     0.039 A 
ATOM      8  C   UNL A   1      45.225  25.943  34.530  1.00  0.00     0.014 A 
ATOM      9  C   UNL A   1      44.058  24.239  33.274  1.00  0.00     0.014 A 
ATOM     10  C   UNL A   1      45.519  26.628  33.350  1.00  0.00     0.010 A 
ATOM     11  C   UNL A   1      44.355  24.928  32.091  1.00  0.00     0.010 A 
ATOM     12  C   UNL A   1      45.081  26.128  32.120  1.00  0.00    -0.014 A 
BRANCH  12  13
ATOM     13  C   UNL A   1      45.448  26.860  30.887  1.00  0.00     0.031 A 
ATOM     14  C   UNL A   1      45.529  26.036  29.651  1.00  0.00     0.074 A 
ATOM     15  C   UNL A   1      45.264  28.191  30.748  1.00  0.00     0.049 A 
ATOM     16  N   UNL A   1      44.460  25.657  29.017  1.00  0.00    -0.248 NA
ATOM     17  C   UNL A   1      46.758  25.404  29.178  1.00  0.00     0.031 C 
ATOM     18  C   UNL A   1      44.308  28.969  31.545  1.00  0.00     0.029 A 
ATOM     19  N   UNL A   1      45.683  29.068  29.772  1.00  0.00    -0.354 N 
ATOM     20  C   UNL A   1      44.843  24.693  28.109  1.00  0.00     0.074 A 
ATOM     21  C   UNL A   1      46.282  24.582  28.227  1.00  0.00     0.031 C 
ATOM     22  C   UNL A   1      44.087  30.148  30.928  1.00  0.00     0.029 A 
ATOM     23  C   UNL A   1      44.995  30.281  29.790  1.00  0.00     0.049 A 
ATOM     24  H   UNL A   1      46.397  28.860  29.127  1.00  0.00     0.167 HD
ATOM     25  C   UNL A   1      43.947  24.050  27.314  1.00  0.00     0.034 A 
ATOM     26  C   UNL A   1      44.713  31.046  28.701  1.00  0.00     0.034 A 
ATOM     27  C   UNL A   1      42.592  24.514  27.428  1.00  0.00     0.049 A 
ATOM     28  C   UNL A   1      43.861  30.119  27.872  1.00  0.00     0.074 A 
ATOM     29  C   UNL A   1      41.400  24.130  27.994  1.00  0.00     0.029 A 
ATOM     30  N   UNL A   1      42.339  25.735  26.856  1.00  0.00    -0.354 N 
ATOM     31  N   UNL A   1      42.589  29.869  28.049  1.00  0.00    -0.248 NA
ATOM     32  C   UNL A   1      44.521  29.239  26.909  1.00  0.00     0.031 C 
ATOM     33  C   UNL A   1      40.586  25.312  28.036  1.00  0.00     0.029 A 
ATOM     34  C   UNL A   1      41.343  26.376  27.539  1.00  0.00     0.049 A 
ATOM     35  H   UNL A   1      42.807  26.096  26.068  1.00  0.00     0.167 HD
ATOM     36  C   UNL A   1      42.356  28.646  27.412  1.00  0.00     0.074 A 
ATOM     37  C   UNL A   1      43.540  28.398  26.618  1.00  0.00     0.031 C 
ATOM     38  C   UNL A   1      41.306  27.824  27.712  1.00  0.00     0.034 A 
BRANCH  25  39
ATOM     39  C   UNL A   1      44.340  23.162  26.199  1.00  0.00     0.023 A 
ATOM     40  C   UNL A   1      44.124  21.779  26.208  1.00  0.00     0.031 A 
ATOM     41  C   UNL A   1      44.830  23.765  25.024  1.00  0.00     0.131 A 
ATOM     42  C   UNL A   1      44.373  21.045  25.036  1.00  0.00     0.055 A 
ATOM     43  C   UNL A   1      45.062  23.036  23.863  1.00  0.00     0.041 A 
ATOM     44  F   UNL A   1      45.061  25.090  24.991  1.00  0.00    -0.206 F 
ATOM     45  C   UNL A   1      44.826  21.668  23.865  1.00  0.00     0.022 A 
BRANCH  42  46
ATOM     46  S   UNL A   1      44.101  19.253  24.972  1.00  0.00     0.124 S 
ATOM     47  O   UNL A   1      44.894  18.782  26.111  1.00  0.00    -0.237 OA
ATOM     48  O   UNL A   1      42.651  19.162  25.149  1.00  0.00    -0.237 OA
ATOM     49  O   UNL A   1      44.592  18.869  23.662  1.00  0.00    -0.744 OA
ENDBRANCH  42  46
ENDBRANCH  25  39
BRANCH  26  50
ATOM     50  C   UNL A   1      45.867  31.830  28.139  1.00  0.00     0.023 A 
ATOM     51  C   UNL A   1      47.145  31.303  27.895  1.00  0.00     0.031 A 
ATOM     52  C   UNL A   1      45.689  33.197  27.834  1.00  0.00     0.131 A 
ATOM     53  C   UNL A   1      48.220  32.147  27.572  1.00  0.00     0.055 A 
ATOM     54  C   UNL A   1      46.744  34.025  27.430  1.00  0.00     0.041 A 
ATOM     55  F   UNL A   1      44.474  33.762  27.925  1.00  0.00    -0.206 F 
ATOM     56  C   UNL A   1      48.029  33.507  27.334  1.00  0.00     0.022 A 
BRANCH  53  57
ATOM     57  S   UNL A   1      49.917  31.501  27.546  1.00  0.00     0.124 S 
ATOM     58  O   UNL A   1      50.711  32.710  27.348  1.00  0.00    -0.237 OA
ATOM     59  O   UNL A   1      50.012  30.892  28.869  1.00  0.00    -0.237 OA
ATOM     60  O   UNL A   1      49.905  30.568  26.424  1.00  0.00    -0.744 OA
ENDBRANCH  53  57
ENDBRANCH  26  50
BRANCH  38  61
ATOM     61  C   UNL A   1      40.156  28.461  28.442  1.00  0.00     0.023 A 
ATOM     62  C   UNL A   1      39.944  28.273  29.821  1.00  0.00     0.031 A 
ATOM     63  C   UNL A   1      39.183  29.172  27.716  1.00  0.00     0.131 A 
ATOM     64  C   UNL A   1      38.759  28.729  30.414  1.00  0.00     0.055 A 
ATOM     65  C   UNL A   1      38.034  29.678  28.324  1.00  0.00     0.041 A 
ATOM     66  F   UNL A   1      39.304  29.339  26.388  1.00  0.00    -0.206 F 
ATOM     67  C   UNL A   1      37.810  29.445  29.677  1.00  0.00     0.022 A 
BRANCH  64  68
ATOM     68  S   UNL A   1      38.363  28.340  32.142  1.00  0.00     0.124 S 
ATOM     69  O   UNL A   1      37.014  28.884  32.289  1.00  0.00    -0.237 OA
ATOM     70  O   UNL A   1      38.446  26.881  32.148  1.00  0.00    -0.237 OA
ATOM     71  O   UNL A   1      39.397  29.027  32.910  1.00  0.00    -0.744 OA
ENDBRANCH  64  68
ENDBRANCH  38  61
ENDBRANCH  12  13
ENDBRANCH   5   7
ENDBRANCH   2   3
ENDBRANCH   1   2
BRANCH   1  72
ATOM     72  C   UNL A   1      41.900  28.063  35.334  1.00  0.00     0.023 C 
BRANCH  72  73
ATOM     73  C   UNL A   1      41.520  29.476  35.793  1.00  0.00     0.116 C 
BRANCH  73  74
ATOM     74  N   UNL A   1      40.081  29.578  35.876  1.00  0.00    -0.351 N 
ATOM     75  C   UNL A   1      39.321  30.707  35.936  1.00  0.00     0.278 C 
ATOM     76  H   UNL A   1      39.589  28.725  35.893  1.00  0.00     0.163 HD
ATOM     77  O   UNL A   1      38.342  30.667  36.680  1.00  0.00    -0.268 OA
BRANCH  75  78
ATOM     78  C   UNL A   1      39.688  31.917  35.051  1.00  0.00     0.275 C 
ATOM     79  C   UNL A   1      40.300  33.040  35.887  1.00  0.00     0.089 C 
ATOM     80  N   UNL A   1      38.542  32.576  34.413  1.00  0.00    -0.320 N 
ATOM     81  C   UNL A   1      39.152  34.030  36.202  1.00  0.00     0.036 C 
ATOM     82  C   UNL A   1      38.202  33.850  35.006  1.00  0.00     0.270 C 
ATOM     83  H   UNL A   1      38.930  32.783  33.492  1.00  0.00     0.349 HD
ATOM     84  C   UNL A   1      39.670  35.479  36.310  1.00  0.00     0.074 C 
ATOM     85  C   UNL A   1      38.412  33.735  37.529  1.00  0.00     0.074 C 
ATOM     86  C   UNL A   1      40.515  35.687  37.571  1.00  0.00     0.261 C 
ATOM     87  C   UNL A   1      39.296  33.966  38.754  1.00  0.00     0.261 C 
ATOM     88  N   UNL A   1      39.785  35.347  38.795  1.00  0.00    -0.346 N 
ATOM     89  H   UNL A   1      38.991  35.979  38.895  1.00  0.00     0.346 HD
ATOM     90  H   UNL A   1      40.422  35.441  39.587  1.00  0.00     0.346 HD
BRANCH  80  91
ATOM     91  C   UNL A   1      37.571  31.852  33.610  1.00  0.00     0.302 C 
BRANCH  91  92
ATOM     92  C   UNL A   1      37.534  32.246  32.161  1.00  0.00     0.038 A 
ATOM     93  C   UNL A   1      38.707  32.529  31.412  1.00  0.00     0.012 A 
ATOM     94  C   UNL A   1      36.341  32.526  31.451  1.00  0.00     0.144 A 
ATOM     95  C   UNL A   1      38.699  33.121  30.120  1.00  0.00     0.003 A 
ATOM     96  C   UNL A   1      36.336  33.145  30.133  1.00  0.00     0.135 A 
ATOM     97  N   UNL A   1      35.067  32.355  31.832  1.00  0.00    -0.049 NA
ATOM     98  C   UNL A   1      37.518  33.470  29.444  1.00  0.00     0.034 A 
ATOM     99  N   UNL A   1      35.066  33.353  29.771  1.00  0.00    -0.050 NA
ATOM    100  O   UNL A   1      34.291  32.850  30.800  1.00  0.00    -0.243 OA
ENDBRANCH  91  92
ENDBRANCH  80  91
ENDBRANCH  75  78
ENDBRANCH  73  74
ENDBRANCH  72  73
ENDBRANCH   1  72
TORSDOF 16
ENDMDL
