MODEL 1
REMARK VINA RESULT:     -11.8      0.000      0.000
REMARK SMILES CC[C@H](Oc1c(C)cc(Br)cc1C)C(=O)NCCCCNC(=O)c1ccc(-c2c3nc(c(-c4cc(S(=O)(=O)[O-])ccc4F)c4ccc([nH]4)c(-c4cc(S(=O)(=O)[O-])ccc4F)c4nc(c(-c5cc(S(=O)(=O)[O-])ccc5F)c5ccc2[nH]5)C=C4)C=C3)cc1
REMARK SMILES IDX 19 1 18 2 17 3 16 4 14 5 15 6 3 8 2 9 1 10 4 11 5 12 6 13
REMARK SMILES IDX 12 14 7 15 8 16 11 17 13 18 9 19 10 20 20 21 21 22 22 23
REMARK SMILES IDX 23 25 24 26 25 27 86 28 26 29 85 30 27 31 28 32 29 33 79 34
REMARK SMILES IDX 30 35 84 36 78 37 80 38 31 39 83 40 77 41 76 42 32 44 64 45
REMARK SMILES IDX 44 46 63 47 45 48 48 49 62 50 81 51 46 52 47 53 61 55 82 56
REMARK SMILES IDX 49 57 33 58 34 59 42 60 35 61 41 62 43 63 40 64 36 65 37 66
REMARK SMILES IDX 38 67 39 68 65 69 66 70 74 71 67 72 73 73 75 74 72 75 68 76
REMARK SMILES IDX 69 77 70 78 71 79 50 80 51 81 59 82 52 83 58 84 60 85 57 86
REMARK SMILES IDX 53 87 54 88 55 89 56 90
REMARK H PARENT 16 7 21 24 80 43 48 54
REMARK Flexibility Score: inf
ROOT
ATOM      1  C   UNL A   1      35.633  21.339  25.826  1.00  0.00     0.023 C 
ENDROOT
BRANCH   1   2
ATOM      2  C   UNL A   1      34.686  20.401  25.075  1.00  0.00     0.023 C 
BRANCH   2   3
ATOM      3  C   UNL A   1      33.210  20.766  25.168  1.00  0.00     0.116 C 
BRANCH   3   4
ATOM      4  N   UNL A   1      32.859  21.347  26.443  1.00  0.00    -0.353 N 
ATOM      5  C   UNL A   1      32.597  22.630  26.808  1.00  0.00     0.261 C 
ATOM      6  O   UNL A   1      32.304  22.809  27.999  1.00  0.00    -0.271 OA
ATOM      7  H   UNL A   1      32.797  20.697  27.180  1.00  0.00     0.163 HD
BRANCH   5   8
ATOM      8  C   UNL A   1      32.656  23.843  25.847  1.00  0.00     0.261 C 
BRANCH   8   9
ATOM      9  C   UNL A   1      33.993  24.609  25.850  1.00  0.00     0.052 C 
ATOM     10  C   UNL A   1      34.644  24.824  24.486  1.00  0.00     0.008 C 
ENDBRANCH   8   9
BRANCH   8  11
ATOM     11  O   UNL A   1      31.525  24.667  26.068  1.00  0.00    -0.480 OA
BRANCH  11  12
ATOM     12  C   UNL A   1      31.241  25.816  25.376  1.00  0.00     0.126 A 
ATOM     13  C   UNL A   1      31.360  27.162  25.790  1.00  0.00    -0.008 A 
ATOM     14  C   UNL A   1      30.795  25.548  24.053  1.00  0.00    -0.008 A 
ATOM     15  C   UNL A   1      31.827  27.648  27.134  1.00  0.00     0.048 C 
ATOM     16  C   UNL A   1      31.050  28.192  24.867  1.00  0.00     0.023 A 
ATOM     17  C   UNL A   1      30.503  26.597  23.163  1.00  0.00     0.023 A 
ATOM     18  C   UNL A   1      30.628  24.147  23.517  1.00  0.00     0.048 C 
ATOM     19  C   UNL A   1      30.634  27.911  23.573  1.00  0.00     0.018 A 
ATOM     20  Br  UNL A   1      30.251  29.322  22.377  1.00  0.00    -0.051 Br
ENDBRANCH  11  12
ENDBRANCH   8  11
ENDBRANCH   5   8
ENDBRANCH   3   4
ENDBRANCH   2   3
ENDBRANCH   1   2
BRANCH   1  21
ATOM     21  C   UNL A   1      36.956  21.649  25.128  1.00  0.00     0.116 C 
BRANCH  21  22
ATOM     22  N   UNL A   1      38.004  20.678  25.393  1.00  0.00    -0.352 N 
ATOM     23  C   UNL A   1      39.218  20.890  26.013  1.00  0.00     0.251 C 
ATOM     24  H   UNL A   1      37.827  19.757  25.094  1.00  0.00     0.163 HD
ATOM     25  O   UNL A   1      40.034  19.980  26.116  1.00  0.00    -0.269 OA
BRANCH  23  26
ATOM     26  C   UNL A   1      39.531  22.247  26.502  1.00  0.00     0.039 A 
ATOM     27  C   UNL A   1      40.566  22.406  27.427  1.00  0.00     0.014 A 
ATOM     28  C   UNL A   1      38.874  23.357  25.967  1.00  0.00     0.014 A 
ATOM     29  C   UNL A   1      41.011  23.692  27.745  1.00  0.00     0.010 A 
ATOM     30  C   UNL A   1      39.350  24.634  26.249  1.00  0.00     0.010 A 
ATOM     31  C   UNL A   1      40.441  24.811  27.117  1.00  0.00    -0.014 A 
BRANCH  31  32
ATOM     32  C   UNL A   1      41.002  26.173  27.298  1.00  0.00     0.031 A 
ATOM     33  C   UNL A   1      42.362  26.504  26.753  1.00  0.00     0.074 A 
ATOM     34  C   UNL A   1      40.335  27.066  28.057  1.00  0.00     0.049 A 
ATOM     35  N   UNL A   1      43.086  27.576  26.937  1.00  0.00    -0.248 NA
ATOM     36  C   UNL A   1      43.003  25.477  25.917  1.00  0.00     0.031 C 
ATOM     37  C   UNL A   1      39.027  26.837  28.679  1.00  0.00     0.029 A 
ATOM     38  N   UNL A   1      40.676  28.332  28.466  1.00  0.00    -0.354 N 
ATOM     39  C   UNL A   1      44.281  27.345  26.265  1.00  0.00     0.074 A 
ATOM     40  C   UNL A   1      44.192  26.018  25.694  1.00  0.00     0.031 C 
ATOM     41  C   UNL A   1      38.684  27.920  29.395  1.00  0.00     0.029 A 
ATOM     42  C   UNL A   1      39.761  28.901  29.322  1.00  0.00     0.049 A 
ATOM     43  H   UNL A   1      41.497  28.788  28.175  1.00  0.00     0.167 HD
ATOM     44  C   UNL A   1      45.347  28.171  26.132  1.00  0.00     0.034 A 
ATOM     45  C   UNL A   1      39.800  30.066  29.999  1.00  0.00     0.034 A 
ATOM     46  C   UNL A   1      45.404  29.504  26.679  1.00  0.00     0.049 A 
ATOM     47  C   UNL A   1      41.001  30.963  29.837  1.00  0.00     0.074 A 
ATOM     48  C   UNL A   1      46.382  30.466  26.501  1.00  0.00     0.029 A 
ATOM     49  N   UNL A   1      44.451  30.057  27.523  1.00  0.00    -0.354 N 
ATOM     50  N   UNL A   1      42.086  30.764  29.125  1.00  0.00    -0.248 NA
ATOM     51  C   UNL A   1      40.983  32.237  30.566  1.00  0.00     0.031 C 
ATOM     52  C   UNL A   1      46.052  31.577  27.286  1.00  0.00     0.029 A 
ATOM     53  C   UNL A   1      44.839  31.330  27.908  1.00  0.00     0.049 A 
ATOM     54  H   UNL A   1      43.622  29.609  27.808  1.00  0.00     0.167 HD
ATOM     55  C   UNL A   1      42.869  31.900  29.307  1.00  0.00     0.074 A 
ATOM     56  C   UNL A   1      42.127  32.784  30.181  1.00  0.00     0.031 C 
ATOM     57  C   UNL A   1      44.091  32.190  28.793  1.00  0.00     0.034 A 
BRANCH  44  58
ATOM     58  C   UNL A   1      46.549  27.647  25.391  1.00  0.00     0.023 A 
ATOM     59  C   UNL A   1      46.818  28.012  24.062  1.00  0.00     0.031 A 
ATOM     60  C   UNL A   1      47.440  26.764  26.029  1.00  0.00     0.131 A 
ATOM     61  C   UNL A   1      47.917  27.454  23.393  1.00  0.00     0.055 A 
ATOM     62  C   UNL A   1      48.568  26.262  25.379  1.00  0.00     0.041 A 
ATOM     63  F   UNL A   1      47.221  26.367  27.292  1.00  0.00    -0.206 F 
ATOM     64  C   UNL A   1      48.807  26.598  24.049  1.00  0.00     0.022 A 
BRANCH  61  65
ATOM     65  S   UNL A   1      48.111  27.779  21.620  1.00  0.00     0.124 S 
ATOM     66  O   UNL A   1      49.122  28.834  21.624  1.00  0.00    -0.237 OA
ATOM     67  O   UNL A   1      48.542  26.485  21.105  1.00  0.00    -0.237 OA
ATOM     68  O   UNL A   1      46.777  28.205  21.201  1.00  0.00    -0.744 OA
ENDBRANCH  61  65
ENDBRANCH  44  58
BRANCH  45  69
ATOM     69  C   UNL A   1      38.697  30.442  30.928  1.00  0.00     0.023 A 
ATOM     70  C   UNL A   1      37.576  31.151  30.470  1.00  0.00     0.031 A 
ATOM     71  C   UNL A   1      38.778  30.148  32.300  1.00  0.00     0.131 A 
ATOM     72  C   UNL A   1      36.602  31.586  31.385  1.00  0.00     0.055 A 
ATOM     73  C   UNL A   1      37.783  30.540  33.199  1.00  0.00     0.041 A 
ATOM     74  F   UNL A   1      39.826  29.466  32.789  1.00  0.00    -0.206 F 
ATOM     75  C   UNL A   1      36.694  31.277  32.744  1.00  0.00     0.022 A 
BRANCH  72  76
ATOM     76  S   UNL A   1      35.258  32.646  30.783  1.00  0.00     0.124 S 
ATOM     77  O   UNL A   1      34.826  31.930  29.586  1.00  0.00    -0.237 OA
ATOM     78  O   UNL A   1      34.333  32.627  31.911  1.00  0.00    -0.237 OA
ATOM     79  O   UNL A   1      35.918  33.926  30.540  1.00  0.00    -0.744 OA
ENDBRANCH  72  76
ENDBRANCH  45  69
BRANCH  57  80
ATOM     80  C   UNL A   1      44.677  33.532  29.145  1.00  0.00     0.023 A 
ATOM     81  C   UNL A   1      44.233  34.712  28.523  1.00  0.00     0.031 A 
ATOM     82  C   UNL A   1      45.693  33.628  30.111  1.00  0.00     0.131 A 
ATOM     83  C   UNL A   1      44.835  35.937  28.846  1.00  0.00     0.055 A 
ATOM     84  C   UNL A   1      46.255  34.855  30.463  1.00  0.00     0.041 A 
ATOM     85  F   UNL A   1      46.151  32.529  30.732  1.00  0.00    -0.206 F 
ATOM     86  C   UNL A   1      45.832  36.018  29.823  1.00  0.00     0.022 A 
BRANCH  83  87
ATOM     87  S   UNL A   1      44.337  37.421  27.932  1.00  0.00     0.124 S 
ATOM     88  O   UNL A   1      45.620  37.933  27.463  1.00  0.00    -0.237 OA
ATOM     89  O   UNL A   1      43.454  36.876  26.904  1.00  0.00    -0.237 OA
ATOM     90  O   UNL A   1      43.674  38.241  28.944  1.00  0.00    -0.744 OA
ENDBRANCH  83  87
ENDBRANCH  57  80
ENDBRANCH  31  32
ENDBRANCH  23  26
ENDBRANCH  21  22
ENDBRANCH   1  21
TORSDOF 17
ENDMDL
MODEL 2
REMARK VINA RESULT:     -11.8      1.736      7.815
REMARK SMILES CC[C@H](Oc1c(C)cc(Br)cc1C)C(=O)NCCCCNC(=O)c1ccc(-c2c3nc(c(-c4cc(S(=O)(=O)[O-])ccc4F)c4ccc([nH]4)c(-c4cc(S(=O)(=O)[O-])ccc4F)c4nc(c(-c5cc(S(=O)(=O)[O-])ccc5F)c5ccc2[nH]5)C=C4)C=C3)cc1
REMARK SMILES IDX 19 1 18 2 17 3 16 4 14 5 15 6 3 8 2 9 1 10 4 11 5 12 6 13
REMARK SMILES IDX 12 14 7 15 8 16 11 17 13 18 9 19 10 20 20 21 21 22 22 23
REMARK SMILES IDX 23 25 24 26 25 27 86 28 26 29 85 30 27 31 28 32 29 33 79 34
REMARK SMILES IDX 30 35 84 36 78 37 80 38 31 39 83 40 77 41 76 42 32 44 64 45
REMARK SMILES IDX 44 46 63 47 45 48 48 49 62 50 81 51 46 52 47 53 61 55 82 56
REMARK SMILES IDX 49 57 33 58 34 59 42 60 35 61 41 62 43 63 40 64 36 65 37 66
REMARK SMILES IDX 38 67 39 68 65 69 66 70 74 71 67 72 73 73 75 74 72 75 68 76
REMARK SMILES IDX 69 77 70 78 71 79 50 80 51 81 59 82 52 83 58 84 60 85 57 86
REMARK SMILES IDX 53 87 54 88 55 89 56 90
REMARK H PARENT 16 7 21 24 80 43 48 54
REMARK Flexibility Score: inf
ROOT
ATOM      1  C   UNL A   1      35.348  21.229  24.941  1.00  0.00     0.023 C 
ENDROOT
BRANCH   1   2
ATOM      2  C   UNL A   1      34.243  20.915  25.951  1.00  0.00     0.023 C 
BRANCH   2   3
ATOM      3  C   UNL A   1      32.823  21.084  25.427  1.00  0.00     0.116 C 
BRANCH   3   4
ATOM      4  N   UNL A   1      31.949  21.726  26.382  1.00  0.00    -0.353 N 
ATOM      5  C   UNL A   1      31.695  23.038  26.632  1.00  0.00     0.261 C 
ATOM      6  O   UNL A   1      30.865  23.272  27.522  1.00  0.00    -0.271 OA
ATOM      7  H   UNL A   1      31.447  21.101  26.953  1.00  0.00     0.163 HD
BRANCH   5   8
ATOM      8  C   UNL A   1      32.376  24.217  25.895  1.00  0.00     0.261 C 
BRANCH   8   9
ATOM      9  C   UNL A   1      33.873  24.399  26.204  1.00  0.00     0.052 C 
ATOM     10  C   UNL A   1      34.702  25.086  25.121  1.00  0.00     0.008 C 
ENDBRANCH   8   9
BRANCH   8  11
ATOM     11  O   UNL A   1      31.606  25.392  26.086  1.00  0.00    -0.480 OA
BRANCH  11  12
ATOM     12  C   UNL A   1      31.224  26.253  25.090  1.00  0.00     0.126 A 
ATOM     13  C   UNL A   1      30.700  25.966  23.809  1.00  0.00    -0.008 A 
ATOM     14  C   UNL A   1      31.376  27.614  25.472  1.00  0.00    -0.008 A 
ATOM     15  C   UNL A   1      30.450  24.601  23.230  1.00  0.00     0.048 C 
ATOM     16  C   UNL A   1      30.328  27.040  22.965  1.00  0.00     0.023 A 
ATOM     17  C   UNL A   1      30.990  28.655  24.609  1.00  0.00     0.023 A 
ATOM     18  C   UNL A   1      31.933  28.027  26.813  1.00  0.00     0.048 C 
ATOM     19  C   UNL A   1      30.467  28.363  23.362  1.00  0.00     0.018 A 
ATOM     20  Br  UNL A   1      29.938  29.759  22.204  1.00  0.00    -0.051 Br
ENDBRANCH  11  12
ENDBRANCH   8  11
ENDBRANCH   5   8
ENDBRANCH   3   4
ENDBRANCH   2   3
ENDBRANCH   1   2
BRANCH   1  21
ATOM     21  C   UNL A   1      36.691  21.656  25.532  1.00  0.00     0.116 C 
BRANCH  21  22
ATOM     22  N   UNL A   1      37.730  20.645  25.426  1.00  0.00    -0.352 N 
ATOM     23  C   UNL A   1      39.038  20.729  25.853  1.00  0.00     0.251 C 
ATOM     24  H   UNL A   1      37.467  19.799  24.998  1.00  0.00     0.163 HD
ATOM     25  O   UNL A   1      39.824  19.810  25.642  1.00  0.00    -0.269 OA
BRANCH  23  26
ATOM     26  C   UNL A   1      39.484  21.967  26.521  1.00  0.00     0.039 A 
ATOM     27  C   UNL A   1      40.431  21.876  27.544  1.00  0.00     0.014 A 
ATOM     28  C   UNL A   1      39.044  23.210  26.064  1.00  0.00     0.014 A 
ATOM     29  C   UNL A   1      41.014  23.042  28.047  1.00  0.00     0.010 A 
ATOM     30  C   UNL A   1      39.660  24.368  26.532  1.00  0.00     0.010 A 
ATOM     31  C   UNL A   1      40.670  24.291  27.506  1.00  0.00    -0.014 A 
BRANCH  31  32
ATOM     32  C   UNL A   1      41.392  25.530  27.891  1.00  0.00     0.031 A 
ATOM     33  C   UNL A   1      40.654  26.651  28.564  1.00  0.00     0.074 A 
ATOM     34  C   UNL A   1      42.680  25.683  27.524  1.00  0.00     0.049 A 
ATOM     35  N   UNL A   1      41.064  27.862  28.838  1.00  0.00    -0.248 NA
ATOM     36  C   UNL A   1      39.260  26.384  28.949  1.00  0.00     0.031 C 
ATOM     37  C   UNL A   1      43.485  24.678  26.822  1.00  0.00     0.029 A 
ATOM     38  N   UNL A   1      43.532  26.752  27.655  1.00  0.00    -0.354 N 
ATOM     39  C   UNL A   1      39.973  28.512  29.402  1.00  0.00     0.074 A 
ATOM     40  C   UNL A   1      38.876  27.568  29.403  1.00  0.00     0.031 C 
ATOM     41  C   UNL A   1      44.706  25.183  26.578  1.00  0.00     0.029 A 
ATOM     42  C   UNL A   1      44.759  26.558  27.063  1.00  0.00     0.049 A 
ATOM     43  H   UNL A   1      43.287  27.580  28.127  1.00  0.00     0.167 HD
ATOM     44  C   UNL A   1      39.901  29.778  29.881  1.00  0.00     0.034 A 
ATOM     45  C   UNL A   1      45.798  27.401  26.899  1.00  0.00     0.034 A 
ATOM     46  C   UNL A   1      41.014  30.693  29.903  1.00  0.00     0.049 A 
ATOM     47  C   UNL A   1      45.688  28.805  27.438  1.00  0.00     0.074 A 
ATOM     48  C   UNL A   1      41.083  31.951  30.474  1.00  0.00     0.029 A 
ATOM     49  N   UNL A   1      42.249  30.456  29.315  1.00  0.00    -0.354 N 
ATOM     50  N   UNL A   1      44.675  29.376  28.047  1.00  0.00    -0.248 NA
ATOM     51  C   UNL A   1      46.858  29.676  27.267  1.00  0.00     0.031 C 
ATOM     52  C   UNL A   1      42.337  32.500  30.179  1.00  0.00     0.029 A 
ATOM     53  C   UNL A   1      43.071  31.560  29.473  1.00  0.00     0.049 A 
ATOM     54  H   UNL A   1      42.503  29.625  28.852  1.00  0.00     0.167 HD
ATOM     55  C   UNL A   1      45.096  30.667  28.350  1.00  0.00     0.074 A 
ATOM     56  C   UNL A   1      46.457  30.785  27.870  1.00  0.00     0.031 C 
ATOM     57  C   UNL A   1      44.420  31.665  28.974  1.00  0.00     0.034 A 
BRANCH  44  58
ATOM     58  C   UNL A   1      38.568  30.256  30.393  1.00  0.00     0.023 A 
ATOM     59  C   UNL A   1      37.687  30.997  29.588  1.00  0.00     0.031 A 
ATOM     60  C   UNL A   1      38.174  29.966  31.712  1.00  0.00     0.131 A 
ATOM     61  C   UNL A   1      36.482  31.472  30.125  1.00  0.00     0.055 A 
ATOM     62  C   UNL A   1      36.944  30.386  32.221  1.00  0.00     0.041 A 
ATOM     63  F   UNL A   1      38.985  29.278  32.531  1.00  0.00    -0.206 F 
ATOM     64  C   UNL A   1      36.094  31.153  31.430  1.00  0.00     0.022 A 
BRANCH  61  65
ATOM     65  S   UNL A   1      35.473  32.601  29.129  1.00  0.00     0.124 S 
ATOM     66  O   UNL A   1      35.438  31.908  27.843  1.00  0.00    -0.237 OA
ATOM     67  O   UNL A   1      34.216  32.638  29.867  1.00  0.00    -0.237 OA
ATOM     68  O   UNL A   1      36.238  33.846  29.138  1.00  0.00    -0.744 OA
ENDBRANCH  61  65
ENDBRANCH  44  58
BRANCH  45  69
ATOM     69  C   UNL A   1      47.017  26.969  26.159  1.00  0.00     0.023 A 
ATOM     70  C   UNL A   1      48.075  26.326  26.820  1.00  0.00     0.031 A 
ATOM     71  C   UNL A   1      47.166  27.249  24.789  1.00  0.00     0.131 A 
ATOM     72  C   UNL A   1      49.256  26.025  26.121  1.00  0.00     0.055 A 
ATOM     73  C   UNL A   1      48.324  26.905  24.088  1.00  0.00     0.041 A 
ATOM     74  F   UNL A   1      46.182  27.858  24.109  1.00  0.00    -0.206 F 
ATOM     75  C   UNL A   1      49.383  26.302  24.758  1.00  0.00     0.022 A 
BRANCH  72  76
ATOM     76  S   UNL A   1      50.663  25.351  27.047  1.00  0.00     0.124 S 
ATOM     77  O   UNL A   1      50.038  24.261  27.790  1.00  0.00    -0.237 OA
ATOM     78  O   UNL A   1      51.569  24.958  25.972  1.00  0.00    -0.237 OA
ATOM     79  O   UNL A   1      51.110  26.481  27.856  1.00  0.00    -0.744 OA
ENDBRANCH  72  76
ENDBRANCH  45  69
BRANCH  57  80
ATOM     80  C   UNL A   1      45.164  32.956  29.195  1.00  0.00     0.023 A 
ATOM     81  C   UNL A   1      45.073  34.020  28.281  1.00  0.00     0.031 A 
ATOM     82  C   UNL A   1      45.975  33.119  30.331  1.00  0.00     0.131 A 
ATOM     83  C   UNL A   1      45.816  35.189  28.499  1.00  0.00     0.055 A 
ATOM     84  C   UNL A   1      46.675  34.302  30.567  1.00  0.00     0.041 A 
ATOM     85  F   UNL A   1      46.095  32.130  31.232  1.00  0.00    -0.206 F 
ATOM     86  C   UNL A   1      46.605  35.342  29.643  1.00  0.00     0.022 A 
BRANCH  83  87
ATOM     87  S   UNL A   1      45.786  36.490  27.237  1.00  0.00     0.124 S 
ATOM     88  O   UNL A   1      46.240  37.654  27.990  1.00  0.00    -0.237 OA
ATOM     89  O   UNL A   1      46.715  35.977  26.234  1.00  0.00    -0.237 OA
ATOM     90  O   UNL A   1      44.385  36.529  26.818  1.00  0.00    -0.744 OA
ENDBRANCH  83  87
ENDBRANCH  57  80
ENDBRANCH  31  32
ENDBRANCH  23  26
ENDBRANCH  21  22
ENDBRANCH   1  21
TORSDOF 17
ENDMDL
MODEL 3
REMARK VINA RESULT:     -11.7      1.188      7.739
REMARK SMILES CC[C@H](Oc1c(C)cc(Br)cc1C)C(=O)NCCCCNC(=O)c1ccc(-c2c3nc(c(-c4cc(S(=O)(=O)[O-])ccc4F)c4ccc([nH]4)c(-c4cc(S(=O)(=O)[O-])ccc4F)c4nc(c(-c5cc(S(=O)(=O)[O-])ccc5F)c5ccc2[nH]5)C=C4)C=C3)cc1
REMARK SMILES IDX 19 1 18 2 17 3 16 4 14 5 15 6 3 8 2 9 1 10 4 11 5 12 6 13
REMARK SMILES IDX 12 14 7 15 8 16 11 17 13 18 9 19 10 20 20 21 21 22 22 23
REMARK SMILES IDX 23 25 24 26 25 27 86 28 26 29 85 30 27 31 28 32 29 33 79 34
REMARK SMILES IDX 30 35 84 36 78 37 80 38 31 39 83 40 77 41 76 42 32 44 64 45
REMARK SMILES IDX 44 46 63 47 45 48 48 49 62 50 81 51 46 52 47 53 61 55 82 56
REMARK SMILES IDX 49 57 33 58 34 59 42 60 35 61 41 62 43 63 40 64 36 65 37 66
REMARK SMILES IDX 38 67 39 68 65 69 66 70 74 71 67 72 73 73 75 74 72 75 68 76
REMARK SMILES IDX 69 77 70 78 71 79 50 80 51 81 59 82 52 83 58 84 60 85 57 86
REMARK SMILES IDX 53 87 54 88 55 89 56 90
REMARK H PARENT 16 7 21 24 80 43 48 54
REMARK Flexibility Score: inf
ROOT
ATOM      1  C   UNL A   1      35.589  22.032  25.936  1.00  0.00     0.023 C 
ENDROOT
BRANCH   1   2
ATOM      2  C   UNL A   1      34.985  23.324  26.487  1.00  0.00     0.023 C 
BRANCH   2   3
ATOM      3  C   UNL A   1      33.922  23.966  25.604  1.00  0.00     0.116 C 
BRANCH   3   4
ATOM      4  N   UNL A   1      32.614  23.967  26.218  1.00  0.00    -0.353 N 
ATOM      5  C   UNL A   1      31.638  24.911  26.260  1.00  0.00     0.261 C 
ATOM      6  O   UNL A   1      30.602  24.598  26.864  1.00  0.00    -0.271 OA
ATOM      7  H   UNL A   1      32.389  23.132  26.690  1.00  0.00     0.163 HD
BRANCH   5   8
ATOM      8  C   UNL A   1      31.753  26.318  25.624  1.00  0.00     0.261 C 
BRANCH   8   9
ATOM      9  C   UNL A   1      31.271  27.477  26.517  1.00  0.00     0.052 C 
ATOM     10  C   UNL A   1      32.357  28.229  27.282  1.00  0.00     0.008 C 
ENDBRANCH   8   9
BRANCH   8  11
ATOM     11  O   UNL A   1      31.154  26.299  24.339  1.00  0.00    -0.480 OA
BRANCH  11  12
ATOM     12  C   UNL A   1      30.682  27.400  23.675  1.00  0.00     0.126 A 
ATOM     13  C   UNL A   1      31.400  28.459  23.073  1.00  0.00    -0.008 A 
ATOM     14  C   UNL A   1      29.263  27.407  23.589  1.00  0.00    -0.008 A 
ATOM     15  C   UNL A   1      32.894  28.623  23.040  1.00  0.00     0.048 C 
ATOM     16  C   UNL A   1      30.682  29.473  22.391  1.00  0.00     0.023 A 
ATOM     17  C   UNL A   1      28.585  28.427  22.898  1.00  0.00     0.023 A 
ATOM     18  C   UNL A   1      28.405  26.328  24.205  1.00  0.00     0.048 C 
ATOM     19  C   UNL A   1      29.297  29.452  22.303  1.00  0.00     0.018 A 
ATOM     20  Br  UNL A   1      28.389  30.819  21.366  1.00  0.00    -0.051 Br
ENDBRANCH  11  12
ENDBRANCH   8  11
ENDBRANCH   5   8
ENDBRANCH   3   4
ENDBRANCH   2   3
ENDBRANCH   1   2
BRANCH   1  21
ATOM     21  C   UNL A   1      36.838  22.195  25.071  1.00  0.00     0.116 C 
BRANCH  21  22
ATOM     22  N   UNL A   1      37.777  21.090  25.176  1.00  0.00    -0.352 N 
ATOM     23  C   UNL A   1      39.004  21.079  25.804  1.00  0.00     0.251 C 
ATOM     24  H   UNL A   1      37.503  20.247  24.747  1.00  0.00     0.163 HD
ATOM     25  O   UNL A   1      39.719  20.082  25.761  1.00  0.00    -0.269 OA
BRANCH  23  26
ATOM     26  C   UNL A   1      39.460  22.308  26.483  1.00  0.00     0.039 A 
ATOM     27  C   UNL A   1      40.405  22.200  27.505  1.00  0.00     0.014 A 
ATOM     28  C   UNL A   1      39.030  23.559  26.036  1.00  0.00     0.014 A 
ATOM     29  C   UNL A   1      40.997  23.357  28.018  1.00  0.00     0.010 A 
ATOM     30  C   UNL A   1      39.655  24.707  26.514  1.00  0.00     0.010 A 
ATOM     31  C   UNL A   1      40.664  24.614  27.488  1.00  0.00    -0.014 A 
BRANCH  31  32
ATOM     32  C   UNL A   1      41.395  25.843  27.884  1.00  0.00     0.031 A 
ATOM     33  C   UNL A   1      40.664  26.969  28.557  1.00  0.00     0.074 A 
ATOM     34  C   UNL A   1      42.687  25.985  27.526  1.00  0.00     0.049 A 
ATOM     35  N   UNL A   1      41.084  28.174  28.839  1.00  0.00    -0.248 NA
ATOM     36  C   UNL A   1      39.265  26.714  28.931  1.00  0.00     0.031 C 
ATOM     37  C   UNL A   1      43.487  24.975  26.825  1.00  0.00     0.029 A 
ATOM     38  N   UNL A   1      43.549  27.045  27.668  1.00  0.00    -0.354 N 
ATOM     39  C   UNL A   1      39.996  28.833  29.399  1.00  0.00     0.074 A 
ATOM     40  C   UNL A   1      38.889  27.900  29.387  1.00  0.00     0.031 C 
ATOM     41  C   UNL A   1      44.714  25.469  26.592  1.00  0.00     0.029 A 
ATOM     42  C   UNL A   1      44.778  26.841  27.084  1.00  0.00     0.049 A 
ATOM     43  H   UNL A   1      43.309  27.873  28.143  1.00  0.00     0.167 HD
ATOM     44  C   UNL A   1      39.933  30.097  29.883  1.00  0.00     0.034 A 
ATOM     45  C   UNL A   1      45.827  27.675  26.932  1.00  0.00     0.034 A 
ATOM     46  C   UNL A   1      41.055  31.001  29.918  1.00  0.00     0.049 A 
ATOM     47  C   UNL A   1      45.727  29.077  27.476  1.00  0.00     0.074 A 
ATOM     48  C   UNL A   1      41.133  32.256  30.495  1.00  0.00     0.029 A 
ATOM     49  N   UNL A   1      42.292  30.754  29.337  1.00  0.00    -0.354 N 
ATOM     50  N   UNL A   1      44.715  29.655  28.081  1.00  0.00    -0.248 NA
ATOM     51  C   UNL A   1      46.906  29.937  27.318  1.00  0.00     0.031 C 
ATOM     52  C   UNL A   1      42.394  32.793  30.211  1.00  0.00     0.029 A 
ATOM     53  C   UNL A   1      43.124  31.849  29.506  1.00  0.00     0.049 A 
ATOM     54  H   UNL A   1      42.540  29.923  28.872  1.00  0.00     0.167 HD
ATOM     55  C   UNL A   1      45.147  30.941  28.393  1.00  0.00     0.074 A 
ATOM     56  C   UNL A   1      46.513  31.048  27.924  1.00  0.00     0.031 C 
ATOM     57  C   UNL A   1      44.477  31.942  29.017  1.00  0.00     0.034 A 
BRANCH  44  58
ATOM     58  C   UNL A   1      38.601  30.586  30.388  1.00  0.00     0.023 A 
ATOM     59  C   UNL A   1      37.704  31.281  29.560  1.00  0.00     0.031 A 
ATOM     60  C   UNL A   1      38.225  30.354  31.724  1.00  0.00     0.131 A 
ATOM     61  C   UNL A   1      36.500  31.769  30.089  1.00  0.00     0.055 A 
ATOM     62  C   UNL A   1      36.997  30.786  32.227  1.00  0.00     0.041 A 
ATOM     63  F   UNL A   1      39.052  29.713  32.564  1.00  0.00    -0.206 F 
ATOM     64  C   UNL A   1      36.130  31.508  31.411  1.00  0.00     0.022 A 
BRANCH  61  65
ATOM     65  S   UNL A   1      35.469  32.841  29.053  1.00  0.00     0.124 S 
ATOM     66  O   UNL A   1      35.556  32.171  27.757  1.00  0.00    -0.237 OA
ATOM     67  O   UNL A   1      34.174  32.775  29.719  1.00  0.00    -0.237 OA
ATOM     68  O   UNL A   1      36.141  34.137  29.123  1.00  0.00    -0.744 OA
ENDBRANCH  61  65
ENDBRANCH  44  58
BRANCH  45  69
ATOM     69  C   UNL A   1      47.047  27.234  26.198  1.00  0.00     0.023 A 
ATOM     70  C   UNL A   1      47.270  27.622  24.868  1.00  0.00     0.031 A 
ATOM     71  C   UNL A   1      47.977  26.369  26.799  1.00  0.00     0.131 A 
ATOM     72  C   UNL A   1      48.371  27.107  24.165  1.00  0.00     0.055 A 
ATOM     73  C   UNL A   1      49.097  25.897  26.111  1.00  0.00     0.041 A 
ATOM     74  F   UNL A   1      47.814  25.972  28.071  1.00  0.00    -0.206 F 
ATOM     75  C   UNL A   1      49.291  26.255  24.780  1.00  0.00     0.022 A 
BRANCH  72  76
ATOM     76  S   UNL A   1      48.532  27.494  22.399  1.00  0.00     0.124 S 
ATOM     77  O   UNL A   1      47.285  28.205  22.135  1.00  0.00    -0.237 OA
ATOM     78  O   UNL A   1      49.747  28.301  22.378  1.00  0.00    -0.237 OA
ATOM     79  O   UNL A   1      48.645  26.180  21.773  1.00  0.00    -0.744 OA
ENDBRANCH  72  76
ENDBRANCH  45  69
BRANCH  57  80
ATOM     80  C   UNL A   1      45.232  33.225  29.249  1.00  0.00     0.023 A 
ATOM     81  C   UNL A   1      45.261  34.244  28.282  1.00  0.00     0.031 A 
ATOM     82  C   UNL A   1      45.933  33.425  30.450  1.00  0.00     0.131 A 
ATOM     83  C   UNL A   1      46.012  35.405  28.517  1.00  0.00     0.055 A 
ATOM     84  C   UNL A   1      46.640  34.601  30.699  1.00  0.00     0.041 A 
ATOM     85  F   UNL A   1      45.937  32.479  31.404  1.00  0.00    -0.206 F 
ATOM     86  C   UNL A   1      46.690  35.596  29.725  1.00  0.00     0.022 A 
BRANCH  83  87
ATOM     87  S   UNL A   1      46.141  36.642  27.198  1.00  0.00     0.124 S 
ATOM     88  O   UNL A   1      47.504  37.132  27.375  1.00  0.00    -0.237 OA
ATOM     89  O   UNL A   1      45.900  35.847  25.997  1.00  0.00    -0.237 OA
ATOM     90  O   UNL A   1      45.089  37.603  27.525  1.00  0.00    -0.744 OA
ENDBRANCH  83  87
ENDBRANCH  57  80
ENDBRANCH  31  32
ENDBRANCH  23  26
ENDBRANCH  21  22
ENDBRANCH   1  21
TORSDOF 17
ENDMDL
