MODEL 1
REMARK VINA RESULT:     -13.1      0.000      0.000
REMARK SMILES O=C(NCCCCNC(=O)c1ccc(-c2c3nc(c(-c4cc(S(=O)(=O)[O-])ccc4F)c4ccc([nH]4)c(-c4cc(S(=O)(=O)[O-])ccc4F)c4nc(c(-c5cc(S(=O)(=O)[O-])ccc5F)c5ccc2[nH]5)C=C4)C=C3)cc1)C1=Cc2c(cc(Cl)c(Cl)c2Cl)O[C@H]1C(F)(F)F
REMARK SMILES IDX 6 1 5 2 4 3 3 4 1 5 2 6 74 8 75 9 86 10 76 11 85 12 77 13
REMARK SMILES IDX 83 14 78 15 81 16 84 17 79 18 82 19 80 20 87 21 88 22 89 23
REMARK SMILES IDX 90 24 7 25 8 26 9 27 10 29 11 30 12 31 73 32 13 33 72 34
REMARK SMILES IDX 14 35 15 36 16 37 66 38 17 39 71 40 65 41 67 42 18 43 70 44
REMARK SMILES IDX 64 45 63 46 19 48 51 49 31 50 50 51 32 52 35 53 49 54 68 55
REMARK SMILES IDX 33 56 34 57 48 59 69 60 36 61 20 62 21 63 29 64 22 65 28 66
REMARK SMILES IDX 30 67 27 68 23 69 24 70 25 71 26 72 52 73 53 74 61 75 54 76
REMARK SMILES IDX 60 77 62 78 59 79 55 80 56 81 57 82 58 83 37 84 38 85 46 86
REMARK SMILES IDX 39 87 45 88 47 89 44 90 40 91 41 92 42 93 43 94
REMARK H PARENT 3 7 8 28 67 47 35 58
REMARK Flexibility Score: inf
ROOT
ATOM      1  C   UNL A   1      35.671  21.001  24.886  1.00  0.00     0.023 C 
ENDROOT
BRANCH   1   2
ATOM      2  C   UNL A   1      34.761  21.162  26.099  1.00  0.00     0.023 C 
BRANCH   2   3
ATOM      3  C   UNL A   1      34.714  22.554  26.718  1.00  0.00     0.116 C 
BRANCH   3   4
ATOM      4  N   UNL A   1      33.393  23.045  27.070  1.00  0.00    -0.352 N 
ATOM      5  O   UNL A   1      31.599  24.419  26.957  1.00  0.00    -0.270 OA
ATOM      6  C   UNL A   1      32.687  24.076  26.505  1.00  0.00     0.251 C 
ATOM      7  H   UNL A   1      32.946  22.576  27.811  1.00  0.00     0.163 HD
BRANCH   6   8
ATOM      8  C   UNL A   1      33.259  24.825  25.352  1.00  0.00     0.067 C 
ATOM      9  C   UNL A   1      33.780  26.029  25.639  1.00  0.00     0.027 C 
ATOM     10  C   UNL A   1      32.640  24.523  24.014  1.00  0.00     0.314 C 
ATOM     11  C   UNL A   1      32.999  27.151  25.080  1.00  0.00     0.037 A 
ATOM     12  O   UNL A   1      32.099  25.697  23.338  1.00  0.00    -0.475 OA
ATOM     13  C   UNL A   1      32.146  26.897  24.000  1.00  0.00     0.131 A 
ATOM     14  C   UNL A   1      32.942  28.396  25.741  1.00  0.00     0.072 A 
ATOM     15  C   UNL A   1      31.209  27.847  23.609  1.00  0.00     0.069 A 
ATOM     16  C   UNL A   1      31.974  29.345  25.369  1.00  0.00     0.079 A 
ATOM     17  Cl  UNL A   1      34.025  28.699  27.068  1.00  0.00    -0.082 Cl
ATOM     18  C   UNL A   1      31.099  29.050  24.311  1.00  0.00     0.064 A 
ATOM     19  Cl  UNL A   1      31.817  30.833  26.246  1.00  0.00    -0.081 Cl
ATOM     20  Cl  UNL A   1      29.813  30.109  23.845  1.00  0.00    -0.083 Cl
BRANCH  10  21
ATOM     21  C   UNL A   1      33.623  23.777  23.086  1.00  0.00     0.429 C 
ATOM     22  F   UNL A   1      33.511  24.137  21.787  1.00  0.00    -0.167 F 
ATOM     23  F   UNL A   1      34.908  24.003  23.455  1.00  0.00    -0.167 F 
ATOM     24  F   UNL A   1      33.437  22.433  23.128  1.00  0.00    -0.167 F 
ENDBRANCH  10  21
ENDBRANCH   6   8
ENDBRANCH   3   4
ENDBRANCH   2   3
ENDBRANCH   1   2
BRANCH   1  25
ATOM     25  C   UNL A   1      37.068  21.615  24.982  1.00  0.00     0.116 C 
BRANCH  25  26
ATOM     26  N   UNL A   1      38.149  20.657  25.173  1.00  0.00    -0.352 N 
ATOM     27  C   UNL A   1      39.311  20.775  25.912  1.00  0.00     0.251 C 
ATOM     28  H   UNL A   1      38.035  19.798  24.706  1.00  0.00     0.163 HD
ATOM     29  O   UNL A   1      40.117  19.853  25.920  1.00  0.00    -0.269 OA
BRANCH  27  30
ATOM     30  C   UNL A   1      39.615  22.044  26.616  1.00  0.00     0.039 A 
ATOM     31  C   UNL A   1      40.602  22.033  27.606  1.00  0.00     0.014 A 
ATOM     32  C   UNL A   1      39.012  23.246  26.240  1.00  0.00     0.014 A 
ATOM     33  C   UNL A   1      41.091  23.243  28.106  1.00  0.00     0.010 A 
ATOM     34  C   UNL A   1      39.555  24.451  26.680  1.00  0.00     0.010 A 
ATOM     35  C   UNL A   1      40.630  24.461  27.582  1.00  0.00    -0.014 A 
BRANCH  35  36
ATOM     36  C   UNL A   1      41.331  25.740  27.877  1.00  0.00     0.031 A 
ATOM     37  C   UNL A   1      40.640  26.845  28.620  1.00  0.00     0.074 A 
ATOM     38  C   UNL A   1      42.565  25.939  27.368  1.00  0.00     0.049 A 
ATOM     39  N   UNL A   1      41.061  28.056  28.882  1.00  0.00    -0.248 NA
ATOM     40  C   UNL A   1      39.283  26.558  29.101  1.00  0.00     0.031 C 
ATOM     41  C   UNL A   1      43.314  24.969  26.563  1.00  0.00     0.029 A 
ATOM     42  N   UNL A   1      43.399  27.028  27.428  1.00  0.00    -0.354 N 
ATOM     43  C   UNL A   1      40.019  28.682  29.556  1.00  0.00     0.074 A 
ATOM     44  C   UNL A   1      38.924  27.732  29.598  1.00  0.00     0.031 C 
ATOM     45  C   UNL A   1      44.495  25.501  26.216  1.00  0.00     0.029 A 
ATOM     46  C   UNL A   1      44.575  26.862  26.732  1.00  0.00     0.049 A 
ATOM     47  H   UNL A   1      43.177  27.849  27.922  1.00  0.00     0.167 HD
ATOM     48  C   UNL A   1      39.986  29.922  30.107  1.00  0.00     0.034 A 
ATOM     49  C   UNL A   1      45.595  27.715  26.513  1.00  0.00     0.034 A 
ATOM     50  C   UNL A   1      41.085  30.858  30.046  1.00  0.00     0.049 A 
ATOM     51  C   UNL A   1      45.533  29.093  27.109  1.00  0.00     0.074 A 
ATOM     52  C   UNL A   1      41.191  32.108  30.630  1.00  0.00     0.029 A 
ATOM     53  N   UNL A   1      42.264  30.654  29.337  1.00  0.00    -0.354 N 
ATOM     54  N   UNL A   1      44.572  29.644  27.813  1.00  0.00    -0.248 NA
ATOM     55  C   UNL A   1      46.696  29.962  26.888  1.00  0.00     0.031 C 
ATOM     56  C   UNL A   1      42.400  32.685  30.222  1.00  0.00     0.029 A 
ATOM     57  C   UNL A   1      43.082  31.770  29.436  1.00  0.00     0.049 A 
ATOM     58  H   UNL A   1      42.486  29.835  28.837  1.00  0.00     0.167 HD
ATOM     59  C   UNL A   1      45.016  30.924  28.124  1.00  0.00     0.074 A 
ATOM     60  C   UNL A   1      46.341  31.055  27.550  1.00  0.00     0.031 C 
ATOM     61  C   UNL A   1      44.385  31.903  28.823  1.00  0.00     0.034 A 
BRANCH  48  62
ATOM     62  C   UNL A   1      38.705  30.331  30.797  1.00  0.00     0.023 A 
ATOM     63  C   UNL A   1      37.653  30.940  30.088  1.00  0.00     0.031 A 
ATOM     64  C   UNL A   1      38.554  30.173  32.185  1.00  0.00     0.131 A 
ATOM     65  C   UNL A   1      36.549  31.460  30.779  1.00  0.00     0.055 A 
ATOM     66  C   UNL A   1      37.410  30.614  32.856  1.00  0.00     0.041 A 
ATOM     67  F   UNL A   1      39.529  29.616  32.921  1.00  0.00    -0.206 F 
ATOM     68  C   UNL A   1      36.409  31.281  32.156  1.00  0.00     0.022 A 
BRANCH  65  69
ATOM     69  S   UNL A   1      35.394  32.530  29.877  1.00  0.00     0.124 S 
ATOM     70  O   UNL A   1      35.005  31.671  28.761  1.00  0.00    -0.237 OA
ATOM     71  O   UNL A   1      34.363  32.790  30.874  1.00  0.00    -0.237 OA
ATOM     72  O   UNL A   1      36.212  33.683  29.508  1.00  0.00    -0.744 OA
ENDBRANCH  65  69
ENDBRANCH  48  62
BRANCH  49  73
ATOM     73  C   UNL A   1      46.745  27.292  25.666  1.00  0.00     0.023 A 
ATOM     74  C   UNL A   1      46.888  27.758  24.350  1.00  0.00     0.031 A 
ATOM     75  C   UNL A   1      47.723  26.415  26.169  1.00  0.00     0.131 A 
ATOM     76  C   UNL A   1      47.974  27.327  23.572  1.00  0.00     0.055 A 
ATOM     77  C   UNL A   1      48.821  26.020  25.405  1.00  0.00     0.041 A 
ATOM     78  F   UNL A   1      47.636  25.953  27.427  1.00  0.00    -0.206 F 
ATOM     79  C   UNL A   1      48.947  26.471  24.095  1.00  0.00     0.022 A 
BRANCH  76  80
ATOM     80  S   UNL A   1      48.083  27.876  21.847  1.00  0.00     0.124 S 
ATOM     81  O   UNL A   1      46.802  28.550  21.666  1.00  0.00    -0.237 OA
ATOM     82  O   UNL A   1      49.261  28.735  21.876  1.00  0.00    -0.237 OA
ATOM     83  O   UNL A   1      48.244  26.629  21.102  1.00  0.00    -0.744 OA
ENDBRANCH  76  80
ENDBRANCH  49  73
BRANCH  61  84
ATOM     84  C   UNL A   1      45.137  33.198  29.003  1.00  0.00     0.023 A 
ATOM     85  C   UNL A   1      44.909  34.301  28.163  1.00  0.00     0.031 A 
ATOM     86  C   UNL A   1      46.105  33.323  30.015  1.00  0.00     0.131 A 
ATOM     87  C   UNL A   1      45.674  35.467  28.317  1.00  0.00     0.055 A 
ATOM     88  C   UNL A   1      46.825  34.505  30.198  1.00  0.00     0.041 A 
ATOM     89  F   UNL A   1      46.366  32.299  30.842  1.00  0.00    -0.206 F 
ATOM     90  C   UNL A   1      46.620  35.582  29.340  1.00  0.00     0.022 A 
BRANCH  87  91
ATOM     91  S   UNL A   1      45.472  36.810  27.115  1.00  0.00     0.124 S 
ATOM     92  O   UNL A   1      46.451  36.449  26.093  1.00  0.00    -0.237 OA
ATOM     93  O   UNL A   1      44.071  36.679  26.729  1.00  0.00    -0.237 OA
ATOM     94  O   UNL A   1      45.793  38.011  27.884  1.00  0.00    -0.744 OA
ENDBRANCH  87  91
ENDBRANCH  61  84
ENDBRANCH  35  36
ENDBRANCH  27  30
ENDBRANCH  25  26
ENDBRANCH   1  25
TORSDOF 15
ENDMDL
MODEL 2
REMARK VINA RESULT:     -13.0      5.330     10.407
REMARK SMILES O=C(NCCCCNC(=O)c1ccc(-c2c3nc(c(-c4cc(S(=O)(=O)[O-])ccc4F)c4ccc([nH]4)c(-c4cc(S(=O)(=O)[O-])ccc4F)c4nc(c(-c5cc(S(=O)(=O)[O-])ccc5F)c5ccc2[nH]5)C=C4)C=C3)cc1)C1=Cc2c(cc(Cl)c(Cl)c2Cl)O[C@H]1C(F)(F)F
REMARK SMILES IDX 6 1 5 2 4 3 3 4 1 5 2 6 74 8 75 9 86 10 76 11 85 12 77 13
REMARK SMILES IDX 83 14 78 15 81 16 84 17 79 18 82 19 80 20 87 21 88 22 89 23
REMARK SMILES IDX 90 24 7 25 8 26 9 27 10 29 11 30 12 31 73 32 13 33 72 34
REMARK SMILES IDX 14 35 15 36 16 37 66 38 17 39 71 40 65 41 67 42 18 43 70 44
REMARK SMILES IDX 64 45 63 46 19 48 51 49 31 50 50 51 32 52 35 53 49 54 68 55
REMARK SMILES IDX 33 56 34 57 48 59 69 60 36 61 20 62 21 63 29 64 22 65 28 66
REMARK SMILES IDX 30 67 27 68 23 69 24 70 25 71 26 72 52 73 53 74 61 75 54 76
REMARK SMILES IDX 60 77 62 78 59 79 55 80 56 81 57 82 58 83 37 84 38 85 46 86
REMARK SMILES IDX 39 87 45 88 47 89 44 90 40 91 41 92 42 93 43 94
REMARK H PARENT 3 7 8 28 67 47 35 58
REMARK Flexibility Score: inf
ROOT
ATOM      1  C   UNL A   1      31.432  30.075  25.256  1.00  0.00     0.023 C 
ENDROOT
BRANCH   1   2
ATOM      2  C   UNL A   1      31.661  28.751  24.534  1.00  0.00     0.023 C 
BRANCH   2   3
ATOM      3  C   UNL A   1      33.110  28.297  24.415  1.00  0.00     0.116 C 
BRANCH   3   4
ATOM      4  N   UNL A   1      33.386  27.330  23.367  1.00  0.00    -0.352 N 
ATOM      5  O   UNL A   1      33.812  25.283  22.501  1.00  0.00    -0.270 OA
ATOM      6  C   UNL A   1      33.511  25.968  23.473  1.00  0.00     0.251 C 
ATOM      7  H   UNL A   1      33.496  27.700  22.462  1.00  0.00     0.163 HD
BRANCH   6   8
ATOM      8  C   UNL A   1      33.322  25.304  24.793  1.00  0.00     0.067 C 
ATOM      9  C   UNL A   1      34.442  24.871  25.394  1.00  0.00     0.027 C 
ATOM     10  C   UNL A   1      31.997  24.618  24.988  1.00  0.00     0.314 C 
ATOM     11  C   UNL A   1      34.541  23.399  25.454  1.00  0.00     0.037 A 
ATOM     12  O   UNL A   1      32.112  23.201  25.314  1.00  0.00    -0.475 OA
ATOM     13  C   UNL A   1      33.365  22.647  25.338  1.00  0.00     0.131 A 
ATOM     14  C   UNL A   1      35.794  22.753  25.412  1.00  0.00     0.072 A 
ATOM     15  C   UNL A   1      33.431  21.273  25.131  1.00  0.00     0.069 A 
ATOM     16  C   UNL A   1      35.862  21.369  25.170  1.00  0.00     0.079 A 
ATOM     17  Cl  UNL A   1      37.241  23.703  25.578  1.00  0.00    -0.082 Cl
ATOM     18  C   UNL A   1      34.672  20.642  25.013  1.00  0.00     0.064 A 
ATOM     19  Cl  UNL A   1      37.399  20.580  25.004  1.00  0.00    -0.081 Cl
ATOM     20  Cl  UNL A   1      34.655  18.959  24.615  1.00  0.00    -0.083 Cl
BRANCH  10  21
ATOM     21  C   UNL A   1      31.130  25.342  26.042  1.00  0.00     0.429 C 
ATOM     22  F   UNL A   1      31.837  26.188  26.826  1.00  0.00    -0.167 F 
ATOM     23  F   UNL A   1      30.150  26.067  25.450  1.00  0.00    -0.167 F 
ATOM     24  F   UNL A   1      30.516  24.467  26.878  1.00  0.00    -0.167 F 
ENDBRANCH  10  21
ENDBRANCH   6   8
ENDBRANCH   3   4
ENDBRANCH   2   3
ENDBRANCH   1   2
BRANCH   1  25
ATOM     25  C   UNL A   1      32.315  30.363  26.470  1.00  0.00     0.116 C 
BRANCH  25  26
ATOM     26  N   UNL A   1      32.218  31.719  26.993  1.00  0.00    -0.352 N 
ATOM     27  C   UNL A   1      33.178  32.494  27.615  1.00  0.00     0.251 C 
ATOM     28  H   UNL A   1      31.337  32.147  26.889  1.00  0.00     0.163 HD
ATOM     29  O   UNL A   1      32.885  33.615  28.013  1.00  0.00    -0.269 OA
BRANCH  27  30
ATOM     30  C   UNL A   1      34.527  31.936  27.874  1.00  0.00     0.039 A 
ATOM     31  C   UNL A   1      35.600  32.823  28.004  1.00  0.00     0.014 A 
ATOM     32  C   UNL A   1      34.720  30.569  28.086  1.00  0.00     0.014 A 
ATOM     33  C   UNL A   1      36.823  32.361  28.496  1.00  0.00     0.010 A 
ATOM     34  C   UNL A   1      35.913  30.125  28.651  1.00  0.00     0.010 A 
ATOM     35  C   UNL A   1      36.960  31.025  28.904  1.00  0.00    -0.014 A 
BRANCH  35  36
ATOM     36  C   UNL A   1      38.138  30.579  29.695  1.00  0.00     0.031 A 
ATOM     37  C   UNL A   1      39.081  29.543  29.158  1.00  0.00     0.074 A 
ATOM     38  C   UNL A   1      38.288  31.038  30.956  1.00  0.00     0.049 A 
ATOM     39  N   UNL A   1      40.100  28.969  29.743  1.00  0.00    -0.248 NA
ATOM     40  C   UNL A   1      38.818  29.067  27.794  1.00  0.00     0.031 C 
ATOM     41  C   UNL A   1      37.394  31.991  31.620  1.00  0.00     0.029 A 
ATOM     42  N   UNL A   1      39.229  30.748  31.913  1.00  0.00    -0.354 N 
ATOM     43  C   UNL A   1      40.602  28.057  28.822  1.00  0.00     0.074 A 
ATOM     44  C   UNL A   1      39.727  28.112  27.666  1.00  0.00     0.031 C 
ATOM     45  C   UNL A   1      37.835  32.215  32.866  1.00  0.00     0.029 A 
ATOM     46  C   UNL A   1      39.013  31.392  33.110  1.00  0.00     0.049 A 
ATOM     47  H   UNL A   1      39.985  30.139  31.758  1.00  0.00     0.167 HD
ATOM     48  C   UNL A   1      41.701  27.266  28.920  1.00  0.00     0.034 A 
ATOM     49  C   UNL A   1      39.675  31.314  34.282  1.00  0.00     0.034 A 
ATOM     50  C   UNL A   1      42.555  27.218  30.084  1.00  0.00     0.049 A 
ATOM     51  C   UNL A   1      40.875  30.415  34.383  1.00  0.00     0.074 A 
ATOM     52  C   UNL A   1      43.732  26.513  30.265  1.00  0.00     0.029 A 
ATOM     53  N   UNL A   1      42.310  27.888  31.278  1.00  0.00    -0.354 N 
ATOM     54  N   UNL A   1      41.385  29.617  33.474  1.00  0.00    -0.248 NA
ATOM     55  C   UNL A   1      41.593  30.411  35.664  1.00  0.00     0.031 C 
ATOM     56  C   UNL A   1      44.161  26.703  31.586  1.00  0.00     0.029 A 
ATOM     57  C   UNL A   1      43.290  27.580  32.211  1.00  0.00     0.049 A 
ATOM     58  H   UNL A   1      41.550  28.494  31.438  1.00  0.00     0.167 HD
ATOM     59  C   UNL A   1      42.488  29.018  34.072  1.00  0.00     0.074 A 
ATOM     60  C   UNL A   1      42.583  29.566  35.411  1.00  0.00     0.031 C 
ATOM     61  C   UNL A   1      43.348  28.101  33.558  1.00  0.00     0.034 A 
BRANCH  48  62
ATOM     62  C   UNL A   1      42.012  26.376  27.739  1.00  0.00     0.023 A 
ATOM     63  C   UNL A   1      41.532  25.055  27.670  1.00  0.00     0.031 A 
ATOM     64  C   UNL A   1      42.847  26.824  26.701  1.00  0.00     0.131 A 
ATOM     65  C   UNL A   1      41.972  24.200  26.649  1.00  0.00     0.055 A 
ATOM     66  C   UNL A   1      43.210  25.993  25.637  1.00  0.00     0.041 A 
ATOM     67  F   UNL A   1      43.351  28.067  26.717  1.00  0.00    -0.206 F 
ATOM     68  C   UNL A   1      42.790  24.666  25.619  1.00  0.00     0.022 A 
BRANCH  65  69
ATOM     69  S   UNL A   1      41.607  22.428  26.792  1.00  0.00     0.124 S 
ATOM     70  O   UNL A   1      40.165  22.441  27.024  1.00  0.00    -0.237 OA
ATOM     71  O   UNL A   1      42.042  21.912  25.500  1.00  0.00    -0.237 OA
ATOM     72  O   UNL A   1      42.409  22.004  27.937  1.00  0.00    -0.744 OA
ENDBRANCH  65  69
ENDBRANCH  48  62
BRANCH  49  73
ATOM     73  C   UNL A   1      39.193  32.091  35.458  1.00  0.00     0.023 A 
ATOM     74  C   UNL A   1      38.479  31.472  36.495  1.00  0.00     0.031 A 
ATOM     75  C   UNL A   1      39.447  33.471  35.559  1.00  0.00     0.131 A 
ATOM     76  C   UNL A   1      38.024  32.236  37.582  1.00  0.00     0.055 A 
ATOM     77  C   UNL A   1      39.026  34.219  36.659  1.00  0.00     0.041 A 
ATOM     78  F   UNL A   1      40.137  34.105  34.598  1.00  0.00    -0.206 F 
ATOM     79  C   UNL A   1      38.303  33.603  37.676  1.00  0.00     0.022 A 
BRANCH  76  80
ATOM     80  S   UNL A   1      37.028  31.425  38.861  1.00  0.00     0.124 S 
ATOM     81  O   UNL A   1      35.826  32.249  38.872  1.00  0.00    -0.237 OA
ATOM     82  O   UNL A   1      36.878  30.078  38.320  1.00  0.00    -0.237 OA
ATOM     83  O   UNL A   1      37.864  31.522  40.056  1.00  0.00    -0.744 OA
ENDBRANCH  76  80
ENDBRANCH  49  73
BRANCH  61  84
ATOM     84  C   UNL A   1      44.466  27.642  34.460  1.00  0.00     0.023 A 
ATOM     85  C   UNL A   1      44.332  26.503  35.272  1.00  0.00     0.031 A 
ATOM     86  C   UNL A   1      45.671  28.362  34.521  1.00  0.00     0.131 A 
ATOM     87  C   UNL A   1      45.368  26.143  36.148  1.00  0.00     0.055 A 
ATOM     88  C   UNL A   1      46.720  27.969  35.355  1.00  0.00     0.041 A 
ATOM     89  F   UNL A   1      45.850  29.460  33.770  1.00  0.00    -0.206 F 
ATOM     90  C   UNL A   1      46.567  26.860  36.183  1.00  0.00     0.022 A 
BRANCH  87  91
ATOM     91  S   UNL A   1      45.100  24.769  37.301  1.00  0.00     0.124 S 
ATOM     92  O   UNL A   1      43.933  25.226  38.050  1.00  0.00    -0.237 OA
ATOM     93  O   UNL A   1      44.878  23.643  36.400  1.00  0.00    -0.237 OA
ATOM     94  O   UNL A   1      46.345  24.713  38.065  1.00  0.00    -0.744 OA
ENDBRANCH  87  91
ENDBRANCH  61  84
ENDBRANCH  35  36
ENDBRANCH  27  30
ENDBRANCH  25  26
ENDBRANCH   1  25
TORSDOF 15
ENDMDL
MODEL 3
REMARK VINA RESULT:     -12.9      5.264      7.923
REMARK SMILES O=C(NCCCCNC(=O)c1ccc(-c2c3nc(c(-c4cc(S(=O)(=O)[O-])ccc4F)c4ccc([nH]4)c(-c4cc(S(=O)(=O)[O-])ccc4F)c4nc(c(-c5cc(S(=O)(=O)[O-])ccc5F)c5ccc2[nH]5)C=C4)C=C3)cc1)C1=Cc2c(cc(Cl)c(Cl)c2Cl)O[C@H]1C(F)(F)F
REMARK SMILES IDX 6 1 5 2 4 3 3 4 1 5 2 6 74 8 75 9 86 10 76 11 85 12 77 13
REMARK SMILES IDX 83 14 78 15 81 16 84 17 79 18 82 19 80 20 87 21 88 22 89 23
REMARK SMILES IDX 90 24 7 25 8 26 9 27 10 29 11 30 12 31 73 32 13 33 72 34
REMARK SMILES IDX 14 35 15 36 16 37 66 38 17 39 71 40 65 41 67 42 18 43 70 44
REMARK SMILES IDX 64 45 63 46 19 48 51 49 31 50 50 51 32 52 35 53 49 54 68 55
REMARK SMILES IDX 33 56 34 57 48 59 69 60 36 61 20 62 21 63 29 64 22 65 28 66
REMARK SMILES IDX 30 67 27 68 23 69 24 70 25 71 26 72 52 73 53 74 61 75 54 76
REMARK SMILES IDX 60 77 62 78 59 79 55 80 56 81 57 82 58 83 37 84 38 85 46 86
REMARK SMILES IDX 39 87 45 88 47 89 44 90 40 91 41 92 42 93 43 94
REMARK H PARENT 3 7 8 28 67 47 35 58
REMARK Flexibility Score: inf
ROOT
ATOM      1  C   UNL A   1      31.426  29.757  25.332  1.00  0.00     0.023 C 
ENDROOT
BRANCH   1   2
ATOM      2  C   UNL A   1      32.075  29.241  24.051  1.00  0.00     0.023 C 
BRANCH   2   3
ATOM      3  C   UNL A   1      33.305  28.361  24.232  1.00  0.00     0.116 C 
BRANCH   3   4
ATOM      4  N   UNL A   1      33.527  27.364  23.199  1.00  0.00    -0.352 N 
ATOM      5  O   UNL A   1      33.847  25.285  22.365  1.00  0.00    -0.270 OA
ATOM      6  C   UNL A   1      33.585  26.000  23.328  1.00  0.00     0.251 C 
ATOM      7  H   UNL A   1      33.652  27.714  22.288  1.00  0.00     0.163 HD
BRANCH   6   8
ATOM      8  C   UNL A   1      33.369  25.368  24.658  1.00  0.00     0.067 C 
ATOM      9  C   UNL A   1      34.475  24.923  25.279  1.00  0.00     0.027 C 
ATOM     10  C   UNL A   1      32.028  24.715  24.855  1.00  0.00     0.314 C 
ATOM     11  C   UNL A   1      34.540  23.450  25.371  1.00  0.00     0.037 A 
ATOM     12  O   UNL A   1      32.108  23.303  25.211  1.00  0.00    -0.475 OA
ATOM     13  C   UNL A   1      33.349  22.722  25.259  1.00  0.00     0.131 A 
ATOM     14  C   UNL A   1      35.778  22.776  25.354  1.00  0.00     0.072 A 
ATOM     15  C   UNL A   1      33.386  21.343  25.081  1.00  0.00     0.069 A 
ATOM     16  C   UNL A   1      35.819  21.387  25.141  1.00  0.00     0.079 A 
ATOM     17  Cl  UNL A   1      37.245  23.698  25.515  1.00  0.00    -0.082 Cl
ATOM     18  C   UNL A   1      34.614  20.683  24.987  1.00  0.00     0.064 A 
ATOM     19  Cl  UNL A   1      37.339  20.561  25.006  1.00  0.00    -0.081 Cl
ATOM     20  Cl  UNL A   1      34.563  18.993  24.624  1.00  0.00    -0.083 Cl
BRANCH  10  21
ATOM     21  C   UNL A   1      31.167  25.479  25.885  1.00  0.00     0.429 C 
ATOM     22  F   UNL A   1      30.447  26.485  25.338  1.00  0.00    -0.167 F 
ATOM     23  F   UNL A   1      30.292  24.648  26.500  1.00  0.00    -0.167 F 
ATOM     24  F   UNL A   1      31.926  26.039  26.861  1.00  0.00    -0.167 F 
ENDBRANCH  10  21
ENDBRANCH   6   8
ENDBRANCH   3   4
ENDBRANCH   2   3
ENDBRANCH   1   2
BRANCH   1  25
ATOM     25  C   UNL A   1      32.362  30.094  26.493  1.00  0.00     0.116 C 
BRANCH  25  26
ATOM     26  N   UNL A   1      32.373  31.496  26.887  1.00  0.00    -0.352 N 
ATOM     27  C   UNL A   1      33.387  32.244  27.454  1.00  0.00     0.251 C 
ATOM     28  H   UNL A   1      31.533  31.983  26.725  1.00  0.00     0.163 HD
ATOM     29  O   UNL A   1      33.184  33.418  27.740  1.00  0.00    -0.269 OA
BRANCH  27  30
ATOM     30  C   UNL A   1      34.680  31.603  27.792  1.00  0.00     0.039 A 
ATOM     31  C   UNL A   1      35.795  32.423  27.995  1.00  0.00     0.014 A 
ATOM     32  C   UNL A   1      34.775  30.226  28.005  1.00  0.00     0.014 A 
ATOM     33  C   UNL A   1      36.954  31.884  28.559  1.00  0.00     0.010 A 
ATOM     34  C   UNL A   1      35.902  29.708  28.638  1.00  0.00     0.010 A 
ATOM     35  C   UNL A   1      36.984  30.541  28.963  1.00  0.00    -0.014 A 
BRANCH  35  36
ATOM     36  C   UNL A   1      38.081  30.020  29.823  1.00  0.00     0.031 A 
ATOM     37  C   UNL A   1      38.283  30.542  31.215  1.00  0.00     0.074 A 
ATOM     38  C   UNL A   1      38.967  29.150  29.294  1.00  0.00     0.049 A 
ATOM     39  N   UNL A   1      39.239  30.275  32.068  1.00  0.00    -0.248 NA
ATOM     40  C   UNL A   1      37.298  31.518  31.695  1.00  0.00     0.031 C 
ATOM     41  C   UNL A   1      38.922  28.625  27.926  1.00  0.00     0.029 A 
ATOM     42  N   UNL A   1      40.090  28.571  29.831  1.00  0.00    -0.354 N 
ATOM     43  C   UNL A   1      38.975  31.054  33.189  1.00  0.00     0.074 A 
ATOM     44  C   UNL A   1      37.807  31.852  32.872  1.00  0.00     0.031 C 
ATOM     45  C   UNL A   1      39.959  27.798  27.736  1.00  0.00     0.029 A 
ATOM     46  C   UNL A   1      40.769  27.762  28.948  1.00  0.00     0.049 A 
ATOM     47  H   UNL A   1      40.381  28.719  30.758  1.00  0.00     0.167 HD
ATOM     48  C   UNL A   1      39.631  31.084  34.377  1.00  0.00     0.034 A 
ATOM     49  C   UNL A   1      41.926  27.085  29.087  1.00  0.00     0.034 A 
ATOM     50  C   UNL A   1      40.800  30.288  34.670  1.00  0.00     0.049 A 
ATOM     51  C   UNL A   1      42.654  27.149  30.401  1.00  0.00     0.074 A 
ATOM     52  C   UNL A   1      41.499  30.182  35.860  1.00  0.00     0.029 A 
ATOM     53  N   UNL A   1      41.458  29.475  33.754  1.00  0.00    -0.354 N 
ATOM     54  N   UNL A   1      42.347  27.830  31.480  1.00  0.00    -0.248 NA
ATOM     55  C   UNL A   1      43.878  26.347  30.517  1.00  0.00     0.031 C 
ATOM     56  C   UNL A   1      42.614  29.361  35.645  1.00  0.00     0.029 A 
ATOM     57  C   UNL A   1      42.576  28.899  34.340  1.00  0.00     0.049 A 
ATOM     58  H   UNL A   1      41.172  29.329  32.822  1.00  0.00     0.167 HD
ATOM     59  C   UNL A   1      43.340  27.535  32.408  1.00  0.00     0.074 A 
ATOM     60  C   UNL A   1      44.241  26.596  31.768  1.00  0.00     0.031 C 
ATOM     61  C   UNL A   1      43.490  27.996  33.676  1.00  0.00     0.034 A 
BRANCH  48  62
ATOM     62  C   UNL A   1      39.101  32.033  35.428  1.00  0.00     0.023 A 
ATOM     63  C   UNL A   1      39.519  33.375  35.480  1.00  0.00     0.031 A 
ATOM     64  C   UNL A   1      38.221  31.581  36.426  1.00  0.00     0.131 A 
ATOM     65  C   UNL A   1      39.143  34.186  36.561  1.00  0.00     0.055 A 
ATOM     66  C   UNL A   1      37.778  32.422  37.451  1.00  0.00     0.041 A 
ATOM     67  F   UNL A   1      37.799  30.308  36.441  1.00  0.00    -0.206 F 
ATOM     68  C   UNL A   1      38.257  33.726  37.536  1.00  0.00     0.022 A 
BRANCH  65  69
ATOM     69  S   UNL A   1      39.975  35.786  36.768  1.00  0.00     0.124 S 
ATOM     70  O   UNL A   1      39.655  36.451  35.508  1.00  0.00    -0.237 OA
ATOM     71  O   UNL A   1      39.327  36.325  37.958  1.00  0.00    -0.237 OA
ATOM     72  O   UNL A   1      41.380  35.422  36.931  1.00  0.00    -0.744 OA
ENDBRANCH  65  69
ENDBRANCH  48  62
BRANCH  49  73
ATOM     73  C   UNL A   1      42.476  26.315  27.937  1.00  0.00     0.023 A 
ATOM     74  C   UNL A   1      42.069  24.996  27.684  1.00  0.00     0.031 A 
ATOM     75  C   UNL A   1      43.420  26.895  27.071  1.00  0.00     0.131 A 
ATOM     76  C   UNL A   1      42.620  24.291  26.602  1.00  0.00     0.055 A 
ATOM     77  C   UNL A   1      43.937  26.204  25.975  1.00  0.00     0.041 A 
ATOM     78  F   UNL A   1      43.832  28.158  27.265  1.00  0.00    -0.206 F 
ATOM     79  C   UNL A   1      43.543  24.891  25.739  1.00  0.00     0.022 A 
BRANCH  76  80
ATOM     80  S   UNL A   1      42.141  22.560  26.354  1.00  0.00     0.124 S 
ATOM     81  O   UNL A   1      42.860  21.893  27.433  1.00  0.00    -0.237 OA
ATOM     82  O   UNL A   1      40.690  22.624  26.495  1.00  0.00    -0.237 OA
ATOM     83  O   UNL A   1      42.620  22.263  25.006  1.00  0.00    -0.744 OA
ENDBRANCH  76  80
ENDBRANCH  49  73
BRANCH  61  84
ATOM     84  C   UNL A   1      44.679  27.480  34.448  1.00  0.00     0.023 A 
ATOM     85  C   UNL A   1      44.609  26.292  35.195  1.00  0.00     0.031 A 
ATOM     86  C   UNL A   1      45.889  28.195  34.450  1.00  0.00     0.131 A 
ATOM     87  C   UNL A   1      45.714  25.877  35.954  1.00  0.00     0.055 A 
ATOM     88  C   UNL A   1      47.003  27.749  35.164  1.00  0.00     0.041 A 
ATOM     89  F   UNL A   1      46.009  29.338  33.758  1.00  0.00    -0.206 F 
ATOM     90  C   UNL A   1      46.916  26.590  35.931  1.00  0.00     0.022 A 
BRANCH  87  91
ATOM     91  S   UNL A   1      45.538  24.432  37.036  1.00  0.00     0.124 S 
ATOM     92  O   UNL A   1      45.111  25.045  38.290  1.00  0.00    -0.237 OA
ATOM     93  O   UNL A   1      44.531  23.639  36.339  1.00  0.00    -0.237 OA
ATOM     94  O   UNL A   1      46.879  23.851  37.054  1.00  0.00    -0.744 OA
ENDBRANCH  87  91
ENDBRANCH  61  84
ENDBRANCH  35  36
ENDBRANCH  27  30
ENDBRANCH  25  26
ENDBRANCH   1  25
TORSDOF 15
ENDMDL
