MODEL 1
REMARK VINA RESULT:     -11.0      0.000      0.000
REMARK SMILES C[C@H](C[N@H+](C)[C@H]1CC[C@H]([NH3+])CC1)C(=O)NCCCCNC(=O)c1ccc(-c2c3nc(c(-c4cc(S(=O)(=O)[O-])ccc4F)c4ccc([nH]4)c(-c4cc(S(=O)(=O)[O-])ccc4F)c4nc(c(-c5cc(S(=O)(=O)[O-])ccc5F)c5ccc2[nH]5)C=C4)C=C3)cc1
REMARK SMILES IDX 17 1 16 2 15 3 13 4 14 5 2 7 1 8 3 9 4 10 5 11 6 13 7 14
REMARK SMILES IDX 12 15 8 16 11 17 9 18 10 19 18 23 19 24 20 25 21 26 22 28
REMARK SMILES IDX 23 29 24 30 85 31 25 32 84 33 26 34 27 35 28 36 78 37 29 38
REMARK SMILES IDX 83 39 77 40 79 41 30 42 82 43 76 44 75 45 31 47 63 48 43 49
REMARK SMILES IDX 62 50 44 51 47 52 61 53 80 54 45 55 46 56 60 58 81 59 48 60
REMARK SMILES IDX 32 61 33 62 41 63 34 64 40 65 42 66 39 67 35 68 36 69 37 70
REMARK SMILES IDX 38 71 64 72 65 73 73 74 66 75 72 76 74 77 71 78 67 79 68 80
REMARK SMILES IDX 69 81 70 82 49 83 50 84 58 85 51 86 57 87 59 88 56 89 52 90
REMARK SMILES IDX 53 91 54 92 55 93
REMARK H PARENT 15 6 4 12 10 20 10 21 10 22 20 27 79 46 47 57
REMARK Flexibility Score: inf
ROOT
ATOM      1  C   UNL A   1      31.677  27.664  26.627  1.00  0.00     0.023 C 
ENDROOT
BRANCH   1   2
ATOM      2  C   UNL A   1      31.065  26.400  26.043  1.00  0.00     0.116 C 
BRANCH   2   3
ATOM      3  N   UNL A   1      31.159  25.216  26.855  1.00  0.00    -0.356 N 
ATOM      4  C   UNL A   1      31.634  23.978  26.566  1.00  0.00     0.228 C 
ATOM      5  O   UNL A   1      31.884  23.279  27.561  1.00  0.00    -0.275 OA
ATOM      6  H   UNL A   1      30.822  25.321  27.774  1.00  0.00     0.163 HD
BRANCH   4   7
ATOM      7  C   UNL A   1      31.775  23.336  25.164  1.00  0.00     0.130 C 
ATOM      8  C   UNL A   1      32.061  21.826  25.259  1.00  0.00     0.024 C 
BRANCH   7   9
ATOM      9  C   UNL A   1      32.416  24.021  23.936  1.00  0.00     0.275 C 
BRANCH   9  10
ATOM     10  N   UNL A   1      33.623  24.868  23.958  1.00  0.00    -0.334 N 
ATOM     11  C   UNL A   1      33.560  26.041  23.102  1.00  0.00     0.332 C 
ATOM     12  H   UNL A   1      33.532  25.225  24.908  1.00  0.00     0.348 HD
BRANCH  10  13
ATOM     13  C   UNL A   1      34.946  24.292  24.216  1.00  0.00     0.184 C 
ATOM     14  C   UNL A   1      35.204  22.969  23.456  1.00  0.00     0.071 C 
ATOM     15  C   UNL A   1      35.312  24.100  25.697  1.00  0.00     0.071 C 
ATOM     16  C   UNL A   1      36.663  22.521  23.607  1.00  0.00     0.071 C 
ATOM     17  C   UNL A   1      36.744  23.598  25.890  1.00  0.00     0.071 C 
ATOM     18  C   UNL A   1      37.037  22.336  25.079  1.00  0.00     0.181 C 
BRANCH  18  19
ATOM     19  N   UNL A   1      38.448  21.995  25.220  1.00  0.00    -0.355 N 
ATOM     20  H   UNL A   1      38.677  21.893  26.209  1.00  0.00     0.344 HD
ATOM     21  H   UNL A   1      39.019  22.735  24.813  1.00  0.00     0.344 HD
ATOM     22  H   UNL A   1      38.636  21.117  24.735  1.00  0.00     0.344 HD
ENDBRANCH  18  19
ENDBRANCH  10  13
ENDBRANCH   9  10
ENDBRANCH   7   9
ENDBRANCH   4   7
ENDBRANCH   2   3
ENDBRANCH   1   2
BRANCH   1  23
ATOM     23  C   UNL A   1      31.611  28.908  25.748  1.00  0.00     0.023 C 
BRANCH  23  24
ATOM     24  C   UNL A   1      32.787  29.876  25.846  1.00  0.00     0.116 C 
BRANCH  24  25
ATOM     25  N   UNL A   1      32.466  31.154  26.470  1.00  0.00    -0.352 N 
ATOM     26  C   UNL A   1      33.209  31.921  27.343  1.00  0.00     0.251 C 
ATOM     27  H   UNL A   1      31.586  31.525  26.233  1.00  0.00     0.163 HD
ATOM     28  O   UNL A   1      32.746  32.969  27.777  1.00  0.00    -0.269 OA
BRANCH  26  29
ATOM     29  C   UNL A   1      34.539  31.446  27.788  1.00  0.00     0.039 A 
ATOM     30  C   UNL A   1      35.619  32.333  27.766  1.00  0.00     0.014 A 
ATOM     31  C   UNL A   1      34.704  30.154  28.291  1.00  0.00     0.014 A 
ATOM     32  C   UNL A   1      36.829  31.964  28.361  1.00  0.00     0.010 A 
ATOM     33  C   UNL A   1      35.880  29.821  28.958  1.00  0.00     0.010 A 
ATOM     34  C   UNL A   1      36.950  30.729  29.020  1.00  0.00    -0.014 A 
BRANCH  34  35
ATOM     35  C   UNL A   1      38.164  30.379  29.808  1.00  0.00     0.031 A 
ATOM     36  C   UNL A   1      39.150  29.376  29.273  1.00  0.00     0.074 A 
ATOM     37  C   UNL A   1      38.331  30.890  31.046  1.00  0.00     0.049 A 
ATOM     38  N   UNL A   1      40.195  28.847  29.858  1.00  0.00    -0.248 NA
ATOM     39  C   UNL A   1      38.903  28.875  27.914  1.00  0.00     0.031 C 
ATOM     40  C   UNL A   1      37.421  31.832  31.703  1.00  0.00     0.029 A 
ATOM     41  N   UNL A   1      39.315  30.678  31.982  1.00  0.00    -0.354 N 
ATOM     42  C   UNL A   1      40.722  27.939  28.945  1.00  0.00     0.074 A 
ATOM     43  C   UNL A   1      39.839  27.947  27.795  1.00  0.00     0.031 C 
ATOM     44  C   UNL A   1      37.897  32.127  32.924  1.00  0.00     0.029 A 
ATOM     45  C   UNL A   1      39.118  31.364  33.158  1.00  0.00     0.049 A 
ATOM     46  H   UNL A   1      40.087  30.088  31.824  1.00  0.00     0.167 HD
ATOM     47  C   UNL A   1      41.847  27.188  29.044  1.00  0.00     0.034 A 
ATOM     48  C   UNL A   1      39.830  31.368  34.304  1.00  0.00     0.034 A 
ATOM     49  C   UNL A   1      42.724  27.200  30.189  1.00  0.00     0.049 A 
ATOM     50  C   UNL A   1      41.073  30.519  34.396  1.00  0.00     0.074 A 
ATOM     51  C   UNL A   1      43.915  26.517  30.371  1.00  0.00     0.029 A 
ATOM     52  N   UNL A   1      42.506  27.928  31.351  1.00  0.00    -0.354 N 
ATOM     53  N   UNL A   1      41.582  29.701  33.504  1.00  0.00    -0.248 NA
ATOM     54  C   UNL A   1      41.842  30.603  35.644  1.00  0.00     0.031 C 
ATOM     55  C   UNL A   1      44.386  26.786  31.661  1.00  0.00     0.029 A 
ATOM     56  C   UNL A   1      43.527  27.693  32.261  1.00  0.00     0.049 A 
ATOM     57  H   UNL A   1      41.738  28.524  31.508  1.00  0.00     0.167 HD
ATOM     58  C   UNL A   1      42.746  29.195  34.074  1.00  0.00     0.074 A 
ATOM     59  C   UNL A   1      42.871  29.812  35.380  1.00  0.00     0.031 C 
ATOM     60  C   UNL A   1      43.635  28.306  33.563  1.00  0.00     0.034 A 
BRANCH  47  61
ATOM     61  C   UNL A   1      42.171  26.277  27.884  1.00  0.00     0.023 A 
ATOM     62  C   UNL A   1      41.678  24.962  27.820  1.00  0.00     0.031 A 
ATOM     63  C   UNL A   1      43.015  26.712  26.847  1.00  0.00     0.131 A 
ATOM     64  C   UNL A   1      42.098  24.104  26.794  1.00  0.00     0.055 A 
ATOM     65  C   UNL A   1      43.360  25.879  25.780  1.00  0.00     0.041 A 
ATOM     66  F   UNL A   1      43.532  27.951  26.859  1.00  0.00    -0.206 F 
ATOM     67  C   UNL A   1      42.915  24.560  25.759  1.00  0.00     0.022 A 
BRANCH  64  68
ATOM     68  S   UNL A   1      41.678  22.343  26.916  1.00  0.00     0.124 S 
ATOM     69  O   UNL A   1      41.756  21.926  25.517  1.00  0.00    -0.237 OA
ATOM     70  O   UNL A   1      42.723  21.830  27.794  1.00  0.00    -0.237 OA
ATOM     71  O   UNL A   1      40.331  22.350  27.483  1.00  0.00    -0.744 OA
ENDBRANCH  64  68
ENDBRANCH  47  61
BRANCH  48  72
ATOM     72  C   UNL A   1      39.387  32.190  35.466  1.00  0.00     0.023 A 
ATOM     73  C   UNL A   1      38.678  31.613  36.531  1.00  0.00     0.031 A 
ATOM     74  C   UNL A   1      39.631  33.574  35.508  1.00  0.00     0.131 A 
ATOM     75  C   UNL A   1      38.196  32.424  37.572  1.00  0.00     0.055 A 
ATOM     76  C   UNL A   1      39.192  34.368  36.569  1.00  0.00     0.041 A 
ATOM     77  F   UNL A   1      40.311  34.175  34.519  1.00  0.00    -0.206 F 
ATOM     78  C   UNL A   1      38.458  33.795  37.603  1.00  0.00     0.022 A 
BRANCH  75  79
ATOM     79  S   UNL A   1      37.151  31.668  38.846  1.00  0.00     0.124 S 
ATOM     80  O   UNL A   1      35.984  32.542  38.832  1.00  0.00    -0.237 OA
ATOM     81  O   UNL A   1      36.952  30.323  38.316  1.00  0.00    -0.237 OA
ATOM     82  O   UNL A   1      37.975  31.744  40.052  1.00  0.00    -0.744 OA
ENDBRANCH  75  79
ENDBRANCH  48  72
BRANCH  60  83
ATOM     83  C   UNL A   1      44.846  27.987  34.406  1.00  0.00     0.023 A 
ATOM     84  C   UNL A   1      44.840  26.944  35.349  1.00  0.00     0.031 A 
ATOM     85  C   UNL A   1      46.020  28.750  34.268  1.00  0.00     0.131 A 
ATOM     86  C   UNL A   1      45.967  26.725  36.155  1.00  0.00     0.055 A 
ATOM     87  C   UNL A   1      47.157  28.491  35.034  1.00  0.00     0.041 A 
ATOM     88  F   UNL A   1      46.079  29.759  33.385  1.00  0.00    -0.206 F 
ATOM     89  C   UNL A   1      47.131  27.482  35.992  1.00  0.00     0.022 A 
BRANCH  86  90
ATOM     90  S   UNL A   1      45.866  25.490  37.479  1.00  0.00     0.124 S 
ATOM     91  O   UNL A   1      46.608  24.371  36.907  1.00  0.00    -0.237 OA
ATOM     92  O   UNL A   1      46.508  26.175  38.596  1.00  0.00    -0.237 OA
ATOM     93  O   UNL A   1      44.429  25.268  37.633  1.00  0.00    -0.744 OA
ENDBRANCH  86  90
ENDBRANCH  60  83
ENDBRANCH  34  35
ENDBRANCH  26  29
ENDBRANCH  24  25
ENDBRANCH  23  24
ENDBRANCH   1  23
TORSDOF 18
ENDMDL
MODEL 2
REMARK VINA RESULT:     -10.8      5.184     10.299
REMARK SMILES C[C@H](C[N@H+](C)[C@H]1CC[C@H]([NH3+])CC1)C(=O)NCCCCNC(=O)c1ccc(-c2c3nc(c(-c4cc(S(=O)(=O)[O-])ccc4F)c4ccc([nH]4)c(-c4cc(S(=O)(=O)[O-])ccc4F)c4nc(c(-c5cc(S(=O)(=O)[O-])ccc5F)c5ccc2[nH]5)C=C4)C=C3)cc1
REMARK SMILES IDX 17 1 16 2 15 3 13 4 14 5 2 7 1 8 3 9 4 10 5 11 6 13 7 14
REMARK SMILES IDX 12 15 8 16 11 17 9 18 10 19 18 23 19 24 20 25 21 26 22 28
REMARK SMILES IDX 23 29 24 30 85 31 25 32 84 33 26 34 27 35 28 36 78 37 29 38
REMARK SMILES IDX 83 39 77 40 79 41 30 42 82 43 76 44 75 45 31 47 63 48 43 49
REMARK SMILES IDX 62 50 44 51 47 52 61 53 80 54 45 55 46 56 60 58 81 59 48 60
REMARK SMILES IDX 32 61 33 62 41 63 34 64 40 65 42 66 39 67 35 68 36 69 37 70
REMARK SMILES IDX 38 71 64 72 65 73 73 74 66 75 72 76 74 77 71 78 67 79 68 80
REMARK SMILES IDX 69 81 70 82 49 83 50 84 58 85 51 86 57 87 59 88 56 89 52 90
REMARK SMILES IDX 53 91 54 92 55 93
REMARK H PARENT 15 6 4 12 10 20 10 21 10 22 20 27 79 46 47 57
REMARK Flexibility Score: inf
ROOT
ATOM      1  C   UNL A   1      34.575  20.599  25.151  1.00  0.00     0.023 C 
ENDROOT
BRANCH   1   2
ATOM      2  C   UNL A   1      33.202  20.571  24.496  1.00  0.00     0.116 C 
BRANCH   2   3
ATOM      3  N   UNL A   1      32.084  20.861  25.354  1.00  0.00    -0.356 N 
ATOM      4  C   UNL A   1      31.441  22.028  25.610  1.00  0.00     0.228 C 
ATOM      5  O   UNL A   1      30.322  21.894  26.130  1.00  0.00    -0.275 OA
ATOM      6  H   UNL A   1      31.726  20.081  25.838  1.00  0.00     0.163 HD
BRANCH   4   7
ATOM      7  C   UNL A   1      32.002  23.460  25.432  1.00  0.00     0.130 C 
ATOM      8  C   UNL A   1      33.086  23.778  26.479  1.00  0.00     0.024 C 
BRANCH   7   9
ATOM      9  C   UNL A   1      31.172  24.688  24.993  1.00  0.00     0.275 C 
BRANCH   9  10
ATOM     10  N   UNL A   1      31.708  25.897  24.341  1.00  0.00    -0.334 N 
ATOM     11  C   UNL A   1      32.451  25.651  23.116  1.00  0.00     0.332 C 
ATOM     12  H   UNL A   1      30.823  26.303  24.039  1.00  0.00     0.348 HD
BRANCH  10  13
ATOM     13  C   UNL A   1      32.075  27.081  25.125  1.00  0.00     0.184 C 
ATOM     14  C   UNL A   1      33.602  27.289  25.254  1.00  0.00     0.071 C 
ATOM     15  C   UNL A   1      31.435  27.180  26.520  1.00  0.00     0.071 C 
ATOM     16  C   UNL A   1      33.923  28.637  25.909  1.00  0.00     0.071 C 
ATOM     17  C   UNL A   1      31.777  28.489  27.233  1.00  0.00     0.071 C 
ATOM     18  C   UNL A   1      33.282  28.747  27.294  1.00  0.00     0.181 C 
BRANCH  18  19
ATOM     19  N   UNL A   1      33.518  30.064  27.874  1.00  0.00    -0.355 N 
ATOM     20  H   UNL A   1      33.122  30.098  28.815  1.00  0.00     0.344 HD
ATOM     21  H   UNL A   1      33.075  30.776  27.294  1.00  0.00     0.344 HD
ATOM     22  H   UNL A   1      34.522  30.242  27.922  1.00  0.00     0.344 HD
ENDBRANCH  18  19
ENDBRANCH  10  13
ENDBRANCH   9  10
ENDBRANCH   7   9
ENDBRANCH   4   7
ENDBRANCH   2   3
ENDBRANCH   1   2
BRANCH   1  23
ATOM     23  C   UNL A   1      35.549  21.645  24.620  1.00  0.00     0.023 C 
BRANCH  23  24
ATOM     24  C   UNL A   1      36.740  21.984  25.513  1.00  0.00     0.116 C 
BRANCH  24  25
ATOM     25  N   UNL A   1      37.800  20.983  25.511  1.00  0.00    -0.352 N 
ATOM     26  C   UNL A   1      39.092  21.064  25.985  1.00  0.00     0.251 C 
ATOM     27  H   UNL A   1      37.555  20.117  25.112  1.00  0.00     0.163 HD
ATOM     28  O   UNL A   1      39.844  20.105  25.869  1.00  0.00    -0.269 OA
BRANCH  26  29
ATOM     29  C   UNL A   1      39.575  22.330  26.585  1.00  0.00     0.039 A 
ATOM     30  C   UNL A   1      40.592  22.281  27.542  1.00  0.00     0.014 A 
ATOM     31  C   UNL A   1      39.076  23.560  26.154  1.00  0.00     0.014 A 
ATOM     32  C   UNL A   1      41.192  23.469  27.974  1.00  0.00     0.010 A 
ATOM     33  C   UNL A   1      39.731  24.733  26.519  1.00  0.00     0.010 A 
ATOM     34  C   UNL A   1      40.811  24.701  27.417  1.00  0.00    -0.014 A 
BRANCH  34  35
ATOM     35  C   UNL A   1      41.544  25.959  27.727  1.00  0.00     0.031 A 
ATOM     36  C   UNL A   1      40.869  27.058  28.503  1.00  0.00     0.074 A 
ATOM     37  C   UNL A   1      42.783  26.154  27.229  1.00  0.00     0.049 A 
ATOM     38  N   UNL A   1      41.290  28.269  28.765  1.00  0.00    -0.248 NA
ATOM     39  C   UNL A   1      39.525  26.763  29.020  1.00  0.00     0.031 C 
ATOM     40  C   UNL A   1      43.530  25.191  26.416  1.00  0.00     0.029 A 
ATOM     41  N   UNL A   1      43.629  27.234  27.316  1.00  0.00    -0.354 N 
ATOM     42  C   UNL A   1      40.258  28.888  29.463  1.00  0.00     0.074 A 
ATOM     43  C   UNL A   1      39.169  27.934  29.524  1.00  0.00     0.031 C 
ATOM     44  C   UNL A   1      44.725  25.715  26.095  1.00  0.00     0.029 A 
ATOM     45  C   UNL A   1      44.814  27.067  26.637  1.00  0.00     0.049 A 
ATOM     46  H   UNL A   1      43.406  28.051  27.818  1.00  0.00     0.167 HD
ATOM     47  C   UNL A   1      40.229  30.124  30.020  1.00  0.00     0.034 A 
ATOM     48  C   UNL A   1      45.851  27.911  26.456  1.00  0.00     0.034 A 
ATOM     49  C   UNL A   1      41.326  31.058  29.963  1.00  0.00     0.049 A 
ATOM     50  C   UNL A   1      45.794  29.283  27.077  1.00  0.00     0.074 A 
ATOM     51  C   UNL A   1      41.420  32.315  30.538  1.00  0.00     0.029 A 
ATOM     52  N   UNL A   1      42.520  30.843  29.288  1.00  0.00    -0.354 N 
ATOM     53  N   UNL A   1      44.827  29.835  27.774  1.00  0.00    -0.248 NA
ATOM     54  C   UNL A   1      46.972  30.142  26.897  1.00  0.00     0.031 C 
ATOM     55  C   UNL A   1      42.644  32.881  30.164  1.00  0.00     0.029 A 
ATOM     56  C   UNL A   1      43.346  31.951  29.413  1.00  0.00     0.049 A 
ATOM     57  H   UNL A   1      42.749  30.024  28.793  1.00  0.00     0.167 HD
ATOM     58  C   UNL A   1      45.294  31.094  28.138  1.00  0.00     0.074 A 
ATOM     59  C   UNL A   1      46.633  31.214  27.597  1.00  0.00     0.031 C 
ATOM     60  C   UNL A   1      44.675  32.063  28.860  1.00  0.00     0.034 A 
BRANCH  47  61
ATOM     61  C   UNL A   1      38.955  30.533  30.722  1.00  0.00     0.023 A 
ATOM     62  C   UNL A   1      37.897  31.144  30.026  1.00  0.00     0.031 A 
ATOM     63  C   UNL A   1      38.809  30.347  32.107  1.00  0.00     0.131 A 
ATOM     64  C   UNL A   1      36.781  31.624  30.727  1.00  0.00     0.055 A 
ATOM     65  C   UNL A   1      37.657  30.749  32.787  1.00  0.00     0.041 A 
ATOM     66  F   UNL A   1      39.792  29.785  32.830  1.00  0.00    -0.206 F 
ATOM     67  C   UNL A   1      36.642  31.407  32.099  1.00  0.00     0.022 A 
BRANCH  64  68
ATOM     68  S   UNL A   1      35.587  32.664  29.843  1.00  0.00     0.124 S 
ATOM     69  O   UNL A   1      36.274  33.954  29.831  1.00  0.00    -0.237 OA
ATOM     70  O   UNL A   1      35.473  31.989  28.556  1.00  0.00    -0.237 OA
ATOM     71  O   UNL A   1      34.394  32.608  30.686  1.00  0.00    -0.744 OA
ENDBRANCH  64  68
ENDBRANCH  47  61
BRANCH  48  72
ATOM     72  C   UNL A   1      47.029  27.497  25.641  1.00  0.00     0.023 A 
ATOM     73  C   UNL A   1      47.143  27.871  24.293  1.00  0.00     0.031 A 
ATOM     74  C   UNL A   1      48.038  26.685  26.189  1.00  0.00     0.131 A 
ATOM     75  C   UNL A   1      48.218  27.395  23.524  1.00  0.00     0.055 A 
ATOM     76  C   UNL A   1      49.130  26.256  25.434  1.00  0.00     0.041 A 
ATOM     77  F   UNL A   1      47.980  26.306  27.476  1.00  0.00    -0.206 F 
ATOM     78  C   UNL A   1      49.218  26.600  24.089  1.00  0.00     0.022 A 
BRANCH  75  79
ATOM     79  S   UNL A   1      48.247  27.769  21.750  1.00  0.00     0.124 S 
ATOM     80  O   UNL A   1      49.288  28.787  21.677  1.00  0.00    -0.237 OA
ATOM     81  O   UNL A   1      48.576  26.470  21.173  1.00  0.00    -0.237 OA
ATOM     82  O   UNL A   1      46.889  28.242  21.480  1.00  0.00    -0.744 OA
ENDBRANCH  75  79
ENDBRANCH  48  72
BRANCH  60  83
ATOM     83  C   UNL A   1      45.465  33.317  29.143  1.00  0.00     0.023 A 
ATOM     84  C   UNL A   1      45.265  34.501  28.411  1.00  0.00     0.031 A 
ATOM     85  C   UNL A   1      46.441  33.321  30.155  1.00  0.00     0.131 A 
ATOM     86  C   UNL A   1      46.067  35.623  28.666  1.00  0.00     0.055 A 
ATOM     87  C   UNL A   1      47.198  34.458  30.442  1.00  0.00     0.041 A 
ATOM     88  F   UNL A   1      46.675  32.217  30.883  1.00  0.00    -0.206 F 
ATOM     89  C   UNL A   1      47.021  35.614  29.687  1.00  0.00     0.022 A 
BRANCH  86  90
ATOM     90  S   UNL A   1      45.904  37.074  27.590  1.00  0.00     0.124 S 
ATOM     91  O   UNL A   1      44.460  37.148  27.395  1.00  0.00    -0.237 OA
ATOM     92  O   UNL A   1      46.493  38.134  28.403  1.00  0.00    -0.237 OA
ATOM     93  O   UNL A   1      46.673  36.708  26.401  1.00  0.00    -0.744 OA
ENDBRANCH  86  90
ENDBRANCH  60  83
ENDBRANCH  34  35
ENDBRANCH  26  29
ENDBRANCH  24  25
ENDBRANCH  23  24
ENDBRANCH   1  23
TORSDOF 18
ENDMDL
MODEL 3
REMARK VINA RESULT:     -10.7      5.096      7.755
REMARK SMILES C[C@H](C[N@H+](C)[C@H]1CC[C@H]([NH3+])CC1)C(=O)NCCCCNC(=O)c1ccc(-c2c3nc(c(-c4cc(S(=O)(=O)[O-])ccc4F)c4ccc([nH]4)c(-c4cc(S(=O)(=O)[O-])ccc4F)c4nc(c(-c5cc(S(=O)(=O)[O-])ccc5F)c5ccc2[nH]5)C=C4)C=C3)cc1
REMARK SMILES IDX 17 1 16 2 15 3 13 4 14 5 2 7 1 8 3 9 4 10 5 11 6 13 7 14
REMARK SMILES IDX 12 15 8 16 11 17 9 18 10 19 18 23 19 24 20 25 21 26 22 28
REMARK SMILES IDX 23 29 24 30 85 31 25 32 84 33 26 34 27 35 28 36 78 37 29 38
REMARK SMILES IDX 83 39 77 40 79 41 30 42 82 43 76 44 75 45 31 47 63 48 43 49
REMARK SMILES IDX 62 50 44 51 47 52 61 53 80 54 45 55 46 56 60 58 81 59 48 60
REMARK SMILES IDX 32 61 33 62 41 63 34 64 40 65 42 66 39 67 35 68 36 69 37 70
REMARK SMILES IDX 38 71 64 72 65 73 73 74 66 75 72 76 74 77 71 78 67 79 68 80
REMARK SMILES IDX 69 81 70 82 49 83 50 84 58 85 51 86 57 87 59 88 56 89 52 90
REMARK SMILES IDX 53 91 54 92 55 93
REMARK H PARENT 15 6 4 12 10 20 10 21 10 22 20 27 79 46 47 57
REMARK Flexibility Score: inf
ROOT
ATOM      1  C   UNL A   1      34.662  20.647  25.260  1.00  0.00     0.023 C 
ENDROOT
BRANCH   1   2
ATOM      2  C   UNL A   1      33.227  21.151  25.298  1.00  0.00     0.116 C 
BRANCH   2   3
ATOM      3  N   UNL A   1      32.489  21.056  24.067  1.00  0.00    -0.356 N 
ATOM      4  C   UNL A   1      32.382  21.923  23.028  1.00  0.00     0.228 C 
ATOM      5  O   UNL A   1      31.945  21.419  21.982  1.00  0.00    -0.275 OA
ATOM      6  H   UNL A   1      31.975  20.223  23.959  1.00  0.00     0.163 HD
BRANCH   4   7
ATOM      7  C   UNL A   1      32.628  23.451  23.060  1.00  0.00     0.130 C 
ATOM      8  C   UNL A   1      34.131  23.781  23.145  1.00  0.00     0.024 C 
BRANCH   7   9
ATOM      9  C   UNL A   1      31.719  24.482  23.766  1.00  0.00     0.275 C 
BRANCH   9  10
ATOM     10  N   UNL A   1      31.773  24.837  25.197  1.00  0.00    -0.334 N 
ATOM     11  C   UNL A   1      30.890  24.061  26.051  1.00  0.00     0.332 C 
ATOM     12  H   UNL A   1      32.710  24.490  25.396  1.00  0.00     0.348 HD
BRANCH  10  13
ATOM     13  C   UNL A   1      32.100  26.200  25.626  1.00  0.00     0.184 C 
ATOM     14  C   UNL A   1      33.612  26.430  25.858  1.00  0.00     0.071 C 
ATOM     15  C   UNL A   1      31.320  26.719  26.845  1.00  0.00     0.071 C 
ATOM     16  C   UNL A   1      33.913  27.911  26.110  1.00  0.00     0.071 C 
ATOM     17  C   UNL A   1      31.635  28.182  27.167  1.00  0.00     0.071 C 
ATOM     18  C   UNL A   1      33.133  28.438  27.318  1.00  0.00     0.181 C 
BRANCH  18  19
ATOM     19  N   UNL A   1      33.357  29.868  27.499  1.00  0.00    -0.355 N 
ATOM     20  H   UNL A   1      34.232  30.136  27.048  1.00  0.00     0.344 HD
ATOM     21  H   UNL A   1      33.409  30.081  28.495  1.00  0.00     0.344 HD
ATOM     22  H   UNL A   1      32.586  30.390  27.080  1.00  0.00     0.344 HD
ENDBRANCH  18  19
ENDBRANCH  10  13
ENDBRANCH   9  10
ENDBRANCH   7   9
ENDBRANCH   4   7
ENDBRANCH   2   3
ENDBRANCH   1   2
BRANCH   1  23
ATOM     23  C   UNL A   1      35.703  21.542  25.925  1.00  0.00     0.023 C 
BRANCH  23  24
ATOM     24  C   UNL A   1      36.983  21.804  25.136  1.00  0.00     0.116 C 
BRANCH  24  25
ATOM     25  N   UNL A   1      38.052  20.844  25.383  1.00  0.00    -0.352 N 
ATOM     26  C   UNL A   1      39.258  21.013  26.030  1.00  0.00     0.251 C 
ATOM     27  H   UNL A   1      37.887  19.937  25.037  1.00  0.00     0.163 HD
ATOM     28  O   UNL A   1      40.038  20.073  26.117  1.00  0.00    -0.269 OA
BRANCH  26  29
ATOM     29  C   UNL A   1      39.620  22.344  26.571  1.00  0.00     0.039 A 
ATOM     30  C   UNL A   1      40.664  22.439  27.495  1.00  0.00     0.014 A 
ATOM     31  C   UNL A   1      38.981  23.498  26.114  1.00  0.00     0.014 A 
ATOM     32  C   UNL A   1      41.146  23.698  27.865  1.00  0.00     0.010 A 
ATOM     33  C   UNL A   1      39.517  24.746  26.417  1.00  0.00     0.010 A 
ATOM     34  C   UNL A   1      40.620  24.862  27.280  1.00  0.00    -0.014 A 
BRANCH  34  35
ATOM     35  C   UNL A   1      41.224  26.201  27.522  1.00  0.00     0.031 A 
ATOM     36  C   UNL A   1      42.602  26.515  27.005  1.00  0.00     0.074 A 
ATOM     37  C   UNL A   1      40.573  27.102  28.287  1.00  0.00     0.049 A 
ATOM     38  N   UNL A   1      43.347  27.570  27.216  1.00  0.00    -0.248 NA
ATOM     39  C   UNL A   1      43.238  25.485  26.171  1.00  0.00     0.031 C 
ATOM     40  C   UNL A   1      39.254  26.904  28.894  1.00  0.00     0.029 A 
ATOM     41  N   UNL A   1      40.939  28.360  28.703  1.00  0.00    -0.354 N 
ATOM     42  C   UNL A   1      44.547  27.325  26.556  1.00  0.00     0.074 A 
ATOM     43  C   UNL A   1      44.447  25.994  25.992  1.00  0.00     0.031 C 
ATOM     44  C   UNL A   1      38.916  28.003  29.586  1.00  0.00     0.029 A 
ATOM     45  C   UNL A   1      40.009  28.968  29.515  1.00  0.00     0.049 A 
ATOM     46  H   UNL A   1      41.788  28.786  28.444  1.00  0.00     0.167 HD
ATOM     47  C   UNL A   1      45.620  28.142  26.411  1.00  0.00     0.034 A 
ATOM     48  C   UNL A   1      40.036  30.160  30.146  1.00  0.00     0.034 A 
ATOM     49  C   UNL A   1      45.701  29.471  26.966  1.00  0.00     0.049 A 
ATOM     50  C   UNL A   1      41.243  31.048  29.979  1.00  0.00     0.074 A 
ATOM     51  C   UNL A   1      46.720  30.400  26.836  1.00  0.00     0.029 A 
ATOM     52  N   UNL A   1      44.728  30.062  27.761  1.00  0.00    -0.354 N 
ATOM     53  N   UNL A   1      42.350  30.820  29.311  1.00  0.00    -0.248 NA
ATOM     54  C   UNL A   1      41.199  32.359  30.641  1.00  0.00     0.031 C 
ATOM     55  C   UNL A   1      46.390  31.527  27.597  1.00  0.00     0.029 A 
ATOM     56  C   UNL A   1      45.133  31.332  28.147  1.00  0.00     0.049 A 
ATOM     57  H   UNL A   1      43.876  29.641  28.015  1.00  0.00     0.167 HD
ATOM     58  C   UNL A   1      43.121  31.970  29.450  1.00  0.00     0.074 A 
ATOM     59  C   UNL A   1      42.346  32.895  30.253  1.00  0.00     0.031 C 
ATOM     60  C   UNL A   1      44.356  32.240  28.955  1.00  0.00     0.034 A 
BRANCH  47  61
ATOM     61  C   UNL A   1      46.798  27.601  25.636  1.00  0.00     0.023 A 
ATOM     62  C   UNL A   1      47.076  28.030  24.325  1.00  0.00     0.031 A 
ATOM     63  C   UNL A   1      47.632  26.617  26.194  1.00  0.00     0.131 A 
ATOM     64  C   UNL A   1      48.100  27.418  23.589  1.00  0.00     0.055 A 
ATOM     65  C   UNL A   1      48.706  26.073  25.486  1.00  0.00     0.041 A 
ATOM     66  F   UNL A   1      47.408  26.153  27.434  1.00  0.00    -0.206 F 
ATOM     67  C   UNL A   1      48.935  26.461  24.169  1.00  0.00     0.022 A 
BRANCH  64  68
ATOM     68  S   UNL A   1      48.230  27.788  21.818  1.00  0.00     0.124 S 
ATOM     69  O   UNL A   1      46.899  28.319  21.531  1.00  0.00    -0.237 OA
ATOM     70  O   UNL A   1      49.324  28.750  21.776  1.00  0.00    -0.237 OA
ATOM     71  O   UNL A   1      48.518  26.487  21.217  1.00  0.00    -0.744 OA
ENDBRANCH  64  68
ENDBRANCH  47  61
BRANCH  48  72
ATOM     72  C   UNL A   1      38.896  30.586  31.007  1.00  0.00     0.023 A 
ATOM     73  C   UNL A   1      37.744  31.162  30.449  1.00  0.00     0.031 A 
ATOM     74  C   UNL A   1      38.961  30.463  32.406  1.00  0.00     0.131 A 
ATOM     75  C   UNL A   1      36.722  31.635  31.287  1.00  0.00     0.055 A 
ATOM     76  C   UNL A   1      37.920  30.890  33.233  1.00  0.00     0.041 A 
ATOM     77  F   UNL A   1      40.037  29.913  32.991  1.00  0.00    -0.206 F 
ATOM     78  C   UNL A   1      36.797  31.493  32.674  1.00  0.00     0.022 A 
BRANCH  75  79
ATOM     79  S   UNL A   1      35.323  32.513  30.538  1.00  0.00     0.124 S 
ATOM     80  O   UNL A   1      35.091  31.730  29.330  1.00  0.00    -0.237 OA
ATOM     81  O   UNL A   1      34.307  32.406  31.579  1.00  0.00    -0.237 OA
ATOM     82  O   UNL A   1      35.847  33.861  30.318  1.00  0.00    -0.744 OA
ENDBRANCH  75  79
ENDBRANCH  48  72
BRANCH  60  83
ATOM     83  C   UNL A   1      44.918  33.613  29.232  1.00  0.00     0.023 A 
ATOM     84  C   UNL A   1      44.615  34.717  28.415  1.00  0.00     0.031 A 
ATOM     85  C   UNL A   1      45.780  33.814  30.325  1.00  0.00     0.131 A 
ATOM     86  C   UNL A   1      45.211  35.960  28.673  1.00  0.00     0.055 A 
ATOM     87  C   UNL A   1      46.327  35.066  30.609  1.00  0.00     0.041 A 
ATOM     88  F   UNL A   1      46.105  32.794  31.135  1.00  0.00    -0.206 F 
ATOM     89  C   UNL A   1      46.053  36.145  29.773  1.00  0.00     0.022 A 
BRANCH  86  90
ATOM     90  S   UNL A   1      44.939  37.318  27.502  1.00  0.00     0.124 S 
ATOM     91  O   UNL A   1      44.972  38.485  28.377  1.00  0.00    -0.237 OA
ATOM     92  O   UNL A   1      46.067  37.175  26.588  1.00  0.00    -0.237 OA
ATOM     93  O   UNL A   1      43.631  37.014  26.922  1.00  0.00    -0.744 OA
ENDBRANCH  86  90
ENDBRANCH  60  83
ENDBRANCH  34  35
ENDBRANCH  26  29
ENDBRANCH  24  25
ENDBRANCH  23  24
ENDBRANCH   1  23
TORSDOF 18
ENDMDL
