MODEL 1
REMARK VINA RESULT:     -12.0      0.000      0.000
REMARK SMILES CCCc1cc(S(F)(F)(F)(F)F)cc2c1O[C@@H](C(F)(F)F)C(C(=O)NCCCCNC(=O)c1ccc(-c3c4nc(c(-c5cc(S(=O)(=O)[O-])ccc5F)c5ccc([nH]5)c(-c5cc(S(=O)(=O)[O-])ccc5F)c5nc(c(-c6cc(S(=O)(=O)[O-])ccc6F)c6ccc3[nH]6)C=C5)C=C4)cc1)=C2
REMARK SMILES IDX 28 1 27 2 26 3 25 4 23 5 24 6 22 8 4 9 5 10 15 11 6 12 14 13
REMARK SMILES IDX 16 14 13 15 96 16 17 17 3 18 2 19 1 20 7 21 8 22 9 23 10 24
REMARK SMILES IDX 11 25 12 26 18 27 19 28 20 29 21 30 29 31 30 32 31 33 32 35
REMARK SMILES IDX 33 36 34 37 95 38 35 39 94 40 36 41 37 42 38 43 88 44 39 45
REMARK SMILES IDX 93 46 87 47 89 48 40 49 92 50 86 51 85 52 41 54 73 55 53 56
REMARK SMILES IDX 72 57 54 58 57 59 71 60 90 61 55 62 56 63 70 65 91 66 58 67
REMARK SMILES IDX 42 68 43 69 51 70 44 71 50 72 52 73 49 74 45 75 46 76 47 77
REMARK SMILES IDX 48 78 74 79 75 80 83 81 76 82 82 83 84 84 81 85 77 86 78 87
REMARK SMILES IDX 79 88 80 89 59 90 60 91 68 92 61 93 67 94 69 95 66 96 62 97
REMARK SMILES IDX 63 98 64 99 65 100
REMARK H PARENT 25 7 30 34 89 53 57 64
REMARK Flexibility Score: inf
ROOT
ATOM      1  C   UNL A   1      33.209  27.971  26.805  1.00  0.00     0.023 C 
ENDROOT
BRANCH   1   2
ATOM      2  C   UNL A   1      31.770  28.435  26.640  1.00  0.00     0.023 C 
BRANCH   2   3
ATOM      3  C   UNL A   1      30.916  27.274  26.158  1.00  0.00     0.116 C 
BRANCH   3   4
ATOM      4  N   UNL A   1      30.330  27.605  24.851  1.00  0.00    -0.352 N 
ATOM      5  C   UNL A   1      30.744  26.866  23.651  1.00  0.00     0.251 C 
ATOM      6  O   UNL A   1      30.237  27.153  22.521  1.00  0.00    -0.270 OA
ATOM      7  H   UNL A   1      29.660  28.324  24.781  1.00  0.00     0.163 HD
BRANCH   5   8
ATOM      8  C   UNL A   1      31.778  25.757  23.761  1.00  0.00     0.067 C 
ATOM      9  C   UNL A   1      34.659  22.739  23.553  1.00  0.00    -0.004 A 
ATOM     10  C   UNL A   1      34.320  21.439  23.879  1.00  0.00     0.032 A 
ATOM     11  C   UNL A   1      33.679  23.702  23.578  1.00  0.00     0.131 A 
ATOM     12  C   UNL A   1      33.034  21.109  24.216  1.00  0.00     0.108 A 
ATOM     13  C   UNL A   1      32.374  23.409  23.932  1.00  0.00     0.019 A 
ATOM     14  O   UNL A   1      34.005  24.964  23.145  1.00  0.00    -0.475 OA
ATOM     15  C   UNL A   1      32.066  22.092  24.249  1.00  0.00     0.036 A 
ATOM     16  C   UNL A   1      31.403  24.491  23.891  1.00  0.00     0.025 C 
ATOM     17  C   UNL A   1      33.267  26.076  23.725  1.00  0.00     0.314 C 
BRANCH   9  18
ATOM     18  C   UNL A   1      36.087  23.095  23.174  1.00  0.00     0.039 C 
BRANCH  18  19
ATOM     19  C   UNL A   1      37.028  22.673  24.291  1.00  0.00     0.001 C 
ATOM     20  C   UNL A   1      36.979  23.699  25.411  1.00  0.00     0.004 C 
ENDBRANCH  18  19
ENDBRANCH   9  18
BRANCH  12  21
ATOM     21  S   UNL A   1      32.606  19.396  24.616  1.00  0.00     0.310 S 
ATOM     22  F   UNL A   1      34.068  18.884  24.273  1.00  0.00    -0.094 F 
ATOM     23  F   UNL A   1      32.245  19.169  23.100  1.00  0.00    -0.094 F 
ATOM     24  F   UNL A   1      32.237  17.924  24.952  1.00  0.00    -0.094 F 
ATOM     25  F   UNL A   1      33.107  19.602  26.101  1.00  0.00    -0.094 F 
ATOM     26  F   UNL A   1      33.092  20.858  24.266  1.00  0.00    -0.094 F 
ENDBRANCH  12  21
BRANCH  17  27
ATOM     27  C   UNL A   1      33.488  27.315  22.873  1.00  0.00     0.429 C 
ATOM     28  F   UNL A   1      33.106  27.068  21.622  1.00  0.00    -0.167 F 
ATOM     29  F   UNL A   1      32.773  28.325  23.363  1.00  0.00    -0.167 F 
ATOM     30  F   UNL A   1      34.778  27.638  22.887  1.00  0.00    -0.167 F 
ENDBRANCH  17  27
ENDBRANCH   5   8
ENDBRANCH   3   4
ENDBRANCH   2   3
ENDBRANCH   1   2
BRANCH   1  31
ATOM     31  C   UNL A   1      34.149  29.042  26.277  1.00  0.00     0.116 C 
BRANCH  31  32
ATOM     32  N   UNL A   1      33.675  30.366  26.705  1.00  0.00    -0.352 N 
ATOM     33  C   UNL A   1      34.460  31.151  27.668  1.00  0.00     0.251 C 
ATOM     34  H   UNL A   1      32.832  30.726  26.346  1.00  0.00     0.163 HD
ATOM     35  O   UNL A   1      34.050  32.296  28.039  1.00  0.00    -0.269 OA
BRANCH  33  36
ATOM     36  C   UNL A   1      35.762  30.595  28.221  1.00  0.00     0.039 A 
ATOM     37  C   UNL A   1      36.959  30.946  27.620  1.00  0.00     0.014 A 
ATOM     38  C   UNL A   1      35.731  29.783  29.272  1.00  0.00     0.014 A 
ATOM     39  C   UNL A   1      38.058  30.151  28.024  1.00  0.00     0.010 A 
ATOM     40  C   UNL A   1      36.870  29.144  29.697  1.00  0.00     0.010 A 
ATOM     41  C   UNL A   1      38.079  29.398  29.109  1.00  0.00    -0.014 A 
BRANCH  41  42
ATOM     42  C   UNL A   1      39.377  28.843  29.674  1.00  0.00     0.031 A 
ATOM     43  C   UNL A   1      39.891  29.425  30.833  1.00  0.00     0.074 A 
ATOM     44  C   UNL A   1      39.976  27.789  29.005  1.00  0.00     0.049 A 
ATOM     45  N   UNL A   1      40.987  29.070  31.505  1.00  0.00    -0.248 NA
ATOM     46  C   UNL A   1      39.274  30.566  31.525  1.00  0.00     0.031 C 
ATOM     47  C   UNL A   1      39.459  27.190  27.839  1.00  0.00     0.029 A 
ATOM     48  N   UNL A   1      41.147  27.140  29.328  1.00  0.00    -0.354 N 
ATOM     49  C   UNL A   1      41.145  29.850  32.576  1.00  0.00     0.074 A 
ATOM     50  C   UNL A   1      40.048  30.828  32.600  1.00  0.00     0.031 C 
ATOM     51  C   UNL A   1      40.312  26.204  27.459  1.00  0.00     0.029 A 
ATOM     52  C   UNL A   1      41.376  26.167  28.379  1.00  0.00     0.049 A 
ATOM     53  H   UNL A   1      41.721  27.337  30.103  1.00  0.00     0.167 HD
ATOM     54  C   UNL A   1      42.158  29.784  33.533  1.00  0.00     0.034 A 
ATOM     55  C   UNL A   1      42.446  25.291  28.305  1.00  0.00     0.034 A 
ATOM     56  C   UNL A   1      43.205  28.878  33.482  1.00  0.00     0.049 A 
ATOM     57  C   UNL A   1      43.492  25.262  29.231  1.00  0.00     0.074 A 
ATOM     58  C   UNL A   1      44.231  28.792  34.442  1.00  0.00     0.029 A 
ATOM     59  N   UNL A   1      43.447  27.921  32.520  1.00  0.00    -0.354 N 
ATOM     60  N   UNL A   1      43.627  26.016  30.323  1.00  0.00    -0.248 NA
ATOM     61  C   UNL A   1      44.647  24.359  29.144  1.00  0.00     0.031 C 
ATOM     62  C   UNL A   1      45.085  27.804  34.062  1.00  0.00     0.029 A 
ATOM     63  C   UNL A   1      44.606  27.257  32.855  1.00  0.00     0.049 A 
ATOM     64  H   UNL A   1      42.887  27.743  31.730  1.00  0.00     0.167 HD
ATOM     65  C   UNL A   1      44.747  25.688  30.972  1.00  0.00     0.074 A 
ATOM     66  C   UNL A   1      45.422  24.622  30.218  1.00  0.00     0.031 C 
ATOM     67  C   UNL A   1      45.230  26.231  32.163  1.00  0.00     0.034 A 
BRANCH  54  68
ATOM     68  C   UNL A   1      42.110  30.759  34.698  1.00  0.00     0.023 A 
ATOM     69  C   UNL A   1      42.669  32.019  34.552  1.00  0.00     0.031 A 
ATOM     70  C   UNL A   1      41.537  30.387  35.836  1.00  0.00     0.131 A 
ATOM     71  C   UNL A   1      42.828  32.718  35.771  1.00  0.00     0.055 A 
ATOM     72  C   UNL A   1      41.617  31.184  36.953  1.00  0.00     0.041 A 
ATOM     73  F   UNL A   1      40.880  29.232  35.897  1.00  0.00    -0.206 F 
ATOM     74  C   UNL A   1      42.206  32.416  36.897  1.00  0.00     0.022 A 
BRANCH  71  75
ATOM     75  S   UNL A   1      43.965  34.128  35.790  1.00  0.00     0.124 S 
ATOM     76  O   UNL A   1      43.648  35.023  36.991  1.00  0.00    -0.237 OA
ATOM     77  O   UNL A   1      45.405  33.619  35.900  1.00  0.00    -0.237 OA
ATOM     78  O   UNL A   1      43.785  35.025  34.346  1.00  0.00    -0.744 OA
ENDBRANCH  71  75
ENDBRANCH  54  68
BRANCH  55  79
ATOM     79  C   UNL A   1      42.484  24.303  27.149  1.00  0.00     0.023 A 
ATOM     80  C   UNL A   1      41.727  23.146  27.219  1.00  0.00     0.031 A 
ATOM     81  C   UNL A   1      43.244  24.567  26.093  1.00  0.00     0.131 A 
ATOM     82  C   UNL A   1      42.062  22.181  26.240  1.00  0.00     0.055 A 
ATOM     83  C   UNL A   1      43.419  23.627  25.105  1.00  0.00     0.041 A 
ATOM     84  F   UNL A   1      43.841  25.751  25.989  1.00  0.00    -0.206 F 
ATOM     85  C   UNL A   1      42.748  22.437  25.140  1.00  0.00     0.022 A 
BRANCH  82  86
ATOM     86  S   UNL A   1      41.515  20.478  26.513  1.00  0.00     0.124 S 
ATOM     87  O   UNL A   1      41.896  20.041  27.930  1.00  0.00    -0.237 OA
ATOM     88  O   UNL A   1      39.996  20.398  26.346  1.00  0.00    -0.237 OA
ATOM     89  O   UNL A   1      42.269  19.447  25.375  1.00  0.00    -0.744 OA
ENDBRANCH  82  86
ENDBRANCH  55  79
BRANCH  67  90
ATOM     90  C   UNL A   1      46.518  25.663  32.736  1.00  0.00     0.023 A 
ATOM     91  C   UNL A   1      47.734  26.104  32.241  1.00  0.00     0.031 A 
ATOM     92  C   UNL A   1      46.457  24.753  33.701  1.00  0.00     0.131 A 
ATOM     93  C   UNL A   1      48.835  25.307  32.631  1.00  0.00     0.055 A 
ATOM     94  C   UNL A   1      47.594  24.110  34.128  1.00  0.00     0.041 A 
ATOM     95  F   UNL A   1      45.285  24.461  34.258  1.00  0.00    -0.206 F 
ATOM     96  C   UNL A   1      48.823  24.453  33.638  1.00  0.00     0.022 A 
BRANCH  93  97
ATOM     97  S   UNL A   1      50.369  25.468  31.683  1.00  0.00     0.124 S 
ATOM     98  O   UNL A   1      50.926  24.077  31.374  1.00  0.00    -0.237 OA
ATOM     99  O   UNL A   1      50.085  26.207  30.373  1.00  0.00    -0.237 OA
ATOM    100  O   UNL A   1      51.514  26.350  32.597  1.00  0.00    -0.744 OA
ENDBRANCH  93  97
ENDBRANCH  67  90
ENDBRANCH  41  42
ENDBRANCH  33  36
ENDBRANCH  31  32
ENDBRANCH   1  31
TORSDOF 18
ENDMDL
MODEL 2
REMARK VINA RESULT:     -12.0      1.335      7.552
REMARK SMILES CCCc1cc(S(F)(F)(F)(F)F)cc2c1O[C@@H](C(F)(F)F)C(C(=O)NCCCCNC(=O)c1ccc(-c3c4nc(c(-c5cc(S(=O)(=O)[O-])ccc5F)c5ccc([nH]5)c(-c5cc(S(=O)(=O)[O-])ccc5F)c5nc(c(-c6cc(S(=O)(=O)[O-])ccc6F)c6ccc3[nH]6)C=C5)C=C4)cc1)=C2
REMARK SMILES IDX 28 1 27 2 26 3 25 4 23 5 24 6 22 8 4 9 5 10 15 11 6 12 14 13
REMARK SMILES IDX 16 14 13 15 96 16 17 17 3 18 2 19 1 20 7 21 8 22 9 23 10 24
REMARK SMILES IDX 11 25 12 26 18 27 19 28 20 29 21 30 29 31 30 32 31 33 32 35
REMARK SMILES IDX 33 36 34 37 95 38 35 39 94 40 36 41 37 42 38 43 88 44 39 45
REMARK SMILES IDX 93 46 87 47 89 48 40 49 92 50 86 51 85 52 41 54 73 55 53 56
REMARK SMILES IDX 72 57 54 58 57 59 71 60 90 61 55 62 56 63 70 65 91 66 58 67
REMARK SMILES IDX 42 68 43 69 51 70 44 71 50 72 52 73 49 74 45 75 46 76 47 77
REMARK SMILES IDX 48 78 74 79 75 80 83 81 76 82 82 83 84 84 81 85 77 86 78 87
REMARK SMILES IDX 79 88 80 89 59 90 60 91 68 92 61 93 67 94 69 95 66 96 62 97
REMARK SMILES IDX 63 98 64 99 65 100
REMARK H PARENT 25 7 30 34 89 53 57 64
REMARK Flexibility Score: inf
ROOT
ATOM      1  C   UNL A   1      33.220  28.088  26.882  1.00  0.00     0.023 C 
ENDROOT
BRANCH   1   2
ATOM      2  C   UNL A   1      31.762  28.488  26.725  1.00  0.00     0.023 C 
BRANCH   2   3
ATOM      3  C   UNL A   1      30.956  27.290  26.252  1.00  0.00     0.116 C 
BRANCH   3   4
ATOM      4  N   UNL A   1      30.338  27.596  24.954  1.00  0.00    -0.352 N 
ATOM      5  C   UNL A   1      30.729  26.839  23.756  1.00  0.00     0.251 C 
ATOM      6  O   UNL A   1      30.195  27.104  22.634  1.00  0.00    -0.270 OA
ATOM      7  H   UNL A   1      29.661  28.309  24.887  1.00  0.00     0.163 HD
BRANCH   5   8
ATOM      8  C   UNL A   1      31.774  25.739  23.861  1.00  0.00     0.067 C 
ATOM      9  C   UNL A   1      34.682  22.749  23.639  1.00  0.00    -0.004 A 
ATOM     10  C   UNL A   1      34.355  21.444  23.962  1.00  0.00     0.032 A 
ATOM     11  C   UNL A   1      33.693  23.703  23.669  1.00  0.00     0.131 A 
ATOM     12  C   UNL A   1      33.073  21.102  24.301  1.00  0.00     0.108 A 
ATOM     13  C   UNL A   1      32.392  23.397  24.025  1.00  0.00     0.019 A 
ATOM     14  O   UNL A   1      34.006  24.969  23.237  1.00  0.00    -0.475 OA
ATOM     15  C   UNL A   1      32.097  22.076  24.339  1.00  0.00     0.036 A 
ATOM     16  C   UNL A   1      31.411  24.470  23.989  1.00  0.00     0.025 C 
ATOM     17  C   UNL A   1      33.259  26.072  23.822  1.00  0.00     0.314 C 
BRANCH   9  18
ATOM     18  C   UNL A   1      36.105  23.118  23.257  1.00  0.00     0.039 C 
BRANCH  18  19
ATOM     19  C   UNL A   1      37.067  22.574  24.300  1.00  0.00     0.001 C 
ATOM     20  C   UNL A   1      37.254  23.602  25.403  1.00  0.00     0.004 C 
ENDBRANCH  18  19
ENDBRANCH   9  18
BRANCH  12  21
ATOM     21  S   UNL A   1      32.662  19.384  24.698  1.00  0.00     0.310 S 
ATOM     22  F   UNL A   1      34.135  18.891  24.378  1.00  0.00    -0.094 F 
ATOM     23  F   UNL A   1      32.327  19.150  23.177  1.00  0.00    -0.094 F 
ATOM     24  F   UNL A   1      32.307  17.908  25.032  1.00  0.00    -0.094 F 
ATOM     25  F   UNL A   1      33.137  19.599  26.190  1.00  0.00    -0.094 F 
ATOM     26  F   UNL A   1      33.134  20.852  24.352  1.00  0.00    -0.094 F 
ENDBRANCH  12  21
BRANCH  17  27
ATOM     27  C   UNL A   1      33.467  27.315  22.973  1.00  0.00     0.429 C 
ATOM     28  F   UNL A   1      32.724  28.310  23.453  1.00  0.00    -0.167 F 
ATOM     29  F   UNL A   1      34.750  27.666  23.005  1.00  0.00    -0.167 F 
ATOM     30  F   UNL A   1      33.109  27.061  21.718  1.00  0.00    -0.167 F 
ENDBRANCH  17  27
ENDBRANCH   5   8
ENDBRANCH   3   4
ENDBRANCH   2   3
ENDBRANCH   1   2
BRANCH   1  31
ATOM     31  C   UNL A   1      34.106  29.139  26.232  1.00  0.00     0.116 C 
BRANCH  31  32
ATOM     32  N   UNL A   1      33.704  30.474  26.697  1.00  0.00    -0.352 N 
ATOM     33  C   UNL A   1      34.533  31.191  27.677  1.00  0.00     0.251 C 
ATOM     34  H   UNL A   1      32.880  30.888  26.352  1.00  0.00     0.163 HD
ATOM     35  O   UNL A   1      34.186  32.346  28.079  1.00  0.00    -0.269 OA
BRANCH  33  36
ATOM     36  C   UNL A   1      35.805  30.553  28.209  1.00  0.00     0.039 A 
ATOM     37  C   UNL A   1      35.724  29.636  29.244  1.00  0.00     0.014 A 
ATOM     38  C   UNL A   1      36.974  30.882  27.671  1.00  0.00     0.014 A 
ATOM     39  C   UNL A   1      36.969  29.337  29.844  1.00  0.00     0.010 A 
ATOM     40  C   UNL A   1      38.150  30.443  28.230  1.00  0.00     0.010 A 
ATOM     41  C   UNL A   1      38.145  29.583  29.293  1.00  0.00    -0.014 A 
BRANCH  41  42
ATOM     42  C   UNL A   1      39.423  28.944  29.813  1.00  0.00     0.031 A 
ATOM     43  C   UNL A   1      39.947  27.858  29.111  1.00  0.00     0.074 A 
ATOM     44  C   UNL A   1      39.995  29.476  30.956  1.00  0.00     0.049 A 
ATOM     45  N   UNL A   1      41.066  27.182  29.375  1.00  0.00    -0.248 NA
ATOM     46  C   UNL A   1      39.322  27.270  27.917  1.00  0.00     0.031 C 
ATOM     47  C   UNL A   1      39.475  30.577  31.666  1.00  0.00     0.029 A 
ATOM     48  N   UNL A   1      41.136  29.057  31.604  1.00  0.00    -0.354 N 
ATOM     49  C   UNL A   1      41.249  26.221  28.468  1.00  0.00     0.074 A 
ATOM     50  C   UNL A   1      40.127  26.260  27.521  1.00  0.00     0.031 C 
ATOM     51  C   UNL A   1      40.285  30.809  32.732  1.00  0.00     0.029 A 
ATOM     52  C   UNL A   1      41.324  29.861  32.707  1.00  0.00     0.049 A 
ATOM     53  H   UNL A   1      41.716  28.312  31.326  1.00  0.00     0.167 HD
ATOM     54  C   UNL A   1      42.308  25.315  28.392  1.00  0.00     0.034 A 
ATOM     55  C   UNL A   1      42.337  29.784  33.649  1.00  0.00     0.034 A 
ATOM     56  C   UNL A   1      43.345  25.266  29.310  1.00  0.00     0.049 A 
ATOM     57  C   UNL A   1      43.367  28.839  33.607  1.00  0.00     0.074 A 
ATOM     58  C   UNL A   1      44.424  24.364  29.245  1.00  0.00     0.029 A 
ATOM     59  N   UNL A   1      43.521  26.054  30.427  1.00  0.00    -0.354 N 
ATOM     60  N   UNL A   1      43.570  27.904  32.677  1.00  0.00    -0.248 NA
ATOM     61  C   UNL A   1      44.426  28.728  34.617  1.00  0.00     0.031 C 
ATOM     62  C   UNL A   1      45.235  24.598  30.312  1.00  0.00     0.029 A 
ATOM     63  C   UNL A   1      44.673  25.650  31.062  1.00  0.00     0.049 A 
ATOM     64  H   UNL A   1      42.924  26.780  30.720  1.00  0.00     0.167 HD
ATOM     65  C   UNL A   1      44.667  27.201  32.966  1.00  0.00     0.074 A 
ATOM     66  C   UNL A   1      45.229  27.717  34.222  1.00  0.00     0.031 C 
ATOM     67  C   UNL A   1      45.224  26.153  32.230  1.00  0.00     0.034 A 
BRANCH  54  68
ATOM     68  C   UNL A   1      42.326  24.326  27.238  1.00  0.00     0.023 A 
ATOM     69  C   UNL A   1      41.429  23.270  27.234  1.00  0.00     0.031 A 
ATOM     70  C   UNL A   1      43.202  24.489  26.254  1.00  0.00     0.131 A 
ATOM     71  C   UNL A   1      41.730  22.267  26.284  1.00  0.00     0.055 A 
ATOM     72  C   UNL A   1      43.348  23.529  25.282  1.00  0.00     0.041 A 
ATOM     73  F   UNL A   1      43.946  25.590  26.210  1.00  0.00    -0.206 F 
ATOM     74  C   UNL A   1      42.536  22.430  25.250  1.00  0.00     0.022 A 
BRANCH  71  75
ATOM     75  S   UNL A   1      40.956  20.644  26.499  1.00  0.00     0.124 S 
ATOM     76  O   UNL A   1      40.994  20.253  27.978  1.00  0.00    -0.237 OA
ATOM     77  O   UNL A   1      39.502  20.705  26.025  1.00  0.00    -0.237 OA
ATOM     78  O   UNL A   1      41.807  19.480  25.579  1.00  0.00    -0.744 OA
ENDBRANCH  71  75
ENDBRANCH  54  68
BRANCH  55  79
ATOM     79  C   UNL A   1      42.329  30.784  34.794  1.00  0.00     0.023 A 
ATOM     80  C   UNL A   1      42.867  32.045  34.598  1.00  0.00     0.031 A 
ATOM     81  C   UNL A   1      41.806  30.432  35.962  1.00  0.00     0.131 A 
ATOM     82  C   UNL A   1      43.068  32.774  35.793  1.00  0.00     0.055 A 
ATOM     83  C   UNL A   1      41.921  31.255  37.057  1.00  0.00     0.041 A 
ATOM     84  F   UNL A   1      41.164  29.272  36.074  1.00  0.00    -0.206 F 
ATOM     85  C   UNL A   1      42.495  32.491  36.949  1.00  0.00     0.022 A 
BRANCH  82  86
ATOM     86  S   UNL A   1      44.190  34.194  35.736  1.00  0.00     0.124 S 
ATOM     87  O   UNL A   1      43.452  35.404  35.157  1.00  0.00    -0.237 OA
ATOM     88  O   UNL A   1      44.671  34.520  37.152  1.00  0.00    -0.237 OA
ATOM     89  O   UNL A   1      45.535  33.819  34.748  1.00  0.00    -0.744 OA
ENDBRANCH  82  86
ENDBRANCH  55  79
BRANCH  67  90
ATOM     90  C   UNL A   1      46.510  25.527  32.741  1.00  0.00     0.023 A 
ATOM     91  C   UNL A   1      46.444  24.485  33.652  1.00  0.00     0.031 A 
ATOM     92  C   UNL A   1      47.678  25.990  32.310  1.00  0.00     0.131 A 
ATOM     93  C   UNL A   1      47.679  24.185  34.271  1.00  0.00     0.055 A 
ATOM     94  C   UNL A   1      48.854  25.552  32.868  1.00  0.00     0.041 A 
ATOM     95  F   UNL A   1      47.707  26.886  31.327  1.00  0.00    -0.206 F 
ATOM     96  C   UNL A   1      48.859  24.566  33.816  1.00  0.00     0.022 A 
BRANCH  93  97
ATOM     97  S   UNL A   1      47.641  23.211  35.797  1.00  0.00     0.124 S 
ATOM     98  O   UNL A   1      46.202  23.120  36.308  1.00  0.00    -0.237 OA
ATOM     99  O   UNL A   1      48.173  21.803  35.517  1.00  0.00    -0.237 OA
ATOM    100  O   UNL A   1      48.620  23.965  36.979  1.00  0.00    -0.744 OA
ENDBRANCH  93  97
ENDBRANCH  67  90
ENDBRANCH  41  42
ENDBRANCH  33  36
ENDBRANCH  31  32
ENDBRANCH   1  31
TORSDOF 18
ENDMDL
MODEL 3
REMARK VINA RESULT:     -11.9      4.314      8.615
REMARK SMILES CCCc1cc(S(F)(F)(F)(F)F)cc2c1O[C@@H](C(F)(F)F)C(C(=O)NCCCCNC(=O)c1ccc(-c3c4nc(c(-c5cc(S(=O)(=O)[O-])ccc5F)c5ccc([nH]5)c(-c5cc(S(=O)(=O)[O-])ccc5F)c5nc(c(-c6cc(S(=O)(=O)[O-])ccc6F)c6ccc3[nH]6)C=C5)C=C4)cc1)=C2
REMARK SMILES IDX 28 1 27 2 26 3 25 4 23 5 24 6 22 8 4 9 5 10 15 11 6 12 14 13
REMARK SMILES IDX 16 14 13 15 96 16 17 17 3 18 2 19 1 20 7 21 8 22 9 23 10 24
REMARK SMILES IDX 11 25 12 26 18 27 19 28 20 29 21 30 29 31 30 32 31 33 32 35
REMARK SMILES IDX 33 36 34 37 95 38 35 39 94 40 36 41 37 42 38 43 88 44 39 45
REMARK SMILES IDX 93 46 87 47 89 48 40 49 92 50 86 51 85 52 41 54 73 55 53 56
REMARK SMILES IDX 72 57 54 58 57 59 71 60 90 61 55 62 56 63 70 65 91 66 58 67
REMARK SMILES IDX 42 68 43 69 51 70 44 71 50 72 52 73 49 74 45 75 46 76 47 77
REMARK SMILES IDX 48 78 74 79 75 80 83 81 76 82 82 83 84 84 81 85 77 86 78 87
REMARK SMILES IDX 79 88 80 89 59 90 60 91 68 92 61 93 67 94 69 95 66 96 62 97
REMARK SMILES IDX 63 98 64 99 65 100
REMARK H PARENT 25 7 30 34 89 53 57 64
REMARK Flexibility Score: inf
ROOT
ATOM      1  C   UNL A   1      36.294  23.480  24.670  1.00  0.00     0.023 C 
ENDROOT
BRANCH   1   2
ATOM      2  C   UNL A   1      35.809  22.100  24.256  1.00  0.00     0.023 C 
BRANCH   2   3
ATOM      3  C   UNL A   1      34.542  22.236  23.427  1.00  0.00     0.116 C 
BRANCH   3   4
ATOM      4  N   UNL A   1      33.531  21.288  23.918  1.00  0.00    -0.352 N 
ATOM      5  C   UNL A   1      32.362  21.779  24.662  1.00  0.00     0.251 C 
ATOM      6  O   UNL A   1      31.489  20.960  25.086  1.00  0.00    -0.270 OA
ATOM      7  H   UNL A   1      33.638  20.324  23.748  1.00  0.00     0.163 HD
BRANCH   5   8
ATOM      8  C   UNL A   1      32.199  23.268  24.923  1.00  0.00     0.067 C 
ATOM      9  C   UNL A   1      31.403  27.226  25.994  1.00  0.00    -0.004 A 
ATOM     10  C   UNL A   1      30.791  28.075  25.090  1.00  0.00     0.032 A 
ATOM     11  C   UNL A   1      31.604  25.915  25.635  1.00  0.00     0.131 A 
ATOM     12  C   UNL A   1      30.385  27.624  23.862  1.00  0.00     0.108 A 
ATOM     13  C   UNL A   1      31.226  25.429  24.397  1.00  0.00     0.019 A 
ATOM     14  O   UNL A   1      32.111  25.058  26.582  1.00  0.00    -0.475 OA
ATOM     15  C   UNL A   1      30.608  26.307  23.514  1.00  0.00     0.036 A 
ATOM     16  C   UNL A   1      31.448  24.017  24.128  1.00  0.00     0.025 C 
ATOM     17  C   UNL A   1      32.896  23.930  26.104  1.00  0.00     0.314 C 
BRANCH   9  18
ATOM     18  C   UNL A   1      31.843  27.734  27.357  1.00  0.00     0.039 C 
BRANCH  18  19
ATOM     19  C   UNL A   1      32.640  29.017  27.186  1.00  0.00     0.001 C 
ATOM     20  C   UNL A   1      34.094  28.677  26.900  1.00  0.00     0.004 C 
ENDBRANCH  18  19
ENDBRANCH   9  18
BRANCH  12  21
ATOM     21  S   UNL A   1      29.564  28.745  22.703  1.00  0.00     0.310 S 
ATOM     22  F   UNL A   1      29.550  29.928  23.760  1.00  0.00    -0.094 F 
ATOM     23  F   UNL A   1      28.179  28.290  23.299  1.00  0.00    -0.094 F 
ATOM     24  F   UNL A   1      28.851  29.706  21.710  1.00  0.00    -0.094 F 
ATOM     25  F   UNL A   1      30.964  29.293  22.217  1.00  0.00    -0.094 F 
ATOM     26  F   UNL A   1      30.302  27.859  23.783  1.00  0.00    -0.094 F 
ENDBRANCH  12  21
BRANCH  17  27
ATOM     27  C   UNL A   1      33.041  22.917  27.227  1.00  0.00     0.429 C 
ATOM     28  F   UNL A   1      33.713  21.857  26.784  1.00  0.00    -0.167 F 
ATOM     29  F   UNL A   1      33.702  23.468  28.241  1.00  0.00    -0.167 F 
ATOM     30  F   UNL A   1      31.836  22.536  27.640  1.00  0.00    -0.167 F 
ENDBRANCH  17  27
ENDBRANCH   5   8
ENDBRANCH   3   4
ENDBRANCH   2   3
ENDBRANCH   1   2
BRANCH   1  31
ATOM     31  C   UNL A   1      36.986  23.390  26.020  1.00  0.00     0.116 C 
BRANCH  31  32
ATOM     32  N   UNL A   1      37.970  22.298  25.994  1.00  0.00    -0.352 N 
ATOM     33  C   UNL A   1      39.348  22.541  26.443  1.00  0.00     0.251 C 
ATOM     34  H   UNL A   1      37.706  21.405  25.675  1.00  0.00     0.163 HD
ATOM     35  O   UNL A   1      40.199  21.597  26.421  1.00  0.00    -0.269 OA
BRANCH  33  36
ATOM     36  C   UNL A   1      39.756  23.920  26.936  1.00  0.00     0.039 A 
ATOM     37  C   UNL A   1      39.724  24.192  28.293  1.00  0.00     0.014 A 
ATOM     38  C   UNL A   1      40.138  24.840  26.057  1.00  0.00     0.014 A 
ATOM     39  C   UNL A   1      39.836  25.568  28.605  1.00  0.00     0.010 A 
ATOM     40  C   UNL A   1      40.362  26.136  26.454  1.00  0.00     0.010 A 
ATOM     41  C   UNL A   1      40.289  26.489  27.773  1.00  0.00    -0.014 A 
BRANCH  41  42
ATOM     42  C   UNL A   1      40.705  27.869  28.257  1.00  0.00     0.031 A 
ATOM     43  C   UNL A   1      39.710  28.728  28.726  1.00  0.00     0.074 A 
ATOM     44  C   UNL A   1      42.049  28.196  28.206  1.00  0.00     0.049 A 
ATOM     45  N   UNL A   1      39.864  29.956  29.224  1.00  0.00    -0.248 NA
ATOM     46  C   UNL A   1      38.278  28.395  28.750  1.00  0.00     0.031 C 
ATOM     47  C   UNL A   1      43.060  27.332  27.741  1.00  0.00     0.029 A 
ATOM     48  N   UNL A   1      42.646  29.380  28.580  1.00  0.00    -0.354 N 
ATOM     49  C   UNL A   1      38.682  30.458  29.587  1.00  0.00     0.074 A 
ATOM     50  C   UNL A   1      37.644  29.463  29.281  1.00  0.00     0.031 C 
ATOM     51  C   UNL A   1      44.247  27.990  27.823  1.00  0.00     0.029 A 
ATOM     52  C   UNL A   1      43.999  29.274  28.341  1.00  0.00     0.049 A 
ATOM     53  H   UNL A   1      42.185  30.165  28.954  1.00  0.00     0.167 HD
ATOM     54  C   UNL A   1      38.428  31.704  30.162  1.00  0.00     0.034 A 
ATOM     55  C   UNL A   1      44.975  30.234  28.555  1.00  0.00     0.034 A 
ATOM     56  C   UNL A   1      39.411  32.647  30.415  1.00  0.00     0.049 A 
ATOM     57  C   UNL A   1      44.714  31.504  29.076  1.00  0.00     0.074 A 
ATOM     58  C   UNL A   1      39.173  33.905  31.001  1.00  0.00     0.029 A 
ATOM     59  N   UNL A   1      40.760  32.551  30.154  1.00  0.00    -0.354 N 
ATOM     60  N   UNL A   1      43.537  31.989  29.475  1.00  0.00    -0.248 NA
ATOM     61  C   UNL A   1      45.736  32.539  29.276  1.00  0.00     0.031 C 
ATOM     62  C   UNL A   1      40.362  34.563  31.084  1.00  0.00     0.029 A 
ATOM     63  C   UNL A   1      41.360  33.726  30.550  1.00  0.00     0.049 A 
ATOM     64  H   UNL A   1      41.216  31.776  29.753  1.00  0.00     0.167 HD
ATOM     65  C   UNL A   1      43.686  33.234  29.934  1.00  0.00     0.074 A 
ATOM     66  C   UNL A   1      45.101  33.608  29.806  1.00  0.00     0.031 C 
ATOM     67  C   UNL A   1      42.699  34.071  30.458  1.00  0.00     0.034 A 
BRANCH  54  68
ATOM     68  C   UNL A   1      36.994  32.046  30.530  1.00  0.00     0.023 A 
ATOM     69  C   UNL A   1      36.126  32.488  29.545  1.00  0.00     0.031 A 
ATOM     70  C   UNL A   1      36.597  31.919  31.791  1.00  0.00     0.131 A 
ATOM     71  C   UNL A   1      34.928  33.049  30.047  1.00  0.00     0.055 A 
ATOM     72  C   UNL A   1      35.359  32.367  32.184  1.00  0.00     0.041 A 
ATOM     73  F   UNL A   1      37.406  31.352  32.682  1.00  0.00    -0.206 F 
ATOM     74  C   UNL A   1      34.472  32.871  31.273  1.00  0.00     0.022 A 
BRANCH  71  75
ATOM     75  S   UNL A   1      33.952  34.087  28.929  1.00  0.00     0.124 S 
ATOM     76  O   UNL A   1      32.832  34.771  29.717  1.00  0.00    -0.237 OA
ATOM     77  O   UNL A   1      34.856  35.150  28.301  1.00  0.00    -0.237 OA
ATOM     78  O   UNL A   1      33.272  33.116  27.698  1.00  0.00    -0.744 OA
ENDBRANCH  71  75
ENDBRANCH  54  68
BRANCH  55  79
ATOM     79  C   UNL A   1      46.412  29.885  28.202  1.00  0.00     0.023 A 
ATOM     80  C   UNL A   1      47.202  29.235  29.135  1.00  0.00     0.031 A 
ATOM     81  C   UNL A   1      46.886  30.210  27.005  1.00  0.00     0.131 A 
ATOM     82  C   UNL A   1      48.580  29.226  28.813  1.00  0.00     0.055 A 
ATOM     83  C   UNL A   1      48.219  30.048  26.712  1.00  0.00     0.041 A 
ATOM     84  F   UNL A   1      46.063  30.697  26.080  1.00  0.00    -0.206 F 
ATOM     85  C   UNL A   1      49.070  29.467  27.610  1.00  0.00     0.022 A 
BRANCH  82  86
ATOM     86  S   UNL A   1      49.753  28.860  30.142  1.00  0.00     0.124 S 
ATOM     87  O   UNL A   1      49.098  27.920  31.156  1.00  0.00    -0.237 OA
ATOM     88  O   UNL A   1      50.997  28.190  29.553  1.00  0.00    -0.237 OA
ATOM     89  O   UNL A   1      50.205  30.315  30.920  1.00  0.00    -0.744 OA
ENDBRANCH  82  86
ENDBRANCH  55  79
BRANCH  67  90
ATOM     90  C   UNL A   1      43.119  35.443  30.958  1.00  0.00     0.023 A 
ATOM     91  C   UNL A   1      43.225  36.491  30.058  1.00  0.00     0.031 A 
ATOM     92  C   UNL A   1      43.379  35.616  32.249  1.00  0.00     0.131 A 
ATOM     93  C   UNL A   1      43.896  37.624  30.574  1.00  0.00     0.055 A 
ATOM     94  C   UNL A   1      43.909  36.799  32.704  1.00  0.00     0.041 A 
ATOM     95  F   UNL A   1      43.125  34.633  33.108  1.00  0.00    -0.206 F 
ATOM     96  C   UNL A   1      44.096  37.857  31.858  1.00  0.00     0.022 A 
BRANCH  93  97
ATOM     97  S   UNL A   1      44.527  38.840  29.390  1.00  0.00     0.124 S 
ATOM     98  O   UNL A   1      45.928  38.429  28.934  1.00  0.00    -0.237 OA
ATOM     99  O   UNL A   1      43.595  38.904  28.178  1.00  0.00    -0.237 OA
ATOM    100  O   UNL A   1      44.598  40.378  30.135  1.00  0.00    -0.744 OA
ENDBRANCH  93  97
ENDBRANCH  67  90
ENDBRANCH  41  42
ENDBRANCH  33  36
ENDBRANCH  31  32
ENDBRANCH   1  31
TORSDOF 18
ENDMDL
