MODEL 1
REMARK VINA RESULT:     -11.3      0.000      0.000
REMARK SMILES Nc1nc(N)nc(N/C=C/C(=O)NCCCCNC(=O)c2ccc(-c3c4nc(c(-c5cc(S(=O)(=O)[O-])ccc5F)c5ccc([nH]5)c(-c5cc(S(=O)(=O)[O-])ccc5F)c5nc(c(-c6cc(S(=O)(=O)[O-])ccc6F)c6ccc3[nH]6)C=C5)C=C4)cc2)n1
REMARK SMILES IDX 15 1 14 2 13 3 11 4 12 5 10 7 9 8 8 9 7 11 2 12 3 13 84 14
REMARK SMILES IDX 4 15 6 16 1 17 5 20 16 23 17 24 18 25 19 26 20 28 21 29
REMARK SMILES IDX 22 30 83 31 23 32 82 33 24 34 25 35 26 36 76 37 27 38 81 39
REMARK SMILES IDX 75 40 77 41 28 42 80 43 74 44 73 45 29 47 61 48 41 49 60 50
REMARK SMILES IDX 42 51 45 52 59 53 78 54 43 55 44 56 58 58 79 59 46 60 30 61
REMARK SMILES IDX 31 62 39 63 32 64 38 65 40 66 37 67 33 68 34 69 35 70 36 71
REMARK SMILES IDX 62 72 63 73 71 74 64 75 70 76 72 77 69 78 65 79 66 80 67 81
REMARK SMILES IDX 68 82 47 83 48 84 56 85 49 86 55 87 57 88 54 89 50 90 51 91
REMARK SMILES IDX 52 92 53 93
REMARK H PARENT 13 6 8 10 1 18 1 19 5 21 5 22 18 27 77 46 45 57
REMARK Flexibility Score: inf
ROOT
ATOM      1  C   UNL A   1      32.199  27.659  26.586  1.00  0.00     0.023 C 
ENDROOT
BRANCH   1   2
ATOM      2  C   UNL A   1      31.532  26.603  25.702  1.00  0.00     0.116 C 
BRANCH   2   3
ATOM      3  N   UNL A   1      30.762  25.664  26.501  1.00  0.00    -0.353 N 
ATOM      4  C   UNL A   1      30.512  24.336  26.336  1.00  0.00     0.245 C 
ATOM      5  O   UNL A   1      29.894  23.726  27.208  1.00  0.00    -0.270 OA
ATOM      6  H   UNL A   1      30.349  26.056  27.304  1.00  0.00     0.163 HD
BRANCH   4   7
ATOM      7  C   UNL A   1      31.035  23.573  25.178  1.00  0.00     0.089 C 
ATOM      8  C   UNL A   1      31.856  22.520  25.247  1.00  0.00     0.091 C 
BRANCH   8   9
ATOM      9  N   UNL A   1      32.345  21.759  24.222  1.00  0.00    -0.330 N 
ATOM     10  H   UNL A   1      32.670  22.235  23.423  1.00  0.00     0.169 HD
BRANCH   9  11
ATOM     11  C   UNL A   1      32.423  20.365  24.211  1.00  0.00     0.233 A 
ATOM     12  C   UNL A   1      32.184  18.444  23.093  1.00  0.00     0.226 A 
ATOM     13  N   UNL A   1      32.412  17.711  24.169  1.00  0.00    -0.177 NA
ATOM     14  N   UNL A   1      32.157  19.766  23.057  1.00  0.00    -0.177 NA
ATOM     15  C   UNL A   1      32.650  18.399  25.271  1.00  0.00     0.226 A 
ATOM     16  N   UNL A   1      32.687  19.716  25.343  1.00  0.00    -0.177 NA
BRANCH  12  17
ATOM     17  N   UNL A   1      31.959  17.778  21.921  1.00  0.00    -0.368 N 
ATOM     18  H   UNL A   1      31.125  17.928  21.421  1.00  0.00     0.159 HD
ATOM     19  H   UNL A   1      32.631  17.146  21.577  1.00  0.00     0.159 HD
ENDBRANCH  12  17
BRANCH  15  20
ATOM     20  N   UNL A   1      32.852  17.699  26.427  1.00  0.00    -0.368 N 
ATOM     21  H   UNL A   1      32.476  16.795  26.526  1.00  0.00     0.159 HD
ATOM     22  H   UNL A   1      33.374  18.099  27.160  1.00  0.00     0.159 HD
ENDBRANCH  15  20
ENDBRANCH   9  11
ENDBRANCH   8   9
ENDBRANCH   4   7
ENDBRANCH   2   3
ENDBRANCH   1   2
BRANCH   1  23
ATOM     23  C   UNL A   1      31.628  29.072  26.421  1.00  0.00     0.023 C 
BRANCH  23  24
ATOM     24  C   UNL A   1      32.630  30.125  25.955  1.00  0.00     0.116 C 
BRANCH  24  25
ATOM     25  N   UNL A   1      32.293  31.471  26.392  1.00  0.00    -0.352 N 
ATOM     26  C   UNL A   1      32.970  32.285  27.271  1.00  0.00     0.251 C 
ATOM     27  H   UNL A   1      31.470  31.850  26.008  1.00  0.00     0.163 HD
ATOM     28  O   UNL A   1      32.481  33.353  27.613  1.00  0.00    -0.269 OA
BRANCH  26  29
ATOM     29  C   UNL A   1      34.265  31.833  27.827  1.00  0.00     0.039 A 
ATOM     30  C   UNL A   1      35.300  32.760  27.962  1.00  0.00     0.014 A 
ATOM     31  C   UNL A   1      34.443  30.511  28.245  1.00  0.00     0.014 A 
ATOM     32  C   UNL A   1      36.493  32.380  28.582  1.00  0.00     0.010 A 
ATOM     33  C   UNL A   1      35.606  30.152  28.921  1.00  0.00     0.010 A 
ATOM     34  C   UNL A   1      36.640  31.083  29.101  1.00  0.00    -0.014 A 
BRANCH  34  35
ATOM     35  C   UNL A   1      37.864  30.684  29.843  1.00  0.00     0.031 A 
ATOM     36  C   UNL A   1      38.846  29.729  29.220  1.00  0.00     0.074 A 
ATOM     37  C   UNL A   1      38.051  31.121  31.103  1.00  0.00     0.049 A 
ATOM     38  N   UNL A   1      39.925  29.198  29.733  1.00  0.00    -0.248 NA
ATOM     39  C   UNL A   1      38.550  29.290  27.849  1.00  0.00     0.031 C 
ATOM     40  C   UNL A   1      37.146  32.013  31.831  1.00  0.00     0.029 A 
ATOM     41  N   UNL A   1      39.058  30.867  32.000  1.00  0.00    -0.354 N 
ATOM     42  C   UNL A   1      40.431  28.349  28.755  1.00  0.00     0.074 A 
ATOM     43  C   UNL A   1      39.502  28.392  27.645  1.00  0.00     0.031 C 
ATOM     44  C   UNL A   1      37.650  32.249  33.053  1.00  0.00     0.029 A 
ATOM     45  C   UNL A   1      38.888  31.494  33.213  1.00  0.00     0.049 A 
ATOM     46  H   UNL A   1      39.829  30.290  31.795  1.00  0.00     0.167 HD
ATOM     47  C   UNL A   1      41.576  27.622  28.771  1.00  0.00     0.034 A 
ATOM     48  C   UNL A   1      39.641  31.457  34.330  1.00  0.00     0.034 A 
ATOM     49  C   UNL A   1      42.496  27.599  29.883  1.00  0.00     0.049 A 
ATOM     50  C   UNL A   1      40.900  30.628  34.334  1.00  0.00     0.074 A 
ATOM     51  C   UNL A   1      43.714  26.949  29.985  1.00  0.00     0.029 A 
ATOM     52  N   UNL A   1      42.294  28.250  31.095  1.00  0.00    -0.354 N 
ATOM     53  N   UNL A   1      41.395  29.873  33.381  1.00  0.00    -0.248 NA
ATOM     54  C   UNL A   1      41.702  30.654  35.563  1.00  0.00     0.031 C 
ATOM     55  C   UNL A   1      44.215  27.153  31.276  1.00  0.00     0.029 A 
ATOM     56  C   UNL A   1      43.348  27.990  31.959  1.00  0.00     0.049 A 
ATOM     57  H   UNL A   1      41.516  28.813  31.309  1.00  0.00     0.167 HD
ATOM     58  C   UNL A   1      42.586  29.358  33.886  1.00  0.00     0.074 A 
ATOM     59  C   UNL A   1      42.737  29.898  35.223  1.00  0.00     0.031 C 
ATOM     60  C   UNL A   1      43.476  28.520  33.297  1.00  0.00     0.034 A 
BRANCH  47  61
ATOM     61  C   UNL A   1      41.871  26.773  27.555  1.00  0.00     0.023 A 
ATOM     62  C   UNL A   1      41.556  25.403  27.518  1.00  0.00     0.031 A 
ATOM     63  C   UNL A   1      42.521  27.327  26.437  1.00  0.00     0.131 A 
ATOM     64  C   UNL A   1      41.975  24.615  26.435  1.00  0.00     0.055 A 
ATOM     65  C   UNL A   1      42.854  26.555  25.322  1.00  0.00     0.041 A 
ATOM     66  F   UNL A   1      42.864  28.625  26.419  1.00  0.00    -0.206 F 
ATOM     67  C   UNL A   1      42.600  25.186  25.325  1.00  0.00     0.022 A 
BRANCH  64  68
ATOM     68  S   UNL A   1      41.844  22.812  26.578  1.00  0.00     0.124 S 
ATOM     69  O   UNL A   1      40.416  22.639  26.830  1.00  0.00    -0.237 OA
ATOM     70  O   UNL A   1      42.323  22.357  25.278  1.00  0.00    -0.237 OA
ATOM     71  O   UNL A   1      42.712  22.493  27.710  1.00  0.00    -0.744 OA
ENDBRANCH  64  68
ENDBRANCH  47  61
BRANCH  48  72
ATOM     72  C   UNL A   1      39.230  32.224  35.539  1.00  0.00     0.023 A 
ATOM     73  C   UNL A   1      38.509  31.607  36.574  1.00  0.00     0.031 A 
ATOM     74  C   UNL A   1      39.533  33.591  35.667  1.00  0.00     0.131 A 
ATOM     75  C   UNL A   1      38.080  32.364  37.674  1.00  0.00     0.055 A 
ATOM     76  C   UNL A   1      39.143  34.329  36.786  1.00  0.00     0.041 A 
ATOM     77  F   UNL A   1      40.228  34.225  34.710  1.00  0.00    -0.206 F 
ATOM     78  C   UNL A   1      38.402  33.718  37.794  1.00  0.00     0.022 A 
BRANCH  75  79
ATOM     79  S   UNL A   1      37.039  31.565  38.926  1.00  0.00     0.124 S 
ATOM     80  O   UNL A   1      37.871  31.674  40.119  1.00  0.00    -0.237 OA
ATOM     81  O   UNL A   1      35.842  32.399  38.901  1.00  0.00    -0.237 OA
ATOM     82  O   UNL A   1      36.863  30.210  38.407  1.00  0.00    -0.744 OA
ENDBRANCH  75  79
ENDBRANCH  48  72
BRANCH  60  83
ATOM     83  C   UNL A   1      44.713  28.173  34.089  1.00  0.00     0.023 A 
ATOM     84  C   UNL A   1      44.849  26.938  34.745  1.00  0.00     0.031 A 
ATOM     85  C   UNL A   1      45.764  29.101  34.198  1.00  0.00     0.131 A 
ATOM     86  C   UNL A   1      45.988  26.684  35.527  1.00  0.00     0.055 A 
ATOM     87  C   UNL A   1      46.919  28.821  34.928  1.00  0.00     0.041 A 
ATOM     88  F   UNL A   1      45.685  30.297  33.593  1.00  0.00    -0.206 F 
ATOM     89  C   UNL A   1      47.030  27.612  35.610  1.00  0.00     0.022 A 
BRANCH  86  90
ATOM     90  S   UNL A   1      46.050  25.160  36.508  1.00  0.00     0.124 S 
ATOM     91  O   UNL A   1      47.024  25.502  37.539  1.00  0.00    -0.237 OA
ATOM     92  O   UNL A   1      44.669  25.020  36.957  1.00  0.00    -0.237 OA
ATOM     93  O   UNL A   1      46.492  24.151  35.546  1.00  0.00    -0.744 OA
ENDBRANCH  86  90
ENDBRANCH  60  83
ENDBRANCH  34  35
ENDBRANCH  26  29
ENDBRANCH  24  25
ENDBRANCH  23  24
ENDBRANCH   1  23
TORSDOF 18
ENDMDL
MODEL 2
REMARK VINA RESULT:     -11.2      3.133      4.893
REMARK SMILES Nc1nc(N)nc(N/C=C/C(=O)NCCCCNC(=O)c2ccc(-c3c4nc(c(-c5cc(S(=O)(=O)[O-])ccc5F)c5ccc([nH]5)c(-c5cc(S(=O)(=O)[O-])ccc5F)c5nc(c(-c6cc(S(=O)(=O)[O-])ccc6F)c6ccc3[nH]6)C=C5)C=C4)cc2)n1
REMARK SMILES IDX 15 1 14 2 13 3 11 4 12 5 10 7 9 8 8 9 7 11 2 12 3 13 84 14
REMARK SMILES IDX 4 15 6 16 1 17 5 20 16 23 17 24 18 25 19 26 20 28 21 29
REMARK SMILES IDX 22 30 83 31 23 32 82 33 24 34 25 35 26 36 76 37 27 38 81 39
REMARK SMILES IDX 75 40 77 41 28 42 80 43 74 44 73 45 29 47 61 48 41 49 60 50
REMARK SMILES IDX 42 51 45 52 59 53 78 54 43 55 44 56 58 58 79 59 46 60 30 61
REMARK SMILES IDX 31 62 39 63 32 64 38 65 40 66 37 67 33 68 34 69 35 70 36 71
REMARK SMILES IDX 62 72 63 73 71 74 64 75 70 76 72 77 69 78 65 79 66 80 67 81
REMARK SMILES IDX 68 82 47 83 48 84 56 85 49 86 55 87 57 88 54 89 50 90 51 91
REMARK SMILES IDX 52 92 53 93
REMARK H PARENT 13 6 8 10 1 18 1 19 5 21 5 22 18 27 77 46 45 57
REMARK Flexibility Score: inf
ROOT
ATOM      1  C   UNL A   1      32.002  28.302  27.310  1.00  0.00     0.023 C 
ENDROOT
BRANCH   1   2
ATOM      2  C   UNL A   1      31.432  27.030  26.678  1.00  0.00     0.116 C 
BRANCH   2   3
ATOM      3  N   UNL A   1      32.068  26.751  25.401  1.00  0.00    -0.353 N 
ATOM      4  C   UNL A   1      31.641  26.939  24.123  1.00  0.00     0.245 C 
ATOM      5  O   UNL A   1      32.407  26.701  23.190  1.00  0.00    -0.270 OA
ATOM      6  H   UNL A   1      32.968  26.357  25.473  1.00  0.00     0.163 HD
BRANCH   4   7
ATOM      7  C   UNL A   1      30.307  27.506  23.812  1.00  0.00     0.089 C 
ATOM      8  C   UNL A   1      30.081  28.639  23.141  1.00  0.00     0.091 C 
BRANCH   8   9
ATOM      9  N   UNL A   1      28.879  29.194  22.798  1.00  0.00    -0.330 N 
ATOM     10  H   UNL A   1      28.087  28.609  22.825  1.00  0.00     0.169 HD
BRANCH   9  11
ATOM     11  C   UNL A   1      28.679  30.521  22.412  1.00  0.00     0.233 A 
ATOM     12  C   UNL A   1      28.028  31.983  20.851  1.00  0.00     0.226 A 
ATOM     13  N   UNL A   1      28.413  33.024  21.569  1.00  0.00    -0.177 NA
ATOM     14  N   UNL A   1      28.154  30.715  21.209  1.00  0.00    -0.177 NA
ATOM     15  C   UNL A   1      28.939  32.727  22.743  1.00  0.00     0.226 A 
ATOM     16  N   UNL A   1      29.075  31.503  23.219  1.00  0.00    -0.177 NA
BRANCH  12  17
ATOM     17  N   UNL A   1      27.453  32.240  19.638  1.00  0.00    -0.368 N 
ATOM     18  H   UNL A   1      28.017  32.442  18.858  1.00  0.00     0.159 HD
ATOM     19  H   UNL A   1      26.473  32.225  19.545  1.00  0.00     0.159 HD
ENDBRANCH  12  17
BRANCH  15  20
ATOM     20  N   UNL A   1      29.395  33.757  23.515  1.00  0.00    -0.368 N 
ATOM     21  H   UNL A   1      28.757  34.325  24.004  1.00  0.00     0.159 HD
ATOM     22  H   UNL A   1      30.361  33.932  23.582  1.00  0.00     0.159 HD
ENDBRANCH  15  20
ENDBRANCH   9  11
ENDBRANCH   8   9
ENDBRANCH   4   7
ENDBRANCH   2   3
ENDBRANCH   1   2
BRANCH   1  23
ATOM     23  C   UNL A   1      31.434  29.602  26.731  1.00  0.00     0.023 C 
BRANCH  23  24
ATOM     24  C   UNL A   1      32.473  30.575  26.179  1.00  0.00     0.116 C 
BRANCH  24  25
ATOM     25  N   UNL A   1      32.226  31.956  26.562  1.00  0.00    -0.352 N 
ATOM     26  C   UNL A   1      32.976  32.769  27.382  1.00  0.00     0.251 C 
ATOM     27  H   UNL A   1      31.414  32.365  26.185  1.00  0.00     0.163 HD
ATOM     28  O   UNL A   1      32.559  33.878  27.687  1.00  0.00    -0.269 OA
BRANCH  26  29
ATOM     29  C   UNL A   1      34.259  32.268  27.921  1.00  0.00     0.039 A 
ATOM     30  C   UNL A   1      35.350  33.138  27.981  1.00  0.00     0.014 A 
ATOM     31  C   UNL A   1      34.376  30.958  28.396  1.00  0.00     0.014 A 
ATOM     32  C   UNL A   1      36.538  32.718  28.583  1.00  0.00     0.010 A 
ATOM     33  C   UNL A   1      35.537  30.563  29.054  1.00  0.00     0.010 A 
ATOM     34  C   UNL A   1      36.628  31.440  29.159  1.00  0.00    -0.014 A 
BRANCH  34  35
ATOM     35  C   UNL A   1      37.850  31.004  29.883  1.00  0.00     0.031 A 
ATOM     36  C   UNL A   1      38.815  30.053  29.230  1.00  0.00     0.074 A 
ATOM     37  C   UNL A   1      38.051  31.406  31.153  1.00  0.00     0.049 A 
ATOM     38  N   UNL A   1      39.889  29.493  29.723  1.00  0.00    -0.248 NA
ATOM     39  C   UNL A   1      38.505  29.654  27.850  1.00  0.00     0.031 C 
ATOM     40  C   UNL A   1      37.162  32.291  31.909  1.00  0.00     0.029 A 
ATOM     41  N   UNL A   1      39.059  31.115  32.037  1.00  0.00    -0.354 N 
ATOM     42  C   UNL A   1      40.378  28.663  28.719  1.00  0.00     0.074 A 
ATOM     43  C   UNL A   1      39.443  28.748  27.617  1.00  0.00     0.031 C 
ATOM     44  C   UNL A   1      37.676  32.489  33.134  1.00  0.00     0.029 A 
ATOM     45  C   UNL A   1      38.905  31.712  33.267  1.00  0.00     0.049 A 
ATOM     46  H   UNL A   1      39.821  30.533  31.813  1.00  0.00     0.167 HD
ATOM     47  C   UNL A   1      41.513  27.919  28.710  1.00  0.00     0.034 A 
ATOM     48  C   UNL A   1      39.663  31.636  34.378  1.00  0.00     0.034 A 
ATOM     49  C   UNL A   1      42.438  27.855  29.816  1.00  0.00     0.049 A 
ATOM     50  C   UNL A   1      40.910  30.790  34.353  1.00  0.00     0.074 A 
ATOM     51  C   UNL A   1      43.648  27.185  29.893  1.00  0.00     0.029 A 
ATOM     52  N   UNL A   1      42.252  28.477  31.045  1.00  0.00    -0.354 N 
ATOM     53  N   UNL A   1      41.389  30.053  33.378  1.00  0.00    -0.248 NA
ATOM     54  C   UNL A   1      41.720  30.772  35.577  1.00  0.00     0.031 C 
ATOM     55  C   UNL A   1      44.158  27.349  31.186  1.00  0.00     0.029 A 
ATOM     56  C   UNL A   1      43.307  28.180  31.896  1.00  0.00     0.049 A 
ATOM     57  H   UNL A   1      41.483  29.045  31.278  1.00  0.00     0.167 HD
ATOM     58  C   UNL A   1      42.575  29.508  33.862  1.00  0.00     0.074 A 
ATOM     59  C   UNL A   1      42.741  30.011  35.212  1.00  0.00     0.031 C 
ATOM     60  C   UNL A   1      43.451  28.673  33.246  1.00  0.00     0.034 A 
BRANCH  47  61
ATOM     61  C   UNL A   1      41.789  27.099  27.470  1.00  0.00     0.023 A 
ATOM     62  C   UNL A   1      41.535  25.716  27.431  1.00  0.00     0.031 A 
ATOM     63  C   UNL A   1      42.359  27.694  26.331  1.00  0.00     0.131 A 
ATOM     64  C   UNL A   1      41.938  24.960  26.319  1.00  0.00     0.055 A 
ATOM     65  C   UNL A   1      42.675  26.951  25.192  1.00  0.00     0.041 A 
ATOM     66  F   UNL A   1      42.641  29.007  26.314  1.00  0.00    -0.206 F 
ATOM     67  C   UNL A   1      42.484  25.572  25.189  1.00  0.00     0.022 A 
BRANCH  64  68
ATOM     68  S   UNL A   1      41.897  23.151  26.444  1.00  0.00     0.124 S 
ATOM     69  O   UNL A   1      40.467  22.900  26.602  1.00  0.00    -0.237 OA
ATOM     70  O   UNL A   1      42.483  22.734  25.176  1.00  0.00    -0.237 OA
ATOM     71  O   UNL A   1      42.706  22.871  27.628  1.00  0.00    -0.744 OA
ENDBRANCH  64  68
ENDBRANCH  47  61
BRANCH  48  72
ATOM     72  C   UNL A   1      39.270  32.377  35.608  1.00  0.00     0.023 A 
ATOM     73  C   UNL A   1      39.715  33.688  35.834  1.00  0.00     0.031 A 
ATOM     74  C   UNL A   1      38.459  31.776  36.588  1.00  0.00     0.131 A 
ATOM     75  C   UNL A   1      39.381  34.344  37.029  1.00  0.00     0.055 A 
ATOM     76  C   UNL A   1      38.092  32.449  37.754  1.00  0.00     0.041 A 
ATOM     77  F   UNL A   1      37.999  30.527  36.416  1.00  0.00    -0.206 F 
ATOM     78  C   UNL A   1      38.563  33.739  37.985  1.00  0.00     0.022 A 
BRANCH  75  79
ATOM     79  S   UNL A   1      40.084  35.987  37.344  1.00  0.00     0.124 S 
ATOM     80  O   UNL A   1      39.736  36.698  36.119  1.00  0.00    -0.237 OA
ATOM     81  O   UNL A   1      39.370  36.396  38.548  1.00  0.00    -0.237 OA
ATOM     82  O   UNL A   1      41.508  35.717  37.528  1.00  0.00    -0.744 OA
ENDBRANCH  75  79
ENDBRANCH  48  72
BRANCH  60  83
ATOM     83  C   UNL A   1      44.687  28.288  34.021  1.00  0.00     0.023 A 
ATOM     84  C   UNL A   1      44.712  27.164  34.864  1.00  0.00     0.031 A 
ATOM     85  C   UNL A   1      45.852  29.070  33.923  1.00  0.00     0.131 A 
ATOM     86  C   UNL A   1      45.862  26.883  35.619  1.00  0.00     0.055 A 
ATOM     87  C   UNL A   1      47.011  28.752  34.631  1.00  0.00     0.041 A 
ATOM     88  F   UNL A   1      45.883  30.156  33.134  1.00  0.00    -0.206 F 
ATOM     89  C   UNL A   1      47.017  27.660  35.495  1.00  0.00     0.022 A 
BRANCH  86  90
ATOM     90  S   UNL A   1      45.801  25.536  36.833  1.00  0.00     0.124 S 
ATOM     91  O   UNL A   1      47.107  25.645  37.473  1.00  0.00    -0.237 OA
ATOM     92  O   UNL A   1      44.655  25.910  37.656  1.00  0.00    -0.237 OA
ATOM     93  O   UNL A   1      45.609  24.342  36.011  1.00  0.00    -0.744 OA
ENDBRANCH  86  90
ENDBRANCH  60  83
ENDBRANCH  34  35
ENDBRANCH  26  29
ENDBRANCH  24  25
ENDBRANCH  23  24
ENDBRANCH   1  23
TORSDOF 18
ENDMDL
MODEL 3
REMARK VINA RESULT:     -11.2      5.314     10.273
REMARK SMILES Nc1nc(N)nc(N/C=C/C(=O)NCCCCNC(=O)c2ccc(-c3c4nc(c(-c5cc(S(=O)(=O)[O-])ccc5F)c5ccc([nH]5)c(-c5cc(S(=O)(=O)[O-])ccc5F)c5nc(c(-c6cc(S(=O)(=O)[O-])ccc6F)c6ccc3[nH]6)C=C5)C=C4)cc2)n1
REMARK SMILES IDX 15 1 14 2 13 3 11 4 12 5 10 7 9 8 8 9 7 11 2 12 3 13 84 14
REMARK SMILES IDX 4 15 6 16 1 17 5 20 16 23 17 24 18 25 19 26 20 28 21 29
REMARK SMILES IDX 22 30 83 31 23 32 82 33 24 34 25 35 26 36 76 37 27 38 81 39
REMARK SMILES IDX 75 40 77 41 28 42 80 43 74 44 73 45 29 47 61 48 41 49 60 50
REMARK SMILES IDX 42 51 45 52 59 53 78 54 43 55 44 56 58 58 79 59 46 60 30 61
REMARK SMILES IDX 31 62 39 63 32 64 38 65 40 66 37 67 33 68 34 69 35 70 36 71
REMARK SMILES IDX 62 72 63 73 71 74 64 75 70 76 72 77 69 78 65 79 66 80 67 81
REMARK SMILES IDX 68 82 47 83 48 84 56 85 49 86 55 87 57 88 54 89 50 90 51 91
REMARK SMILES IDX 52 92 53 93
REMARK H PARENT 13 6 8 10 1 18 1 19 5 21 5 22 18 27 77 46 45 57
REMARK Flexibility Score: inf
ROOT
ATOM      1  C   UNL A   1      36.483  22.760  23.579  1.00  0.00     0.023 C 
ENDROOT
BRANCH   1   2
ATOM      2  C   UNL A   1      35.539  23.731  24.292  1.00  0.00     0.116 C 
BRANCH   2   3
ATOM      3  N   UNL A   1      34.234  23.753  23.652  1.00  0.00    -0.353 N 
ATOM      4  C   UNL A   1      33.119  22.999  23.854  1.00  0.00     0.245 C 
ATOM      5  O   UNL A   1      32.089  23.269  23.238  1.00  0.00    -0.270 OA
ATOM      6  H   UNL A   1      34.138  24.435  22.948  1.00  0.00     0.163 HD
BRANCH   4   7
ATOM      7  C   UNL A   1      33.075  21.910  24.860  1.00  0.00     0.089 C 
ATOM      8  C   UNL A   1      32.552  20.695  24.668  1.00  0.00     0.091 C 
BRANCH   8   9
ATOM      9  N   UNL A   1      32.509  19.645  25.542  1.00  0.00    -0.330 N 
ATOM     10  H   UNL A   1      32.239  19.840  26.470  1.00  0.00     0.169 HD
BRANCH   9  11
ATOM     11  C   UNL A   1      32.815  18.318  25.232  1.00  0.00     0.233 A 
ATOM     12  C   UNL A   1      33.726  16.845  23.819  1.00  0.00     0.226 A 
ATOM     13  N   UNL A   1      33.298  15.808  24.518  1.00  0.00    -0.177 NA
ATOM     14  N   UNL A   1      33.500  18.115  24.114  1.00  0.00    -0.177 NA
ATOM     15  C   UNL A   1      32.612  16.113  25.604  1.00  0.00     0.226 A 
ATOM     16  N   UNL A   1      32.361  17.342  26.015  1.00  0.00    -0.177 NA
BRANCH  12  17
ATOM     17  N   UNL A   1      34.465  16.580  22.700  1.00  0.00    -0.368 N 
ATOM     18  H   UNL A   1      34.118  16.822  21.812  1.00  0.00     0.159 HD
ATOM     19  H   UNL A   1      35.345  16.146  22.783  1.00  0.00     0.159 HD
ENDBRANCH  12  17
BRANCH  15  20
ATOM     20  N   UNL A   1      32.105  15.085  26.346  1.00  0.00    -0.368 N 
ATOM     21  H   UNL A   1      32.083  15.152  27.328  1.00  0.00     0.159 HD
ATOM     22  H   UNL A   1      31.761  14.278  25.899  1.00  0.00     0.159 HD
ENDBRANCH  15  20
ENDBRANCH   9  11
ENDBRANCH   8   9
ENDBRANCH   4   7
ENDBRANCH   2   3
ENDBRANCH   1   2
BRANCH   1  23
ATOM     23  C   UNL A   1      36.584  21.380  24.239  1.00  0.00     0.023 C 
BRANCH  23  24
ATOM     24  C   UNL A   1      37.212  21.372  25.631  1.00  0.00     0.116 C 
BRANCH  24  25
ATOM     25  N   UNL A   1      38.249  20.364  25.787  1.00  0.00    -0.352 N 
ATOM     26  C   UNL A   1      39.552  20.528  26.199  1.00  0.00     0.251 C 
ATOM     27  H   UNL A   1      37.984  19.442  25.567  1.00  0.00     0.163 HD
ATOM     28  O   UNL A   1      40.325  19.580  26.165  1.00  0.00    -0.269 OA
BRANCH  26  29
ATOM     29  C   UNL A   1      40.012  21.865  26.634  1.00  0.00     0.039 A 
ATOM     30  C   UNL A   1      40.920  21.952  27.692  1.00  0.00     0.014 A 
ATOM     31  C   UNL A   1      39.576  23.021  25.981  1.00  0.00     0.014 A 
ATOM     32  C   UNL A   1      41.448  23.195  28.049  1.00  0.00     0.010 A 
ATOM     33  C   UNL A   1      40.152  24.249  26.295  1.00  0.00     0.010 A 
ATOM     34  C   UNL A   1      41.097  24.349  27.327  1.00  0.00    -0.014 A 
BRANCH  34  35
ATOM     35  C   UNL A   1      41.713  25.666  27.632  1.00  0.00     0.031 A 
ATOM     36  C   UNL A   1      40.940  26.700  28.403  1.00  0.00     0.074 A 
ATOM     37  C   UNL A   1      42.937  25.956  27.149  1.00  0.00     0.049 A 
ATOM     38  N   UNL A   1      41.268  27.931  28.697  1.00  0.00    -0.248 NA
ATOM     39  C   UNL A   1      39.606  26.302  28.874  1.00  0.00     0.031 C 
ATOM     40  C   UNL A   1      43.766  25.052  26.348  1.00  0.00     0.029 A 
ATOM     41  N   UNL A   1      43.694  27.096  27.250  1.00  0.00    -0.354 N 
ATOM     42  C   UNL A   1      40.176  28.463  29.375  1.00  0.00     0.074 A 
ATOM     43  C   UNL A   1      39.155  27.435  29.389  1.00  0.00     0.031 C 
ATOM     44  C   UNL A   1      44.923  25.663  26.051  1.00  0.00     0.029 A 
ATOM     45  C   UNL A   1      44.904  27.015  26.600  1.00  0.00     0.049 A 
ATOM     46  H   UNL A   1      43.399  27.897  27.741  1.00  0.00     0.167 HD
ATOM     47  C   UNL A   1      40.047  29.683  29.953  1.00  0.00     0.034 A 
ATOM     48  C   UNL A   1      45.883  27.930  26.456  1.00  0.00     0.034 A 
ATOM     49  C   UNL A   1      41.080  30.691  29.937  1.00  0.00     0.049 A 
ATOM     50  C   UNL A   1      45.712  29.287  27.090  1.00  0.00     0.074 A 
ATOM     51  C   UNL A   1      41.082  31.937  30.542  1.00  0.00     0.029 A 
ATOM     52  N   UNL A   1      42.295  30.573  29.273  1.00  0.00    -0.354 N 
ATOM     53  N   UNL A   1      44.696  29.756  27.776  1.00  0.00    -0.248 NA
ATOM     54  C   UNL A   1      46.824  30.232  26.935  1.00  0.00     0.031 C 
ATOM     55  C   UNL A   1      42.267  32.594  30.190  1.00  0.00     0.029 A 
ATOM     56  C   UNL A   1      43.039  31.734  29.426  1.00  0.00     0.049 A 
ATOM     57  H   UNL A   1      42.586  29.781  28.766  1.00  0.00     0.167 HD
ATOM     58  C   UNL A   1      45.061  31.043  28.161  1.00  0.00     0.074 A 
ATOM     59  C   UNL A   1      46.394  31.270  27.639  1.00  0.00     0.031 C 
ATOM     60  C   UNL A   1      44.360  31.954  28.885  1.00  0.00     0.034 A 
BRANCH  47  61
ATOM     61  C   UNL A   1      38.727  29.993  30.622  1.00  0.00     0.023 A 
ATOM     62  C   UNL A   1      37.736  30.756  29.979  1.00  0.00     0.031 A 
ATOM     63  C   UNL A   1      38.474  29.564  31.937  1.00  0.00     0.131 A 
ATOM     64  C   UNL A   1      36.586  31.148  30.681  1.00  0.00     0.055 A 
ATOM     65  C   UNL A   1      37.286  29.881  32.599  1.00  0.00     0.041 A 
ATOM     66  F   UNL A   1      39.388  28.847  32.611  1.00  0.00    -0.206 F 
ATOM     67  C   UNL A   1      36.342  30.695  31.979  1.00  0.00     0.022 A 
BRANCH  64  68
ATOM     68  S   UNL A   1      35.501  32.395  29.934  1.00  0.00     0.124 S 
ATOM     69  O   UNL A   1      34.401  32.442  30.894  1.00  0.00    -0.237 OA
ATOM     70  O   UNL A   1      36.360  33.572  29.888  1.00  0.00    -0.237 OA
ATOM     71  O   UNL A   1      35.161  31.819  28.635  1.00  0.00    -0.744 OA
ENDBRANCH  64  68
ENDBRANCH  47  61
BRANCH  48  72
ATOM     72  C   UNL A   1      47.111  27.601  25.681  1.00  0.00     0.023 A 
ATOM     73  C   UNL A   1      47.188  27.867  24.304  1.00  0.00     0.031 A 
ATOM     74  C   UNL A   1      48.218  26.996  26.300  1.00  0.00     0.131 A 
ATOM     75  C   UNL A   1      48.331  27.492  23.583  1.00  0.00     0.055 A 
ATOM     76  C   UNL A   1      49.372  26.666  25.586  1.00  0.00     0.041 A 
ATOM     77  F   UNL A   1      48.199  26.729  27.616  1.00  0.00    -0.206 F 
ATOM     78  C   UNL A   1      49.429  26.905  24.216  1.00  0.00     0.022 A 
BRANCH  75  79
ATOM     79  S   UNL A   1      48.341  27.731  21.785  1.00  0.00     0.124 S 
ATOM     80  O   UNL A   1      49.469  28.639  21.612  1.00  0.00    -0.237 OA
ATOM     81  O   UNL A   1      48.534  26.368  21.300  1.00  0.00    -0.237 OA
ATOM     82  O   UNL A   1      47.026  28.307  21.511  1.00  0.00    -0.744 OA
ENDBRANCH  75  79
ENDBRANCH  48  72
BRANCH  60  83
ATOM     83  C   UNL A   1      45.049  33.262  29.185  1.00  0.00     0.023 A 
ATOM     84  C   UNL A   1      45.072  34.317  28.257  1.00  0.00     0.031 A 
ATOM     85  C   UNL A   1      45.706  33.447  30.415  1.00  0.00     0.131 A 
ATOM     86  C   UNL A   1      45.783  35.491  28.552  1.00  0.00     0.055 A 
ATOM     87  C   UNL A   1      46.361  34.638  30.726  1.00  0.00     0.041 A 
ATOM     88  F   UNL A   1      45.717  32.471  31.338  1.00  0.00    -0.206 F 
ATOM     89  C   UNL A   1      46.414  35.664  29.787  1.00  0.00     0.022 A 
BRANCH  86  90
ATOM     90  S   UNL A   1      45.947  36.758  27.264  1.00  0.00     0.124 S 
ATOM     91  O   UNL A   1      44.643  37.411  27.313  1.00  0.00    -0.237 OA
ATOM     92  O   UNL A   1      47.074  37.549  27.745  1.00  0.00    -0.237 OA
ATOM     93  O   UNL A   1      46.207  35.983  26.052  1.00  0.00    -0.744 OA
ENDBRANCH  86  90
ENDBRANCH  60  83
ENDBRANCH  34  35
ENDBRANCH  26  29
ENDBRANCH  24  25
ENDBRANCH  23  24
ENDBRANCH   1  23
TORSDOF 18
ENDMDL
