MODEL 1
REMARK VINA RESULT:     -11.4      0.000      0.000
REMARK SMILES O=C(NCCCCNC(=O)[C@H]1CCC(=O)N1Cc1ccco1)c1ccc(-c2c3nc(c(-c4cc(S(=O)(=O)[O-])ccc4F)c4ccc([nH]4)c(-c4cc(S(=O)(=O)[O-])ccc4F)c4nc(c(-c5cc(S(=O)(=O)[O-])ccc5F)c5ccc2[nH]5)C=C4)C=C3)cc1
REMARK SMILES IDX 5 1 4 2 3 3 1 4 2 5 23 7 24 8 85 9 25 10 84 11 26 12 27 13
REMARK SMILES IDX 28 14 78 15 29 16 83 17 77 18 79 19 30 20 82 21 76 22 75 23
REMARK SMILES IDX 31 25 63 26 43 27 62 28 44 29 47 30 61 31 80 32 45 33 46 34
REMARK SMILES IDX 60 36 81 37 48 38 32 39 33 40 41 41 34 42 40 43 42 44 39 45
REMARK SMILES IDX 35 46 36 47 37 48 38 49 64 50 65 51 73 52 66 53 72 54 74 55
REMARK SMILES IDX 71 56 67 57 68 58 69 59 70 60 49 61 50 62 58 63 51 64 57 65
REMARK SMILES IDX 59 66 56 67 52 68 53 69 54 70 55 71 6 72 7 73 8 74 9 75
REMARK SMILES IDX 10 77 11 78 12 79 16 80 13 81 14 82 15 83 17 84 18 85 19 86
REMARK SMILES IDX 22 87 20 88 21 89
REMARK H PARENT 3 6 79 24 47 35 8 76
REMARK Flexibility Score: inf
ROOT
ATOM      1  C   UNL A   1      31.549  31.827  26.712  1.00  0.00     0.023 C 
ENDROOT
BRANCH   1   2
ATOM      2  C   UNL A   1      32.806  32.635  26.995  1.00  0.00     0.116 C 
BRANCH   2   3
ATOM      3  N   UNL A   1      32.528  33.927  27.614  1.00  0.00    -0.352 N 
ATOM      4  O   UNL A   1      32.723  35.522  29.215  1.00  0.00    -0.269 OA
ATOM      5  C   UNL A   1      33.153  34.497  28.699  1.00  0.00     0.251 C 
ATOM      6  H   UNL A   1      31.805  34.455  27.204  1.00  0.00     0.163 HD
BRANCH   5   7
ATOM      7  C   UNL A   1      34.349  33.821  29.235  1.00  0.00     0.039 A 
ATOM      8  C   UNL A   1      34.181  32.750  30.115  1.00  0.00     0.014 A 
ATOM      9  C   UNL A   1      35.619  34.318  28.944  1.00  0.00     0.014 A 
ATOM     10  C   UNL A   1      35.270  32.284  30.831  1.00  0.00     0.010 A 
ATOM     11  C   UNL A   1      36.731  33.764  29.582  1.00  0.00     0.010 A 
ATOM     12  C   UNL A   1      36.562  32.759  30.549  1.00  0.00    -0.014 A 
BRANCH  12  13
ATOM     13  C   UNL A   1      37.719  32.102  31.206  1.00  0.00     0.031 A 
ATOM     14  C   UNL A   1      38.482  30.994  30.537  1.00  0.00     0.074 A 
ATOM     15  C   UNL A   1      38.084  32.554  32.422  1.00  0.00     0.049 A 
ATOM     16  N   UNL A   1      39.503  30.313  30.992  1.00  0.00    -0.248 NA
ATOM     17  C   UNL A   1      38.045  30.589  29.192  1.00  0.00     0.031 C 
ATOM     18  C   UNL A   1      37.406  33.629  33.156  1.00  0.00     0.029 A 
ATOM     19  N   UNL A   1      39.113  32.192  33.251  1.00  0.00    -0.354 N 
ATOM     20  C   UNL A   1      39.819  29.387  30.004  1.00  0.00     0.074 A 
ATOM     21  C   UNL A   1      38.867  29.581  28.931  1.00  0.00     0.031 C 
ATOM     22  C   UNL A   1      38.066  33.874  34.294  1.00  0.00     0.029 A 
ATOM     23  C   UNL A   1      39.150  32.910  34.424  1.00  0.00     0.049 A 
ATOM     24  H   UNL A   1      39.763  31.487  33.027  1.00  0.00     0.167 HD
ATOM     25  C   UNL A   1      40.812  28.463  30.005  1.00  0.00     0.034 A 
ATOM     26  C   UNL A   1      39.938  32.780  35.507  1.00  0.00     0.034 A 
ATOM     27  C   UNL A   1      41.752  28.297  31.090  1.00  0.00     0.049 A 
ATOM     28  C   UNL A   1      40.994  31.710  35.494  1.00  0.00     0.074 A 
ATOM     29  C   UNL A   1      42.822  27.421  31.175  1.00  0.00     0.029 A 
ATOM     30  N   UNL A   1      41.731  29.007  32.284  1.00  0.00    -0.354 N 
ATOM     31  N   UNL A   1      41.293  30.859  34.540  1.00  0.00    -0.248 NA
ATOM     32  C   UNL A   1      41.818  31.584  36.701  1.00  0.00     0.031 C 
ATOM     33  C   UNL A   1      43.394  27.544  32.445  1.00  0.00     0.029 A 
ATOM     34  C   UNL A   1      42.740  28.559  33.125  1.00  0.00     0.049 A 
ATOM     35  H   UNL A   1      41.092  29.723  32.503  1.00  0.00     0.167 HD
ATOM     36  C   UNL A   1      42.359  30.111  35.027  1.00  0.00     0.074 A 
ATOM     37  C   UNL A   1      42.666  30.633  36.342  1.00  0.00     0.031 C 
ATOM     38  C   UNL A   1      43.023  29.082  34.441  1.00  0.00     0.034 A 
BRANCH  25  39
ATOM     39  C   UNL A   1      40.913  27.524  28.827  1.00  0.00     0.023 A 
ATOM     40  C   UNL A   1      41.876  27.690  27.817  1.00  0.00     0.031 A 
ATOM     41  C   UNL A   1      40.048  26.417  28.734  1.00  0.00     0.131 A 
ATOM     42  C   UNL A   1      41.926  26.789  26.741  1.00  0.00     0.055 A 
ATOM     43  C   UNL A   1      40.145  25.487  27.698  1.00  0.00     0.041 A 
ATOM     44  F   UNL A   1      39.093  26.219  29.657  1.00  0.00    -0.206 F 
ATOM     45  C   UNL A   1      41.084  25.674  26.689  1.00  0.00     0.022 A 
BRANCH  42  46
ATOM     46  S   UNL A   1      43.039  27.146  25.355  1.00  0.00     0.124 S 
ATOM     47  O   UNL A   1      42.327  28.224  24.672  1.00  0.00    -0.237 OA
ATOM     48  O   UNL A   1      44.274  27.526  26.031  1.00  0.00    -0.237 OA
ATOM     49  O   UNL A   1      43.093  25.883  24.622  1.00  0.00    -0.744 OA
ENDBRANCH  42  46
ENDBRANCH  25  39
BRANCH  26  50
ATOM     50  C   UNL A   1      39.720  33.638  36.706  1.00  0.00     0.023 A 
ATOM     51  C   UNL A   1      39.173  33.108  37.884  1.00  0.00     0.031 A 
ATOM     52  C   UNL A   1      40.004  35.017  36.673  1.00  0.00     0.131 A 
ATOM     53  C   UNL A   1      38.869  33.961  38.956  1.00  0.00     0.055 A 
ATOM     54  C   UNL A   1      39.768  35.846  37.769  1.00  0.00     0.041 A 
ATOM     55  F   UNL A   1      40.528  35.578  35.572  1.00  0.00    -0.206 F 
ATOM     56  C   UNL A   1      39.178  35.322  38.913  1.00  0.00     0.022 A 
BRANCH  53  57
ATOM     57  S   UNL A   1      37.941  33.282  40.357  1.00  0.00     0.124 S 
ATOM     58  O   UNL A   1      38.702  32.075  40.659  1.00  0.00    -0.237 OA
ATOM     59  O   UNL A   1      38.034  34.362  41.333  1.00  0.00    -0.237 OA
ATOM     60  O   UNL A   1      36.607  33.057  39.802  1.00  0.00    -0.744 OA
ENDBRANCH  53  57
ENDBRANCH  26  50
BRANCH  38  61
ATOM     61  C   UNL A   1      44.174  28.492  35.217  1.00  0.00     0.023 A 
ATOM     62  C   UNL A   1      43.975  27.494  36.188  1.00  0.00     0.031 A 
ATOM     63  C   UNL A   1      45.483  28.957  35.005  1.00  0.00     0.131 A 
ATOM     64  C   UNL A   1      45.057  27.044  36.958  1.00  0.00     0.055 A 
ATOM     65  C   UNL A   1      46.568  28.454  35.726  1.00  0.00     0.041 A 
ATOM     66  F   UNL A   1      45.731  29.912  34.095  1.00  0.00    -0.206 F 
ATOM     67  C   UNL A   1      46.356  27.503  36.720  1.00  0.00     0.022 A 
BRANCH  64  68
ATOM     68  S   UNL A   1      44.729  25.930  38.351  1.00  0.00     0.124 S 
ATOM     69  O   UNL A   1      46.007  25.941  39.055  1.00  0.00    -0.237 OA
ATOM     70  O   UNL A   1      43.622  26.596  39.029  1.00  0.00    -0.237 OA
ATOM     71  O   UNL A   1      44.388  24.664  37.704  1.00  0.00    -0.744 OA
ENDBRANCH  64  68
ENDBRANCH  38  61
ENDBRANCH  12  13
ENDBRANCH   5   7
ENDBRANCH   2   3
ENDBRANCH   1   2
BRANCH   1  72
ATOM     72  C   UNL A   1      31.781  30.326  26.618  1.00  0.00     0.023 C 
BRANCH  72  73
ATOM     73  C   UNL A   1      31.450  29.742  25.253  1.00  0.00     0.116 C 
BRANCH  73  74
ATOM     74  N   UNL A   1      32.605  29.710  24.381  1.00  0.00    -0.354 N 
ATOM     75  C   UNL A   1      33.116  28.701  23.627  1.00  0.00     0.242 C 
ATOM     76  H   UNL A   1      33.102  30.558  24.324  1.00  0.00     0.163 HD
ATOM     77  O   UNL A   1      34.130  28.951  22.963  1.00  0.00    -0.273 OA
BRANCH  75  78
ATOM     78  C   UNL A   1      32.614  27.243  23.707  1.00  0.00     0.175 C 
ATOM     79  C   UNL A   1      31.921  26.857  22.400  1.00  0.00     0.045 C 
ATOM     80  N   UNL A   1      33.557  26.164  23.933  1.00  0.00    -0.323 N 
ATOM     81  C   UNL A   1      32.912  25.950  21.686  1.00  0.00     0.103 C 
ATOM     82  C   UNL A   1      33.696  25.343  22.823  1.00  0.00     0.223 C 
ATOM     83  O   UNL A   1      34.377  24.333  22.743  1.00  0.00    -0.275 OA
BRANCH  80  84
ATOM     84  C   UNL A   1      34.136  25.850  25.235  1.00  0.00     0.195 C 
BRANCH  84  85
ATOM     85  C   UNL A   1      33.410  24.763  25.945  1.00  0.00     0.123 A 
ATOM     86  C   UNL A   1      33.782  23.529  26.443  1.00  0.00     0.047 A 
ATOM     87  O   UNL A   1      32.084  24.977  26.201  1.00  0.00    -0.467 OA
ATOM     88  C   UNL A   1      32.613  22.940  26.985  1.00  0.00     0.042 A 
ATOM     89  C   UNL A   1      31.612  23.869  26.830  1.00  0.00     0.195 A 
ENDBRANCH  84  85
ENDBRANCH  80  84
ENDBRANCH  75  78
ENDBRANCH  73  74
ENDBRANCH  72  73
ENDBRANCH   1  72
TORSDOF 16
ENDMDL
MODEL 2
REMARK VINA RESULT:     -11.2      1.024      2.198
REMARK SMILES O=C(NCCCCNC(=O)[C@H]1CCC(=O)N1Cc1ccco1)c1ccc(-c2c3nc(c(-c4cc(S(=O)(=O)[O-])ccc4F)c4ccc([nH]4)c(-c4cc(S(=O)(=O)[O-])ccc4F)c4nc(c(-c5cc(S(=O)(=O)[O-])ccc5F)c5ccc2[nH]5)C=C4)C=C3)cc1
REMARK SMILES IDX 5 1 4 2 3 3 1 4 2 5 23 7 24 8 85 9 25 10 84 11 26 12 27 13
REMARK SMILES IDX 28 14 78 15 29 16 83 17 77 18 79 19 30 20 82 21 76 22 75 23
REMARK SMILES IDX 31 25 63 26 43 27 62 28 44 29 47 30 61 31 80 32 45 33 46 34
REMARK SMILES IDX 60 36 81 37 48 38 32 39 33 40 41 41 34 42 40 43 42 44 39 45
REMARK SMILES IDX 35 46 36 47 37 48 38 49 64 50 65 51 73 52 66 53 72 54 74 55
REMARK SMILES IDX 71 56 67 57 68 58 69 59 70 60 49 61 50 62 58 63 51 64 57 65
REMARK SMILES IDX 59 66 56 67 52 68 53 69 54 70 55 71 6 72 7 73 8 74 9 75
REMARK SMILES IDX 10 77 11 78 12 79 16 80 13 81 14 82 15 83 17 84 18 85 19 86
REMARK SMILES IDX 22 87 20 88 21 89
REMARK H PARENT 3 6 79 24 47 35 8 76
REMARK Flexibility Score: inf
ROOT
ATOM      1  C   UNL A   1      31.827  31.474  27.136  1.00  0.00     0.023 C 
ENDROOT
BRANCH   1   2
ATOM      2  C   UNL A   1      33.066  32.348  27.249  1.00  0.00     0.116 C 
BRANCH   2   3
ATOM      3  N   UNL A   1      32.760  33.731  27.598  1.00  0.00    -0.352 N 
ATOM      4  O   UNL A   1      32.836  35.585  28.903  1.00  0.00    -0.269 OA
ATOM      5  C   UNL A   1      33.289  34.482  28.623  1.00  0.00     0.251 C 
ATOM      6  H   UNL A   1      32.094  34.183  27.031  1.00  0.00     0.163 HD
BRANCH   5   7
ATOM      7  C   UNL A   1      34.409  33.905  29.389  1.00  0.00     0.039 A 
ATOM      8  C   UNL A   1      35.715  34.260  29.045  1.00  0.00     0.014 A 
ATOM      9  C   UNL A   1      34.161  32.944  30.369  1.00  0.00     0.014 A 
ATOM     10  C   UNL A   1      36.774  33.534  29.563  1.00  0.00     0.010 A 
ATOM     11  C   UNL A   1      35.240  32.296  30.977  1.00  0.00     0.010 A 
ATOM     12  C   UNL A   1      36.553  32.569  30.560  1.00  0.00    -0.014 A 
BRANCH  12  13
ATOM     13  C   UNL A   1      37.728  31.948  31.219  1.00  0.00     0.031 A 
ATOM     14  C   UNL A   1      38.546  30.887  30.539  1.00  0.00     0.074 A 
ATOM     15  C   UNL A   1      38.057  32.388  32.450  1.00  0.00     0.049 A 
ATOM     16  N   UNL A   1      39.589  30.240  30.994  1.00  0.00    -0.248 NA
ATOM     17  C   UNL A   1      38.145  30.493  29.180  1.00  0.00     0.031 C 
ATOM     18  C   UNL A   1      37.324  33.418  33.197  1.00  0.00     0.029 A 
ATOM     19  N   UNL A   1      39.089  32.053  33.286  1.00  0.00    -0.354 N 
ATOM     20  C   UNL A   1      39.957  29.349  29.993  1.00  0.00     0.074 A 
ATOM     21  C   UNL A   1      39.012  29.526  28.910  1.00  0.00     0.031 C 
ATOM     22  C   UNL A   1      37.958  33.665  34.349  1.00  0.00     0.029 A 
ATOM     23  C   UNL A   1      39.079  32.745  34.475  1.00  0.00     0.049 A 
ATOM     24  H   UNL A   1      39.771  31.380  33.057  1.00  0.00     0.167 HD
ATOM     25  C   UNL A   1      40.989  28.468  29.988  1.00  0.00     0.034 A 
ATOM     26  C   UNL A   1      39.857  32.626  35.566  1.00  0.00     0.034 A 
ATOM     27  C   UNL A   1      41.920  28.318  31.083  1.00  0.00     0.049 A 
ATOM     28  C   UNL A   1      40.958  31.602  35.546  1.00  0.00     0.074 A 
ATOM     29  C   UNL A   1      43.025  27.487  31.165  1.00  0.00     0.029 A 
ATOM     30  N   UNL A   1      41.852  29.001  32.291  1.00  0.00    -0.354 N 
ATOM     31  N   UNL A   1      41.306  30.785  34.579  1.00  0.00    -0.248 NA
ATOM     32  C   UNL A   1      41.769  31.484  36.762  1.00  0.00     0.031 C 
ATOM     33  C   UNL A   1      43.573  27.606  32.446  1.00  0.00     0.029 A 
ATOM     34  C   UNL A   1      42.867  28.578  33.137  1.00  0.00     0.049 A 
ATOM     35  H   UNL A   1      41.180  29.685  32.516  1.00  0.00     0.167 HD
ATOM     36  C   UNL A   1      42.396  30.071  35.065  1.00  0.00     0.074 A 
ATOM     37  C   UNL A   1      42.662  30.577  36.396  1.00  0.00     0.031 C 
ATOM     38  C   UNL A   1      43.110  29.084  34.468  1.00  0.00     0.034 A 
BRANCH  25  39
ATOM     39  C   UNL A   1      41.145  27.560  28.792  1.00  0.00     0.023 A 
ATOM     40  C   UNL A   1      42.141  27.764  27.822  1.00  0.00     0.031 A 
ATOM     41  C   UNL A   1      40.300  26.443  28.642  1.00  0.00     0.131 A 
ATOM     42  C   UNL A   1      42.242  26.890  26.727  1.00  0.00     0.055 A 
ATOM     43  C   UNL A   1      40.449  25.540  27.588  1.00  0.00     0.041 A 
ATOM     44  F   UNL A   1      39.317  26.210  29.526  1.00  0.00    -0.206 F 
ATOM     45  C   UNL A   1      41.420  25.765  26.618  1.00  0.00     0.022 A 
BRANCH  42  46
ATOM     46  S   UNL A   1      43.398  27.297  25.391  1.00  0.00     0.124 S 
ATOM     47  O   UNL A   1      44.265  28.280  26.037  1.00  0.00    -0.237 OA
ATOM     48  O   UNL A   1      44.008  26.005  25.096  1.00  0.00    -0.237 OA
ATOM     49  O   UNL A   1      42.535  27.834  24.340  1.00  0.00    -0.744 OA
ENDBRANCH  42  46
ENDBRANCH  25  39
BRANCH  26  50
ATOM     50  C   UNL A   1      39.587  33.448  36.779  1.00  0.00     0.023 A 
ATOM     51  C   UNL A   1      38.953  32.894  37.901  1.00  0.00     0.031 A 
ATOM     52  C   UNL A   1      39.909  34.818  36.814  1.00  0.00     0.131 A 
ATOM     53  C   UNL A   1      38.603  33.718  38.982  1.00  0.00     0.055 A 
ATOM     54  C   UNL A   1      39.627  35.615  37.923  1.00  0.00     0.041 A 
ATOM     55  F   UNL A   1      40.517  35.402  35.769  1.00  0.00    -0.206 F 
ATOM     56  C   UNL A   1      38.951  35.069  39.008  1.00  0.00     0.022 A 
BRANCH  53  57
ATOM     57  S   UNL A   1      37.571  33.018  40.297  1.00  0.00     0.124 S 
ATOM     58  O   UNL A   1      38.322  31.822  40.658  1.00  0.00    -0.237 OA
ATOM     59  O   UNL A   1      37.564  34.095  41.281  1.00  0.00    -0.237 OA
ATOM     60  O   UNL A   1      36.292  32.776  39.630  1.00  0.00    -0.744 OA
ENDBRANCH  53  57
ENDBRANCH  26  50
BRANCH  38  61
ATOM     61  C   UNL A   1      44.275  28.526  35.249  1.00  0.00     0.023 A 
ATOM     62  C   UNL A   1      44.106  27.494  36.189  1.00  0.00     0.031 A 
ATOM     63  C   UNL A   1      45.564  29.057  35.073  1.00  0.00     0.131 A 
ATOM     64  C   UNL A   1      45.195  27.073  36.965  1.00  0.00     0.055 A 
ATOM     65  C   UNL A   1      46.659  28.585  35.798  1.00  0.00     0.041 A 
ATOM     66  F   UNL A   1      45.782  30.047  34.193  1.00  0.00    -0.206 F 
ATOM     67  C   UNL A   1      46.475  27.598  36.763  1.00  0.00     0.022 A 
BRANCH  64  68
ATOM     68  S   UNL A   1      44.896  25.907  38.321  1.00  0.00     0.124 S 
ATOM     69  O   UNL A   1      46.173  25.929  39.027  1.00  0.00    -0.237 OA
ATOM     70  O   UNL A   1      43.772  26.521  39.019  1.00  0.00    -0.237 OA
ATOM     71  O   UNL A   1      44.588  24.654  37.634  1.00  0.00    -0.744 OA
ENDBRANCH  64  68
ENDBRANCH  38  61
ENDBRANCH  12  13
ENDBRANCH   5   7
ENDBRANCH   2   3
ENDBRANCH   1   2
BRANCH   1  72
ATOM     72  C   UNL A   1      31.466  31.085  25.710  1.00  0.00     0.023 C 
BRANCH  72  73
ATOM     73  C   UNL A   1      31.871  29.666  25.344  1.00  0.00     0.116 C 
BRANCH  73  74
ATOM     74  N   UNL A   1      32.964  29.639  24.394  1.00  0.00    -0.354 N 
ATOM     75  C   UNL A   1      33.485  28.611  23.674  1.00  0.00     0.242 C 
ATOM     76  H   UNL A   1      33.401  30.509  24.246  1.00  0.00     0.163 HD
ATOM     77  O   UNL A   1      34.433  28.873  22.923  1.00  0.00    -0.273 OA
BRANCH  75  78
ATOM     78  C   UNL A   1      33.082  27.136  23.886  1.00  0.00     0.175 C 
ATOM     79  C   UNL A   1      33.741  26.591  25.154  1.00  0.00     0.045 C 
ATOM     80  N   UNL A   1      31.684  26.783  24.041  1.00  0.00    -0.323 N 
ATOM     81  C   UNL A   1      32.619  26.525  26.178  1.00  0.00     0.103 C 
ATOM     82  C   UNL A   1      31.389  26.344  25.324  1.00  0.00     0.223 C 
ATOM     83  O   UNL A   1      30.312  25.934  25.725  1.00  0.00    -0.275 OA
BRANCH  80  84
ATOM     84  C   UNL A   1      30.738  26.698  22.932  1.00  0.00     0.195 C 
BRANCH  84  85
ATOM     85  C   UNL A   1      29.956  27.949  22.742  1.00  0.00     0.123 A 
ATOM     86  C   UNL A   1      28.692  28.356  23.126  1.00  0.00     0.047 A 
ATOM     87  O   UNL A   1      30.571  28.959  22.055  1.00  0.00    -0.467 OA
ATOM     88  C   UNL A   1      28.510  29.660  22.603  1.00  0.00     0.042 A 
ATOM     89  C   UNL A   1      29.688  29.988  21.977  1.00  0.00     0.195 A 
ENDBRANCH  84  85
ENDBRANCH  80  84
ENDBRANCH  75  78
ENDBRANCH  73  74
ENDBRANCH  72  73
ENDBRANCH   1  72
TORSDOF 16
ENDMDL
MODEL 3
REMARK VINA RESULT:     -11.2      1.715      2.546
REMARK SMILES O=C(NCCCCNC(=O)[C@H]1CCC(=O)N1Cc1ccco1)c1ccc(-c2c3nc(c(-c4cc(S(=O)(=O)[O-])ccc4F)c4ccc([nH]4)c(-c4cc(S(=O)(=O)[O-])ccc4F)c4nc(c(-c5cc(S(=O)(=O)[O-])ccc5F)c5ccc2[nH]5)C=C4)C=C3)cc1
REMARK SMILES IDX 5 1 4 2 3 3 1 4 2 5 23 7 24 8 85 9 25 10 84 11 26 12 27 13
REMARK SMILES IDX 28 14 78 15 29 16 83 17 77 18 79 19 30 20 82 21 76 22 75 23
REMARK SMILES IDX 31 25 63 26 43 27 62 28 44 29 47 30 61 31 80 32 45 33 46 34
REMARK SMILES IDX 60 36 81 37 48 38 32 39 33 40 41 41 34 42 40 43 42 44 39 45
REMARK SMILES IDX 35 46 36 47 37 48 38 49 64 50 65 51 73 52 66 53 72 54 74 55
REMARK SMILES IDX 71 56 67 57 68 58 69 59 70 60 49 61 50 62 58 63 51 64 57 65
REMARK SMILES IDX 59 66 56 67 52 68 53 69 54 70 55 71 6 72 7 73 8 74 9 75
REMARK SMILES IDX 10 77 11 78 12 79 16 80 13 81 14 82 15 83 17 84 18 85 19 86
REMARK SMILES IDX 22 87 20 88 21 89
REMARK H PARENT 3 6 79 24 47 35 8 76
REMARK Flexibility Score: inf
ROOT
ATOM      1  C   UNL A   1      31.406  32.170  26.739  1.00  0.00     0.023 C 
ENDROOT
BRANCH   1   2
ATOM      2  C   UNL A   1      32.706  32.768  27.254  1.00  0.00     0.116 C 
BRANCH   2   3
ATOM      3  N   UNL A   1      32.550  34.128  27.759  1.00  0.00    -0.352 N 
ATOM      4  O   UNL A   1      32.931  35.843  29.194  1.00  0.00    -0.269 OA
ATOM      5  C   UNL A   1      33.262  34.745  28.761  1.00  0.00     0.251 C 
ATOM      6  H   UNL A   1      31.850  34.670  27.329  1.00  0.00     0.163 HD
BRANCH   5   7
ATOM      7  C   UNL A   1      34.428  34.032  29.314  1.00  0.00     0.039 A 
ATOM      8  C   UNL A   1      34.228  33.103  30.337  1.00  0.00     0.014 A 
ATOM      9  C   UNL A   1      35.714  34.364  28.887  1.00  0.00     0.014 A 
ATOM     10  C   UNL A   1      35.320  32.631  31.046  1.00  0.00     0.010 A 
ATOM     11  C   UNL A   1      36.815  33.792  29.529  1.00  0.00     0.010 A 
ATOM     12  C   UNL A   1      36.625  32.939  30.630  1.00  0.00    -0.014 A 
BRANCH  12  13
ATOM     13  C   UNL A   1      37.763  32.264  31.301  1.00  0.00     0.031 A 
ATOM     14  C   UNL A   1      38.523  31.149  30.639  1.00  0.00     0.074 A 
ATOM     15  C   UNL A   1      38.115  32.704  32.526  1.00  0.00     0.049 A 
ATOM     16  N   UNL A   1      39.527  30.453  31.106  1.00  0.00    -0.248 NA
ATOM     17  C   UNL A   1      38.101  30.758  29.285  1.00  0.00     0.031 C 
ATOM     18  C   UNL A   1      37.438  33.785  33.255  1.00  0.00     0.029 A 
ATOM     19  N   UNL A   1      39.126  32.325  33.369  1.00  0.00    -0.354 N 
ATOM     20  C   UNL A   1      39.847  29.528  30.119  1.00  0.00     0.074 A 
ATOM     21  C   UNL A   1      38.914  29.740  29.032  1.00  0.00     0.031 C 
ATOM     22  C   UNL A   1      38.084  34.014  34.405  1.00  0.00     0.029 A 
ATOM     23  C   UNL A   1      39.153  33.036  34.546  1.00  0.00     0.049 A 
ATOM     24  H   UNL A   1      39.770  31.613  33.152  1.00  0.00     0.167 HD
ATOM     25  C   UNL A   1      40.828  28.591  30.130  1.00  0.00     0.034 A 
ATOM     26  C   UNL A   1      39.921  32.890  35.641  1.00  0.00     0.034 A 
ATOM     27  C   UNL A   1      41.748  28.407  31.229  1.00  0.00     0.049 A 
ATOM     28  C   UNL A   1      40.963  31.807  35.640  1.00  0.00     0.074 A 
ATOM     29  C   UNL A   1      42.805  27.517  31.326  1.00  0.00     0.029 A 
ATOM     30  N   UNL A   1      41.716  29.111  32.427  1.00  0.00    -0.354 N 
ATOM     31  N   UNL A   1      41.267  30.957  34.686  1.00  0.00    -0.248 NA
ATOM     32  C   UNL A   1      41.766  31.663  36.858  1.00  0.00     0.031 C 
ATOM     33  C   UNL A   1      43.357  27.625  32.606  1.00  0.00     0.029 A 
ATOM     34  C   UNL A   1      42.706  28.646  33.281  1.00  0.00     0.049 A 
ATOM     35  H   UNL A   1      41.084  29.834  32.639  1.00  0.00     0.167 HD
ATOM     36  C   UNL A   1      42.315  30.192  35.185  1.00  0.00     0.074 A 
ATOM     37  C   UNL A   1      42.607  30.703  36.508  1.00  0.00     0.031 C 
ATOM     38  C   UNL A   1      42.975  29.157  34.605  1.00  0.00     0.034 A 
BRANCH  25  39
ATOM     39  C   UNL A   1      40.935  27.657  28.949  1.00  0.00     0.023 A 
ATOM     40  C   UNL A   1      41.919  27.814  27.957  1.00  0.00     0.031 A 
ATOM     41  C   UNL A   1      40.055  26.564  28.834  1.00  0.00     0.131 A 
ATOM     42  C   UNL A   1      41.974  26.918  26.877  1.00  0.00     0.055 A 
ATOM     43  C   UNL A   1      40.157  25.638  27.794  1.00  0.00     0.041 A 
ATOM     44  F   UNL A   1      39.082  26.376  29.739  1.00  0.00    -0.206 F 
ATOM     45  C   UNL A   1      41.116  25.817  26.804  1.00  0.00     0.022 A 
BRANCH  42  46
ATOM     46  S   UNL A   1      43.117  27.266  25.513  1.00  0.00     0.124 S 
ATOM     47  O   UNL A   1      42.284  28.077  24.627  1.00  0.00    -0.237 OA
ATOM     48  O   UNL A   1      44.205  27.968  26.183  1.00  0.00    -0.237 OA
ATOM     49  O   UNL A   1      43.453  25.940  24.998  1.00  0.00    -0.744 OA
ENDBRANCH  42  46
ENDBRANCH  25  39
BRANCH  26  50
ATOM     50  C   UNL A   1      39.695  33.744  36.841  1.00  0.00     0.023 A 
ATOM     51  C   UNL A   1      40.518  34.849  37.107  1.00  0.00     0.031 A 
ATOM     52  C   UNL A   1      38.686  33.434  37.773  1.00  0.00     0.131 A 
ATOM     53  C   UNL A   1      40.359  35.564  38.304  1.00  0.00     0.055 A 
ATOM     54  C   UNL A   1      38.485  34.195  38.924  1.00  0.00     0.041 A 
ATOM     55  F   UNL A   1      37.869  32.388  37.570  1.00  0.00    -0.206 F 
ATOM     56  C   UNL A   1      39.338  35.256  39.205  1.00  0.00     0.022 A 
BRANCH  53  57
ATOM     57  S   UNL A   1      41.594  36.823  38.723  1.00  0.00     0.124 S 
ATOM     58  O   UNL A   1      40.757  37.894  39.251  1.00  0.00    -0.237 OA
ATOM     59  O   UNL A   1      42.425  36.120  39.693  1.00  0.00    -0.237 OA
ATOM     60  O   UNL A   1      42.236  37.106  37.440  1.00  0.00    -0.744 OA
ENDBRANCH  53  57
ENDBRANCH  26  50
BRANCH  38  61
ATOM     61  C   UNL A   1      44.105  28.548  35.396  1.00  0.00     0.023 A 
ATOM     62  C   UNL A   1      43.898  27.458  36.259  1.00  0.00     0.031 A 
ATOM     63  C   UNL A   1      45.401  29.087  35.309  1.00  0.00     0.131 A 
ATOM     64  C   UNL A   1      44.954  26.986  37.052  1.00  0.00     0.055 A 
ATOM     65  C   UNL A   1      46.464  28.566  36.049  1.00  0.00     0.041 A 
ATOM     66  F   UNL A   1      45.655  30.131  34.505  1.00  0.00    -0.206 F 
ATOM     67  C   UNL A   1      46.240  27.520  36.938  1.00  0.00     0.022 A 
BRANCH  64  68
ATOM     68  S   UNL A   1      44.598  25.735  38.317  1.00  0.00     0.124 S 
ATOM     69  O   UNL A   1      43.703  24.830  37.603  1.00  0.00    -0.237 OA
ATOM     70  O   UNL A   1      45.925  25.211  38.620  1.00  0.00    -0.237 OA
ATOM     71  O   UNL A   1      43.974  26.503  39.393  1.00  0.00    -0.744 OA
ENDBRANCH  64  68
ENDBRANCH  38  61
ENDBRANCH  12  13
ENDBRANCH   5   7
ENDBRANCH   2   3
ENDBRANCH   1   2
BRANCH   1  72
ATOM     72  C   UNL A   1      31.565  30.815  26.067  1.00  0.00     0.023 C 
BRANCH  72  73
ATOM     73  C   UNL A   1      32.290  29.790  26.925  1.00  0.00     0.116 C 
BRANCH  73  74
ATOM     74  N   UNL A   1      31.495  28.598  27.138  1.00  0.00    -0.354 N 
ATOM     75  C   UNL A   1      31.481  27.413  26.473  1.00  0.00     0.242 C 
ATOM     76  H   UNL A   1      30.858  28.657  27.887  1.00  0.00     0.163 HD
ATOM     77  O   UNL A   1      30.689  26.551  26.873  1.00  0.00    -0.273 OA
BRANCH  75  78
ATOM     78  C   UNL A   1      32.255  27.167  25.160  1.00  0.00     0.175 C 
ATOM     79  C   UNL A   1      33.730  26.905  25.463  1.00  0.00     0.045 C 
ATOM     80  N   UNL A   1      31.878  26.067  24.293  1.00  0.00    -0.323 N 
ATOM     81  C   UNL A   1      33.910  25.408  25.265  1.00  0.00     0.103 C 
ATOM     82  C   UNL A   1      32.841  25.069  24.256  1.00  0.00     0.223 C 
ATOM     83  O   UNL A   1      32.816  24.056  23.576  1.00  0.00    -0.275 OA
BRANCH  80  84
ATOM     84  C   UNL A   1      30.722  26.093  23.401  1.00  0.00     0.195 C 
BRANCH  84  85
ATOM     85  C   UNL A   1      30.292  27.474  23.051  1.00  0.00     0.123 A 
ATOM     86  C   UNL A   1      30.890  28.520  22.375  1.00  0.00     0.047 A 
ATOM     87  O   UNL A   1      29.037  27.844  23.447  1.00  0.00    -0.467 OA
ATOM     88  C   UNL A   1      29.972  29.599  22.404  1.00  0.00     0.042 A 
ATOM     89  C   UNL A   1      28.854  29.131  23.050  1.00  0.00     0.195 A 
ENDBRANCH  84  85
ENDBRANCH  80  84
ENDBRANCH  75  78
ENDBRANCH  73  74
ENDBRANCH  72  73
ENDBRANCH   1  72
TORSDOF 16
ENDMDL
