MODEL 1
REMARK VINA RESULT:      -9.6      0.000      0.000
REMARK SMILES CC[C@@H]1CCCN1C(=O)N(CC(=O)NCCCCNC(=O)c1ccc(-c2c3nc(c(-c4cc(S(=O)(=O)[O-])ccc4F)c4ccc([nH]4)c(-c4cc(S(=O)(=O)[O-])ccc4F)c4nc(c(-c5cc(S(=O)(=O)[O-])ccc5F)c5ccc2[nH]5)C=C4)C=C3)cc1)CC(F)(F)F
REMARK SMILES IDX 16 1 15 2 14 3 12 4 13 5 11 7 10 8 8 9 9 10 7 11 3 12 4 13
REMARK SMILES IDX 5 14 6 15 2 16 1 17 85 18 86 19 87 20 88 21 89 22 17 23
REMARK SMILES IDX 18 24 19 25 20 26 21 28 22 29 23 30 84 31 24 32 83 33 25 34
REMARK SMILES IDX 26 35 27 36 77 37 28 38 82 39 76 40 78 41 29 42 81 43 75 44
REMARK SMILES IDX 74 45 30 47 62 48 42 49 61 50 43 51 46 52 60 53 79 54 44 55
REMARK SMILES IDX 45 56 59 58 80 59 47 60 31 61 32 62 40 63 33 64 39 65 41 66
REMARK SMILES IDX 38 67 34 68 35 69 36 70 37 71 63 72 64 73 72 74 65 75 71 76
REMARK SMILES IDX 73 77 70 78 66 79 67 80 68 81 69 82 48 83 49 84 57 85 50 86
REMARK SMILES IDX 56 87 58 88 55 89 51 90 52 91 53 92 54 93
REMARK H PARENT 14 6 19 27 78 46 46 57
REMARK Flexibility Score: inf
ROOT
ATOM      1  C   UNL A   1      38.832  23.173  26.347  1.00  0.00     0.023 C 
ENDROOT
BRANCH   1   2
ATOM      2  C   UNL A   1      37.502  22.873  25.665  1.00  0.00     0.116 C 
BRANCH   2   3
ATOM      3  N   UNL A   1      36.352  23.101  26.520  1.00  0.00    -0.355 N 
ATOM      4  C   UNL A   1      35.061  22.692  26.444  1.00  0.00     0.239 C 
ATOM      5  O   UNL A   1      34.366  22.867  27.453  1.00  0.00    -0.273 OA
ATOM      6  H   UNL A   1      36.546  23.660  27.308  1.00  0.00     0.163 HD
BRANCH   4   7
ATOM      7  C   UNL A   1      34.459  21.910  25.270  1.00  0.00     0.221 C 
BRANCH   7   8
ATOM      8  N   UNL A   1      33.105  21.411  25.256  1.00  0.00    -0.306 N 
BRANCH   8   9
ATOM      9  C   UNL A   1      31.931  22.110  25.182  1.00  0.00     0.321 C 
ATOM     10  O   UNL A   1      30.953  21.574  25.730  1.00  0.00    -0.248 OA
BRANCH   9  11
ATOM     11  N   UNL A   1      31.785  23.389  24.674  1.00  0.00    -0.322 N 
ATOM     12  C   UNL A   1      32.051  24.818  25.059  1.00  0.00     0.086 C 
ATOM     13  C   UNL A   1      31.460  25.594  23.857  1.00  0.00     0.027 C 
ATOM     14  C   UNL A   1      31.880  24.768  22.673  1.00  0.00     0.024 C 
ATOM     15  C   UNL A   1      31.726  23.354  23.193  1.00  0.00     0.122 C 
BRANCH  12  16
ATOM     16  C   UNL A   1      31.640  25.599  26.324  1.00  0.00     0.022 C 
ATOM     17  C   UNL A   1      32.003  27.073  26.391  1.00  0.00     0.006 C 
ENDBRANCH  12  16
ENDBRANCH   9  11
ENDBRANCH   8   9
BRANCH   8  18
ATOM     18  C   UNL A   1      32.993  19.938  25.491  1.00  0.00     0.237 C 
BRANCH  18  19
ATOM     19  C   UNL A   1      32.904  19.036  24.252  1.00  0.00     0.406 C 
ATOM     20  F   UNL A   1      32.004  18.041  24.376  1.00  0.00    -0.169 F 
ATOM     21  F   UNL A   1      32.554  19.766  23.165  1.00  0.00    -0.169 F 
ATOM     22  F   UNL A   1      34.106  18.481  23.972  1.00  0.00    -0.169 F 
ENDBRANCH  18  19
ENDBRANCH   8  18
ENDBRANCH   7   8
ENDBRANCH   4   7
ENDBRANCH   2   3
ENDBRANCH   1   2
BRANCH   1  23
ATOM     23  C   UNL A   1      39.849  22.039  26.298  1.00  0.00     0.023 C 
BRANCH  23  24
ATOM     24  C   UNL A   1      41.275  22.448  26.642  1.00  0.00     0.116 C 
BRANCH  24  25
ATOM     25  N   UNL A   1      42.203  22.211  25.546  1.00  0.00    -0.352 N 
ATOM     26  C   UNL A   1      43.105  23.072  24.967  1.00  0.00     0.251 C 
ATOM     27  H   UNL A   1      42.183  21.302  25.165  1.00  0.00     0.163 HD
ATOM     28  O   UNL A   1      43.667  22.764  23.925  1.00  0.00    -0.269 OA
BRANCH  26  29
ATOM     29  C   UNL A   1      43.359  24.383  25.602  1.00  0.00     0.039 A 
ATOM     30  C   UNL A   1      42.967  25.549  24.943  1.00  0.00     0.014 A 
ATOM     31  C   UNL A   1      43.945  24.451  26.869  1.00  0.00     0.014 A 
ATOM     32  C   UNL A   1      43.092  26.779  25.592  1.00  0.00     0.010 A 
ATOM     33  C   UNL A   1      43.974  25.662  27.550  1.00  0.00     0.010 A 
ATOM     34  C   UNL A   1      43.553  26.842  26.918  1.00  0.00    -0.014 A 
BRANCH  34  35
ATOM     35  C   UNL A   1      43.614  28.131  27.656  1.00  0.00     0.031 A 
ATOM     36  C   UNL A   1      42.358  28.718  28.245  1.00  0.00     0.074 A 
ATOM     37  C   UNL A   1      44.782  28.798  27.744  1.00  0.00     0.049 A 
ATOM     38  N   UNL A   1      42.189  29.858  28.863  1.00  0.00    -0.248 NA
ATOM     39  C   UNL A   1      41.124  27.933  28.087  1.00  0.00     0.031 C 
ATOM     40  C   UNL A   1      46.055  28.352  27.174  1.00  0.00     0.029 A 
ATOM     41  N   UNL A   1      45.090  29.995  28.341  1.00  0.00    -0.354 N 
ATOM     42  C   UNL A   1      40.831  29.931  29.157  1.00  0.00     0.074 A 
ATOM     43  C   UNL A   1      40.215  28.756  28.582  1.00  0.00     0.031 C 
ATOM     44  C   UNL A   1      47.011  29.244  27.481  1.00  0.00     0.029 A 
ATOM     45  C   UNL A   1      46.414  30.351  28.221  1.00  0.00     0.049 A 
ATOM     46  H   UNL A   1      44.426  30.548  28.813  1.00  0.00     0.167 HD
ATOM     47  C   UNL A   1      40.165  30.875  29.868  1.00  0.00     0.034 A 
ATOM     48  C   UNL A   1      47.071  31.449  28.647  1.00  0.00     0.034 A 
ATOM     49  C   UNL A   1      40.799  32.036  30.442  1.00  0.00     0.049 A 
ATOM     50  C   UNL A   1      46.301  32.503  29.406  1.00  0.00     0.074 A 
ATOM     51  C   UNL A   1      40.233  33.030  31.221  1.00  0.00     0.029 A 
ATOM     52  N   UNL A   1      42.141  32.367  30.292  1.00  0.00    -0.354 N 
ATOM     53  N   UNL A   1      45.027  32.530  29.722  1.00  0.00    -0.248 NA
ATOM     54  C   UNL A   1      47.062  33.669  29.873  1.00  0.00     0.031 C 
ATOM     55  C   UNL A   1      41.209  33.998  31.475  1.00  0.00     0.029 A 
ATOM     56  C   UNL A   1      42.411  33.566  30.935  1.00  0.00     0.049 A 
ATOM     57  H   UNL A   1      42.804  31.829  29.802  1.00  0.00     0.167 HD
ATOM     58  C   UNL A   1      44.844  33.699  30.457  1.00  0.00     0.074 A 
ATOM     59  C   UNL A   1      46.140  34.338  30.549  1.00  0.00     0.031 C 
ATOM     60  C   UNL A   1      43.708  34.197  31.010  1.00  0.00     0.034 A 
BRANCH  47  61
ATOM     61  C   UNL A   1      38.674  30.697  30.035  1.00  0.00     0.023 A 
ATOM     62  C   UNL A   1      37.756  31.243  29.119  1.00  0.00     0.031 A 
ATOM     63  C   UNL A   1      38.159  29.994  31.138  1.00  0.00     0.131 A 
ATOM     64  C   UNL A   1      36.378  31.149  29.365  1.00  0.00     0.055 A 
ATOM     65  C   UNL A   1      36.785  29.826  31.329  1.00  0.00     0.041 A 
ATOM     66  F   UNL A   1      38.982  29.470  32.061  1.00  0.00    -0.206 F 
ATOM     67  C   UNL A   1      35.886  30.418  30.450  1.00  0.00     0.022 A 
BRANCH  64  68
ATOM     68  S   UNL A   1      35.246  32.124  28.337  1.00  0.00     0.124 S 
ATOM     69  O   UNL A   1      34.679  31.094  27.467  1.00  0.00    -0.237 OA
ATOM     70  O   UNL A   1      34.340  32.698  29.323  1.00  0.00    -0.237 OA
ATOM     71  O   UNL A   1      36.128  33.077  27.666  1.00  0.00    -0.744 OA
ENDBRANCH  64  68
ENDBRANCH  47  61
BRANCH  48  72
ATOM     72  C   UNL A   1      48.526  31.621  28.368  1.00  0.00     0.023 A 
ATOM     73  C   UNL A   1      48.971  32.455  27.329  1.00  0.00     0.031 A 
ATOM     74  C   UNL A   1      49.495  30.917  29.105  1.00  0.00     0.131 A 
ATOM     75  C   UNL A   1      50.339  32.523  27.020  1.00  0.00     0.055 A 
ATOM     76  C   UNL A   1      50.860  31.035  28.835  1.00  0.00     0.041 A 
ATOM     77  F   UNL A   1      49.128  30.107  30.111  1.00  0.00    -0.206 F 
ATOM     78  C   UNL A   1      51.287  31.831  27.777  1.00  0.00     0.022 A 
BRANCH  75  79
ATOM     79  S   UNL A   1      50.853  33.452  25.550  1.00  0.00     0.124 S 
ATOM     80  O   UNL A   1      49.620  34.142  25.189  1.00  0.00    -0.237 OA
ATOM     81  O   UNL A   1      51.925  34.287  26.079  1.00  0.00    -0.237 OA
ATOM     82  O   UNL A   1      51.280  32.408  24.621  1.00  0.00    -0.744 OA
ENDBRANCH  75  79
ENDBRANCH  48  72
BRANCH  60  83
ATOM     83  C   UNL A   1      43.834  35.474  31.808  1.00  0.00     0.023 A 
ATOM     84  C   UNL A   1      43.956  35.466  33.209  1.00  0.00     0.031 A 
ATOM     85  C   UNL A   1      43.821  36.719  31.155  1.00  0.00     0.131 A 
ATOM     86  C   UNL A   1      43.997  36.678  33.914  1.00  0.00     0.055 A 
ATOM     87  C   UNL A   1      43.934  37.921  31.855  1.00  0.00     0.041 A 
ATOM     88  F   UNL A   1      43.703  36.789  29.818  1.00  0.00    -0.206 F 
ATOM     89  C   UNL A   1      44.007  37.905  33.244  1.00  0.00     0.022 A 
BRANCH  86  90
ATOM     90  S   UNL A   1      43.930  36.634  35.725  1.00  0.00     0.124 S 
ATOM     91  O   UNL A   1      44.885  35.577  36.039  1.00  0.00    -0.237 OA
ATOM     92  O   UNL A   1      44.336  37.989  36.086  1.00  0.00    -0.237 OA
ATOM     93  O   UNL A   1      42.532  36.311  36.009  1.00  0.00    -0.744 OA
ENDBRANCH  86  90
ENDBRANCH  60  83
ENDBRANCH  34  35
ENDBRANCH  26  29
ENDBRANCH  24  25
ENDBRANCH  23  24
ENDBRANCH   1  23
TORSDOF 20
ENDMDL
MODEL 2
REMARK VINA RESULT:      -9.4      4.643      8.201
REMARK SMILES CC[C@@H]1CCCN1C(=O)N(CC(=O)NCCCCNC(=O)c1ccc(-c2c3nc(c(-c4cc(S(=O)(=O)[O-])ccc4F)c4ccc([nH]4)c(-c4cc(S(=O)(=O)[O-])ccc4F)c4nc(c(-c5cc(S(=O)(=O)[O-])ccc5F)c5ccc2[nH]5)C=C4)C=C3)cc1)CC(F)(F)F
REMARK SMILES IDX 16 1 15 2 14 3 12 4 13 5 11 7 10 8 8 9 9 10 7 11 3 12 4 13
REMARK SMILES IDX 5 14 6 15 2 16 1 17 85 18 86 19 87 20 88 21 89 22 17 23
REMARK SMILES IDX 18 24 19 25 20 26 21 28 22 29 23 30 84 31 24 32 83 33 25 34
REMARK SMILES IDX 26 35 27 36 77 37 28 38 82 39 76 40 78 41 29 42 81 43 75 44
REMARK SMILES IDX 74 45 30 47 62 48 42 49 61 50 43 51 46 52 60 53 79 54 44 55
REMARK SMILES IDX 45 56 59 58 80 59 47 60 31 61 32 62 40 63 33 64 39 65 41 66
REMARK SMILES IDX 38 67 34 68 35 69 36 70 37 71 63 72 64 73 72 74 65 75 71 76
REMARK SMILES IDX 73 77 70 78 66 79 67 80 68 81 69 82 48 83 49 84 57 85 50 86
REMARK SMILES IDX 56 87 58 88 55 89 51 90 52 91 53 92 54 93
REMARK H PARENT 14 6 19 27 78 46 46 57
REMARK Flexibility Score: inf
ROOT
ATOM      1  C   UNL A   1      44.750  18.853  25.402  1.00  0.00     0.023 C 
ENDROOT
BRANCH   1   2
ATOM      2  C   UNL A   1      43.408  19.576  25.396  1.00  0.00     0.116 C 
BRANCH   2   3
ATOM      3  N   UNL A   1      42.710  19.505  26.665  1.00  0.00    -0.355 N 
ATOM      4  C   UNL A   1      41.522  20.010  27.085  1.00  0.00     0.239 C 
ATOM      5  O   UNL A   1      41.093  19.586  28.166  1.00  0.00    -0.273 OA
ATOM      6  H   UNL A   1      43.190  18.992  27.356  1.00  0.00     0.163 HD
BRANCH   4   7
ATOM      7  C   UNL A   1      40.625  20.938  26.258  1.00  0.00     0.221 C 
BRANCH   7   8
ATOM      8  N   UNL A   1      40.419  22.332  26.569  1.00  0.00    -0.306 N 
BRANCH   8   9
ATOM      9  C   UNL A   1      39.242  23.014  26.723  1.00  0.00     0.321 C 
ATOM     10  O   UNL A   1      39.254  23.917  27.576  1.00  0.00    -0.248 OA
BRANCH   9  11
ATOM     11  N   UNL A   1      38.116  22.868  25.932  1.00  0.00    -0.322 N 
ATOM     12  C   UNL A   1      37.206  21.788  25.413  1.00  0.00     0.086 C 
ATOM     13  C   UNL A   1      36.238  22.588  24.508  1.00  0.00     0.027 C 
ATOM     14  C   UNL A   1      35.978  23.839  25.300  1.00  0.00     0.024 C 
ATOM     15  C   UNL A   1      37.336  24.128  25.904  1.00  0.00     0.122 C 
BRANCH  12  16
ATOM     16  C   UNL A   1      37.539  20.489  24.651  1.00  0.00     0.022 C 
ATOM     17  C   UNL A   1      36.628  19.293  24.867  1.00  0.00     0.006 C 
ENDBRANCH  12  16
ENDBRANCH   9  11
ENDBRANCH   8   9
BRANCH   8  18
ATOM     18  C   UNL A   1      41.671  23.148  26.586  1.00  0.00     0.237 C 
BRANCH  18  19
ATOM     19  C   UNL A   1      42.346  23.367  27.948  1.00  0.00     0.406 C 
ATOM     20  F   UNL A   1      42.283  24.642  28.379  1.00  0.00    -0.169 F 
ATOM     21  F   UNL A   1      41.758  22.591  28.892  1.00  0.00    -0.169 F 
ATOM     22  F   UNL A   1      43.648  23.003  27.907  1.00  0.00    -0.169 F 
ENDBRANCH  18  19
ENDBRANCH   8  18
ENDBRANCH   7   8
ENDBRANCH   4   7
ENDBRANCH   2   3
ENDBRANCH   1   2
BRANCH   1  23
ATOM     23  C   UNL A   1      45.971  19.764  25.383  1.00  0.00     0.023 C 
BRANCH  23  24
ATOM     24  C   UNL A   1      45.653  21.253  25.412  1.00  0.00     0.116 C 
BRANCH  24  25
ATOM     25  N   UNL A   1      46.425  22.007  24.435  1.00  0.00    -0.352 N 
ATOM     26  C   UNL A   1      46.635  23.364  24.351  1.00  0.00     0.251 C 
ATOM     27  H   UNL A   1      46.860  21.469  23.735  1.00  0.00     0.163 HD
ATOM     28  O   UNL A   1      47.149  23.845  23.351  1.00  0.00    -0.269 OA
BRANCH  26  29
ATOM     29  C   UNL A   1      46.205  24.230  25.469  1.00  0.00     0.039 A 
ATOM     30  C   UNL A   1      47.083  24.462  26.530  1.00  0.00     0.014 A 
ATOM     31  C   UNL A   1      44.951  24.845  25.444  1.00  0.00     0.014 A 
ATOM     32  C   UNL A   1      46.730  25.375  27.525  1.00  0.00     0.010 A 
ATOM     33  C   UNL A   1      44.647  25.827  26.379  1.00  0.00     0.010 A 
ATOM     34  C   UNL A   1      45.530  26.100  27.434  1.00  0.00    -0.014 A 
BRANCH  34  35
ATOM     35  C   UNL A   1      45.175  27.139  28.438  1.00  0.00     0.031 A 
ATOM     36  C   UNL A   1      45.305  28.597  28.086  1.00  0.00     0.074 A 
ATOM     37  C   UNL A   1      44.794  26.770  29.677  1.00  0.00     0.049 A 
ATOM     38  N   UNL A   1      45.111  29.650  28.838  1.00  0.00    -0.248 NA
ATOM     39  C   UNL A   1      45.745  28.910  26.718  1.00  0.00     0.031 C 
ATOM     40  C   UNL A   1      44.675  25.388  30.149  1.00  0.00     0.029 A 
ATOM     41  N   UNL A   1      44.441  27.522  30.770  1.00  0.00    -0.354 N 
ATOM     42  C   UNL A   1      45.416  30.747  28.038  1.00  0.00     0.074 A 
ATOM     43  C   UNL A   1      45.878  30.225  26.771  1.00  0.00     0.031 C 
ATOM     44  C   UNL A   1      44.242  25.393  31.420  1.00  0.00     0.029 A 
ATOM     45  C   UNL A   1      44.104  26.773  31.874  1.00  0.00     0.049 A 
ATOM     46  H   UNL A   1      44.429  28.506  30.764  1.00  0.00     0.167 HD
ATOM     47  C   UNL A   1      45.291  32.067  28.324  1.00  0.00     0.034 A 
ATOM     48  C   UNL A   1      43.737  27.154  33.115  1.00  0.00     0.034 A 
ATOM     49  C   UNL A   1      44.818  32.567  29.591  1.00  0.00     0.049 A 
ATOM     50  C   UNL A   1      43.639  28.629  33.420  1.00  0.00     0.074 A 
ATOM     51  C   UNL A   1      44.605  33.881  29.972  1.00  0.00     0.029 A 
ATOM     52  N   UNL A   1      44.494  31.779  30.688  1.00  0.00    -0.354 N 
ATOM     53  N   UNL A   1      43.878  29.654  32.635  1.00  0.00    -0.248 NA
ATOM     54  C   UNL A   1      43.211  28.997  34.775  1.00  0.00     0.031 C 
ATOM     55  C   UNL A   1      44.229  33.890  31.319  1.00  0.00     0.029 A 
ATOM     56  C   UNL A   1      44.117  32.580  31.756  1.00  0.00     0.049 A 
ATOM     57  H   UNL A   1      44.526  30.795  30.706  1.00  0.00     0.167 HD
ATOM     58  C   UNL A   1      43.594  30.787  33.393  1.00  0.00     0.074 A 
ATOM     59  C   UNL A   1      43.152  30.317  34.689  1.00  0.00     0.031 C 
ATOM     60  C   UNL A   1      43.686  32.097  33.048  1.00  0.00     0.034 A 
BRANCH  47  61
ATOM     61  C   UNL A   1      45.698  33.051  27.253  1.00  0.00     0.023 A 
ATOM     62  C   UNL A   1      47.040  33.429  27.065  1.00  0.00     0.031 A 
ATOM     63  C   UNL A   1      44.729  33.644  26.423  1.00  0.00     0.131 A 
ATOM     64  C   UNL A   1      47.366  34.425  26.133  1.00  0.00     0.055 A 
ATOM     65  C   UNL A   1      45.071  34.569  25.434  1.00  0.00     0.041 A 
ATOM     66  F   UNL A   1      43.428  33.344  26.567  1.00  0.00    -0.206 F 
ATOM     67  C   UNL A   1      46.394  34.977  25.296  1.00  0.00     0.022 A 
BRANCH  64  68
ATOM     68  S   UNL A   1      49.049  35.099  26.140  1.00  0.00     0.124 S 
ATOM     69  O   UNL A   1      49.434  34.914  27.538  1.00  0.00    -0.237 OA
ATOM     70  O   UNL A   1      49.733  34.252  25.170  1.00  0.00    -0.237 OA
ATOM     71  O   UNL A   1      48.863  36.491  25.733  1.00  0.00    -0.744 OA
ENDBRANCH  64  68
ENDBRANCH  47  61
BRANCH  48  72
ATOM     72  C   UNL A   1      43.442  26.137  34.166  1.00  0.00     0.023 A 
ATOM     73  C   UNL A   1      44.455  25.314  34.683  1.00  0.00     0.031 A 
ATOM     74  C   UNL A   1      42.132  25.939  34.637  1.00  0.00     0.131 A 
ATOM     75  C   UNL A   1      44.136  24.298  35.598  1.00  0.00     0.055 A 
ATOM     76  C   UNL A   1      41.828  24.967  35.592  1.00  0.00     0.041 A 
ATOM     77  F   UNL A   1      41.123  26.698  34.178  1.00  0.00    -0.206 F 
ATOM     78  C   UNL A   1      42.832  24.130  36.067  1.00  0.00     0.022 A 
BRANCH  75  79
ATOM     79  S   UNL A   1      45.435  23.132  36.090  1.00  0.00     0.124 S 
ATOM     80  O   UNL A   1      44.944  21.883  35.519  1.00  0.00    -0.237 OA
ATOM     81  O   UNL A   1      46.615  23.708  35.456  1.00  0.00    -0.237 OA
ATOM     82  O   UNL A   1      45.418  23.200  37.550  1.00  0.00    -0.744 OA
ENDBRANCH  75  79
ENDBRANCH  48  72
BRANCH  60  83
ATOM     83  C   UNL A   1      43.249  33.112  34.078  1.00  0.00     0.023 A 
ATOM     84  C   UNL A   1      41.903  33.494  34.221  1.00  0.00     0.031 A 
ATOM     85  C   UNL A   1      44.198  33.714  34.924  1.00  0.00     0.131 A 
ATOM     86  C   UNL A   1      41.554  34.493  35.142  1.00  0.00     0.055 A 
ATOM     87  C   UNL A   1      43.836  34.656  35.887  1.00  0.00     0.041 A 
ATOM     88  F   UNL A   1      45.499  33.390  34.830  1.00  0.00    -0.206 F 
ATOM     89  C   UNL A   1      42.509  35.062  35.989  1.00  0.00     0.022 A 
BRANCH  86  90
ATOM     90  S   UNL A   1      39.852  35.118  35.144  1.00  0.00     0.124 S 
ATOM     91  O   UNL A   1      39.449  34.907  33.758  1.00  0.00    -0.237 OA
ATOM     92  O   UNL A   1      39.206  34.262  36.134  1.00  0.00    -0.237 OA
ATOM     93  O   UNL A   1      40.001  36.518  35.540  1.00  0.00    -0.744 OA
ENDBRANCH  86  90
ENDBRANCH  60  83
ENDBRANCH  34  35
ENDBRANCH  26  29
ENDBRANCH  24  25
ENDBRANCH  23  24
ENDBRANCH   1  23
TORSDOF 20
ENDMDL
MODEL 3
REMARK VINA RESULT:      -9.3      4.996      8.378
REMARK SMILES CC[C@@H]1CCCN1C(=O)N(CC(=O)NCCCCNC(=O)c1ccc(-c2c3nc(c(-c4cc(S(=O)(=O)[O-])ccc4F)c4ccc([nH]4)c(-c4cc(S(=O)(=O)[O-])ccc4F)c4nc(c(-c5cc(S(=O)(=O)[O-])ccc5F)c5ccc2[nH]5)C=C4)C=C3)cc1)CC(F)(F)F
REMARK SMILES IDX 16 1 15 2 14 3 12 4 13 5 11 7 10 8 8 9 9 10 7 11 3 12 4 13
REMARK SMILES IDX 5 14 6 15 2 16 1 17 85 18 86 19 87 20 88 21 89 22 17 23
REMARK SMILES IDX 18 24 19 25 20 26 21 28 22 29 23 30 84 31 24 32 83 33 25 34
REMARK SMILES IDX 26 35 27 36 77 37 28 38 82 39 76 40 78 41 29 42 81 43 75 44
REMARK SMILES IDX 74 45 30 47 62 48 42 49 61 50 43 51 46 52 60 53 79 54 44 55
REMARK SMILES IDX 45 56 59 58 80 59 47 60 31 61 32 62 40 63 33 64 39 65 41 66
REMARK SMILES IDX 38 67 34 68 35 69 36 70 37 71 63 72 64 73 72 74 65 75 71 76
REMARK SMILES IDX 73 77 70 78 66 79 67 80 68 81 69 82 48 83 49 84 57 85 50 86
REMARK SMILES IDX 56 87 58 88 55 89 51 90 52 91 53 92 54 93
REMARK H PARENT 14 6 19 27 78 46 46 57
REMARK Flexibility Score: inf
ROOT
ATOM      1  C   UNL A   1      44.666  19.116  25.570  1.00  0.00     0.023 C 
ENDROOT
BRANCH   1   2
ATOM      2  C   UNL A   1      43.291  19.760  25.433  1.00  0.00     0.116 C 
BRANCH   2   3
ATOM      3  N   UNL A   1      42.480  19.648  26.630  1.00  0.00    -0.355 N 
ATOM      4  C   UNL A   1      41.330  20.256  27.016  1.00  0.00     0.239 C 
ATOM      5  O   UNL A   1      40.759  19.780  28.006  1.00  0.00    -0.273 OA
ATOM      6  H   UNL A   1      42.832  19.008  27.291  1.00  0.00     0.163 HD
BRANCH   4   7
ATOM      7  C   UNL A   1      40.627  21.374  26.237  1.00  0.00     0.221 C 
BRANCH   7   8
ATOM      8  N   UNL A   1      40.779  22.776  26.544  1.00  0.00    -0.306 N 
BRANCH   8   9
ATOM      9  C   UNL A   1      39.816  23.744  26.638  1.00  0.00     0.321 C 
ATOM     10  O   UNL A   1      38.655  23.369  26.406  1.00  0.00    -0.248 OA
BRANCH   9  11
ATOM     11  N   UNL A   1      40.015  25.038  27.088  1.00  0.00    -0.322 N 
ATOM     12  C   UNL A   1      40.339  26.406  26.553  1.00  0.00     0.086 C 
ATOM     13  C   UNL A   1      40.446  27.244  27.849  1.00  0.00     0.027 C 
ATOM     14  C   UNL A   1      39.313  26.726  28.690  1.00  0.00     0.024 C 
ATOM     15  C   UNL A   1      39.338  25.242  28.390  1.00  0.00     0.122 C 
BRANCH  12  16
ATOM     16  C   UNL A   1      41.494  26.868  25.640  1.00  0.00     0.022 C 
ATOM     17  C   UNL A   1      42.012  28.285  25.822  1.00  0.00     0.006 C 
ENDBRANCH  12  16
ENDBRANCH   9  11
ENDBRANCH   8   9
BRANCH   8  18
ATOM     18  C   UNL A   1      42.199  23.234  26.634  1.00  0.00     0.237 C 
BRANCH  18  19
ATOM     19  C   UNL A   1      42.793  23.402  28.039  1.00  0.00     0.406 C 
ATOM     20  F   UNL A   1      44.090  23.046  28.119  1.00  0.00    -0.169 F 
ATOM     21  F   UNL A   1      42.703  24.696  28.435  1.00  0.00    -0.169 F 
ATOM     22  F   UNL A   1      42.103  22.674  28.946  1.00  0.00    -0.169 F 
ENDBRANCH  18  19
ENDBRANCH   8  18
ENDBRANCH   7   8
ENDBRANCH   4   7
ENDBRANCH   2   3
ENDBRANCH   1   2
BRANCH   1  23
ATOM     23  C   UNL A   1      45.825  19.960  25.054  1.00  0.00     0.023 C 
BRANCH  23  24
ATOM     24  C   UNL A   1      45.630  21.463  25.198  1.00  0.00     0.116 C 
BRANCH  24  25
ATOM     25  N   UNL A   1      46.494  22.225  24.308  1.00  0.00    -0.352 N 
ATOM     26  C   UNL A   1      46.774  23.571  24.307  1.00  0.00     0.251 C 
ATOM     27  H   UNL A   1      46.942  21.701  23.605  1.00  0.00     0.163 HD
ATOM     28  O   UNL A   1      47.368  24.075  23.364  1.00  0.00    -0.269 OA
BRANCH  26  29
ATOM     29  C   UNL A   1      46.321  24.401  25.445  1.00  0.00     0.039 A 
ATOM     30  C   UNL A   1      47.174  24.590  26.533  1.00  0.00     0.014 A 
ATOM     31  C   UNL A   1      45.072  25.025  25.410  1.00  0.00     0.014 A 
ATOM     32  C   UNL A   1      46.802  25.471  27.551  1.00  0.00     0.010 A 
ATOM     33  C   UNL A   1      44.750  25.976  26.371  1.00  0.00     0.010 A 
ATOM     34  C   UNL A   1      45.609  26.207  27.457  1.00  0.00    -0.014 A 
BRANCH  34  35
ATOM     35  C   UNL A   1      45.235  27.212  28.487  1.00  0.00     0.031 A 
ATOM     36  C   UNL A   1      45.305  28.680  28.161  1.00  0.00     0.074 A 
ATOM     37  C   UNL A   1      44.892  26.806  29.725  1.00  0.00     0.049 A 
ATOM     38  N   UNL A   1      45.087  29.711  28.937  1.00  0.00    -0.248 NA
ATOM     39  C   UNL A   1      45.706  29.035  26.791  1.00  0.00     0.031 C 
ATOM     40  C   UNL A   1      44.833  25.412  30.172  1.00  0.00     0.029 A 
ATOM     41  N   UNL A   1      44.533  27.524  30.839  1.00  0.00    -0.354 N 
ATOM     42  C   UNL A   1      45.335  30.833  28.153  1.00  0.00     0.074 A 
ATOM     43  C   UNL A   1      45.792  30.353  26.867  1.00  0.00     0.031 C 
ATOM     44  C   UNL A   1      44.425  25.377  31.451  1.00  0.00     0.029 A 
ATOM     45  C   UNL A   1      44.245  26.742  31.934  1.00  0.00     0.049 A 
ATOM     46  H   UNL A   1      44.485  28.507  30.853  1.00  0.00     0.167 HD
ATOM     47  C   UNL A   1      45.167  32.142  28.467  1.00  0.00     0.034 A 
ATOM     48  C   UNL A   1      43.889  27.085  33.189  1.00  0.00     0.034 A 
ATOM     49  C   UNL A   1      44.701  32.601  29.752  1.00  0.00     0.049 A 
ATOM     50  C   UNL A   1      43.743  28.550  33.524  1.00  0.00     0.074 A 
ATOM     51  C   UNL A   1      44.447  33.898  30.163  1.00  0.00     0.029 A 
ATOM     52  N   UNL A   1      44.427  31.780  30.840  1.00  0.00    -0.354 N 
ATOM     53  N   UNL A   1      43.928  29.597  32.755  1.00  0.00    -0.248 NA
ATOM     54  C   UNL A   1      43.328  28.875  34.895  1.00  0.00     0.031 C 
ATOM     55  C   UNL A   1      44.097  33.868  31.517  1.00  0.00     0.029 A 
ATOM     56  C   UNL A   1      44.041  32.546  31.930  1.00  0.00     0.049 A 
ATOM     57  H   UNL A   1      44.496  30.798  30.838  1.00  0.00     0.167 HD
ATOM     58  C   UNL A   1      43.617  30.704  33.541  1.00  0.00     0.074 A 
ATOM     59  C   UNL A   1      43.218  30.194  34.835  1.00  0.00     0.031 C 
ATOM     60  C   UNL A   1      43.655  32.023  33.220  1.00  0.00     0.034 A 
BRANCH  47  61
ATOM     61  C   UNL A   1      45.516  33.161  27.408  1.00  0.00     0.023 A 
ATOM     62  C   UNL A   1      46.819  33.675  27.276  1.00  0.00     0.031 A 
ATOM     63  C   UNL A   1      44.529  33.648  26.532  1.00  0.00     0.131 A 
ATOM     64  C   UNL A   1      47.081  34.698  26.352  1.00  0.00     0.055 A 
ATOM     65  C   UNL A   1      44.816  34.602  25.554  1.00  0.00     0.041 A 
ATOM     66  F   UNL A   1      43.261  33.215  26.622  1.00  0.00    -0.206 F 
ATOM     67  C   UNL A   1      46.094  35.145  25.470  1.00  0.00     0.022 A 
BRANCH  64  68
ATOM     68  S   UNL A   1      48.684  35.543  26.427  1.00  0.00     0.124 S 
ATOM     69  O   UNL A   1      48.289  36.884  26.854  1.00  0.00    -0.237 OA
ATOM     70  O   UNL A   1      49.413  34.749  27.408  1.00  0.00    -0.237 OA
ATOM     71  O   UNL A   1      49.181  35.457  25.056  1.00  0.00    -0.744 OA
ENDBRANCH  64  68
ENDBRANCH  47  61
BRANCH  48  72
ATOM     72  C   UNL A   1      43.652  26.038  34.226  1.00  0.00     0.023 A 
ATOM     73  C   UNL A   1      44.703  25.235  34.698  1.00  0.00     0.031 A 
ATOM     74  C   UNL A   1      42.361  25.792  34.726  1.00  0.00     0.131 A 
ATOM     75  C   UNL A   1      44.438  24.191  35.598  1.00  0.00     0.055 A 
ATOM     76  C   UNL A   1      42.112  24.792  35.669  1.00  0.00     0.041 A 
ATOM     77  F   UNL A   1      41.319  26.530  34.312  1.00  0.00    -0.206 F 
ATOM     78  C   UNL A   1      43.152  23.975  36.098  1.00  0.00     0.022 A 
BRANCH  75  79
ATOM     79  S   UNL A   1      45.783  23.054  36.030  1.00  0.00     0.124 S 
ATOM     80  O   UNL A   1      46.891  23.596  35.252  1.00  0.00    -0.237 OA
ATOM     81  O   UNL A   1      45.870  23.222  37.476  1.00  0.00    -0.237 OA
ATOM     82  O   UNL A   1      45.285  21.754  35.584  1.00  0.00    -0.744 OA
ENDBRANCH  75  79
ENDBRANCH  48  72
BRANCH  60  83
ATOM     83  C   UNL A   1      43.200  33.002  34.278  1.00  0.00     0.023 A 
ATOM     84  C   UNL A   1      41.855  33.394  34.399  1.00  0.00     0.031 A 
ATOM     85  C   UNL A   1      44.132  33.558  35.172  1.00  0.00     0.131 A 
ATOM     86  C   UNL A   1      41.492  34.360  35.350  1.00  0.00     0.055 A 
ATOM     87  C   UNL A   1      43.754  34.465  36.162  1.00  0.00     0.041 A 
ATOM     88  F   UNL A   1      45.432  33.223  35.101  1.00  0.00    -0.206 F 
ATOM     89  C   UNL A   1      42.429  34.883  36.245  1.00  0.00     0.022 A 
BRANCH  86  90
ATOM     90  S   UNL A   1      39.797  35.004  35.331  1.00  0.00     0.124 S 
ATOM     91  O   UNL A   1      39.265  34.495  36.590  1.00  0.00    -0.237 OA
ATOM     92  O   UNL A   1      40.012  36.446  35.266  1.00  0.00    -0.237 OA
ATOM     93  O   UNL A   1      39.217  34.410  34.127  1.00  0.00    -0.744 OA
ENDBRANCH  86  90
ENDBRANCH  60  83
ENDBRANCH  34  35
ENDBRANCH  26  29
ENDBRANCH  24  25
ENDBRANCH  23  24
ENDBRANCH   1  23
TORSDOF 20
ENDMDL
