MODEL 1
REMARK VINA RESULT:     -12.9      0.000      0.000
REMARK SMILES Cc1c(Cl)cc2c(c1C)O[C@@H](C(F)(F)F)C(C(=O)NCCCCNC(=O)c1ccc(-c3c4nc(c(-c5cc(S(=O)(=O)[O-])ccc5F)c5ccc([nH]5)c(-c5cc(S(=O)(=O)[O-])ccc5F)c5nc(c(-c6cc(S(=O)(=O)[O-])ccc6F)c6ccc3[nH]6)C=C5)C=C4)cc1)=C2
REMARK SMILES IDX 22 1 21 2 20 3 19 4 17 5 18 6 16 8 1 9 2 10 3 11 8 12 4 13
REMARK SMILES IDX 5 14 7 15 9 16 6 17 10 18 90 19 11 20 12 21 13 22 14 23
REMARK SMILES IDX 15 24 23 25 24 26 25 27 26 29 27 30 28 31 89 32 29 33 88 34
REMARK SMILES IDX 30 35 31 36 32 37 82 38 33 39 87 40 81 41 83 42 34 43 86 44
REMARK SMILES IDX 80 45 79 46 35 48 67 49 47 50 66 51 48 52 51 53 65 54 84 55
REMARK SMILES IDX 49 56 50 57 64 59 85 60 52 61 36 62 37 63 45 64 38 65 44 66
REMARK SMILES IDX 46 67 43 68 39 69 40 70 41 71 42 72 68 73 69 74 77 75 70 76
REMARK SMILES IDX 76 77 78 78 75 79 71 80 72 81 73 82 74 83 53 84 54 85 62 86
REMARK SMILES IDX 55 87 61 88 63 89 60 90 56 91 57 92 58 93 59 94
REMARK H PARENT 19 7 24 28 83 47 51 58
REMARK Flexibility Score: inf
ROOT
ATOM      1  C   UNL A   1      35.007  22.294  24.275  1.00  0.00     0.023 C 
ENDROOT
BRANCH   1   2
ATOM      2  C   UNL A   1      34.084  21.071  24.256  1.00  0.00     0.023 C 
BRANCH   2   3
ATOM      3  C   UNL A   1      32.627  21.383  23.917  1.00  0.00     0.116 C 
BRANCH   3   4
ATOM      4  N   UNL A   1      31.884  21.796  25.092  1.00  0.00    -0.352 N 
ATOM      5  C   UNL A   1      31.307  22.933  25.543  1.00  0.00     0.251 C 
ATOM      6  O   UNL A   1      30.696  22.825  26.612  1.00  0.00    -0.270 OA
ATOM      7  H   UNL A   1      31.771  21.054  25.730  1.00  0.00     0.163 HD
BRANCH   5   8
ATOM      8  C   UNL A   1      31.357  24.261  24.862  1.00  0.00     0.067 C 
ATOM      9  C   UNL A   1      29.880  30.007  22.056  1.00  0.00     0.046 C 
ATOM     10  C   UNL A   1      30.011  28.668  22.738  1.00  0.00    -0.026 A 
ATOM     11  C   UNL A   1      28.842  28.050  23.243  1.00  0.00     0.045 A 
ATOM     12  C   UNL A   1      31.247  27.994  22.883  1.00  0.00    -0.004 A 
ATOM     13  Cl  UNL A   1      27.288  28.809  23.127  1.00  0.00    -0.084 Cl
ATOM     14  C   UNL A   1      28.885  26.794  23.853  1.00  0.00     0.032 A 
ATOM     15  C   UNL A   1      31.263  26.722  23.498  1.00  0.00     0.131 A 
ATOM     16  C   UNL A   1      32.565  28.539  22.392  1.00  0.00     0.049 C 
ATOM     17  C   UNL A   1      30.097  26.121  23.975  1.00  0.00     0.019 A 
ATOM     18  O   UNL A   1      32.468  26.069  23.562  1.00  0.00    -0.475 OA
ATOM     19  C   UNL A   1      30.156  24.790  24.562  1.00  0.00     0.025 C 
ATOM     20  C   UNL A   1      32.605  25.054  24.597  1.00  0.00     0.314 C 
BRANCH  20  21
ATOM     21  C   UNL A   1      33.228  25.674  25.860  1.00  0.00     0.429 C 
ATOM     22  F   UNL A   1      33.935  26.796  25.599  1.00  0.00    -0.167 F 
ATOM     23  F   UNL A   1      32.254  26.015  26.741  1.00  0.00    -0.167 F 
ATOM     24  F   UNL A   1      34.065  24.826  26.501  1.00  0.00    -0.167 F 
ENDBRANCH  20  21
ENDBRANCH   5   8
ENDBRANCH   3   4
ENDBRANCH   2   3
ENDBRANCH   1   2
BRANCH   1  25
ATOM     25  C   UNL A   1      36.084  22.277  25.355  1.00  0.00     0.116 C 
BRANCH  25  26
ATOM     26  N   UNL A   1      36.975  21.130  25.269  1.00  0.00    -0.352 N 
ATOM     27  C   UNL A   1      38.311  21.070  25.588  1.00  0.00     0.251 C 
ATOM     28  H   UNL A   1      36.570  20.293  24.944  1.00  0.00     0.163 HD
ATOM     29  O   UNL A   1      38.951  20.045  25.378  1.00  0.00    -0.269 OA
BRANCH  27  30
ATOM     30  C   UNL A   1      38.967  22.272  26.138  1.00  0.00     0.039 A 
ATOM     31  C   UNL A   1      40.095  22.112  26.946  1.00  0.00     0.014 A 
ATOM     32  C   UNL A   1      38.503  23.546  25.802  1.00  0.00     0.014 A 
ATOM     33  C   UNL A   1      40.806  23.239  27.359  1.00  0.00     0.010 A 
ATOM     34  C   UNL A   1      39.246  24.663  26.166  1.00  0.00     0.010 A 
ATOM     35  C   UNL A   1      40.408  24.519  26.941  1.00  0.00    -0.014 A 
BRANCH  35  36
ATOM     36  C   UNL A   1      41.178  25.730  27.310  1.00  0.00     0.031 A 
ATOM     37  C   UNL A   1      40.537  26.781  28.170  1.00  0.00     0.074 A 
ATOM     38  C   UNL A   1      42.416  25.916  26.813  1.00  0.00     0.049 A 
ATOM     39  N   UNL A   1      40.968  27.977  28.476  1.00  0.00    -0.248 NA
ATOM     40  C   UNL A   1      39.219  26.451  28.732  1.00  0.00     0.031 C 
ATOM     41  C   UNL A   1      43.134  24.972  25.954  1.00  0.00     0.029 A 
ATOM     42  N   UNL A   1      43.285  26.967  26.952  1.00  0.00    -0.354 N 
ATOM     43  C   UNL A   1      39.966  28.551  29.248  1.00  0.00     0.074 A 
ATOM     44  C   UNL A   1      38.888  27.588  29.325  1.00  0.00     0.031 C 
ATOM     45  C   UNL A   1      44.344  25.479  25.662  1.00  0.00     0.029 A 
ATOM     46  C   UNL A   1      44.468  26.798  26.273  1.00  0.00     0.049 A 
ATOM     47  H   UNL A   1      43.081  27.769  27.487  1.00  0.00     0.167 HD
ATOM     48  C   UNL A   1      39.953  29.766  29.850  1.00  0.00     0.034 A 
ATOM     49  C   UNL A   1      45.528  27.620  26.148  1.00  0.00     0.034 A 
ATOM     50  C   UNL A   1      41.044  30.706  29.782  1.00  0.00     0.049 A 
ATOM     51  C   UNL A   1      45.491  28.965  26.819  1.00  0.00     0.074 A 
ATOM     52  C   UNL A   1      41.146  31.954  30.371  1.00  0.00     0.029 A 
ATOM     53  N   UNL A   1      42.229  30.495  29.089  1.00  0.00    -0.354 N 
ATOM     54  N   UNL A   1      44.526  29.508  27.523  1.00  0.00    -0.248 NA
ATOM     55  C   UNL A   1      46.686  29.808  26.678  1.00  0.00     0.031 C 
ATOM     56  C   UNL A   1      42.374  32.514  30.001  1.00  0.00     0.029 A 
ATOM     57  C   UNL A   1      43.062  31.594  29.226  1.00  0.00     0.049 A 
ATOM     58  H   UNL A   1      42.445  29.684  28.574  1.00  0.00     0.167 HD
ATOM     59  C   UNL A   1      45.002  30.753  27.922  1.00  0.00     0.074 A 
ATOM     60  C   UNL A   1      46.344  30.876  27.387  1.00  0.00     0.031 C 
ATOM     61  C   UNL A   1      44.388  31.705  28.667  1.00  0.00     0.034 A 
BRANCH  48  62
ATOM     62  C   UNL A   1      38.707  30.145  30.606  1.00  0.00     0.023 A 
ATOM     63  C   UNL A   1      37.655  30.839  29.986  1.00  0.00     0.031 A 
ATOM     64  C   UNL A   1      38.585  29.841  31.972  1.00  0.00     0.131 A 
ATOM     65  C   UNL A   1      36.555  31.265  30.745  1.00  0.00     0.055 A 
ATOM     66  C   UNL A   1      37.453  30.203  32.706  1.00  0.00     0.041 A 
ATOM     67  F   UNL A   1      39.569  29.198  32.620  1.00  0.00    -0.206 F 
ATOM     68  C   UNL A   1      36.436  30.930  32.096  1.00  0.00     0.022 A 
BRANCH  65  69
ATOM     69  S   UNL A   1      35.334  32.355  29.968  1.00  0.00     0.124 S 
ATOM     70  O   UNL A   1      34.830  31.508  28.889  1.00  0.00    -0.237 OA
ATOM     71  O   UNL A   1      34.403  32.621  31.058  1.00  0.00    -0.237 OA
ATOM     72  O   UNL A   1      36.127  33.503  29.532  1.00  0.00    -0.744 OA
ENDBRANCH  65  69
ENDBRANCH  48  62
BRANCH  49  73
ATOM     73  C   UNL A   1      46.707  27.196  25.348  1.00  0.00     0.023 A 
ATOM     74  C   UNL A   1      46.898  27.672  24.042  1.00  0.00     0.031 A 
ATOM     75  C   UNL A   1      47.664  26.315  25.882  1.00  0.00     0.131 A 
ATOM     76  C   UNL A   1      48.011  27.248  23.301  1.00  0.00     0.055 A 
ATOM     77  C   UNL A   1      48.785  25.920  25.152  1.00  0.00     0.041 A 
ATOM     78  F   UNL A   1      47.529  25.846  27.132  1.00  0.00    -0.206 F 
ATOM     79  C   UNL A   1      48.961  26.384  23.851  1.00  0.00     0.022 A 
BRANCH  76  80
ATOM     80  S   UNL A   1      48.199  27.839  21.597  1.00  0.00     0.124 S 
ATOM     81  O   UNL A   1      48.331  26.587  20.862  1.00  0.00    -0.237 OA
ATOM     82  O   UNL A   1      46.958  28.578  21.389  1.00  0.00    -0.237 OA
ATOM     83  O   UNL A   1      49.406  28.661  21.654  1.00  0.00    -0.744 OA
ENDBRANCH  76  80
ENDBRANCH  49  73
BRANCH  61  84
ATOM     84  C   UNL A   1      45.178  32.949  28.971  1.00  0.00     0.023 A 
ATOM     85  C   UNL A   1      45.140  34.068  28.122  1.00  0.00     0.031 A 
ATOM     86  C   UNL A   1      45.965  33.019  30.133  1.00  0.00     0.131 A 
ATOM     87  C   UNL A   1      45.907  35.201  28.429  1.00  0.00     0.055 A 
ATOM     88  C   UNL A   1      46.693  34.164  30.456  1.00  0.00     0.041 A 
ATOM     89  F   UNL A   1      46.032  31.976  30.974  1.00  0.00    -0.206 F 
ATOM     90  C   UNL A   1      46.673  35.261  29.597  1.00  0.00     0.022 A 
BRANCH  87  91
ATOM     91  S   UNL A   1      45.933  36.581  27.255  1.00  0.00     0.124 S 
ATOM     92  O   UNL A   1      46.811  36.071  26.207  1.00  0.00    -0.237 OA
ATOM     93  O   UNL A   1      44.524  36.716  26.896  1.00  0.00    -0.237 OA
ATOM     94  O   UNL A   1      46.479  37.688  28.038  1.00  0.00    -0.744 OA
ENDBRANCH  87  91
ENDBRANCH  61  84
ENDBRANCH  35  36
ENDBRANCH  27  30
ENDBRANCH  25  26
ENDBRANCH   1  25
TORSDOF 15
ENDMDL
MODEL 2
REMARK VINA RESULT:     -12.8      5.280     10.227
REMARK SMILES Cc1c(Cl)cc2c(c1C)O[C@@H](C(F)(F)F)C(C(=O)NCCCCNC(=O)c1ccc(-c3c4nc(c(-c5cc(S(=O)(=O)[O-])ccc5F)c5ccc([nH]5)c(-c5cc(S(=O)(=O)[O-])ccc5F)c5nc(c(-c6cc(S(=O)(=O)[O-])ccc6F)c6ccc3[nH]6)C=C5)C=C4)cc1)=C2
REMARK SMILES IDX 22 1 21 2 20 3 19 4 17 5 18 6 16 8 1 9 2 10 3 11 8 12 4 13
REMARK SMILES IDX 5 14 7 15 9 16 6 17 10 18 90 19 11 20 12 21 13 22 14 23
REMARK SMILES IDX 15 24 23 25 24 26 25 27 26 29 27 30 28 31 89 32 29 33 88 34
REMARK SMILES IDX 30 35 31 36 32 37 82 38 33 39 87 40 81 41 83 42 34 43 86 44
REMARK SMILES IDX 80 45 79 46 35 48 67 49 47 50 66 51 48 52 51 53 65 54 84 55
REMARK SMILES IDX 49 56 50 57 64 59 85 60 52 61 36 62 37 63 45 64 38 65 44 66
REMARK SMILES IDX 46 67 43 68 39 69 40 70 41 71 42 72 68 73 69 74 77 75 70 76
REMARK SMILES IDX 76 77 78 78 75 79 71 80 72 81 73 82 74 83 53 84 54 85 62 86
REMARK SMILES IDX 55 87 61 88 63 89 60 90 56 91 57 92 58 93 59 94
REMARK H PARENT 19 7 24 28 83 47 51 58
REMARK Flexibility Score: inf
ROOT
ATOM      1  C   UNL A   1      32.352  27.973  25.429  1.00  0.00     0.023 C 
ENDROOT
BRANCH   1   2
ATOM      2  C   UNL A   1      30.925  28.174  24.912  1.00  0.00     0.023 C 
BRANCH   2   3
ATOM      3  C   UNL A   1      30.322  26.948  24.227  1.00  0.00     0.116 C 
BRANCH   3   4
ATOM      4  N   UNL A   1      31.021  26.630  22.996  1.00  0.00    -0.352 N 
ATOM      5  C   UNL A   1      31.749  25.594  22.517  1.00  0.00     0.251 C 
ATOM      6  O   UNL A   1      32.123  25.713  21.345  1.00  0.00    -0.270 OA
ATOM      7  H   UNL A   1      30.948  27.358  22.338  1.00  0.00     0.163 HD
BRANCH   5   8
ATOM      8  C   UNL A   1      32.118  24.366  23.281  1.00  0.00     0.067 C 
ATOM      9  C   UNL A   1      33.194  18.188  25.216  1.00  0.00     0.046 C 
ATOM     10  C   UNL A   1      32.885  19.523  24.586  1.00  0.00    -0.026 A 
ATOM     11  C   UNL A   1      32.427  19.549  23.247  1.00  0.00     0.045 A 
ATOM     12  C   UNL A   1      33.019  20.751  25.277  1.00  0.00    -0.004 A 
ATOM     13  Cl  UNL A   1      32.249  18.097  22.317  1.00  0.00    -0.084 Cl
ATOM     14  C   UNL A   1      32.087  20.747  22.615  1.00  0.00     0.032 A 
ATOM     15  C   UNL A   1      32.663  21.948  24.617  1.00  0.00     0.131 A 
ATOM     16  C   UNL A   1      33.497  20.866  26.703  1.00  0.00     0.049 C 
ATOM     17  C   UNL A   1      32.196  21.951  23.302  1.00  0.00     0.019 A 
ATOM     18  O   UNL A   1      32.742  23.112  25.339  1.00  0.00    -0.475 OA
ATOM     19  C   UNL A   1      31.799  23.206  22.677  1.00  0.00     0.025 C 
ATOM     20  C   UNL A   1      32.881  24.344  24.575  1.00  0.00     0.314 C 
BRANCH  20  21
ATOM     21  C   UNL A   1      34.370  24.703  24.426  1.00  0.00     0.429 C 
ATOM     22  F   UNL A   1      34.572  26.022  24.212  1.00  0.00    -0.167 F 
ATOM     23  F   UNL A   1      35.044  24.377  25.558  1.00  0.00    -0.167 F 
ATOM     24  F   UNL A   1      34.966  24.046  23.405  1.00  0.00    -0.167 F 
ENDBRANCH  20  21
ENDBRANCH   5   8
ENDBRANCH   3   4
ENDBRANCH   2   3
ENDBRANCH   1   2
BRANCH   1  25
ATOM     25  C   UNL A   1      33.245  29.208  25.368  1.00  0.00     0.116 C 
BRANCH  25  26
ATOM     26  N   UNL A   1      32.620  30.404  25.911  1.00  0.00    -0.352 N 
ATOM     27  C   UNL A   1      33.079  31.216  26.920  1.00  0.00     0.251 C 
ATOM     28  H   UNL A   1      31.762  30.665  25.504  1.00  0.00     0.163 HD
ATOM     29  O   UNL A   1      32.391  32.147  27.327  1.00  0.00    -0.269 OA
BRANCH  27  30
ATOM     30  C   UNL A   1      34.388  30.918  27.534  1.00  0.00     0.039 A 
ATOM     31  C   UNL A   1      35.306  31.958  27.698  1.00  0.00     0.014 A 
ATOM     32  C   UNL A   1      34.673  29.633  28.001  1.00  0.00     0.014 A 
ATOM     33  C   UNL A   1      36.489  31.722  28.399  1.00  0.00     0.010 A 
ATOM     34  C   UNL A   1      35.824  29.416  28.749  1.00  0.00     0.010 A 
ATOM     35  C   UNL A   1      36.738  30.460  28.962  1.00  0.00    -0.014 A 
BRANCH  35  36
ATOM     36  C   UNL A   1      37.954  30.195  29.766  1.00  0.00     0.031 A 
ATOM     37  C   UNL A   1      39.041  29.327  29.201  1.00  0.00     0.074 A 
ATOM     38  C   UNL A   1      38.044  30.672  31.022  1.00  0.00     0.049 A 
ATOM     39  N   UNL A   1      40.104  28.842  29.789  1.00  0.00    -0.248 NA
ATOM     40  C   UNL A   1      38.890  28.925  27.794  1.00  0.00     0.031 C 
ATOM     41  C   UNL A   1      37.044  31.512  31.685  1.00  0.00     0.029 A 
ATOM     42  N   UNL A   1      39.021  30.508  31.971  1.00  0.00    -0.354 N 
ATOM     43  C   UNL A   1      40.738  28.060  28.832  1.00  0.00     0.074 A 
ATOM     44  C   UNL A   1      39.917  28.102  27.640  1.00  0.00     0.031 C 
ATOM     45  C   UNL A   1      37.470  31.808  32.924  1.00  0.00     0.029 A 
ATOM     46  C   UNL A   1      38.747  31.144  33.160  1.00  0.00     0.049 A 
ATOM     47  H   UNL A   1      39.839  29.983  31.817  1.00  0.00     0.167 HD
ATOM     48  C   UNL A   1      41.907  27.382  28.934  1.00  0.00     0.034 A 
ATOM     49  C   UNL A   1      39.444  31.176  34.312  1.00  0.00     0.034 A 
ATOM     50  C   UNL A   1      42.725  27.369  30.120  1.00  0.00     0.049 A 
ATOM     51  C   UNL A   1      40.736  30.412  34.406  1.00  0.00     0.074 A 
ATOM     52  C   UNL A   1      43.937  26.734  30.326  1.00  0.00     0.029 A 
ATOM     53  N   UNL A   1      42.418  28.030  31.302  1.00  0.00    -0.354 N 
ATOM     54  N   UNL A   1      41.311  29.653  33.502  1.00  0.00    -0.248 NA
ATOM     55  C   UNL A   1      41.471  30.509  35.673  1.00  0.00     0.031 C 
ATOM     56  C   UNL A   1      44.342  26.977  31.643  1.00  0.00     0.029 A 
ATOM     57  C   UNL A   1      43.411  27.810  32.243  1.00  0.00     0.049 A 
ATOM     58  H   UNL A   1      41.612  28.576  31.450  1.00  0.00     0.167 HD
ATOM     59  C   UNL A   1      42.486  29.192  34.089  1.00  0.00     0.074 A 
ATOM     60  C   UNL A   1      42.540  29.765  35.419  1.00  0.00     0.031 C 
ATOM     61  C   UNL A   1      43.435  28.373  33.571  1.00  0.00     0.034 A 
BRANCH  48  62
ATOM     62  C   UNL A   1      42.345  26.583  27.735  1.00  0.00     0.023 A 
ATOM     63  C   UNL A   1      41.958  25.243  27.565  1.00  0.00     0.031 A 
ATOM     64  C   UNL A   1      43.188  27.156  26.767  1.00  0.00     0.131 A 
ATOM     65  C   UNL A   1      42.466  24.499  26.490  1.00  0.00     0.055 A 
ATOM     66  C   UNL A   1      43.632  26.431  25.659  1.00  0.00     0.041 A 
ATOM     67  F   UNL A   1      43.606  28.425  26.891  1.00  0.00    -0.206 F 
ATOM     68  C   UNL A   1      43.281  25.091  25.522  1.00  0.00     0.022 A 
BRANCH  65  69
ATOM     69  S   UNL A   1      42.135  22.718  26.432  1.00  0.00     0.124 S 
ATOM     70  O   UNL A   1      40.700  22.679  26.705  1.00  0.00    -0.237 OA
ATOM     71  O   UNL A   1      42.537  22.362  25.077  1.00  0.00    -0.237 OA
ATOM     72  O   UNL A   1      42.981  22.178  27.495  1.00  0.00    -0.744 OA
ENDBRANCH  65  69
ENDBRANCH  48  62
BRANCH  49  73
ATOM     73  C   UNL A   1      38.928  31.952  35.470  1.00  0.00     0.023 A 
ATOM     74  C   UNL A   1      38.281  31.307  36.535  1.00  0.00     0.031 A 
ATOM     75  C   UNL A   1      39.083  33.347  35.532  1.00  0.00     0.131 A 
ATOM     76  C   UNL A   1      37.790  32.061  37.612  1.00  0.00     0.055 A 
ATOM     77  C   UNL A   1      38.620  34.090  36.619  1.00  0.00     0.041 A 
ATOM     78  F   UNL A   1      39.708  34.004  34.542  1.00  0.00    -0.206 F 
ATOM     79  C   UNL A   1      37.965  33.446  37.666  1.00  0.00     0.022 A 
BRANCH  76  80
ATOM     80  S   UNL A   1      36.910  31.204  38.945  1.00  0.00     0.124 S 
ATOM     81  O   UNL A   1      37.831  31.370  40.064  1.00  0.00    -0.237 OA
ATOM     82  O   UNL A   1      35.663  31.957  39.024  1.00  0.00    -0.237 OA
ATOM     83  O   UNL A   1      36.776  29.839  38.442  1.00  0.00    -0.744 OA
ENDBRANCH  76  80
ENDBRANCH  49  73
BRANCH  61  84
ATOM     84  C   UNL A   1      44.628  28.076  34.440  1.00  0.00     0.023 A 
ATOM     85  C   UNL A   1      44.662  26.949  35.278  1.00  0.00     0.031 A 
ATOM     86  C   UNL A   1      45.747  28.925  34.416  1.00  0.00     0.131 A 
ATOM     87  C   UNL A   1      45.783  26.719  36.088  1.00  0.00     0.055 A 
ATOM     88  C   UNL A   1      46.878  28.668  35.191  1.00  0.00     0.041 A 
ATOM     89  F   UNL A   1      45.760  30.014  33.631  1.00  0.00    -0.206 F 
ATOM     90  C   UNL A   1      46.896  27.564  36.040  1.00  0.00     0.022 A 
BRANCH  87  91
ATOM     91  S   UNL A   1      45.751  25.325  37.246  1.00  0.00     0.124 S 
ATOM     92  O   UNL A   1      47.004  25.505  37.972  1.00  0.00    -0.237 OA
ATOM     93  O   UNL A   1      44.531  25.576  38.008  1.00  0.00    -0.237 OA
ATOM     94  O   UNL A   1      45.702  24.154  36.373  1.00  0.00    -0.744 OA
ENDBRANCH  87  91
ENDBRANCH  61  84
ENDBRANCH  35  36
ENDBRANCH  27  30
ENDBRANCH  25  26
ENDBRANCH   1  25
TORSDOF 15
ENDMDL
MODEL 3
REMARK VINA RESULT:     -12.7      2.508      3.452
REMARK SMILES Cc1c(Cl)cc2c(c1C)O[C@@H](C(F)(F)F)C(C(=O)NCCCCNC(=O)c1ccc(-c3c4nc(c(-c5cc(S(=O)(=O)[O-])ccc5F)c5ccc([nH]5)c(-c5cc(S(=O)(=O)[O-])ccc5F)c5nc(c(-c6cc(S(=O)(=O)[O-])ccc6F)c6ccc3[nH]6)C=C5)C=C4)cc1)=C2
REMARK SMILES IDX 22 1 21 2 20 3 19 4 17 5 18 6 16 8 1 9 2 10 3 11 8 12 4 13
REMARK SMILES IDX 5 14 7 15 9 16 6 17 10 18 90 19 11 20 12 21 13 22 14 23
REMARK SMILES IDX 15 24 23 25 24 26 25 27 26 29 27 30 28 31 89 32 29 33 88 34
REMARK SMILES IDX 30 35 31 36 32 37 82 38 33 39 87 40 81 41 83 42 34 43 86 44
REMARK SMILES IDX 80 45 79 46 35 48 67 49 47 50 66 51 48 52 51 53 65 54 84 55
REMARK SMILES IDX 49 56 50 57 64 59 85 60 52 61 36 62 37 63 45 64 38 65 44 66
REMARK SMILES IDX 46 67 43 68 39 69 40 70 41 71 42 72 68 73 69 74 77 75 70 76
REMARK SMILES IDX 76 77 78 78 75 79 71 80 72 81 73 82 74 83 53 84 54 85 62 86
REMARK SMILES IDX 55 87 61 88 63 89 60 90 56 91 57 92 58 93 59 94
REMARK H PARENT 19 7 24 28 83 47 51 58
REMARK Flexibility Score: inf
ROOT
ATOM      1  C   UNL A   1      37.911  20.504  25.110  1.00  0.00     0.023 C 
ENDROOT
BRANCH   1   2
ATOM      2  C   UNL A   1      37.324  21.799  24.541  1.00  0.00     0.023 C 
BRANCH   2   3
ATOM      3  C   UNL A   1      36.839  22.792  25.597  1.00  0.00     0.116 C 
BRANCH   3   4
ATOM      4  N   UNL A   1      35.869  22.187  26.490  1.00  0.00    -0.352 N 
ATOM      5  C   UNL A   1      34.540  22.294  26.718  1.00  0.00     0.251 C 
ATOM      6  O   UNL A   1      34.088  21.514  27.564  1.00  0.00    -0.270 OA
ATOM      7  H   UNL A   1      36.289  21.526  27.087  1.00  0.00     0.163 HD
BRANCH   5   8
ATOM      8  C   UNL A   1      33.618  23.255  26.044  1.00  0.00     0.067 C 
ATOM      9  C   UNL A   1      30.577  28.636  23.837  1.00  0.00     0.046 C 
ATOM     10  C   UNL A   1      31.414  27.534  24.436  1.00  0.00    -0.026 A 
ATOM     11  C   UNL A   1      32.561  27.887  25.186  1.00  0.00     0.045 A 
ATOM     12  C   UNL A   1      31.097  26.161  24.295  1.00  0.00    -0.004 A 
ATOM     13  Cl  UNL A   1      33.038  29.540  25.397  1.00  0.00    -0.084 Cl
ATOM     14  C   UNL A   1      33.360  26.918  25.799  1.00  0.00     0.032 A 
ATOM     15  C   UNL A   1      31.917  25.202  24.930  1.00  0.00     0.131 A 
ATOM     16  C   UNL A   1      29.906  25.648  23.523  1.00  0.00     0.049 C 
ATOM     17  C   UNL A   1      33.034  25.571  25.679  1.00  0.00     0.019 A 
ATOM     18  O   UNL A   1      31.541  23.886  24.826  1.00  0.00    -0.475 OA
ATOM     19  C   UNL A   1      33.825  24.549  26.352  1.00  0.00     0.025 C 
ATOM     20  C   UNL A   1      32.590  22.893  25.010  1.00  0.00     0.314 C 
BRANCH  20  21
ATOM     21  C   UNL A   1      33.188  22.504  23.647  1.00  0.00     0.429 C 
ATOM     22  F   UNL A   1      34.218  23.297  23.281  1.00  0.00    -0.167 F 
ATOM     23  F   UNL A   1      33.663  21.233  23.691  1.00  0.00    -0.167 F 
ATOM     24  F   UNL A   1      32.281  22.554  22.644  1.00  0.00    -0.167 F 
ENDBRANCH  20  21
ENDBRANCH   5   8
ENDBRANCH   3   4
ENDBRANCH   2   3
ENDBRANCH   1   2
BRANCH   1  25
ATOM     25  C   UNL A   1      39.184  20.675  25.933  1.00  0.00     0.116 C 
BRANCH  25  26
ATOM     26  N   UNL A   1      40.034  19.494  25.940  1.00  0.00    -0.352 N 
ATOM     27  C   UNL A   1      41.394  19.431  26.126  1.00  0.00     0.251 C 
ATOM     28  H   UNL A   1      39.578  18.633  25.793  1.00  0.00     0.163 HD
ATOM     29  O   UNL A   1      41.984  18.361  26.017  1.00  0.00    -0.269 OA
BRANCH  27  30
ATOM     30  C   UNL A   1      42.133  20.677  26.409  1.00  0.00     0.039 A 
ATOM     31  C   UNL A   1      42.552  21.469  25.338  1.00  0.00     0.014 A 
ATOM     32  C   UNL A   1      42.349  21.085  27.727  1.00  0.00     0.014 A 
ATOM     33  C   UNL A   1      43.129  22.714  25.591  1.00  0.00     0.010 A 
ATOM     34  C   UNL A   1      42.869  22.351  27.975  1.00  0.00     0.010 A 
ATOM     35  C   UNL A   1      43.256  23.178  26.910  1.00  0.00    -0.014 A 
BRANCH  35  36
ATOM     36  C   UNL A   1      43.805  24.522  27.209  1.00  0.00     0.031 A 
ATOM     37  C   UNL A   1      42.892  25.594  27.734  1.00  0.00     0.074 A 
ATOM     38  C   UNL A   1      45.095  24.796  26.939  1.00  0.00     0.049 A 
ATOM     39  N   UNL A   1      43.127  26.868  27.909  1.00  0.00    -0.248 NA
ATOM     40  C   UNL A   1      41.524  25.177  28.076  1.00  0.00     0.031 C 
ATOM     41  C   UNL A   1      46.072  23.840  26.411  1.00  0.00     0.029 A 
ATOM     42  N   UNL A   1      45.805  25.962  27.063  1.00  0.00    -0.354 N 
ATOM     43  C   UNL A   1      41.930  27.411  28.360  1.00  0.00     0.074 A 
ATOM     44  C   UNL A   1      40.962  26.335  28.389  1.00  0.00     0.031 C 
ATOM     45  C   UNL A   1      47.259  24.454  26.279  1.00  0.00     0.029 A 
ATOM     46  C   UNL A   1      47.118  25.854  26.667  1.00  0.00     0.049 A 
ATOM     47  H   UNL A   1      45.412  26.799  27.401  1.00  0.00     0.167 HD
ATOM     48  C   UNL A   1      41.668  28.689  28.730  1.00  0.00     0.034 A 
ATOM     49  C   UNL A   1      48.092  26.782  26.612  1.00  0.00     0.034 A 
ATOM     50  C   UNL A   1      42.648  29.745  28.717  1.00  0.00     0.049 A 
ATOM     51  C   UNL A   1      47.778  28.195  27.023  1.00  0.00     0.074 A 
ATOM     52  C   UNL A   1      42.497  31.068  29.091  1.00  0.00     0.029 A 
ATOM     53  N   UNL A   1      43.969  29.594  28.314  1.00  0.00    -0.354 N 
ATOM     54  N   UNL A   1      46.635  28.702  27.421  1.00  0.00    -0.248 NA
ATOM     55  C   UNL A   1      48.885  29.159  26.975  1.00  0.00     0.031 C 
ATOM     56  C   UNL A   1      43.713  31.726  28.877  1.00  0.00     0.029 A 
ATOM     57  C   UNL A   1      44.640  30.802  28.422  1.00  0.00     0.049 A 
ATOM     58  H   UNL A   1      44.371  28.752  27.999  1.00  0.00     0.167 HD
ATOM     59  C   UNL A   1      46.888  30.044  27.685  1.00  0.00     0.074 A 
ATOM     60  C   UNL A   1      48.294  30.264  27.410  1.00  0.00     0.031 C 
ATOM     61  C   UNL A   1      46.037  31.005  28.122  1.00  0.00     0.034 A 
BRANCH  48  62
ATOM     62  C   UNL A   1      40.257  29.006  29.152  1.00  0.00     0.023 A 
ATOM     63  C   UNL A   1      39.872  28.978  30.503  1.00  0.00     0.031 A 
ATOM     64  C   UNL A   1      39.277  29.305  28.190  1.00  0.00     0.131 A 
ATOM     65  C   UNL A   1      38.528  29.179  30.851  1.00  0.00     0.055 A 
ATOM     66  C   UNL A   1      37.955  29.576  28.549  1.00  0.00     0.041 A 
ATOM     67  F   UNL A   1      39.586  29.324  26.884  1.00  0.00    -0.206 F 
ATOM     68  C   UNL A   1      37.571  29.502  29.885  1.00  0.00     0.022 A 
BRANCH  65  69
ATOM     69  S   UNL A   1      38.026  28.905  32.570  1.00  0.00     0.124 S 
ATOM     70  O   UNL A   1      38.151  27.454  32.683  1.00  0.00    -0.237 OA
ATOM     71  O   UNL A   1      39.002  29.690  33.317  1.00  0.00    -0.237 OA
ATOM     72  O   UNL A   1      36.656  29.412  32.612  1.00  0.00    -0.744 OA
ENDBRANCH  65  69
ENDBRANCH  48  62
BRANCH  49  73
ATOM     73  C   UNL A   1      49.451  26.406  26.143  1.00  0.00     0.023 A 
ATOM     74  C   UNL A   1      49.943  26.878  24.917  1.00  0.00     0.031 A 
ATOM     75  C   UNL A   1      50.280  25.577  26.919  1.00  0.00     0.131 A 
ATOM     76  C   UNL A   1      51.224  26.499  24.488  1.00  0.00     0.055 A 
ATOM     77  C   UNL A   1      51.565  25.227  26.502  1.00  0.00     0.041 A 
ATOM     78  F   UNL A   1      49.855  25.114  28.105  1.00  0.00    -0.206 F 
ATOM     79  C   UNL A   1      52.042  25.686  25.277  1.00  0.00     0.022 A 
BRANCH  76  80
ATOM     80  S   UNL A   1      51.809  27.080  22.873  1.00  0.00     0.124 S 
ATOM     81  O   UNL A   1      52.170  28.462  23.167  1.00  0.00    -0.237 OA
ATOM     82  O   UNL A   1      52.919  26.171  22.603  1.00  0.00    -0.237 OA
ATOM     83  O   UNL A   1      50.645  26.907  22.007  1.00  0.00    -0.744 OA
ENDBRANCH  76  80
ENDBRANCH  49  73
BRANCH  61  84
ATOM     84  C   UNL A   1      46.615  32.375  28.356  1.00  0.00     0.023 A 
ATOM     85  C   UNL A   1      46.772  33.294  27.305  1.00  0.00     0.031 A 
ATOM     86  C   UNL A   1      46.999  32.767  29.650  1.00  0.00     0.131 A 
ATOM     87  C   UNL A   1      47.334  34.553  27.561  1.00  0.00     0.055 A 
ATOM     88  C   UNL A   1      47.518  34.035  29.906  1.00  0.00     0.041 A 
ATOM     89  F   UNL A   1      46.867  31.922  30.685  1.00  0.00    -0.206 F 
ATOM     90  C   UNL A   1      47.696  34.934  28.857  1.00  0.00     0.022 A 
BRANCH  87  91
ATOM     91  S   UNL A   1      47.636  35.673  26.168  1.00  0.00     0.124 S 
ATOM     92  O   UNL A   1      46.756  36.793  26.485  1.00  0.00    -0.237 OA
ATOM     93  O   UNL A   1      49.067  35.936  26.279  1.00  0.00    -0.237 OA
ATOM     94  O   UNL A   1      47.241  34.885  25.002  1.00  0.00    -0.744 OA
ENDBRANCH  87  91
ENDBRANCH  61  84
ENDBRANCH  35  36
ENDBRANCH  27  30
ENDBRANCH  25  26
ENDBRANCH   1  25
TORSDOF 15
ENDMDL
