MODEL 1
REMARK VINA RESULT:     -11.4      0.000      0.000
REMARK SMILES O=C(CC[C@H]1CCCC[N@@H+]1C[C@@H]1COc2ccccc21)NCCCCNC(=O)c1ccc(-c2c3nc(c(-c4cc(S(=O)(=O)[O-])ccc4F)c4ccc([nH]4)c(-c4cc(S(=O)(=O)[O-])ccc4F)c4nc(c(-c5cc(S(=O)(=O)[O-])ccc5F)c5ccc2[nH]5)C=C4)C=C3)cc1
REMARK SMILES IDX 23 1 22 2 21 3 1 4 2 5 3 7 4 8 5 9 6 10 10 11 7 12 9 13 8 15
REMARK SMILES IDX 11 16 12 17 13 18 20 19 14 20 15 21 19 22 16 23 18 24 17 25
REMARK SMILES IDX 24 26 25 27 26 28 27 29 28 31 29 32 30 33 91 34 31 35 90 36
REMARK SMILES IDX 32 37 33 38 34 39 84 40 35 41 89 42 83 43 85 44 36 45 88 46
REMARK SMILES IDX 82 47 81 48 37 50 69 51 49 52 68 53 50 54 53 55 67 56 86 57
REMARK SMILES IDX 51 58 52 59 66 61 87 62 54 63 38 64 39 65 47 66 40 67 46 68
REMARK SMILES IDX 48 69 45 70 41 71 42 72 43 73 44 74 70 75 71 76 79 77 72 78
REMARK SMILES IDX 78 79 80 80 77 81 73 82 74 83 75 84 76 85 55 86 56 87 64 88
REMARK SMILES IDX 57 89 63 90 65 91 62 92 58 93 59 94 60 95 61 96
REMARK H PARENT 21 6 10 14 26 30 85 49 53 60
REMARK Flexibility Score: inf
ROOT
ATOM      1  C   UNL A   1      31.516  26.899  25.996  1.00  0.00     0.023 C 
ENDROOT
BRANCH   1   2
ATOM      2  C   UNL A   1      30.371  25.946  25.634  1.00  0.00     0.116 C 
BRANCH   2   3
ATOM      3  N   UNL A   1      30.777  24.619  25.221  1.00  0.00    -0.356 N 
ATOM      4  O   UNL A   1      30.351  23.619  27.248  1.00  0.00    -0.275 OA
ATOM      5  C   UNL A   1      30.767  23.545  26.094  1.00  0.00     0.220 C 
ATOM      6  H   UNL A   1      31.069  24.477  24.291  1.00  0.00     0.163 HD
BRANCH   5   7
ATOM      7  C   UNL A   1      31.389  22.274  25.545  1.00  0.00     0.106 C 
BRANCH   7   8
ATOM      8  C   UNL A   1      31.834  22.280  24.082  1.00  0.00     0.075 C 
BRANCH   8   9
ATOM      9  C   UNL A   1      33.335  22.520  23.753  1.00  0.00     0.184 C 
ATOM     10  C   UNL A   1      33.466  23.124  22.330  1.00  0.00     0.065 C 
ATOM     11  N   UNL A   1      34.034  23.276  24.813  1.00  0.00    -0.332 N 
ATOM     12  C   UNL A   1      33.011  24.569  22.297  1.00  0.00     0.012 C 
ATOM     13  C   UNL A   1      34.628  24.523  24.277  1.00  0.00     0.262 C 
ATOM     14  H   UNL A   1      33.306  23.481  25.497  1.00  0.00     0.348 HD
ATOM     15  C   UNL A   1      33.710  25.367  23.383  1.00  0.00     0.062 C 
BRANCH  11  16
ATOM     16  C   UNL A   1      35.104  22.513  25.521  1.00  0.00     0.274 C 
BRANCH  16  17
ATOM     17  C   UNL A   1      36.549  22.376  24.965  1.00  0.00     0.116 C 
ATOM     18  C   UNL A   1      37.074  20.949  24.744  1.00  0.00     0.244 C 
ATOM     19  C   UNL A   1      37.668  22.953  25.753  1.00  0.00     0.006 A 
ATOM     20  O   UNL A   1      38.371  20.781  25.359  1.00  0.00    -0.492 OA
ATOM     21  C   UNL A   1      38.647  21.987  25.940  1.00  0.00     0.123 A 
ATOM     22  C   UNL A   1      37.830  24.225  26.279  1.00  0.00     0.008 A 
ATOM     23  C   UNL A   1      39.773  22.221  26.705  1.00  0.00     0.047 A 
ATOM     24  C   UNL A   1      38.959  24.481  27.067  1.00  0.00     0.001 A 
ATOM     25  C   UNL A   1      39.919  23.479  27.290  1.00  0.00     0.004 A 
ENDBRANCH  16  17
ENDBRANCH  11  16
ENDBRANCH   8   9
ENDBRANCH   7   8
ENDBRANCH   5   7
ENDBRANCH   2   3
ENDBRANCH   1   2
BRANCH   1  26
ATOM     26  C   UNL A   1      31.413  28.359  25.531  1.00  0.00     0.023 C 
BRANCH  26  27
ATOM     27  C   UNL A   1      32.645  29.251  25.717  1.00  0.00     0.116 C 
BRANCH  27  28
ATOM     28  N   UNL A   1      32.341  30.594  26.159  1.00  0.00    -0.352 N 
ATOM     29  C   UNL A   1      33.018  31.432  27.017  1.00  0.00     0.251 C 
ATOM     30  H   UNL A   1      31.513  30.972  25.784  1.00  0.00     0.163 HD
ATOM     31  O   UNL A   1      32.522  32.526  27.267  1.00  0.00    -0.269 OA
BRANCH  29  32
ATOM     32  C   UNL A   1      34.294  31.043  27.683  1.00  0.00     0.039 A 
ATOM     33  C   UNL A   1      35.232  32.056  27.918  1.00  0.00     0.014 A 
ATOM     34  C   UNL A   1      34.629  29.724  28.010  1.00  0.00     0.014 A 
ATOM     35  C   UNL A   1      36.464  31.768  28.519  1.00  0.00     0.010 A 
ATOM     36  C   UNL A   1      35.849  29.440  28.649  1.00  0.00     0.010 A 
ATOM     37  C   UNL A   1      36.778  30.460  28.920  1.00  0.00    -0.014 A 
BRANCH  37  38
ATOM     38  C   UNL A   1      38.055  30.179  29.646  1.00  0.00     0.031 A 
ATOM     39  C   UNL A   1      38.303  30.721  31.030  1.00  0.00     0.074 A 
ATOM     40  C   UNL A   1      39.009  29.436  29.051  1.00  0.00     0.049 A 
ATOM     41  N   UNL A   1      39.363  30.593  31.792  1.00  0.00    -0.248 NA
ATOM     42  C   UNL A   1      37.227  31.520  31.628  1.00  0.00     0.031 C 
ATOM     43  C   UNL A   1      38.910  28.856  27.710  1.00  0.00     0.029 A 
ATOM     44  N   UNL A   1      40.253  29.043  29.489  1.00  0.00    -0.354 N 
ATOM     45  C   UNL A   1      39.083  31.294  32.962  1.00  0.00     0.074 A 
ATOM     46  C   UNL A   1      37.771  31.886  32.782  1.00  0.00     0.031 C 
ATOM     47  C   UNL A   1      40.034  28.173  27.442  1.00  0.00     0.029 A 
ATOM     48  C   UNL A   1      40.956  28.298  28.567  1.00  0.00     0.049 A 
ATOM     49  H   UNL A   1      40.607  29.272  30.378  1.00  0.00     0.167 HD
ATOM     50  C   UNL A   1      39.837  31.420  34.085  1.00  0.00     0.034 A 
ATOM     51  C   UNL A   1      42.203  27.787  28.609  1.00  0.00     0.034 A 
ATOM     52  C   UNL A   1      41.146  30.831  34.259  1.00  0.00     0.049 A 
ATOM     53  C   UNL A   1      43.044  27.983  29.846  1.00  0.00     0.074 A 
ATOM     54  C   UNL A   1      41.969  30.872  35.374  1.00  0.00     0.029 A 
ATOM     55  N   UNL A   1      41.832  30.105  33.295  1.00  0.00    -0.354 N 
ATOM     56  N   UNL A   1      42.745  28.620  30.954  1.00  0.00    -0.248 NA
ATOM     57  C   UNL A   1      44.383  27.379  29.841  1.00  0.00     0.031 C 
ATOM     58  C   UNL A   1      43.175  30.235  35.061  1.00  0.00     0.029 A 
ATOM     59  C   UNL A   1      43.079  29.725  33.776  1.00  0.00     0.049 A 
ATOM     60  H   UNL A   1      41.486  29.890  32.398  1.00  0.00     0.167 HD
ATOM     61  C   UNL A   1      43.852  28.467  31.788  1.00  0.00     0.074 A 
ATOM     62  C   UNL A   1      44.814  27.667  31.061  1.00  0.00     0.031 C 
ATOM     63  C   UNL A   1      44.047  28.941  33.045  1.00  0.00     0.034 A 
BRANCH  50  64
ATOM     64  C   UNL A   1      39.274  32.258  35.211  1.00  0.00     0.023 A 
ATOM     65  C   UNL A   1      38.725  31.671  36.365  1.00  0.00     0.031 A 
ATOM     66  C   UNL A   1      39.275  33.661  35.126  1.00  0.00     0.131 A 
ATOM     67  C   UNL A   1      38.138  32.478  37.351  1.00  0.00     0.055 A 
ATOM     68  C   UNL A   1      38.761  34.463  36.148  1.00  0.00     0.041 A 
ATOM     69  F   UNL A   1      39.771  34.281  34.043  1.00  0.00    -0.206 F 
ATOM     70  C   UNL A   1      38.173  33.871  37.263  1.00  0.00     0.022 A 
BRANCH  67  71
ATOM     71  S   UNL A   1      37.202  31.676  38.682  1.00  0.00     0.124 S 
ATOM     72  O   UNL A   1      35.987  32.487  38.718  1.00  0.00    -0.237 OA
ATOM     73  O   UNL A   1      37.048  30.315  38.183  1.00  0.00    -0.237 OA
ATOM     74  O   UNL A   1      38.072  31.821  39.848  1.00  0.00    -0.744 OA
ENDBRANCH  67  71
ENDBRANCH  50  64
BRANCH  51  75
ATOM     75  C   UNL A   1      42.758  27.062  27.428  1.00  0.00     0.023 A 
ATOM     76  C   UNL A   1      42.871  25.663  27.420  1.00  0.00     0.031 A 
ATOM     77  C   UNL A   1      43.229  27.770  26.308  1.00  0.00     0.131 A 
ATOM     78  C   UNL A   1      43.482  25.018  26.333  1.00  0.00     0.055 A 
ATOM     79  C   UNL A   1      43.786  27.120  25.206  1.00  0.00     0.041 A 
ATOM     80  F   UNL A   1      43.143  29.109  26.264  1.00  0.00    -0.206 F 
ATOM     81  C   UNL A   1      43.928  25.736  25.220  1.00  0.00     0.022 A 
BRANCH  78  82
ATOM     82  S   UNL A   1      43.764  23.230  26.430  1.00  0.00     0.124 S 
ATOM     83  O   UNL A   1      43.223  22.915  27.746  1.00  0.00    -0.237 OA
ATOM     84  O   UNL A   1      43.001  22.741  25.287  1.00  0.00    -0.237 OA
ATOM     85  O   UNL A   1      45.215  23.107  26.305  1.00  0.00    -0.744 OA
ENDBRANCH  78  82
ENDBRANCH  51  75
BRANCH  63  86
ATOM     86  C   UNL A   1      45.342  28.568  33.728  1.00  0.00     0.023 A 
ATOM     87  C   UNL A   1      45.480  27.374  34.459  1.00  0.00     0.031 A 
ATOM     88  C   UNL A   1      46.451  29.432  33.662  1.00  0.00     0.131 A 
ATOM     89  C   UNL A   1      46.679  27.102  35.137  1.00  0.00     0.055 A 
ATOM     90  C   UNL A   1      47.660  29.129  34.291  1.00  0.00     0.041 A 
ATOM     91  F   UNL A   1      46.376  30.587  32.982  1.00  0.00    -0.206 F 
ATOM     92  C   UNL A   1      47.774  27.964  35.044  1.00  0.00     0.022 A 
BRANCH  89  93
ATOM     93  S   UNL A   1      46.761  25.648  36.218  1.00  0.00     0.124 S 
ATOM     94  O   UNL A   1      45.364  25.476  36.605  1.00  0.00    -0.237 OA
ATOM     95  O   UNL A   1      47.305  24.627  35.329  1.00  0.00    -0.237 OA
ATOM     96  O   UNL A   1      47.655  26.069  37.296  1.00  0.00    -0.744 OA
ENDBRANCH  89  93
ENDBRANCH  63  86
ENDBRANCH  37  38
ENDBRANCH  29  32
ENDBRANCH  27  28
ENDBRANCH  26  27
ENDBRANCH   1  26
TORSDOF 18
ENDMDL
MODEL 2
REMARK VINA RESULT:     -11.4      1.907      7.862
REMARK SMILES O=C(CC[C@H]1CCCC[N@@H+]1C[C@@H]1COc2ccccc21)NCCCCNC(=O)c1ccc(-c2c3nc(c(-c4cc(S(=O)(=O)[O-])ccc4F)c4ccc([nH]4)c(-c4cc(S(=O)(=O)[O-])ccc4F)c4nc(c(-c5cc(S(=O)(=O)[O-])ccc5F)c5ccc2[nH]5)C=C4)C=C3)cc1
REMARK SMILES IDX 23 1 22 2 21 3 1 4 2 5 3 7 4 8 5 9 6 10 10 11 7 12 9 13 8 15
REMARK SMILES IDX 11 16 12 17 13 18 20 19 14 20 15 21 19 22 16 23 18 24 17 25
REMARK SMILES IDX 24 26 25 27 26 28 27 29 28 31 29 32 30 33 91 34 31 35 90 36
REMARK SMILES IDX 32 37 33 38 34 39 84 40 35 41 89 42 83 43 85 44 36 45 88 46
REMARK SMILES IDX 82 47 81 48 37 50 69 51 49 52 68 53 50 54 53 55 67 56 86 57
REMARK SMILES IDX 51 58 52 59 66 61 87 62 54 63 38 64 39 65 47 66 40 67 46 68
REMARK SMILES IDX 48 69 45 70 41 71 42 72 43 73 44 74 70 75 71 76 79 77 72 78
REMARK SMILES IDX 78 79 80 80 77 81 73 82 74 83 75 84 76 85 55 86 56 87 64 88
REMARK SMILES IDX 57 89 63 90 65 91 62 92 58 93 59 94 60 95 61 96
REMARK H PARENT 21 6 10 14 26 30 85 49 53 60
REMARK Flexibility Score: inf
ROOT
ATOM      1  C   UNL A   1      31.497  30.188  26.102  1.00  0.00     0.023 C 
ENDROOT
BRANCH   1   2
ATOM      2  C   UNL A   1      32.000  29.204  27.163  1.00  0.00     0.116 C 
BRANCH   2   3
ATOM      3  N   UNL A   1      32.077  27.821  26.739  1.00  0.00    -0.356 N 
ATOM      4  O   UNL A   1      34.336  27.849  26.308  1.00  0.00    -0.275 OA
ATOM      5  C   UNL A   1      33.261  27.254  26.302  1.00  0.00     0.220 C 
ATOM      6  H   UNL A   1      31.262  27.268  26.763  1.00  0.00     0.163 HD
BRANCH   5   7
ATOM      7  C   UNL A   1      33.122  25.854  25.731  1.00  0.00     0.106 C 
BRANCH   7   8
ATOM      8  C   UNL A   1      31.708  25.304  25.546  1.00  0.00     0.075 C 
BRANCH   8   9
ATOM      9  C   UNL A   1      31.160  25.107  24.104  1.00  0.00     0.184 C 
ATOM     10  C   UNL A   1      29.891  25.976  23.906  1.00  0.00     0.065 C 
ATOM     11  N   UNL A   1      32.201  25.287  23.071  1.00  0.00    -0.332 N 
ATOM     12  C   UNL A   1      30.238  27.447  23.798  1.00  0.00     0.012 C 
ATOM     13  C   UNL A   1      31.829  26.359  22.118  1.00  0.00     0.262 C 
ATOM     14  H   UNL A   1      33.036  25.540  23.599  1.00  0.00     0.348 HD
ATOM     15  C   UNL A   1      31.314  27.660  22.748  1.00  0.00     0.062 C 
BRANCH  11  16
ATOM     16  C   UNL A   1      32.526  24.057  22.291  1.00  0.00     0.274 C 
BRANCH  16  17
ATOM     17  C   UNL A   1      33.131  22.782  22.943  1.00  0.00     0.116 C 
ATOM     18  C   UNL A   1      32.168  21.892  23.743  1.00  0.00     0.244 C 
ATOM     19  C   UNL A   1      34.228  22.944  23.930  1.00  0.00     0.006 A 
ATOM     20  O   UNL A   1      32.712  21.598  25.051  1.00  0.00    -0.492 OA
ATOM     21  C   UNL A   1      33.909  22.256  25.093  1.00  0.00     0.123 A 
ATOM     22  C   UNL A   1      35.421  23.644  23.836  1.00  0.00     0.008 A 
ATOM     23  C   UNL A   1      34.715  22.294  26.214  1.00  0.00     0.047 A 
ATOM     24  C   UNL A   1      36.248  23.704  24.964  1.00  0.00     0.001 A 
ATOM     25  C   UNL A   1      35.890  23.044  26.152  1.00  0.00     0.004 A 
ENDBRANCH  16  17
ENDBRANCH  11  16
ENDBRANCH   8   9
ENDBRANCH   7   8
ENDBRANCH   5   7
ENDBRANCH   2   3
ENDBRANCH   1   2
BRANCH   1  26
ATOM     26  C   UNL A   1      31.331  31.660  26.506  1.00  0.00     0.023 C 
BRANCH  26  27
ATOM     27  C   UNL A   1      32.605  32.473  26.760  1.00  0.00     0.116 C 
BRANCH  27  28
ATOM     28  N   UNL A   1      32.371  33.762  27.373  1.00  0.00    -0.352 N 
ATOM     29  C   UNL A   1      33.060  34.423  28.366  1.00  0.00     0.251 C 
ATOM     30  H   UNL A   1      31.590  34.248  27.023  1.00  0.00     0.163 HD
ATOM     31  O   UNL A   1      32.628  35.506  28.746  1.00  0.00    -0.269 OA
BRANCH  29  32
ATOM     32  C   UNL A   1      34.273  33.854  29.020  1.00  0.00     0.039 A 
ATOM     33  C   UNL A   1      34.078  32.835  29.962  1.00  0.00     0.014 A 
ATOM     34  C   UNL A   1      35.570  34.332  28.802  1.00  0.00     0.014 A 
ATOM     35  C   UNL A   1      35.165  32.264  30.636  1.00  0.00     0.010 A 
ATOM     36  C   UNL A   1      36.664  33.732  29.450  1.00  0.00     0.010 A 
ATOM     37  C   UNL A   1      36.477  32.685  30.368  1.00  0.00    -0.014 A 
BRANCH  37  38
ATOM     38  C   UNL A   1      37.636  32.004  31.023  1.00  0.00     0.031 A 
ATOM     39  C   UNL A   1      38.443  30.960  30.295  1.00  0.00     0.074 A 
ATOM     40  C   UNL A   1      37.962  32.319  32.292  1.00  0.00     0.049 A 
ATOM     41  N   UNL A   1      39.464  30.255  30.722  1.00  0.00    -0.248 NA
ATOM     42  C   UNL A   1      38.043  30.660  28.915  1.00  0.00     0.031 C 
ATOM     43  C   UNL A   1      37.263  33.303  33.122  1.00  0.00     0.029 A 
ATOM     44  N   UNL A   1      38.960  31.846  33.113  1.00  0.00    -0.354 N 
ATOM     45  C   UNL A   1      39.831  29.429  29.664  1.00  0.00     0.074 A 
ATOM     46  C   UNL A   1      38.887  29.688  28.594  1.00  0.00     0.031 C 
ATOM     47  C   UNL A   1      37.859  33.369  34.323  1.00  0.00     0.029 A 
ATOM     48  C   UNL A   1      38.955  32.405  34.372  1.00  0.00     0.049 A 
ATOM     49  H   UNL A   1      39.617  31.171  32.828  1.00  0.00     0.167 HD
ATOM     50  C   UNL A   1      40.864  28.550  29.584  1.00  0.00     0.034 A 
ATOM     51  C   UNL A   1      39.727  32.164  35.451  1.00  0.00     0.034 A 
ATOM     52  C   UNL A   1      41.801  28.292  30.654  1.00  0.00     0.049 A 
ATOM     53  C   UNL A   1      40.837  31.147  35.356  1.00  0.00     0.074 A 
ATOM     54  C   UNL A   1      42.901  27.449  30.653  1.00  0.00     0.029 A 
ATOM     55  N   UNL A   1      41.747  28.860  31.920  1.00  0.00    -0.354 N 
ATOM     56  N   UNL A   1      41.188  30.402  34.334  1.00  0.00    -0.248 NA
ATOM     57  C   UNL A   1      41.660  30.949  36.556  1.00  0.00     0.031 C 
ATOM     58  C   UNL A   1      43.468  27.453  31.933  1.00  0.00     0.029 A 
ATOM     59  C   UNL A   1      42.771  28.361  32.715  1.00  0.00     0.049 A 
ATOM     60  H   UNL A   1      41.080  29.523  32.213  1.00  0.00     0.167 HD
ATOM     61  C   UNL A   1      42.292  29.668  34.763  1.00  0.00     0.074 A 
ATOM     62  C   UNL A   1      42.557  30.071  36.127  1.00  0.00     0.031 C 
ATOM     63  C   UNL A   1      43.025  28.749  34.083  1.00  0.00     0.034 A 
BRANCH  50  64
ATOM     64  C   UNL A   1      41.018  27.774  28.295  1.00  0.00     0.023 A 
ATOM     65  C   UNL A   1      40.683  26.410  28.210  1.00  0.00     0.031 A 
ATOM     66  C   UNL A   1      41.516  28.400  27.139  1.00  0.00     0.131 A 
ATOM     67  C   UNL A   1      40.918  25.704  27.020  1.00  0.00     0.055 A 
ATOM     68  C   UNL A   1      41.672  27.710  25.935  1.00  0.00     0.041 A 
ATOM     69  F   UNL A   1      41.868  29.696  27.160  1.00  0.00    -0.206 F 
ATOM     70  C   UNL A   1      41.387  26.349  25.875  1.00  0.00     0.022 A 
BRANCH  67  71
ATOM     71  S   UNL A   1      40.734  23.899  27.035  1.00  0.00     0.124 S 
ATOM     72  O   UNL A   1      39.294  23.748  26.839  1.00  0.00    -0.237 OA
ATOM     73  O   UNL A   1      41.578  23.488  25.920  1.00  0.00    -0.237 OA
ATOM     74  O   UNL A   1      41.218  23.517  28.360  1.00  0.00    -0.744 OA
ENDBRANCH  67  71
ENDBRANCH  50  64
BRANCH  51  75
ATOM     75  C   UNL A   1      39.465  32.875  36.736  1.00  0.00     0.023 A 
ATOM     76  C   UNL A   1      38.599  32.338  37.702  1.00  0.00     0.031 A 
ATOM     77  C   UNL A   1      40.044  34.131  36.994  1.00  0.00     0.131 A 
ATOM     78  C   UNL A   1      38.300  33.074  38.859  1.00  0.00     0.055 A 
ATOM     79  C   UNL A   1      39.787  34.834  38.171  1.00  0.00     0.041 A 
ATOM     80  F   UNL A   1      40.881  34.689  36.105  1.00  0.00    -0.206 F 
ATOM     81  C   UNL A   1      38.899  34.312  39.107  1.00  0.00     0.022 A 
BRANCH  78  82
ATOM     82  S   UNL A   1      37.049  32.429  40.002  1.00  0.00     0.124 S 
ATOM     83  O   UNL A   1      37.121  33.391  41.095  1.00  0.00    -0.237 OA
ATOM     84  O   UNL A   1      35.841  32.474  39.185  1.00  0.00    -0.237 OA
ATOM     85  O   UNL A   1      37.536  31.087  40.317  1.00  0.00    -0.744 OA
ENDBRANCH  78  82
ENDBRANCH  51  75
BRANCH  63  86
ATOM     86  C   UNL A   1      44.211  28.147  34.799  1.00  0.00     0.023 A 
ATOM     87  C   UNL A   1      44.114  26.940  35.515  1.00  0.00     0.031 A 
ATOM     88  C   UNL A   1      45.456  28.803  34.779  1.00  0.00     0.131 A 
ATOM     89  C   UNL A   1      45.224  26.455  36.225  1.00  0.00     0.055 A 
ATOM     90  C   UNL A   1      46.572  28.286  35.439  1.00  0.00     0.041 A 
ATOM     91  F   UNL A   1      45.607  29.960  34.115  1.00  0.00    -0.206 F 
ATOM     92  C   UNL A   1      46.456  27.112  36.178  1.00  0.00     0.022 A 
BRANCH  89  93
ATOM     93  S   UNL A   1      45.014  24.999  37.285  1.00  0.00     0.124 S 
ATOM     94  O   UNL A   1      43.953  25.431  38.190  1.00  0.00    -0.237 OA
ATOM     95  O   UNL A   1      44.650  23.962  36.326  1.00  0.00    -0.237 OA
ATOM     96  O   UNL A   1      46.328  24.832  37.905  1.00  0.00    -0.744 OA
ENDBRANCH  89  93
ENDBRANCH  63  86
ENDBRANCH  37  38
ENDBRANCH  29  32
ENDBRANCH  27  28
ENDBRANCH  26  27
ENDBRANCH   1  26
TORSDOF 18
ENDMDL
MODEL 3
REMARK VINA RESULT:     -11.3      1.963      3.838
REMARK SMILES O=C(CC[C@H]1CCCC[N@@H+]1C[C@@H]1COc2ccccc21)NCCCCNC(=O)c1ccc(-c2c3nc(c(-c4cc(S(=O)(=O)[O-])ccc4F)c4ccc([nH]4)c(-c4cc(S(=O)(=O)[O-])ccc4F)c4nc(c(-c5cc(S(=O)(=O)[O-])ccc5F)c5ccc2[nH]5)C=C4)C=C3)cc1
REMARK SMILES IDX 23 1 22 2 21 3 1 4 2 5 3 7 4 8 5 9 6 10 10 11 7 12 9 13 8 15
REMARK SMILES IDX 11 16 12 17 13 18 20 19 14 20 15 21 19 22 16 23 18 24 17 25
REMARK SMILES IDX 24 26 25 27 26 28 27 29 28 31 29 32 30 33 91 34 31 35 90 36
REMARK SMILES IDX 32 37 33 38 34 39 84 40 35 41 89 42 83 43 85 44 36 45 88 46
REMARK SMILES IDX 82 47 81 48 37 50 69 51 49 52 68 53 50 54 53 55 67 56 86 57
REMARK SMILES IDX 51 58 52 59 66 61 87 62 54 63 38 64 39 65 47 66 40 67 46 68
REMARK SMILES IDX 48 69 45 70 41 71 42 72 43 73 44 74 70 75 71 76 79 77 72 78
REMARK SMILES IDX 78 79 80 80 77 81 73 82 74 83 75 84 76 85 55 86 56 87 64 88
REMARK SMILES IDX 57 89 63 90 65 91 62 92 58 93 59 94 60 95 61 96
REMARK H PARENT 21 6 10 14 26 30 85 49 53 60
REMARK Flexibility Score: inf
ROOT
ATOM      1  C   UNL A   1      31.473  30.578  26.131  1.00  0.00     0.023 C 
ENDROOT
BRANCH   1   2
ATOM      2  C   UNL A   1      32.533  29.707  26.815  1.00  0.00     0.116 C 
BRANCH   2   3
ATOM      3  N   UNL A   1      32.652  28.358  26.303  1.00  0.00    -0.356 N 
ATOM      4  O   UNL A   1      31.044  27.458  27.680  1.00  0.00    -0.275 OA
ATOM      5  C   UNL A   1      31.904  27.312  26.815  1.00  0.00     0.220 C 
ATOM      6  H   UNL A   1      33.282  28.180  25.568  1.00  0.00     0.163 HD
BRANCH   5   7
ATOM      7  C   UNL A   1      32.282  25.941  26.283  1.00  0.00     0.106 C 
BRANCH   7   8
ATOM      8  C   UNL A   1      33.720  25.742  25.803  1.00  0.00     0.075 C 
BRANCH   8   9
ATOM      9  C   UNL A   1      34.091  24.425  25.063  1.00  0.00     0.184 C 
ATOM     10  C   UNL A   1      35.132  23.634  25.896  1.00  0.00     0.065 C 
ATOM     11  N   UNL A   1      32.901  23.647  24.659  1.00  0.00    -0.332 N 
ATOM     12  C   UNL A   1      34.501  23.012  27.125  1.00  0.00     0.012 C 
ATOM     13  C   UNL A   1      32.928  22.286  25.245  1.00  0.00     0.262 C 
ATOM     14  H   UNL A   1      32.114  24.187  25.020  1.00  0.00     0.348 HD
ATOM     15  C   UNL A   1      33.269  22.212  26.739  1.00  0.00     0.062 C 
BRANCH  11  16
ATOM     16  C   UNL A   1      32.710  23.519  23.184  1.00  0.00     0.274 C 
BRANCH  16  17
ATOM     17  C   UNL A   1      32.203  24.691  22.296  1.00  0.00     0.116 C 
ATOM     18  C   UNL A   1      33.259  25.694  21.807  1.00  0.00     0.244 C 
ATOM     19  C   UNL A   1      31.192  25.620  22.860  1.00  0.00     0.006 A 
ATOM     20  O   UNL A   1      32.840  27.051  22.083  1.00  0.00    -0.492 OA
ATOM     21  C   UNL A   1      31.632  26.928  22.710  1.00  0.00     0.123 A 
ATOM     22  C   UNL A   1      29.975  25.357  23.469  1.00  0.00     0.008 A 
ATOM     23  C   UNL A   1      30.926  28.003  23.214  1.00  0.00     0.047 A 
ATOM     24  C   UNL A   1      29.248  26.430  23.996  1.00  0.00     0.001 A 
ATOM     25  C   UNL A   1      29.728  27.746  23.881  1.00  0.00     0.004 A 
ENDBRANCH  16  17
ENDBRANCH  11  16
ENDBRANCH   8   9
ENDBRANCH   7   8
ENDBRANCH   5   7
ENDBRANCH   2   3
ENDBRANCH   1   2
BRANCH   1  26
ATOM     26  C   UNL A   1      31.391  32.059  26.528  1.00  0.00     0.023 C 
BRANCH  26  27
ATOM     27  C   UNL A   1      32.692  32.753  26.948  1.00  0.00     0.116 C 
BRANCH  27  28
ATOM     28  N   UNL A   1      32.494  33.981  27.685  1.00  0.00    -0.352 N 
ATOM     29  C   UNL A   1      33.230  34.545  28.704  1.00  0.00     0.251 C 
ATOM     30  H   UNL A   1      31.704  34.501  27.414  1.00  0.00     0.163 HD
ATOM     31  O   UNL A   1      32.823  35.591  29.199  1.00  0.00    -0.269 OA
BRANCH  29  32
ATOM     32  C   UNL A   1      34.464  33.912  29.252  1.00  0.00     0.039 A 
ATOM     33  C   UNL A   1      34.301  32.947  30.254  1.00  0.00     0.014 A 
ATOM     34  C   UNL A   1      35.759  34.285  28.878  1.00  0.00     0.014 A 
ATOM     35  C   UNL A   1      35.412  32.322  30.835  1.00  0.00     0.010 A 
ATOM     36  C   UNL A   1      36.873  33.630  29.434  1.00  0.00     0.010 A 
ATOM     37  C   UNL A   1      36.713  32.634  30.412  1.00  0.00    -0.014 A 
BRANCH  37  38
ATOM     38  C   UNL A   1      37.886  31.894  30.971  1.00  0.00     0.031 A 
ATOM     39  C   UNL A   1      38.444  32.225  32.331  1.00  0.00     0.074 A 
ATOM     40  C   UNL A   1      38.466  30.918  30.243  1.00  0.00     0.049 A 
ATOM     41  N   UNL A   1      39.469  31.698  32.957  1.00  0.00    -0.248 NA
ATOM     42  C   UNL A   1      37.770  33.294  33.078  1.00  0.00     0.031 C 
ATOM     43  C   UNL A   1      38.039  30.499  28.906  1.00  0.00     0.029 A 
ATOM     44  N   UNL A   1      39.540  30.103  30.517  1.00  0.00    -0.354 N 
ATOM     45  C   UNL A   1      39.564  32.369  34.173  1.00  0.00     0.074 A 
ATOM     46  C   UNL A   1      38.521  33.375  34.169  1.00  0.00     0.031 C 
ATOM     47  C   UNL A   1      38.831  29.500  28.485  1.00  0.00     0.029 A 
ATOM     48  C   UNL A   1      39.850  29.233  29.496  1.00  0.00     0.049 A 
ATOM     49  H   UNL A   1      40.040  30.138  31.364  1.00  0.00     0.167 HD
ATOM     50  C   UNL A   1      40.427  32.157  35.201  1.00  0.00     0.034 A 
ATOM     51  C   UNL A   1      40.848  28.333  29.372  1.00  0.00     0.034 A 
ATOM     52  C   UNL A   1      41.469  31.154  35.199  1.00  0.00     0.049 A 
ATOM     53  C   UNL A   1      41.826  28.150  30.505  1.00  0.00     0.074 A 
ATOM     54  C   UNL A   1      42.366  30.841  36.208  1.00  0.00     0.029 A 
ATOM     55  N   UNL A   1      41.766  30.310  34.138  1.00  0.00    -0.354 N 
ATOM     56  N   UNL A   1      41.877  28.771  31.660  1.00  0.00    -0.248 NA
ATOM     57  C   UNL A   1      42.873  27.136  30.321  1.00  0.00     0.031 C 
ATOM     58  C   UNL A   1      43.246  29.861  35.733  1.00  0.00     0.029 A 
ATOM     59  C   UNL A   1      42.851  29.503  34.455  1.00  0.00     0.049 A 
ATOM     60  H   UNL A   1      41.278  30.286  33.282  1.00  0.00     0.167 HD
ATOM     61  C   UNL A   1      42.944  28.201  32.350  1.00  0.00     0.074 A 
ATOM     62  C   UNL A   1      43.498  27.178  31.489  1.00  0.00     0.031 C 
ATOM     63  C   UNL A   1      43.416  28.494  33.589  1.00  0.00     0.034 A 
BRANCH  50  64
ATOM     64  C   UNL A   1      40.300  33.055  36.412  1.00  0.00     0.023 A 
ATOM     65  C   UNL A   1      39.545  32.676  37.536  1.00  0.00     0.031 A 
ATOM     66  C   UNL A   1      40.933  34.310  36.439  1.00  0.00     0.131 A 
ATOM     67  C   UNL A   1      39.383  33.569  38.606  1.00  0.00     0.055 A 
ATOM     68  C   UNL A   1      40.833  35.163  37.541  1.00  0.00     0.041 A 
ATOM     69  F   UNL A   1      41.655  34.736  35.391  1.00  0.00    -0.206 F 
ATOM     70  C   UNL A   1      40.041  34.800  38.627  1.00  0.00     0.022 A 
BRANCH  67  71
ATOM     71  S   UNL A   1      38.185  33.157  39.904  1.00  0.00     0.124 S 
ATOM     72  O   UNL A   1      38.851  32.045  40.577  1.00  0.00    -0.237 OA
ATOM     73  O   UNL A   1      38.097  34.402  40.658  1.00  0.00    -0.237 OA
ATOM     74  O   UNL A   1      36.983  32.792  39.156  1.00  0.00    -0.744 OA
ENDBRANCH  67  71
ENDBRANCH  50  64
BRANCH  51  75
ATOM     75  C   UNL A   1      40.999  27.549  28.112  1.00  0.00     0.023 A 
ATOM     76  C   UNL A   1      40.706  26.176  28.068  1.00  0.00     0.031 A 
ATOM     77  C   UNL A   1      41.489  28.157  26.942  1.00  0.00     0.131 A 
ATOM     78  C   UNL A   1      40.948  25.447  26.893  1.00  0.00     0.055 A 
ATOM     79  C   UNL A   1      41.677  27.439  25.760  1.00  0.00     0.041 A 
ATOM     80  F   UNL A   1      41.784  29.467  26.929  1.00  0.00    -0.206 F 
ATOM     81  C   UNL A   1      41.418  26.072  25.735  1.00  0.00     0.022 A 
BRANCH  78  82
ATOM     82  S   UNL A   1      40.719  23.649  26.923  1.00  0.00     0.124 S 
ATOM     83  O   UNL A   1      41.105  23.323  28.290  1.00  0.00    -0.237 OA
ATOM     84  O   UNL A   1      39.301  23.520  26.607  1.00  0.00    -0.237 OA
ATOM     85  O   UNL A   1      41.631  23.173  25.886  1.00  0.00    -0.744 OA
ENDBRANCH  78  82
ENDBRANCH  51  75
BRANCH  63  86
ATOM     86  C   UNL A   1      44.570  27.664  34.101  1.00  0.00     0.023 A 
ATOM     87  C   UNL A   1      44.368  26.516  34.888  1.00  0.00     0.031 A 
ATOM     88  C   UNL A   1      45.894  28.039  33.810  1.00  0.00     0.131 A 
ATOM     89  C   UNL A   1      45.471  25.815  35.402  1.00  0.00     0.055 A 
ATOM     90  C   UNL A   1      46.987  27.306  34.276  1.00  0.00     0.041 A 
ATOM     91  F   UNL A   1      46.148  29.128  33.067  1.00  0.00    -0.206 F 
ATOM     92  C   UNL A   1      46.779  26.194  35.087  1.00  0.00     0.022 A 
BRANCH  89  93
ATOM     93  S   UNL A   1      45.178  24.452  36.562  1.00  0.00     0.124 S 
ATOM     94  O   UNL A   1      43.849  24.768  37.073  1.00  0.00    -0.237 OA
ATOM     95  O   UNL A   1      45.267  23.280  35.697  1.00  0.00    -0.237 OA
ATOM     96  O   UNL A   1      46.264  24.586  37.532  1.00  0.00    -0.744 OA
ENDBRANCH  89  93
ENDBRANCH  63  86
ENDBRANCH  37  38
ENDBRANCH  29  32
ENDBRANCH  27  28
ENDBRANCH  26  27
ENDBRANCH   1  26
TORSDOF 18
ENDMDL
