MODEL 1
REMARK VINA RESULT:     -10.1      0.000      0.000
REMARK SMILES O=C(Cc1ccc(NC(=O)C2CCCC2)cc1)NCCCCNC(=O)c1ccc(-c2c3nc(c(-c4cc(S(=O)(=O)[O-])ccc4F)c4ccc([nH]4)c(-c4cc(S(=O)(=O)[O-])ccc4F)c4nc(c(-c5cc(S(=O)(=O)[O-])ccc5F)c5ccc2[nH]5)C=C4)C=C3)cc1
REMARK SMILES IDX 20 1 19 2 18 3 1 4 2 5 3 7 4 8 5 9 17 10 6 11 16 12 7 13
REMARK SMILES IDX 8 14 9 15 10 17 11 18 12 19 15 20 13 21 14 22 21 23 22 24
REMARK SMILES IDX 23 25 24 26 25 28 26 29 27 30 88 31 28 32 87 33 29 34 30 35
REMARK SMILES IDX 31 36 81 37 32 38 86 39 80 40 82 41 33 42 85 43 79 44 78 45
REMARK SMILES IDX 34 47 66 48 46 49 65 50 47 51 50 52 64 53 83 54 48 55 49 56
REMARK SMILES IDX 63 58 84 59 51 60 35 61 36 62 44 63 37 64 43 65 45 66 42 67
REMARK SMILES IDX 38 68 39 69 40 70 41 71 67 72 68 73 76 74 69 75 75 76 77 77
REMARK SMILES IDX 74 78 70 79 71 80 72 81 73 82 52 83 53 84 61 85 54 86 60 87
REMARK SMILES IDX 62 88 59 89 55 90 56 91 57 92 58 93
REMARK H PARENT 18 6 8 16 23 27 82 46 50 57
REMARK Flexibility Score: inf
ROOT
ATOM      1  C   UNL A   1      33.895  35.441  28.066  1.00  0.00     0.023 C 
ENDROOT
BRANCH   1   2
ATOM      2  C   UNL A   1      33.278  36.592  28.856  1.00  0.00     0.116 C 
BRANCH   2   3
ATOM      3  N   UNL A   1      33.805  36.663  30.196  1.00  0.00    -0.356 N 
ATOM      4  O   UNL A   1      31.806  36.453  31.312  1.00  0.00    -0.275 OA
ATOM      5  C   UNL A   1      33.031  36.537  31.328  1.00  0.00     0.224 C 
ATOM      6  H   UNL A   1      34.773  36.811  30.308  1.00  0.00     0.163 HD
BRANCH   5   7
ATOM      7  C   UNL A   1      33.815  36.573  32.627  1.00  0.00     0.135 C 
BRANCH   7   8
ATOM      8  C   UNL A   1      34.635  35.329  32.867  1.00  0.00    -0.039 A 
ATOM      9  C   UNL A   1      36.011  35.328  32.610  1.00  0.00     0.006 A 
ATOM     10  C   UNL A   1      34.028  34.145  33.300  1.00  0.00     0.006 A 
ATOM     11  C   UNL A   1      36.775  34.194  32.870  1.00  0.00     0.026 A 
ATOM     12  C   UNL A   1      34.813  33.039  33.626  1.00  0.00     0.026 A 
ATOM     13  C   UNL A   1      36.204  33.114  33.521  1.00  0.00     0.041 A 
BRANCH  13  14
ATOM     14  N   UNL A   1      36.954  32.106  34.123  1.00  0.00    -0.326 N 
ATOM     15  C   UNL A   1      37.653  32.038  35.287  1.00  0.00     0.227 C 
ATOM     16  H   UNL A   1      36.984  31.274  33.599  1.00  0.00     0.169 HD
ATOM     17  O   UNL A   1      38.210  30.946  35.484  1.00  0.00    -0.274 OA
BRANCH  15  18
ATOM     18  C   UNL A   1      37.799  33.150  36.346  1.00  0.00     0.079 C 
ATOM     19  C   UNL A   1      38.257  32.888  37.779  1.00  0.00     0.013 C 
ATOM     20  C   UNL A   1      38.924  34.098  35.869  1.00  0.00     0.013 C 
ATOM     21  C   UNL A   1      38.768  34.230  38.283  1.00  0.00     0.001 C 
ATOM     22  C   UNL A   1      39.389  34.901  37.078  1.00  0.00     0.001 C 
ENDBRANCH  15  18
ENDBRANCH  13  14
ENDBRANCH   7   8
ENDBRANCH   5   7
ENDBRANCH   2   3
ENDBRANCH   1   2
BRANCH   1  23
ATOM     23  C   UNL A   1      34.923  34.599  28.832  1.00  0.00     0.023 C 
BRANCH  23  24
ATOM     24  C   UNL A   1      34.406  33.287  29.416  1.00  0.00     0.116 C 
BRANCH  24  25
ATOM     25  N   UNL A   1      33.987  32.341  28.395  1.00  0.00    -0.352 N 
ATOM     26  C   UNL A   1      34.640  31.241  27.888  1.00  0.00     0.251 C 
ATOM     27  H   UNL A   1      33.100  32.515  28.006  1.00  0.00     0.163 HD
ATOM     28  O   UNL A   1      34.176  30.667  26.910  1.00  0.00    -0.269 OA
BRANCH  26  29
ATOM     29  C   UNL A   1      35.908  30.770  28.495  1.00  0.00     0.039 A 
ATOM     30  C   UNL A   1      35.865  29.703  29.398  1.00  0.00     0.014 A 
ATOM     31  C   UNL A   1      37.132  31.374  28.193  1.00  0.00     0.014 A 
ATOM     32  C   UNL A   1      37.051  29.197  29.937  1.00  0.00     0.010 A 
ATOM     33  C   UNL A   1      38.319  30.820  28.672  1.00  0.00     0.010 A 
ATOM     34  C   UNL A   1      38.294  29.722  29.545  1.00  0.00    -0.014 A 
BRANCH  34  35
ATOM     35  C   UNL A   1      39.571  29.121  30.024  1.00  0.00     0.031 A 
ATOM     36  C   UNL A   1      40.239  29.641  31.270  1.00  0.00     0.074 A 
ATOM     37  C   UNL A   1      40.158  28.141  29.306  1.00  0.00     0.049 A 
ATOM     38  N   UNL A   1      41.382  29.291  31.802  1.00  0.00    -0.248 NA
ATOM     39  C   UNL A   1      39.542  30.712  31.997  1.00  0.00     0.031 C 
ATOM     40  C   UNL A   1      39.624  27.565  28.070  1.00  0.00     0.029 A 
ATOM     41  N   UNL A   1      41.331  27.456  29.508  1.00  0.00    -0.354 N 
ATOM     42  C   UNL A   1      41.549  30.106  32.917  1.00  0.00     0.074 A 
ATOM     43  C   UNL A   1      40.413  31.003  32.951  1.00  0.00     0.031 C 
ATOM     44  C   UNL A   1      40.443  26.589  27.649  1.00  0.00     0.029 A 
ATOM     45  C   UNL A   1      41.590  26.505  28.547  1.00  0.00     0.049 A 
ATOM     46  H   UNL A   1      41.931  27.629  30.269  1.00  0.00     0.167 HD
ATOM     47  C   UNL A   1      42.547  30.095  33.835  1.00  0.00     0.034 A 
ATOM     48  C   UNL A   1      42.636  25.667  28.397  1.00  0.00     0.034 A 
ATOM     49  C   UNL A   1      43.668  29.185  33.797  1.00  0.00     0.049 A 
ATOM     50  C   UNL A   1      43.755  25.707  29.408  1.00  0.00     0.074 A 
ATOM     51  C   UNL A   1      44.699  29.054  34.710  1.00  0.00     0.029 A 
ATOM     52  N   UNL A   1      43.912  28.260  32.790  1.00  0.00    -0.354 N 
ATOM     53  N   UNL A   1      43.878  26.460  30.475  1.00  0.00    -0.248 NA
ATOM     54  C   UNL A   1      44.872  24.778  29.193  1.00  0.00     0.031 C 
ATOM     55  C   UNL A   1      45.609  28.114  34.215  1.00  0.00     0.029 A 
ATOM     56  C   UNL A   1      45.099  27.586  33.040  1.00  0.00     0.049 A 
ATOM     57  H   UNL A   1      43.328  28.105  32.012  1.00  0.00     0.167 HD
ATOM     58  C   UNL A   1      45.070  26.067  31.081  1.00  0.00     0.074 A 
ATOM     59  C   UNL A   1      45.619  25.005  30.263  1.00  0.00     0.031 C 
ATOM     60  C   UNL A   1      45.650  26.537  32.215  1.00  0.00     0.034 A 
BRANCH  47  61
ATOM     61  C   UNL A   1      42.492  31.121  34.944  1.00  0.00     0.023 A 
ATOM     62  C   UNL A   1      43.036  32.408  34.795  1.00  0.00     0.031 A 
ATOM     63  C   UNL A   1      41.881  30.804  36.171  1.00  0.00     0.131 A 
ATOM     64  C   UNL A   1      43.015  33.307  35.873  1.00  0.00     0.055 A 
ATOM     65  C   UNL A   1      41.790  31.731  37.211  1.00  0.00     0.041 A 
ATOM     66  F   UNL A   1      41.362  29.583  36.382  1.00  0.00    -0.206 F 
ATOM     67  C   UNL A   1      42.371  32.987  37.070  1.00  0.00     0.022 A 
BRANCH  64  68
ATOM     68  S   UNL A   1      43.959  34.849  35.734  1.00  0.00     0.124 S 
ATOM     69  O   UNL A   1      43.526  35.343  34.429  1.00  0.00    -0.237 OA
ATOM     70  O   UNL A   1      43.495  35.607  36.890  1.00  0.00    -0.237 OA
ATOM     71  O   UNL A   1      45.350  34.407  35.794  1.00  0.00    -0.744 OA
ENDBRANCH  64  68
ENDBRANCH  47  61
BRANCH  48  72
ATOM     72  C   UNL A   1      42.686  24.716  27.249  1.00  0.00     0.023 A 
ATOM     73  C   UNL A   1      42.066  23.458  27.329  1.00  0.00     0.031 A 
ATOM     74  C   UNL A   1      43.389  25.028  26.072  1.00  0.00     0.131 A 
ATOM     75  C   UNL A   1      42.198  22.543  26.274  1.00  0.00     0.055 A 
ATOM     76  C   UNL A   1      43.468  24.136  25.001  1.00  0.00     0.041 A 
ATOM     77  F   UNL A   1      44.001  26.216  25.941  1.00  0.00    -0.206 F 
ATOM     78  C   UNL A   1      42.881  22.879  25.104  1.00  0.00     0.022 A 
BRANCH  75  79
ATOM     79  S   UNL A   1      41.533  20.868  26.489  1.00  0.00     0.124 S 
ATOM     80  O   UNL A   1      41.811  20.619  27.899  1.00  0.00    -0.237 OA
ATOM     81  O   UNL A   1      40.130  21.052  26.133  1.00  0.00    -0.237 OA
ATOM     82  O   UNL A   1      42.314  20.070  25.546  1.00  0.00    -0.744 OA
ENDBRANCH  75  79
ENDBRANCH  48  72
BRANCH  60  83
ATOM     83  C   UNL A   1      46.927  25.867  32.666  1.00  0.00     0.023 A 
ATOM     84  C   UNL A   1      46.928  24.828  33.613  1.00  0.00     0.031 A 
ATOM     85  C   UNL A   1      48.165  26.282  32.141  1.00  0.00     0.131 A 
ATOM     86  C   UNL A   1      48.144  24.281  34.049  1.00  0.00     0.055 A 
ATOM     87  C   UNL A   1      49.366  25.685  32.527  1.00  0.00     0.041 A 
ATOM     88  F   UNL A   1      48.227  27.273  31.237  1.00  0.00    -0.206 F 
ATOM     89  C   UNL A   1      49.361  24.688  33.496  1.00  0.00     0.022 A 
BRANCH  86  90
ATOM     90  S   UNL A   1      48.124  23.098  35.425  1.00  0.00     0.124 S 
ATOM     91  O   UNL A   1      49.478  23.227  35.954  1.00  0.00    -0.237 OA
ATOM     92  O   UNL A   1      47.056  23.621  36.271  1.00  0.00    -0.237 OA
ATOM     93  O   UNL A   1      47.832  21.821  34.776  1.00  0.00    -0.744 OA
ENDBRANCH  86  90
ENDBRANCH  60  83
ENDBRANCH  34  35
ENDBRANCH  26  29
ENDBRANCH  24  25
ENDBRANCH  23  24
ENDBRANCH   1  23
TORSDOF 17
ENDMDL
MODEL 2
REMARK VINA RESULT:     -10.0      4.306      7.246
REMARK SMILES O=C(Cc1ccc(NC(=O)C2CCCC2)cc1)NCCCCNC(=O)c1ccc(-c2c3nc(c(-c4cc(S(=O)(=O)[O-])ccc4F)c4ccc([nH]4)c(-c4cc(S(=O)(=O)[O-])ccc4F)c4nc(c(-c5cc(S(=O)(=O)[O-])ccc5F)c5ccc2[nH]5)C=C4)C=C3)cc1
REMARK SMILES IDX 20 1 19 2 18 3 1 4 2 5 3 7 4 8 5 9 17 10 6 11 16 12 7 13
REMARK SMILES IDX 8 14 9 15 10 17 11 18 12 19 15 20 13 21 14 22 21 23 22 24
REMARK SMILES IDX 23 25 24 26 25 28 26 29 27 30 88 31 28 32 87 33 29 34 30 35
REMARK SMILES IDX 31 36 81 37 32 38 86 39 80 40 82 41 33 42 85 43 79 44 78 45
REMARK SMILES IDX 34 47 66 48 46 49 65 50 47 51 50 52 64 53 83 54 48 55 49 56
REMARK SMILES IDX 63 58 84 59 51 60 35 61 36 62 44 63 37 64 43 65 45 66 42 67
REMARK SMILES IDX 38 68 39 69 40 70 41 71 67 72 68 73 76 74 69 75 75 76 77 77
REMARK SMILES IDX 74 78 70 79 71 80 72 81 73 82 52 83 53 84 61 85 54 86 60 87
REMARK SMILES IDX 62 88 59 89 55 90 56 91 57 92 58 93
REMARK H PARENT 18 6 8 16 23 27 82 46 50 57
REMARK Flexibility Score: inf
ROOT
ATOM      1  C   UNL A   1      32.909  29.419  24.899  1.00  0.00     0.023 C 
ENDROOT
BRANCH   1   2
ATOM      2  C   UNL A   1      31.644  29.457  24.048  1.00  0.00     0.116 C 
BRANCH   2   3
ATOM      3  N   UNL A   1      30.769  28.350  24.342  1.00  0.00    -0.356 N 
ATOM      4  O   UNL A   1      30.243  27.803  22.171  1.00  0.00    -0.275 OA
ATOM      5  C   UNL A   1      30.172  27.571  23.375  1.00  0.00     0.224 C 
ATOM      6  H   UNL A   1      30.587  28.139  25.287  1.00  0.00     0.163 HD
BRANCH   5   7
ATOM      7  C   UNL A   1      29.350  26.418  23.921  1.00  0.00     0.135 C 
BRANCH   7   8
ATOM      8  C   UNL A   1      30.184  25.226  24.322  1.00  0.00    -0.039 A 
ATOM      9  C   UNL A   1      30.519  25.016  25.664  1.00  0.00     0.006 A 
ATOM     10  C   UNL A   1      30.677  24.342  23.356  1.00  0.00     0.006 A 
ATOM     11  C   UNL A   1      31.253  23.894  26.039  1.00  0.00     0.026 A 
ATOM     12  C   UNL A   1      31.349  23.184  23.751  1.00  0.00     0.026 A 
ATOM     13  C   UNL A   1      31.527  22.908  25.108  1.00  0.00     0.041 A 
BRANCH  13  14
ATOM     14  N   UNL A   1      31.935  21.623  25.459  1.00  0.00    -0.326 N 
ATOM     15  C   UNL A   1      33.153  21.027  25.548  1.00  0.00     0.227 C 
ATOM     16  H   UNL A   1      31.189  21.024  25.688  1.00  0.00     0.169 HD
ATOM     17  O   UNL A   1      33.114  19.835  25.897  1.00  0.00    -0.274 OA
BRANCH  15  18
ATOM     18  C   UNL A   1      34.525  21.677  25.277  1.00  0.00     0.079 C 
ATOM     19  C   UNL A   1      34.820  22.530  24.046  1.00  0.00     0.013 C 
ATOM     20  C   UNL A   1      34.772  22.717  26.396  1.00  0.00     0.013 C 
ATOM     21  C   UNL A   1      36.026  23.376  24.429  1.00  0.00     0.001 C 
ATOM     22  C   UNL A   1      35.859  23.667  25.904  1.00  0.00     0.001 C 
ENDBRANCH  15  18
ENDBRANCH  13  14
ENDBRANCH   7   8
ENDBRANCH   5   7
ENDBRANCH   2   3
ENDBRANCH   1   2
BRANCH   1  23
ATOM     23  C   UNL A   1      33.002  28.245  25.882  1.00  0.00     0.023 C 
BRANCH  23  24
ATOM     24  C   UNL A   1      33.590  28.569  27.253  1.00  0.00     0.116 C 
BRANCH  24  25
ATOM     25  N   UNL A   1      33.646  29.996  27.519  1.00  0.00    -0.352 N 
ATOM     26  C   UNL A   1      34.640  30.749  28.102  1.00  0.00     0.251 C 
ATOM     27  H   UNL A   1      32.850  30.503  27.240  1.00  0.00     0.163 HD
ATOM     28  O   UNL A   1      34.418  31.922  28.380  1.00  0.00    -0.269 OA
BRANCH  26  29
ATOM     29  C   UNL A   1      35.955  30.145  28.422  1.00  0.00     0.039 A 
ATOM     30  C   UNL A   1      36.982  30.232  27.477  1.00  0.00     0.014 A 
ATOM     31  C   UNL A   1      36.182  29.485  29.633  1.00  0.00     0.014 A 
ATOM     32  C   UNL A   1      38.251  29.728  27.777  1.00  0.00     0.010 A 
ATOM     33  C   UNL A   1      37.466  29.050  29.960  1.00  0.00     0.010 A 
ATOM     34  C   UNL A   1      38.518  29.170  29.038  1.00  0.00    -0.014 A 
BRANCH  34  35
ATOM     35  C   UNL A   1      39.891  28.730  29.413  1.00  0.00     0.031 A 
ATOM     36  C   UNL A   1      40.647  29.436  30.507  1.00  0.00     0.074 A 
ATOM     37  C   UNL A   1      40.479  27.726  28.729  1.00  0.00     0.049 A 
ATOM     38  N   UNL A   1      41.872  29.239  30.925  1.00  0.00    -0.248 NA
ATOM     39  C   UNL A   1      39.943  30.522  31.204  1.00  0.00     0.031 C 
ATOM     40  C   UNL A   1      39.861  26.975  27.634  1.00  0.00     0.029 A 
ATOM     41  N   UNL A   1      41.725  27.162  28.852  1.00  0.00    -0.354 N 
ATOM     42  C   UNL A   1      42.090  30.183  31.924  1.00  0.00     0.074 A 
ATOM     43  C   UNL A   1      40.888  30.985  32.008  1.00  0.00     0.031 C 
ATOM     44  C   UNL A   1      40.713  26.026  27.215  1.00  0.00     0.029 A 
ATOM     45  C   UNL A   1      41.959  26.134  27.967  1.00  0.00     0.049 A 
ATOM     46  H   UNL A   1      42.390  27.465  29.512  1.00  0.00     0.167 HD
ATOM     47  C   UNL A   1      43.184  30.353  32.707  1.00  0.00     0.034 A 
ATOM     48  C   UNL A   1      43.052  25.370  27.773  1.00  0.00     0.034 A 
ATOM     49  C   UNL A   1      44.372  29.536  32.621  1.00  0.00     0.049 A 
ATOM     50  C   UNL A   1      44.272  25.610  28.628  1.00  0.00     0.074 A 
ATOM     51  C   UNL A   1      45.509  29.589  33.407  1.00  0.00     0.029 A 
ATOM     52  N   UNL A   1      44.582  28.527  31.690  1.00  0.00    -0.354 N 
ATOM     53  N   UNL A   1      44.447  26.485  29.590  1.00  0.00    -0.248 NA
ATOM     54  C   UNL A   1      45.438  24.755  28.370  1.00  0.00     0.031 C 
ATOM     55  C   UNL A   1      46.439  28.676  32.900  1.00  0.00     0.029 A 
ATOM     56  C   UNL A   1      45.847  27.982  31.857  1.00  0.00     0.049 A 
ATOM     57  H   UNL A   1      43.930  28.241  31.010  1.00  0.00     0.167 HD
ATOM     58  C   UNL A   1      45.732  26.257  30.079  1.00  0.00     0.074 A 
ATOM     59  C   UNL A   1      46.279  25.158  29.311  1.00  0.00     0.031 C 
ATOM     60  C   UNL A   1      46.394  26.895  31.079  1.00  0.00     0.034 A 
BRANCH  47  61
ATOM     61  C   UNL A   1      43.163  31.488  33.705  1.00  0.00     0.023 A 
ATOM     62  C   UNL A   1      42.635  31.331  34.998  1.00  0.00     0.031 A 
ATOM     63  C   UNL A   1      43.685  32.747  33.357  1.00  0.00     0.131 A 
ATOM     64  C   UNL A   1      42.582  32.429  35.871  1.00  0.00     0.055 A 
ATOM     65  C   UNL A   1      43.704  33.813  34.258  1.00  0.00     0.041 A 
ATOM     66  F   UNL A   1      44.183  32.964  32.129  1.00  0.00    -0.206 F 
ATOM     67  C   UNL A   1      43.138  33.661  35.520  1.00  0.00     0.022 A 
BRANCH  64  68
ATOM     68  S   UNL A   1      41.655  32.260  37.421  1.00  0.00     0.124 S 
ATOM     69  O   UNL A   1      42.391  31.190  38.090  1.00  0.00    -0.237 OA
ATOM     70  O   UNL A   1      41.782  33.588  38.010  1.00  0.00    -0.237 OA
ATOM     71  O   UNL A   1      40.310  31.899  36.979  1.00  0.00    -0.744 OA
ENDBRANCH  64  68
ENDBRANCH  47  61
BRANCH  48  72
ATOM     72  C   UNL A   1      43.057  24.304  26.730  1.00  0.00     0.023 A 
ATOM     73  C   UNL A   1      42.388  23.087  26.941  1.00  0.00     0.031 A 
ATOM     74  C   UNL A   1      43.764  24.465  25.524  1.00  0.00     0.131 A 
ATOM     75  C   UNL A   1      42.477  22.063  25.986  1.00  0.00     0.055 A 
ATOM     76  C   UNL A   1      43.801  23.465  24.552  1.00  0.00     0.041 A 
ATOM     77  F   UNL A   1      44.422  25.608  25.270  1.00  0.00    -0.206 F 
ATOM     78  C   UNL A   1      43.165  22.250  24.785  1.00  0.00     0.022 A 
BRANCH  75  79
ATOM     79  S   UNL A   1      41.748  20.448  26.374  1.00  0.00     0.124 S 
ATOM     80  O   UNL A   1      42.198  20.243  27.746  1.00  0.00    -0.237 OA
ATOM     81  O   UNL A   1      40.323  20.708  26.198  1.00  0.00    -0.237 OA
ATOM     82  O   UNL A   1      42.345  19.559  25.380  1.00  0.00    -0.744 OA
ENDBRANCH  75  79
ENDBRANCH  48  72
BRANCH  60  83
ATOM     83  C   UNL A   1      47.770  26.382  31.433  1.00  0.00     0.023 A 
ATOM     84  C   UNL A   1      48.919  26.789  30.734  1.00  0.00     0.031 A 
ATOM     85  C   UNL A   1      47.931  25.464  32.488  1.00  0.00     0.131 A 
ATOM     86  C   UNL A   1      50.168  26.236  31.058  1.00  0.00     0.055 A 
ATOM     87  C   UNL A   1      49.185  24.971  32.851  1.00  0.00     0.041 A 
ATOM     88  F   UNL A   1      46.869  25.035  33.189  1.00  0.00    -0.206 F 
ATOM     89  C   UNL A   1      50.311  25.346  32.125  1.00  0.00     0.022 A 
BRANCH  86  90
ATOM     90  S   UNL A   1      51.590  26.616  29.998  1.00  0.00     0.124 S 
ATOM     91  O   UNL A   1      52.687  25.988  30.728  1.00  0.00    -0.237 OA
ATOM     92  O   UNL A   1      51.220  25.984  28.737  1.00  0.00    -0.237 OA
ATOM     93  O   UNL A   1      51.620  28.078  29.974  1.00  0.00    -0.744 OA
ENDBRANCH  86  90
ENDBRANCH  60  83
ENDBRANCH  34  35
ENDBRANCH  26  29
ENDBRANCH  24  25
ENDBRANCH  23  24
ENDBRANCH   1  23
TORSDOF 17
ENDMDL
MODEL 3
REMARK VINA RESULT:     -10.0      2.618      3.936
REMARK SMILES O=C(Cc1ccc(NC(=O)C2CCCC2)cc1)NCCCCNC(=O)c1ccc(-c2c3nc(c(-c4cc(S(=O)(=O)[O-])ccc4F)c4ccc([nH]4)c(-c4cc(S(=O)(=O)[O-])ccc4F)c4nc(c(-c5cc(S(=O)(=O)[O-])ccc5F)c5ccc2[nH]5)C=C4)C=C3)cc1
REMARK SMILES IDX 20 1 19 2 18 3 1 4 2 5 3 7 4 8 5 9 17 10 6 11 16 12 7 13
REMARK SMILES IDX 8 14 9 15 10 17 11 18 12 19 15 20 13 21 14 22 21 23 22 24
REMARK SMILES IDX 23 25 24 26 25 28 26 29 27 30 88 31 28 32 87 33 29 34 30 35
REMARK SMILES IDX 31 36 81 37 32 38 86 39 80 40 82 41 33 42 85 43 79 44 78 45
REMARK SMILES IDX 34 47 66 48 46 49 65 50 47 51 50 52 64 53 83 54 48 55 49 56
REMARK SMILES IDX 63 58 84 59 51 60 35 61 36 62 44 63 37 64 43 65 45 66 42 67
REMARK SMILES IDX 38 68 39 69 40 70 41 71 67 72 68 73 76 74 69 75 75 76 77 77
REMARK SMILES IDX 74 78 70 79 71 80 72 81 73 82 52 83 53 84 61 85 54 86 60 87
REMARK SMILES IDX 62 88 59 89 55 90 56 91 57 92 58 93
REMARK H PARENT 18 6 8 16 23 27 82 46 50 57
REMARK Flexibility Score: inf
ROOT
ATOM      1  C   UNL A   1      33.966  35.089  31.056  1.00  0.00     0.023 C 
ENDROOT
BRANCH   1   2
ATOM      2  C   UNL A   1      33.897  34.941  32.573  1.00  0.00     0.116 C 
BRANCH   2   3
ATOM      3  N   UNL A   1      35.186  35.141  33.187  1.00  0.00    -0.356 N 
ATOM      4  O   UNL A   1      35.768  32.925  33.384  1.00  0.00    -0.275 OA
ATOM      5  C   UNL A   1      36.049  34.115  33.501  1.00  0.00     0.224 C 
ATOM      6  H   UNL A   1      35.464  36.063  33.395  1.00  0.00     0.163 HD
BRANCH   5   7
ATOM      7  C   UNL A   1      37.378  34.571  34.075  1.00  0.00     0.135 C 
BRANCH   7   8
ATOM      8  C   UNL A   1      38.506  34.538  33.073  1.00  0.00    -0.039 A 
ATOM      9  C   UNL A   1      39.837  34.560  33.505  1.00  0.00     0.006 A 
ATOM     10  C   UNL A   1      38.242  34.535  31.699  1.00  0.00     0.006 A 
ATOM     11  C   UNL A   1      40.877  34.488  32.582  1.00  0.00     0.026 A 
ATOM     12  C   UNL A   1      39.289  34.389  30.789  1.00  0.00     0.026 A 
ATOM     13  C   UNL A   1      40.599  34.246  31.249  1.00  0.00     0.041 A 
BRANCH  13  14
ATOM     14  N   UNL A   1      41.562  33.816  30.337  1.00  0.00    -0.326 N 
ATOM     15  C   UNL A   1      42.201  34.426  29.305  1.00  0.00     0.227 C 
ATOM     16  H   UNL A   1      41.834  32.879  30.468  1.00  0.00     0.169 HD
ATOM     17  O   UNL A   1      43.010  33.700  28.704  1.00  0.00    -0.274 OA
BRANCH  15  18
ATOM     18  C   UNL A   1      42.027  35.887  28.841  1.00  0.00     0.079 C 
ATOM     19  C   UNL A   1      43.036  36.991  29.148  1.00  0.00     0.013 C 
ATOM     20  C   UNL A   1      42.081  35.890  27.295  1.00  0.00     0.013 C 
ATOM     21  C   UNL A   1      42.778  38.066  28.103  1.00  0.00     0.001 C 
ATOM     22  C   UNL A   1      42.373  37.318  26.851  1.00  0.00     0.001 C 
ENDBRANCH  15  18
ENDBRANCH  13  14
ENDBRANCH   7   8
ENDBRANCH   5   7
ENDBRANCH   2   3
ENDBRANCH   1   2
BRANCH   1  23
ATOM     23  C   UNL A   1      34.347  33.815  30.291  1.00  0.00     0.023 C 
BRANCH  23  24
ATOM     24  C   UNL A   1      34.509  33.970  28.780  1.00  0.00     0.116 C 
BRANCH  24  25
ATOM     25  N   UNL A   1      33.722  33.008  28.028  1.00  0.00    -0.352 N 
ATOM     26  C   UNL A   1      34.028  31.722  27.645  1.00  0.00     0.251 C 
ATOM     27  H   UNL A   1      32.834  33.326  27.748  1.00  0.00     0.163 HD
ATOM     28  O   UNL A   1      33.282  31.133  26.871  1.00  0.00    -0.269 OA
BRANCH  26  29
ATOM     29  C   UNL A   1      35.262  31.062  28.135  1.00  0.00     0.039 A 
ATOM     30  C   UNL A   1      36.496  31.666  27.875  1.00  0.00     0.014 A 
ATOM     31  C   UNL A   1      35.215  29.853  28.835  1.00  0.00     0.014 A 
ATOM     32  C   UNL A   1      37.670  31.099  28.380  1.00  0.00     0.010 A 
ATOM     33  C   UNL A   1      36.378  29.330  29.401  1.00  0.00     0.010 A 
ATOM     34  C   UNL A   1      37.619  29.950  29.186  1.00  0.00    -0.014 A 
BRANCH  34  35
ATOM     35  C   UNL A   1      38.848  29.398  29.822  1.00  0.00     0.031 A 
ATOM     36  C   UNL A   1      39.287  29.882  31.179  1.00  0.00     0.074 A 
ATOM     37  C   UNL A   1      39.599  28.499  29.154  1.00  0.00     0.049 A 
ATOM     38  N   UNL A   1      40.360  29.569  31.860  1.00  0.00    -0.248 NA
ATOM     39  C   UNL A   1      38.419  30.865  31.845  1.00  0.00     0.031 C 
ATOM     40  C   UNL A   1      39.294  27.966  27.824  1.00  0.00     0.029 A 
ATOM     41  N   UNL A   1      40.772  27.873  29.497  1.00  0.00    -0.354 N 
ATOM     42  C   UNL A   1      40.304  30.325  33.027  1.00  0.00     0.074 A 
ATOM     43  C   UNL A   1      39.118  31.149  32.933  1.00  0.00     0.031 C 
ATOM     44  C   UNL A   1      40.230  27.067  27.484  1.00  0.00     0.029 A 
ATOM     45  C   UNL A   1      41.235  26.997  28.541  1.00  0.00     0.049 A 
ATOM     46  H   UNL A   1      41.240  28.035  30.348  1.00  0.00     0.167 HD
ATOM     47  C   UNL A   1      41.153  30.319  34.085  1.00  0.00     0.034 A 
ATOM     48  C   UNL A   1      42.345  26.233  28.509  1.00  0.00     0.034 A 
ATOM     49  C   UNL A   1      42.326  29.480  34.171  1.00  0.00     0.049 A 
ATOM     50  C   UNL A   1      43.296  26.279  29.679  1.00  0.00     0.074 A 
ATOM     51  C   UNL A   1      43.217  29.356  35.223  1.00  0.00     0.029 A 
ATOM     52  N   UNL A   1      42.778  28.632  33.169  1.00  0.00    -0.354 N 
ATOM     53  N   UNL A   1      43.209  26.974  30.789  1.00  0.00    -0.248 NA
ATOM     54  C   UNL A   1      44.493  25.432  29.591  1.00  0.00     0.031 C 
ATOM     55  C   UNL A   1      44.251  28.503  34.826  1.00  0.00     0.029 A 
ATOM     56  C   UNL A   1      43.957  28.016  33.562  1.00  0.00     0.049 A 
ATOM     57  H   UNL A   1      42.328  28.489  32.305  1.00  0.00     0.167 HD
ATOM     58  C   UNL A   1      44.322  26.616  31.548  1.00  0.00     0.074 A 
ATOM     59  C   UNL A   1      45.056  25.639  30.772  1.00  0.00     0.031 C 
ATOM     60  C   UNL A   1      44.694  27.052  32.779  1.00  0.00     0.034 A 
BRANCH  47  61
ATOM     61  C   UNL A   1      40.866  31.271  35.222  1.00  0.00     0.023 A 
ATOM     62  C   UNL A   1      39.733  31.131  36.042  1.00  0.00     0.031 A 
ATOM     63  C   UNL A   1      41.744  32.337  35.492  1.00  0.00     0.131 A 
ATOM     64  C   UNL A   1      39.475  32.074  37.048  1.00  0.00     0.055 A 
ATOM     65  C   UNL A   1      41.525  33.224  36.547  1.00  0.00     0.041 A 
ATOM     66  F   UNL A   1      42.832  32.536  34.730  1.00  0.00    -0.206 F 
ATOM     67  C   UNL A   1      40.377  33.103  37.324  1.00  0.00     0.022 A 
BRANCH  64  68
ATOM     68  S   UNL A   1      37.876  32.016  37.902  1.00  0.00     0.124 S 
ATOM     69  O   UNL A   1      38.264  32.330  39.275  1.00  0.00    -0.237 OA
ATOM     70  O   UNL A   1      37.108  33.041  37.204  1.00  0.00    -0.237 OA
ATOM     71  O   UNL A   1      37.423  30.643  37.689  1.00  0.00    -0.744 OA
ENDBRANCH  64  68
ENDBRANCH  47  61
BRANCH  48  72
ATOM     72  C   UNL A   1      42.628  25.356  27.337  1.00  0.00     0.023 A 
ATOM     73  C   UNL A   1      42.163  24.031  27.300  1.00  0.00     0.031 A 
ATOM     74  C   UNL A   1      43.404  25.810  26.255  1.00  0.00     0.131 A 
ATOM     75  C   UNL A   1      42.513  23.194  26.230  1.00  0.00     0.055 A 
ATOM     76  C   UNL A   1      43.701  24.992  25.165  1.00  0.00     0.041 A 
ATOM     77  F   UNL A   1      43.875  27.068  26.238  1.00  0.00    -0.206 F 
ATOM     78  C   UNL A   1      43.266  23.670  25.154  1.00  0.00     0.022 A 
BRANCH  75  79
ATOM     79  S   UNL A   1      42.042  21.444  26.305  1.00  0.00     0.124 S 
ATOM     80  O   UNL A   1      40.627  21.504  25.955  1.00  0.00    -0.237 OA
ATOM     81  O   UNL A   1      42.926  20.850  25.308  1.00  0.00    -0.237 OA
ATOM     82  O   UNL A   1      42.330  21.075  27.689  1.00  0.00    -0.744 OA
ENDBRANCH  75  79
ENDBRANCH  48  72
BRANCH  60  83
ATOM     83  C   UNL A   1      45.932  26.433  33.385  1.00  0.00     0.023 A 
ATOM     84  C   UNL A   1      45.888  25.218  34.090  1.00  0.00     0.031 A 
ATOM     85  C   UNL A   1      47.177  27.076  33.257  1.00  0.00     0.131 A 
ATOM     86  C   UNL A   1      47.052  24.714  34.691  1.00  0.00     0.055 A 
ATOM     87  C   UNL A   1      48.345  26.535  33.797  1.00  0.00     0.041 A 
ATOM     88  F   UNL A   1      47.280  28.242  32.599  1.00  0.00    -0.206 F 
ATOM     89  C   UNL A   1      48.284  25.354  34.530  1.00  0.00     0.022 A 
BRANCH  86  90
ATOM     90  S   UNL A   1      46.918  23.264  35.772  1.00  0.00     0.124 S 
ATOM     91  O   UNL A   1      47.490  22.211  34.938  1.00  0.00    -0.237 OA
ATOM     92  O   UNL A   1      47.711  23.662  36.930  1.00  0.00    -0.237 OA
ATOM     93  O   UNL A   1      45.481  23.149  36.015  1.00  0.00    -0.744 OA
ENDBRANCH  86  90
ENDBRANCH  60  83
ENDBRANCH  34  35
ENDBRANCH  26  29
ENDBRANCH  24  25
ENDBRANCH  23  24
ENDBRANCH   1  23
TORSDOF 17
ENDMDL
