MODEL 1
REMARK VINA RESULT:     -11.7      0.000      0.000
REMARK SMILES O=C(CCC(=O)Nc1ccc2nc(-c3ccccc3)oc2c1)NCCCCNC(=O)c1ccc(-c2c3nc(c(-c4cc(S(=O)(=O)[O-])ccc4F)c4ccc([nH]4)c(-c4cc(S(=O)(=O)[O-])ccc4F)c4nc(c(-c5cc(S(=O)(=O)[O-])ccc5F)c5ccc2[nH]5)C=C4)C=C3)cc1
REMARK SMILES IDX 25 1 24 2 23 3 1 4 2 5 3 7 4 8 5 9 6 10 7 11 8 13 9 14 22 15
REMARK SMILES IDX 10 16 21 17 11 18 20 19 12 20 13 21 14 22 15 23 19 24 16 25
REMARK SMILES IDX 18 26 17 27 26 28 27 29 28 30 29 31 30 33 31 34 32 35 93 36
REMARK SMILES IDX 33 37 92 38 34 39 35 40 36 41 86 42 37 43 91 44 85 45 87 46
REMARK SMILES IDX 38 47 90 48 84 49 83 50 39 52 71 53 51 54 70 55 52 56 55 57
REMARK SMILES IDX 69 58 88 59 53 60 54 61 68 63 89 64 56 65 40 66 41 67 49 68
REMARK SMILES IDX 42 69 48 70 50 71 47 72 43 73 44 74 45 75 46 76 72 77 73 78
REMARK SMILES IDX 81 79 74 80 80 81 82 82 79 83 75 84 76 85 77 86 78 87 57 88
REMARK SMILES IDX 58 89 66 90 59 91 65 92 67 93 64 94 60 95 61 96 62 97 63 98
REMARK H PARENT 23 6 7 12 28 32 87 51 55 62
REMARK Flexibility Score: inf
ROOT
ATOM      1  C   UNL A   1      32.327  27.259  26.126  1.00  0.00     0.023 C 
ENDROOT
BRANCH   1   2
ATOM      2  C   UNL A   1      32.184  25.773  26.439  1.00  0.00     0.116 C 
BRANCH   2   3
ATOM      3  N   UNL A   1      33.361  24.978  26.132  1.00  0.00    -0.356 N 
ATOM      4  O   UNL A   1      32.699  23.095  27.278  1.00  0.00    -0.275 OA
ATOM      5  C   UNL A   1      33.459  23.651  26.491  1.00  0.00     0.220 C 
ATOM      6  H   UNL A   1      34.111  25.399  25.653  1.00  0.00     0.163 HD
BRANCH   5   7
ATOM      7  C   UNL A   1      34.547  22.879  25.769  1.00  0.00     0.110 C 
BRANCH   7   8
ATOM      8  C   UNL A   1      35.423  23.722  24.842  1.00  0.00     0.110 C 
BRANCH   8   9
ATOM      9  C   UNL A   1      35.401  23.278  23.398  1.00  0.00     0.224 C 
ATOM     10  O   UNL A   1      36.460  22.916  22.873  1.00  0.00    -0.275 OA
ATOM     11  N   UNL A   1      34.292  23.275  22.606  1.00  0.00    -0.326 N 
ATOM     12  H   UNL A   1      34.397  22.711  21.805  1.00  0.00     0.169 HD
BRANCH  11  13
ATOM     13  C   UNL A   1      33.029  23.899  22.673  1.00  0.00     0.045 A 
ATOM     14  C   UNL A   1      31.865  23.269  23.123  1.00  0.00     0.028 A 
ATOM     15  C   UNL A   1      33.003  25.284  22.393  1.00  0.00     0.075 A 
ATOM     16  C   UNL A   1      30.717  23.983  23.485  1.00  0.00     0.034 A 
ATOM     17  C   UNL A   1      31.825  25.958  22.714  1.00  0.00     0.157 A 
ATOM     18  C   UNL A   1      30.722  25.358  23.295  1.00  0.00     0.110 A 
ATOM     19  O   UNL A   1      31.518  27.282  22.531  1.00  0.00    -0.436 OA
ATOM     20  N   UNL A   1      29.763  26.278  23.573  1.00  0.00    -0.209 NA
ATOM     21  C   UNL A   1      30.249  27.384  23.048  1.00  0.00     0.227 A 
BRANCH  21  22
ATOM     22  C   UNL A   1      29.495  28.594  22.793  1.00  0.00     0.037 A 
ATOM     23  C   UNL A   1      28.125  28.639  23.083  1.00  0.00     0.014 A 
ATOM     24  C   UNL A   1      30.071  29.616  22.028  1.00  0.00     0.014 A 
ATOM     25  C   UNL A   1      27.336  29.677  22.587  1.00  0.00     0.001 A 
ATOM     26  C   UNL A   1      29.278  30.642  21.518  1.00  0.00     0.001 A 
ATOM     27  C   UNL A   1      27.910  30.665  21.789  1.00  0.00     0.000 A 
ENDBRANCH  21  22
ENDBRANCH  11  13
ENDBRANCH   8   9
ENDBRANCH   7   8
ENDBRANCH   5   7
ENDBRANCH   2   3
ENDBRANCH   1   2
BRANCH   1  28
ATOM     28  C   UNL A   1      33.399  27.999  26.928  1.00  0.00     0.023 C 
BRANCH  28  29
ATOM     29  C   UNL A   1      34.153  29.090  26.171  1.00  0.00     0.116 C 
BRANCH  29  30
ATOM     30  N   UNL A   1      33.818  30.432  26.626  1.00  0.00    -0.352 N 
ATOM     31  C   UNL A   1      34.397  31.199  27.612  1.00  0.00     0.251 C 
ATOM     32  H   UNL A   1      33.064  30.856  26.156  1.00  0.00     0.163 HD
ATOM     33  O   UNL A   1      33.849  32.244  27.963  1.00  0.00    -0.269 OA
BRANCH  31  34
ATOM     34  C   UNL A   1      35.647  30.761  28.277  1.00  0.00     0.039 A 
ATOM     35  C   UNL A   1      35.572  29.836  29.323  1.00  0.00     0.014 A 
ATOM     36  C   UNL A   1      36.891  31.257  27.881  1.00  0.00     0.014 A 
ATOM     37  C   UNL A   1      36.746  29.340  29.901  1.00  0.00     0.010 A 
ATOM     38  C   UNL A   1      38.061  30.700  28.398  1.00  0.00     0.010 A 
ATOM     39  C   UNL A   1      38.004  29.728  29.408  1.00  0.00    -0.014 A 
BRANCH  39  40
ATOM     40  C   UNL A   1      39.261  29.116  29.925  1.00  0.00     0.031 A 
ATOM     41  C   UNL A   1      39.953  29.695  31.131  1.00  0.00     0.074 A 
ATOM     42  C   UNL A   1      39.818  28.075  29.273  1.00  0.00     0.049 A 
ATOM     43  N   UNL A   1      41.092  29.355  31.678  1.00  0.00    -0.248 NA
ATOM     44  C   UNL A   1      39.285  30.827  31.793  1.00  0.00     0.031 C 
ATOM     45  C   UNL A   1      39.271  27.444  28.069  1.00  0.00     0.029 A 
ATOM     46  N   UNL A   1      40.971  27.369  29.517  1.00  0.00    -0.354 N 
ATOM     47  C   UNL A   1      41.283  30.232  32.741  1.00  0.00     0.074 A 
ATOM     48  C   UNL A   1      40.173  31.161  32.718  1.00  0.00     0.031 C 
ATOM     49  C   UNL A   1      40.071  26.432  27.699  1.00  0.00     0.029 A 
ATOM     50  C   UNL A   1      41.218  26.373  28.599  1.00  0.00     0.049 A 
ATOM     51  H   UNL A   1      41.566  27.557  30.279  1.00  0.00     0.167 HD
ATOM     52  C   UNL A   1      42.276  30.245  33.667  1.00  0.00     0.034 A 
ATOM     53  C   UNL A   1      42.257  25.521  28.480  1.00  0.00     0.034 A 
ATOM     54  C   UNL A   1      43.378  29.311  33.679  1.00  0.00     0.049 A 
ATOM     55  C   UNL A   1      43.374  25.584  29.493  1.00  0.00     0.074 A 
ATOM     56  C   UNL A   1      44.411  29.212  34.594  1.00  0.00     0.029 A 
ATOM     57  N   UNL A   1      43.596  28.322  32.728  1.00  0.00    -0.354 N 
ATOM     58  N   UNL A   1      43.514  26.390  30.520  1.00  0.00    -0.248 NA
ATOM     59  C   UNL A   1      44.468  24.616  29.336  1.00  0.00     0.031 C 
ATOM     60  C   UNL A   1      45.294  28.220  34.156  1.00  0.00     0.029 A 
ATOM     61  C   UNL A   1      44.767  27.634  33.016  1.00  0.00     0.049 A 
ATOM     62  H   UNL A   1      43.008  28.137  31.961  1.00  0.00     0.167 HD
ATOM     63  C   UNL A   1      44.693  26.003  31.150  1.00  0.00     0.074 A 
ATOM     64  C   UNL A   1      45.215  24.881  30.397  1.00  0.00     0.031 C 
ATOM     65  C   UNL A   1      45.287  26.523  32.254  1.00  0.00     0.034 A 
BRANCH  52  66
ATOM     66  C   UNL A   1      42.225  31.322  34.726  1.00  0.00     0.023 A 
ATOM     67  C   UNL A   1      42.843  32.572  34.538  1.00  0.00     0.031 A 
ATOM     68  C   UNL A   1      41.571  31.094  35.950  1.00  0.00     0.131 A 
ATOM     69  C   UNL A   1      42.862  33.510  35.581  1.00  0.00     0.055 A 
ATOM     70  C   UNL A   1      41.516  32.066  36.951  1.00  0.00     0.041 A 
ATOM     71  F   UNL A   1      40.980  29.914  36.200  1.00  0.00    -0.206 F 
ATOM     72  C   UNL A   1      42.178  33.278  36.775  1.00  0.00     0.022 A 
BRANCH  69  73
ATOM     73  S   UNL A   1      43.923  34.971  35.409  1.00  0.00     0.124 S 
ATOM     74  O   UNL A   1      45.038  34.629  36.289  1.00  0.00    -0.237 OA
ATOM     75  O   UNL A   1      44.216  34.983  33.981  1.00  0.00    -0.237 OA
ATOM     76  O   UNL A   1      43.078  36.065  35.884  1.00  0.00    -0.744 OA
ENDBRANCH  69  73
ENDBRANCH  52  66
BRANCH  53  77
ATOM     77  C   UNL A   1      42.311  24.545  27.351  1.00  0.00     0.023 A 
ATOM     78  C   UNL A   1      41.556  23.363  27.374  1.00  0.00     0.031 A 
ATOM     79  C   UNL A   1      43.164  24.759  26.252  1.00  0.00     0.131 A 
ATOM     80  C   UNL A   1      41.703  22.416  26.347  1.00  0.00     0.055 A 
ATOM     81  C   UNL A   1      43.260  23.843  25.202  1.00  0.00     0.041 A 
ATOM     82  F   UNL A   1      43.910  25.872  26.176  1.00  0.00    -0.206 F 
ATOM     83  C   UNL A   1      42.538  22.656  25.254  1.00  0.00     0.022 A 
BRANCH  80  84
ATOM     84  S   UNL A   1      40.863  20.816  26.513  1.00  0.00     0.124 S 
ATOM     85  O   UNL A   1      41.753  19.935  25.765  1.00  0.00    -0.237 OA
ATOM     86  O   UNL A   1      40.844  20.633  27.960  1.00  0.00    -0.237 OA
ATOM     87  O   UNL A   1      39.558  21.054  25.899  1.00  0.00    -0.744 OA
ENDBRANCH  80  84
ENDBRANCH  53  77
BRANCH  65  88
ATOM     88  C   UNL A   1      46.548  25.848  32.744  1.00  0.00     0.023 A 
ATOM     89  C   UNL A   1      46.517  24.799  33.679  1.00  0.00     0.031 A 
ATOM     90  C   UNL A   1      47.804  26.272  32.271  1.00  0.00     0.131 A 
ATOM     91  C   UNL A   1      47.719  24.248  34.153  1.00  0.00     0.055 A 
ATOM     92  C   UNL A   1      48.992  25.675  32.697  1.00  0.00     0.041 A 
ATOM     93  F   UNL A   1      47.897  27.274  31.383  1.00  0.00    -0.206 F 
ATOM     94  C   UNL A   1      48.954  24.666  33.654  1.00  0.00     0.022 A 
BRANCH  91  95
ATOM     95  S   UNL A   1      47.651  23.046  35.511  1.00  0.00     0.124 S 
ATOM     96  O   UNL A   1      48.323  21.889  34.926  1.00  0.00    -0.237 OA
ATOM     97  O   UNL A   1      48.377  23.734  36.573  1.00  0.00    -0.237 OA
ATOM     98  O   UNL A   1      46.219  22.877  35.749  1.00  0.00    -0.744 OA
ENDBRANCH  91  95
ENDBRANCH  65  88
ENDBRANCH  39  40
ENDBRANCH  31  34
ENDBRANCH  29  30
ENDBRANCH  28  29
ENDBRANCH   1  28
TORSDOF 18
ENDMDL
MODEL 2
REMARK VINA RESULT:     -11.7      3.864      9.135
REMARK SMILES O=C(CCC(=O)Nc1ccc2nc(-c3ccccc3)oc2c1)NCCCCNC(=O)c1ccc(-c2c3nc(c(-c4cc(S(=O)(=O)[O-])ccc4F)c4ccc([nH]4)c(-c4cc(S(=O)(=O)[O-])ccc4F)c4nc(c(-c5cc(S(=O)(=O)[O-])ccc5F)c5ccc2[nH]5)C=C4)C=C3)cc1
REMARK SMILES IDX 25 1 24 2 23 3 1 4 2 5 3 7 4 8 5 9 6 10 7 11 8 13 9 14 22 15
REMARK SMILES IDX 10 16 21 17 11 18 20 19 12 20 13 21 14 22 15 23 19 24 16 25
REMARK SMILES IDX 18 26 17 27 26 28 27 29 28 30 29 31 30 33 31 34 32 35 93 36
REMARK SMILES IDX 33 37 92 38 34 39 35 40 36 41 86 42 37 43 91 44 85 45 87 46
REMARK SMILES IDX 38 47 90 48 84 49 83 50 39 52 71 53 51 54 70 55 52 56 55 57
REMARK SMILES IDX 69 58 88 59 53 60 54 61 68 63 89 64 56 65 40 66 41 67 49 68
REMARK SMILES IDX 42 69 48 70 50 71 47 72 43 73 44 74 45 75 46 76 72 77 73 78
REMARK SMILES IDX 81 79 74 80 80 81 82 82 79 83 75 84 76 85 77 86 78 87 57 88
REMARK SMILES IDX 58 89 66 90 59 91 65 92 67 93 64 94 60 95 61 96 62 97 63 98
REMARK H PARENT 23 6 7 12 28 32 87 51 55 62
REMARK Flexibility Score: inf
ROOT
ATOM      1  C   UNL A   1      31.863  30.441  26.340  1.00  0.00     0.023 C 
ENDROOT
BRANCH   1   2
ATOM      2  C   UNL A   1      33.326  30.074  26.121  1.00  0.00     0.116 C 
BRANCH   2   3
ATOM      3  N   UNL A   1      33.572  29.262  24.940  1.00  0.00    -0.356 N 
ATOM      4  O   UNL A   1      33.632  27.238  26.033  1.00  0.00    -0.275 OA
ATOM      5  C   UNL A   1      33.588  27.885  24.992  1.00  0.00     0.220 C 
ATOM      6  H   UNL A   1      33.730  29.709  24.078  1.00  0.00     0.163 HD
BRANCH   5   7
ATOM      7  C   UNL A   1      33.464  27.200  23.645  1.00  0.00     0.110 C 
BRANCH   7   8
ATOM      8  C   UNL A   1      32.130  26.490  23.408  1.00  0.00     0.110 C 
BRANCH   8   9
ATOM      9  C   UNL A   1      32.012  25.831  22.054  1.00  0.00     0.224 C 
ATOM     10  O   UNL A   1      31.236  26.316  21.223  1.00  0.00    -0.275 OA
ATOM     11  N   UNL A   1      32.682  24.704  21.682  1.00  0.00    -0.326 N 
ATOM     12  H   UNL A   1      32.700  24.575  20.706  1.00  0.00     0.169 HD
BRANCH  11  13
ATOM     13  C   UNL A   1      33.355  23.678  22.380  1.00  0.00     0.045 A 
ATOM     14  C   UNL A   1      34.550  23.859  23.081  1.00  0.00     0.028 A 
ATOM     15  C   UNL A   1      32.679  22.440  22.470  1.00  0.00     0.075 A 
ATOM     16  C   UNL A   1      35.018  22.931  24.019  1.00  0.00     0.034 A 
ATOM     17  C   UNL A   1      33.202  21.515  23.373  1.00  0.00     0.157 A 
ATOM     18  C   UNL A   1      34.304  21.752  24.175  1.00  0.00     0.110 A 
ATOM     19  O   UNL A   1      32.768  20.242  23.644  1.00  0.00    -0.436 OA
ATOM     20  N   UNL A   1      34.524  20.706  25.012  1.00  0.00    -0.209 NA
ATOM     21  C   UNL A   1      33.636  19.816  24.621  1.00  0.00     0.227 A 
BRANCH  21  22
ATOM     22  C   UNL A   1      33.643  18.412  24.973  1.00  0.00     0.037 A 
ATOM     23  C   UNL A   1      34.629  17.564  24.451  1.00  0.00     0.014 A 
ATOM     24  C   UNL A   1      32.531  17.859  25.621  1.00  0.00     0.014 A 
ATOM     25  C   UNL A   1      34.487  16.180  24.547  1.00  0.00     0.001 A 
ATOM     26  C   UNL A   1      32.381  16.475  25.699  1.00  0.00     0.001 A 
ATOM     27  C   UNL A   1      33.354  15.638  25.153  1.00  0.00     0.000 A 
ENDBRANCH  21  22
ENDBRANCH  11  13
ENDBRANCH   8   9
ENDBRANCH   7   8
ENDBRANCH   5   7
ENDBRANCH   2   3
ENDBRANCH   1   2
BRANCH   1  28
ATOM     28  C   UNL A   1      31.611  31.858  26.860  1.00  0.00     0.023 C 
BRANCH  28  29
ATOM     29  C   UNL A   1      32.848  32.615  27.338  1.00  0.00     0.116 C 
BRANCH  29  30
ATOM     30  N   UNL A   1      32.573  34.009  27.658  1.00  0.00    -0.352 N 
ATOM     31  C   UNL A   1      33.139  34.823  28.614  1.00  0.00     0.251 C 
ATOM     32  H   UNL A   1      31.876  34.433  27.108  1.00  0.00     0.163 HD
ATOM     33  O   UNL A   1      32.639  35.924  28.842  1.00  0.00    -0.269 OA
BRANCH  31  34
ATOM     34  C   UNL A   1      34.316  34.371  29.393  1.00  0.00     0.039 A 
ATOM     35  C   UNL A   1      34.114  33.736  30.622  1.00  0.00     0.014 A 
ATOM     36  C   UNL A   1      35.616  34.571  28.923  1.00  0.00     0.014 A 
ATOM     37  C   UNL A   1      35.207  33.220  31.328  1.00  0.00     0.010 A 
ATOM     38  C   UNL A   1      36.695  33.982  29.584  1.00  0.00     0.010 A 
ATOM     39  C   UNL A   1      36.504  33.292  30.791  1.00  0.00    -0.014 A 
BRANCH  39  40
ATOM     40  C   UNL A   1      37.661  32.637  31.466  1.00  0.00     0.031 A 
ATOM     41  C   UNL A   1      38.371  31.480  30.813  1.00  0.00     0.074 A 
ATOM     42  C   UNL A   1      38.035  33.042  32.697  1.00  0.00     0.049 A 
ATOM     43  N   UNL A   1      39.340  30.733  31.278  1.00  0.00    -0.248 NA
ATOM     44  C   UNL A   1      37.910  31.098  29.470  1.00  0.00     0.031 C 
ATOM     45  C   UNL A   1      37.406  34.125  33.456  1.00  0.00     0.029 A 
ATOM     46  N   UNL A   1      39.025  32.588  33.534  1.00  0.00    -0.354 N 
ATOM     47  C   UNL A   1      39.600  29.788  30.290  1.00  0.00     0.074 A 
ATOM     48  C   UNL A   1      38.639  30.018  29.231  1.00  0.00     0.031 C 
ATOM     49  C   UNL A   1      38.041  34.267  34.631  1.00  0.00     0.029 A 
ATOM     50  C   UNL A   1      39.083  33.252  34.738  1.00  0.00     0.049 A 
ATOM     51  H   UNL A   1      39.637  31.853  33.294  1.00  0.00     0.167 HD
ATOM     52  C   UNL A   1      40.566  28.836  30.256  1.00  0.00     0.034 A 
ATOM     53  C   UNL A   1      39.872  33.058  35.815  1.00  0.00     0.034 A 
ATOM     54  C   UNL A   1      41.519  28.617  31.320  1.00  0.00     0.049 A 
ATOM     55  C   UNL A   1      40.909  31.963  35.775  1.00  0.00     0.074 A 
ATOM     56  C   UNL A   1      42.562  27.709  31.367  1.00  0.00     0.029 A 
ATOM     57  N   UNL A   1      41.541  29.306  32.526  1.00  0.00    -0.354 N 
ATOM     58  N   UNL A   1      41.172  31.109  34.812  1.00  0.00    -0.248 NA
ATOM     59  C   UNL A   1      41.761  31.811  36.962  1.00  0.00     0.031 C 
ATOM     60  C   UNL A   1      43.163  27.793  32.627  1.00  0.00     0.029 A 
ATOM     61  C   UNL A   1      42.557  28.817  33.336  1.00  0.00     0.049 A 
ATOM     62  H   UNL A   1      40.926  30.034  32.771  1.00  0.00     0.167 HD
ATOM     63  C   UNL A   1      42.242  30.342  35.266  1.00  0.00     0.074 A 
ATOM     64  C   UNL A   1      42.585  30.847  36.579  1.00  0.00     0.031 C 
ATOM     65  C   UNL A   1      42.887  29.319  34.650  1.00  0.00     0.034 A 
BRANCH  52  66
ATOM     66  C   UNL A   1      40.620  27.942  29.038  1.00  0.00     0.023 A 
ATOM     67  C   UNL A   1      41.580  28.130  28.027  1.00  0.00     0.031 A 
ATOM     68  C   UNL A   1      39.690  26.900  28.872  1.00  0.00     0.131 A 
ATOM     69  C   UNL A   1      41.537  27.345  26.864  1.00  0.00     0.055 A 
ATOM     70  C   UNL A   1      39.709  26.064  27.754  1.00  0.00     0.041 A 
ATOM     71  F   UNL A   1      38.736  26.682  29.792  1.00  0.00    -0.206 F 
ATOM     72  C   UNL A   1      40.627  26.295  26.733  1.00  0.00     0.022 A 
BRANCH  69  73
ATOM     73  S   UNL A   1      42.587  27.820  25.464  1.00  0.00     0.124 S 
ATOM     74  O   UNL A   1      42.531  26.618  24.634  1.00  0.00    -0.237 OA
ATOM     75  O   UNL A   1      41.901  28.993  24.937  1.00  0.00    -0.237 OA
ATOM     76  O   UNL A   1      43.886  28.079  26.082  1.00  0.00    -0.744 OA
ENDBRANCH  69  73
ENDBRANCH  52  66
BRANCH  53  77
ATOM     77  C   UNL A   1      39.707  33.902  37.037  1.00  0.00     0.023 A 
ATOM     78  C   UNL A   1      39.061  33.407  38.181  1.00  0.00     0.031 A 
ATOM     79  C   UNL A   1      40.148  35.238  37.057  1.00  0.00     0.131 A 
ATOM     80  C   UNL A   1      38.829  34.254  39.276  1.00  0.00     0.055 A 
ATOM     81  C   UNL A   1      39.971  36.057  38.174  1.00  0.00     0.041 A 
ATOM     82  F   UNL A   1      40.772  35.765  35.992  1.00  0.00    -0.206 F 
ATOM     83  C   UNL A   1      39.294  35.571  39.287  1.00  0.00     0.022 A 
BRANCH  80  84
ATOM     84  S   UNL A   1      37.819  33.639  40.652  1.00  0.00     0.124 S 
ATOM     85  O   UNL A   1      38.708  32.652  41.255  1.00  0.00    -0.237 OA
ATOM     86  O   UNL A   1      37.589  34.854  41.425  1.00  0.00    -0.237 OA
ATOM     87  O   UNL A   1      36.638  33.091  39.988  1.00  0.00    -0.744 OA
ENDBRANCH  80  84
ENDBRANCH  53  77
BRANCH  65  88
ATOM     88  C   UNL A   1      44.065  28.708  35.373  1.00  0.00     0.023 A 
ATOM     89  C   UNL A   1      43.905  27.716  36.356  1.00  0.00     0.031 A 
ATOM     90  C   UNL A   1      45.373  29.138  35.078  1.00  0.00     0.131 A 
ATOM     91  C   UNL A   1      45.025  27.227  37.047  1.00  0.00     0.055 A 
ATOM     92  C   UNL A   1      46.488  28.600  35.722  1.00  0.00     0.041 A 
ATOM     93  F   UNL A   1      45.588  30.088  34.154  1.00  0.00    -0.206 F 
ATOM     94  C   UNL A   1      46.316  27.649  36.723  1.00  0.00     0.022 A 
BRANCH  91  95
ATOM     95  S   UNL A   1      44.763  26.107  38.450  1.00  0.00     0.124 S 
ATOM     96  O   UNL A   1      45.051  24.805  37.856  1.00  0.00    -0.237 OA
ATOM     97  O   UNL A   1      45.737  26.592  39.423  1.00  0.00    -0.237 OA
ATOM     98  O   UNL A   1      43.365  26.329  38.811  1.00  0.00    -0.744 OA
ENDBRANCH  91  95
ENDBRANCH  65  88
ENDBRANCH  39  40
ENDBRANCH  31  34
ENDBRANCH  29  30
ENDBRANCH  28  29
ENDBRANCH   1  28
TORSDOF 18
ENDMDL
MODEL 3
REMARK VINA RESULT:     -11.5      4.844      7.561
REMARK SMILES O=C(CCC(=O)Nc1ccc2nc(-c3ccccc3)oc2c1)NCCCCNC(=O)c1ccc(-c2c3nc(c(-c4cc(S(=O)(=O)[O-])ccc4F)c4ccc([nH]4)c(-c4cc(S(=O)(=O)[O-])ccc4F)c4nc(c(-c5cc(S(=O)(=O)[O-])ccc5F)c5ccc2[nH]5)C=C4)C=C3)cc1
REMARK SMILES IDX 25 1 24 2 23 3 1 4 2 5 3 7 4 8 5 9 6 10 7 11 8 13 9 14 22 15
REMARK SMILES IDX 10 16 21 17 11 18 20 19 12 20 13 21 14 22 15 23 19 24 16 25
REMARK SMILES IDX 18 26 17 27 26 28 27 29 28 30 29 31 30 33 31 34 32 35 93 36
REMARK SMILES IDX 33 37 92 38 34 39 35 40 36 41 86 42 37 43 91 44 85 45 87 46
REMARK SMILES IDX 38 47 90 48 84 49 83 50 39 52 71 53 51 54 70 55 52 56 55 57
REMARK SMILES IDX 69 58 88 59 53 60 54 61 68 63 89 64 56 65 40 66 41 67 49 68
REMARK SMILES IDX 42 69 48 70 50 71 47 72 43 73 44 74 45 75 46 76 72 77 73 78
REMARK SMILES IDX 81 79 74 80 80 81 82 82 79 83 75 84 76 85 77 86 78 87 57 88
REMARK SMILES IDX 58 89 66 90 59 91 65 92 67 93 64 94 60 95 61 96 62 97 63 98
REMARK H PARENT 23 6 7 12 28 32 87 51 55 62
REMARK Flexibility Score: inf
ROOT
ATOM      1  C   UNL A   1      35.266  20.047  24.997  1.00  0.00     0.023 C 
ENDROOT
BRANCH   1   2
ATOM      2  C   UNL A   1      33.764  19.789  24.964  1.00  0.00     0.116 C 
BRANCH   2   3
ATOM      3  N   UNL A   1      32.962  20.822  25.598  1.00  0.00    -0.356 N 
ATOM      4  O   UNL A   1      32.182  21.768  23.650  1.00  0.00    -0.275 OA
ATOM      5  C   UNL A   1      32.142  21.658  24.872  1.00  0.00     0.220 C 
ATOM      6  H   UNL A   1      33.005  20.929  26.575  1.00  0.00     0.163 HD
BRANCH   5   7
ATOM      7  C   UNL A   1      31.101  22.394  25.693  1.00  0.00     0.110 C 
BRANCH   7   8
ATOM      8  C   UNL A   1      31.636  23.591  26.481  1.00  0.00     0.110 C 
BRANCH   8   9
ATOM      9  C   UNL A   1      33.096  23.889  26.236  1.00  0.00     0.224 C 
ATOM     10  O   UNL A   1      33.932  23.469  27.045  1.00  0.00    -0.275 OA
ATOM     11  N   UNL A   1      33.571  24.626  25.193  1.00  0.00    -0.326 N 
ATOM     12  H   UNL A   1      34.534  24.491  25.037  1.00  0.00     0.169 HD
BRANCH  11  13
ATOM     13  C   UNL A   1      32.994  25.540  24.286  1.00  0.00     0.045 A 
ATOM     14  C   UNL A   1      33.114  25.449  22.896  1.00  0.00     0.028 A 
ATOM     15  C   UNL A   1      32.135  26.513  24.844  1.00  0.00     0.075 A 
ATOM     16  C   UNL A   1      32.282  26.158  22.023  1.00  0.00     0.034 A 
ATOM     17  C   UNL A   1      31.358  27.242  23.944  1.00  0.00     0.157 A 
ATOM     18  C   UNL A   1      31.372  27.049  22.574  1.00  0.00     0.110 A 
ATOM     19  O   UNL A   1      30.467  28.252  24.202  1.00  0.00    -0.436 OA
ATOM     20  N   UNL A   1      30.450  27.839  21.966  1.00  0.00    -0.209 NA
ATOM     21  C   UNL A   1      29.987  28.574  22.956  1.00  0.00     0.227 A 
BRANCH  21  22
ATOM     22  C   UNL A   1      29.207  29.785  22.808  1.00  0.00     0.037 A 
ATOM     23  C   UNL A   1      28.521  30.034  21.612  1.00  0.00     0.014 A 
ATOM     24  C   UNL A   1      29.346  30.813  23.750  1.00  0.00     0.014 A 
ATOM     25  C   UNL A   1      28.009  31.304  21.348  1.00  0.00     0.001 A 
ATOM     26  C   UNL A   1      28.851  32.087  23.476  1.00  0.00     0.001 A 
ATOM     27  C   UNL A   1      28.192  32.333  22.271  1.00  0.00     0.000 A 
ENDBRANCH  21  22
ENDBRANCH  11  13
ENDBRANCH   8   9
ENDBRANCH   7   8
ENDBRANCH   5   7
ENDBRANCH   2   3
ENDBRANCH   1   2
BRANCH   1  28
ATOM     28  C   UNL A   1      35.694  21.483  24.689  1.00  0.00     0.023 C 
BRANCH  28  29
ATOM     29  C   UNL A   1      37.198  21.708  24.551  1.00  0.00     0.116 C 
BRANCH  29  30
ATOM     30  N   UNL A   1      37.989  20.611  25.091  1.00  0.00    -0.352 N 
ATOM     31  C   UNL A   1      39.146  20.641  25.837  1.00  0.00     0.251 C 
ATOM     32  H   UNL A   1      37.643  19.711  24.893  1.00  0.00     0.163 HD
ATOM     33  O   UNL A   1      39.757  19.593  26.046  1.00  0.00    -0.269 OA
BRANCH  31  34
ATOM     34  C   UNL A   1      39.679  21.923  26.356  1.00  0.00     0.039 A 
ATOM     35  C   UNL A   1      40.863  21.914  27.101  1.00  0.00     0.014 A 
ATOM     36  C   UNL A   1      39.022  23.132  26.116  1.00  0.00     0.014 A 
ATOM     37  C   UNL A   1      41.432  23.122  27.520  1.00  0.00     0.010 A 
ATOM     38  C   UNL A   1      39.634  24.339  26.459  1.00  0.00     0.010 A 
ATOM     39  C   UNL A   1      40.850  24.350  27.158  1.00  0.00    -0.014 A 
BRANCH  39  40
ATOM     40  C   UNL A   1      41.509  25.647  27.486  1.00  0.00     0.031 A 
ATOM     41  C   UNL A   1      40.771  26.701  28.269  1.00  0.00     0.074 A 
ATOM     42  C   UNL A   1      42.750  25.903  27.025  1.00  0.00     0.049 A 
ATOM     43  N   UNL A   1      41.144  27.917  28.579  1.00  0.00    -0.248 NA
ATOM     44  C   UNL A   1      39.424  26.348  28.741  1.00  0.00     0.031 C 
ATOM     45  C   UNL A   1      43.559  24.983  26.222  1.00  0.00     0.029 A 
ATOM     46  N   UNL A   1      43.548  27.014  27.153  1.00  0.00    -0.354 N 
ATOM     47  C   UNL A   1      40.078  28.477  29.276  1.00  0.00     0.074 A 
ATOM     48  C   UNL A   1      39.020  27.489  29.281  1.00  0.00     0.031 C 
ATOM     49  C   UNL A   1      44.743  25.556  25.954  1.00  0.00     0.029 A 
ATOM     50  C   UNL A   1      44.762  26.903  26.512  1.00  0.00     0.049 A 
ATOM     51  H   UNL A   1      43.277  27.816  27.656  1.00  0.00     0.167 HD
ATOM     52  C   UNL A   1      39.998  29.691  29.878  1.00  0.00     0.034 A 
ATOM     53  C   UNL A   1      45.770  27.789  26.372  1.00  0.00     0.034 A 
ATOM     54  C   UNL A   1      41.062  30.668  29.865  1.00  0.00     0.049 A 
ATOM     55  C   UNL A   1      45.640  29.151  27.010  1.00  0.00     0.074 A 
ATOM     56  C   UNL A   1      41.098  31.908  30.479  1.00  0.00     0.029 A 
ATOM     57  N   UNL A   1      42.273  30.520  29.200  1.00  0.00    -0.354 N 
ATOM     58  N   UNL A   1      44.642  29.646  27.705  1.00  0.00    -0.248 NA
ATOM     59  C   UNL A   1      46.776  30.068  26.852  1.00  0.00     0.031 C 
ATOM     60  C   UNL A   1      42.293  32.542  30.121  1.00  0.00     0.029 A 
ATOM     61  C   UNL A   1      43.046  31.662  29.359  1.00  0.00     0.049 A 
ATOM     62  H   UNL A   1      42.543  29.724  28.689  1.00  0.00     0.167 HD
ATOM     63  C   UNL A   1      45.046  30.920  28.096  1.00  0.00     0.074 A 
ATOM     64  C   UNL A   1      46.384  31.108  27.573  1.00  0.00     0.031 C 
ATOM     65  C   UNL A   1      44.375  31.847  28.826  1.00  0.00     0.034 A 
BRANCH  52  66
ATOM     66  C   UNL A   1      38.703  30.037  30.577  1.00  0.00     0.023 A 
ATOM     67  C   UNL A   1      37.673  30.734  29.919  1.00  0.00     0.031 A 
ATOM     68  C   UNL A   1      38.499  29.687  31.923  1.00  0.00     0.131 A 
ATOM     69  C   UNL A   1      36.527  31.126  30.627  1.00  0.00     0.055 A 
ATOM     70  C   UNL A   1      37.318  30.001  32.597  1.00  0.00     0.041 A 
ATOM     71  F   UNL A   1      39.452  29.039  32.613  1.00  0.00    -0.206 F 
ATOM     72  C   UNL A   1      36.329  30.740  31.954  1.00  0.00     0.022 A 
BRANCH  69  73
ATOM     73  S   UNL A   1      35.373  32.278  29.833  1.00  0.00     0.124 S 
ATOM     74  O   UNL A   1      34.444  32.562  30.924  1.00  0.00    -0.237 OA
ATOM     75  O   UNL A   1      36.246  33.377  29.435  1.00  0.00    -0.237 OA
ATOM     76  O   UNL A   1      34.811  31.496  28.734  1.00  0.00    -0.744 OA
ENDBRANCH  69  73
ENDBRANCH  52  66
BRANCH  53  77
ATOM     77  C   UNL A   1      46.985  27.435  25.579  1.00  0.00     0.023 A 
ATOM     78  C   UNL A   1      47.128  27.843  24.244  1.00  0.00     0.031 A 
ATOM     79  C   UNL A   1      48.001  26.635  26.134  1.00  0.00     0.131 A 
ATOM     80  C   UNL A   1      48.232  27.410  23.493  1.00  0.00     0.055 A 
ATOM     81  C   UNL A   1      49.129  26.260  25.401  1.00  0.00     0.041 A 
ATOM     82  F   UNL A   1      47.918  26.215  27.407  1.00  0.00    -0.206 F 
ATOM     83  C   UNL A   1      49.241  26.634  24.067  1.00  0.00     0.022 A 
BRANCH  80  84
ATOM     84  S   UNL A   1      48.281  27.792  21.720  1.00  0.00     0.124 S 
ATOM     85  O   UNL A   1      49.352  28.779  21.658  1.00  0.00    -0.237 OA
ATOM     86  O   UNL A   1      48.574  26.486  21.138  1.00  0.00    -0.237 OA
ATOM     87  O   UNL A   1      46.940  28.307  21.447  1.00  0.00    -0.744 OA
ENDBRANCH  80  84
ENDBRANCH  53  77
BRANCH  65  88
ATOM     88  C   UNL A   1      45.102  33.134  29.144  1.00  0.00     0.023 A 
ATOM     89  C   UNL A   1      45.089  34.234  28.270  1.00  0.00     0.031 A 
ATOM     90  C   UNL A   1      45.828  33.255  30.344  1.00  0.00     0.131 A 
ATOM     91  C   UNL A   1      45.833  35.384  28.579  1.00  0.00     0.055 A 
ATOM     92  C   UNL A   1      46.511  34.426  30.677  1.00  0.00     0.041 A 
ATOM     93  F   UNL A   1      45.882  32.235  31.216  1.00  0.00    -0.206 F 
ATOM     94  C   UNL A   1      46.528  35.493  29.786  1.00  0.00     0.022 A 
BRANCH  91  95
ATOM     95  S   UNL A   1      45.967  36.697  27.335  1.00  0.00     0.124 S 
ATOM     96  O   UNL A   1      44.643  37.311  27.398  1.00  0.00    -0.237 OA
ATOM     97  O   UNL A   1      47.068  37.505  27.850  1.00  0.00    -0.237 OA
ATOM     98  O   UNL A   1      46.256  35.973  26.099  1.00  0.00    -0.744 OA
ENDBRANCH  91  95
ENDBRANCH  65  88
ENDBRANCH  39  40
ENDBRANCH  31  34
ENDBRANCH  29  30
ENDBRANCH  28  29
ENDBRANCH   1  28
TORSDOF 18
ENDMDL
