MODEL 1
REMARK VINA RESULT:     -12.2      0.000      0.000
REMARK SMILES Cn1ccnc1N1[C@@H]2CC[C@H]1C[C@H](CC(=O)NCCCCNC(=O)c1ccc(-c3c4nc(c(-c5cc(S(=O)(=O)[O-])ccc5F)c5ccc([nH]5)c(-c5cc(S(=O)(=O)[O-])ccc5F)c5nc(c(-c6cc(S(=O)(=O)[O-])ccc6F)c6ccc3[nH]6)C=C5)C=C4)cc1)C2
REMARK SMILES IDX 20 1 19 2 18 3 17 4 15 5 16 6 14 8 13 9 7 10 8 11 11 12 9 13
REMARK SMILES IDX 88 14 10 15 12 16 6 17 1 18 2 19 3 20 4 21 5 22 21 23 22 24
REMARK SMILES IDX 23 25 24 27 25 28 26 29 87 30 27 31 86 32 28 33 29 34 30 35
REMARK SMILES IDX 80 36 31 37 85 38 79 39 81 40 32 41 84 42 78 43 77 44 33 46
REMARK SMILES IDX 65 47 45 48 64 49 46 50 49 51 63 52 82 53 47 54 48 55 62 57
REMARK SMILES IDX 83 58 50 59 34 60 35 61 43 62 36 63 42 64 44 65 41 66 37 67
REMARK SMILES IDX 38 68 39 69 40 70 66 71 67 72 75 73 68 74 74 75 76 76 73 77
REMARK SMILES IDX 69 78 70 79 71 80 72 81 51 82 52 83 60 84 53 85 59 86 61 87
REMARK SMILES IDX 58 88 54 89 55 90 56 91 57 92
REMARK H PARENT 17 7 22 26 81 45 49 56
REMARK Flexibility Score: inf
ROOT
ATOM      1  C   UNL A   1      31.469  29.295  25.488  1.00  0.00     0.023 C 
ENDROOT
BRANCH   1   2
ATOM      2  C   UNL A   1      31.389  29.065  23.991  1.00  0.00     0.023 C 
BRANCH   2   3
ATOM      3  C   UNL A   1      30.984  27.655  23.549  1.00  0.00     0.116 C 
BRANCH   3   4
ATOM      4  N   UNL A   1      31.889  27.127  22.540  1.00  0.00    -0.356 N 
ATOM      5  C   UNL A   1      33.092  26.495  22.664  1.00  0.00     0.220 C 
ATOM      6  O   UNL A   1      33.690  26.172  21.636  1.00  0.00    -0.275 OA
ATOM      7  H   UNL A   1      31.581  27.245  21.612  1.00  0.00     0.163 HD
BRANCH   5   8
ATOM      8  C   UNL A   1      33.703  26.215  24.030  1.00  0.00     0.103 C 
BRANCH   8   9
ATOM      9  C   UNL A   1      32.979  25.083  24.787  1.00  0.00     0.002 C 
ATOM     10  N   UNL A   1      33.037  22.167  24.867  1.00  0.00    -0.336 N 
ATOM     11  C   UNL A   1      33.339  22.902  26.105  1.00  0.00     0.086 C 
ATOM     12  C   UNL A   1      31.820  22.802  24.364  1.00  0.00     0.086 C 
ATOM     13  C   UNL A   1      31.953  23.060  26.765  1.00  0.00     0.027 C 
ATOM     14  C   UNL A   1      33.939  24.265  25.677  1.00  0.00     0.029 C 
ATOM     15  C   UNL A   1      30.948  22.946  25.612  1.00  0.00     0.027 C 
ATOM     16  C   UNL A   1      32.231  24.164  23.813  1.00  0.00     0.029 C 
BRANCH  10  17
ATOM     17  C   UNL A   1      33.107  20.810  24.874  1.00  0.00     0.205 A 
ATOM     18  C   UNL A   1      35.634  20.666  24.959  1.00  0.00     0.153 C 
ATOM     19  N   UNL A   1      34.303  20.126  24.839  1.00  0.00    -0.320 N 
ATOM     20  C   UNL A   1      34.019  18.791  24.714  1.00  0.00     0.109 A 
ATOM     21  C   UNL A   1      32.649  18.718  24.756  1.00  0.00     0.133 A 
ATOM     22  N   UNL A   1      32.099  19.964  24.886  1.00  0.00    -0.221 NA
ENDBRANCH  10  17
ENDBRANCH   8   9
ENDBRANCH   5   8
ENDBRANCH   3   4
ENDBRANCH   2   3
ENDBRANCH   1   2
BRANCH   1  23
ATOM     23  C   UNL A   1      32.715  30.024  25.941  1.00  0.00     0.116 C 
BRANCH  23  24
ATOM     24  N   UNL A   1      32.455  31.364  26.456  1.00  0.00    -0.352 N 
ATOM     25  C   UNL A   1      33.230  32.117  27.313  1.00  0.00     0.251 C 
ATOM     26  H   UNL A   1      31.619  31.786  26.153  1.00  0.00     0.163 HD
ATOM     27  O   UNL A   1      32.824  33.191  27.736  1.00  0.00    -0.269 OA
BRANCH  25  28
ATOM     28  C   UNL A   1      34.531  31.564  27.746  1.00  0.00     0.039 A 
ATOM     29  C   UNL A   1      35.588  32.434  28.020  1.00  0.00     0.014 A 
ATOM     30  C   UNL A   1      34.648  30.198  28.006  1.00  0.00     0.014 A 
ATOM     31  C   UNL A   1      36.730  31.940  28.656  1.00  0.00     0.010 A 
ATOM     32  C   UNL A   1      35.727  29.738  28.744  1.00  0.00     0.010 A 
ATOM     33  C   UNL A   1      36.784  30.601  29.073  1.00  0.00    -0.014 A 
BRANCH  33  34
ATOM     34  C   UNL A   1      37.940  30.052  29.827  1.00  0.00     0.031 A 
ATOM     35  C   UNL A   1      38.172  30.512  31.242  1.00  0.00     0.074 A 
ATOM     36  C   UNL A   1      38.830  29.243  29.219  1.00  0.00     0.049 A 
ATOM     37  N   UNL A   1      39.199  30.310  32.025  1.00  0.00    -0.248 NA
ATOM     38  C   UNL A   1      37.128  31.366  31.830  1.00  0.00     0.031 C 
ATOM     39  C   UNL A   1      38.747  28.777  27.832  1.00  0.00     0.029 A 
ATOM     40  N   UNL A   1      39.991  28.681  29.685  1.00  0.00    -0.354 N 
ATOM     41  C   UNL A   1      38.943  31.047  33.177  1.00  0.00     0.074 A 
ATOM     42  C   UNL A   1      37.703  31.757  32.955  1.00  0.00     0.031 C 
ATOM     43  C   UNL A   1      39.798  27.982  27.571  1.00  0.00     0.029 A 
ATOM     44  C   UNL A   1      40.652  27.915  28.752  1.00  0.00     0.049 A 
ATOM     45  H   UNL A   1      40.322  28.814  30.603  1.00  0.00     0.167 HD
ATOM     46  C   UNL A   1      39.660  31.101  34.326  1.00  0.00     0.034 A 
ATOM     47  C   UNL A   1      41.818  27.246  28.839  1.00  0.00     0.034 A 
ATOM     48  C   UNL A   1      40.867  30.345  34.545  1.00  0.00     0.049 A 
ATOM     49  C   UNL A   1      42.584  27.289  30.137  1.00  0.00     0.074 A 
ATOM     50  C   UNL A   1      41.636  30.256  35.691  1.00  0.00     0.029 A 
ATOM     51  N   UNL A   1      41.477  29.537  33.592  1.00  0.00    -0.354 N 
ATOM     52  N   UNL A   1      42.305  27.952  31.236  1.00  0.00    -0.248 NA
ATOM     53  C   UNL A   1      43.811  26.487  30.210  1.00  0.00     0.031 C 
ATOM     54  C   UNL A   1      42.736  29.435  35.417  1.00  0.00     0.029 A 
ATOM     55  C   UNL A   1      42.620  28.960  34.119  1.00  0.00     0.049 A 
ATOM     56  H   UNL A   1      41.143  29.395  32.676  1.00  0.00     0.167 HD
ATOM     57  C   UNL A   1      43.311  27.622  32.141  1.00  0.00     0.074 A 
ATOM     58  C   UNL A   1      44.193  26.696  31.461  1.00  0.00     0.031 C 
ATOM     59  C   UNL A   1      43.485  28.041  33.420  1.00  0.00     0.034 A 
BRANCH  46  60
ATOM     60  C   UNL A   1      39.152  32.019  35.413  1.00  0.00     0.023 A 
ATOM     61  C   UNL A   1      39.547  33.367  35.482  1.00  0.00     0.031 A 
ATOM     62  C   UNL A   1      38.315  31.528  36.429  1.00  0.00     0.131 A 
ATOM     63  C   UNL A   1      39.193  34.144  36.594  1.00  0.00     0.055 A 
ATOM     64  C   UNL A   1      37.887  32.336  37.485  1.00  0.00     0.041 A 
ATOM     65  F   UNL A   1      37.920  30.244  36.429  1.00  0.00    -0.206 F 
ATOM     66  C   UNL A   1      38.343  33.646  37.584  1.00  0.00     0.022 A 
BRANCH  63  67
ATOM     67  S   UNL A   1      40.003  35.753  36.813  1.00  0.00     0.124 S 
ATOM     68  O   UNL A   1      39.603  36.450  35.592  1.00  0.00    -0.237 OA
ATOM     69  O   UNL A   1      39.406  36.241  38.050  1.00  0.00    -0.237 OA
ATOM     70  O   UNL A   1      41.422  35.415  36.893  1.00  0.00    -0.744 OA
ENDBRANCH  63  67
ENDBRANCH  46  60
BRANCH  47  71
ATOM     71  C   UNL A   1      42.336  26.476  27.673  1.00  0.00     0.023 A 
ATOM     72  C   UNL A   1      41.967  25.136  27.473  1.00  0.00     0.031 A 
ATOM     73  C   UNL A   1      43.227  27.059  26.755  1.00  0.00     0.131 A 
ATOM     74  C   UNL A   1      42.519  24.410  26.406  1.00  0.00     0.055 A 
ATOM     75  C   UNL A   1      43.739  26.345  25.670  1.00  0.00     0.041 A 
ATOM     76  F   UNL A   1      43.602  28.341  26.895  1.00  0.00    -0.206 F 
ATOM     77  C   UNL A   1      43.395  25.009  25.497  1.00  0.00     0.022 A 
BRANCH  74  78
ATOM     78  S   UNL A   1      42.123  22.645  26.260  1.00  0.00     0.124 S 
ATOM     79  O   UNL A   1      40.664  22.667  26.255  1.00  0.00    -0.237 OA
ATOM     80  O   UNL A   1      42.763  22.295  24.996  1.00  0.00    -0.237 OA
ATOM     81  O   UNL A   1      42.737  22.059  27.449  1.00  0.00    -0.744 OA
ENDBRANCH  74  78
ENDBRANCH  47  71
BRANCH  59  82
ATOM     82  C   UNL A   1      44.648  27.457  34.177  1.00  0.00     0.023 A 
ATOM     83  C   UNL A   1      44.559  26.213  34.825  1.00  0.00     0.031 A 
ATOM     84  C   UNL A   1      45.866  28.157  34.244  1.00  0.00     0.131 A 
ATOM     85  C   UNL A   1      45.657  25.725  35.548  1.00  0.00     0.055 A 
ATOM     86  C   UNL A   1      46.971  27.643  34.923  1.00  0.00     0.041 A 
ATOM     87  F   UNL A   1      46.002  29.349  33.642  1.00  0.00    -0.206 F 
ATOM     88  C   UNL A   1      46.867  26.424  35.588  1.00  0.00     0.022 A 
BRANCH  85  89
ATOM     89  S   UNL A   1      45.463  24.190  36.494  1.00  0.00     0.124 S 
ATOM     90  O   UNL A   1      46.761  23.551  36.303  1.00  0.00    -0.237 OA
ATOM     91  O   UNL A   1      45.186  24.683  37.839  1.00  0.00    -0.237 OA
ATOM     92  O   UNL A   1      44.341  23.522  35.836  1.00  0.00    -0.744 OA
ENDBRANCH  85  89
ENDBRANCH  59  82
ENDBRANCH  33  34
ENDBRANCH  25  28
ENDBRANCH  23  24
ENDBRANCH   1  23
TORSDOF 16
ENDMDL
MODEL 2
REMARK VINA RESULT:     -12.1      1.682      2.090
REMARK SMILES Cn1ccnc1N1[C@@H]2CC[C@H]1C[C@H](CC(=O)NCCCCNC(=O)c1ccc(-c3c4nc(c(-c5cc(S(=O)(=O)[O-])ccc5F)c5ccc([nH]5)c(-c5cc(S(=O)(=O)[O-])ccc5F)c5nc(c(-c6cc(S(=O)(=O)[O-])ccc6F)c6ccc3[nH]6)C=C5)C=C4)cc1)C2
REMARK SMILES IDX 20 1 19 2 18 3 17 4 15 5 16 6 14 8 13 9 7 10 8 11 11 12 9 13
REMARK SMILES IDX 88 14 10 15 12 16 6 17 1 18 2 19 3 20 4 21 5 22 21 23 22 24
REMARK SMILES IDX 23 25 24 27 25 28 26 29 87 30 27 31 86 32 28 33 29 34 30 35
REMARK SMILES IDX 80 36 31 37 85 38 79 39 81 40 32 41 84 42 78 43 77 44 33 46
REMARK SMILES IDX 65 47 45 48 64 49 46 50 49 51 63 52 82 53 47 54 48 55 62 57
REMARK SMILES IDX 83 58 50 59 34 60 35 61 43 62 36 63 42 64 44 65 41 66 37 67
REMARK SMILES IDX 38 68 39 69 40 70 66 71 67 72 75 73 68 74 74 75 76 76 73 77
REMARK SMILES IDX 69 78 70 79 71 80 72 81 51 82 52 83 60 84 53 85 59 86 61 87
REMARK SMILES IDX 58 88 54 89 55 90 56 91 57 92
REMARK H PARENT 17 7 22 26 81 45 49 56
REMARK Flexibility Score: inf
ROOT
ATOM      1  C   UNL A   1      31.377  31.492  26.353  1.00  0.00     0.023 C 
ENDROOT
BRANCH   1   2
ATOM      2  C   UNL A   1      31.446  30.235  25.508  1.00  0.00     0.023 C 
BRANCH   2   3
ATOM      3  C   UNL A   1      32.744  29.427  25.610  1.00  0.00     0.116 C 
BRANCH   3   4
ATOM      4  N   UNL A   1      33.471  29.416  24.351  1.00  0.00    -0.356 N 
ATOM      5  C   UNL A   1      33.568  28.456  23.385  1.00  0.00     0.220 C 
ATOM      6  O   UNL A   1      34.290  28.679  22.411  1.00  0.00    -0.275 OA
ATOM      7  H   UNL A   1      33.977  30.239  24.163  1.00  0.00     0.163 HD
BRANCH   5   8
ATOM      8  C   UNL A   1      32.830  27.130  23.509  1.00  0.00     0.103 C 
BRANCH   8   9
ATOM      9  C   UNL A   1      33.749  25.974  23.950  1.00  0.00     0.002 C 
ATOM     10  N   UNL A   1      33.533  23.096  24.380  1.00  0.00    -0.336 N 
ATOM     11  C   UNL A   1      34.495  23.578  23.377  1.00  0.00     0.086 C 
ATOM     12  C   UNL A   1      33.788  23.934  25.551  1.00  0.00     0.086 C 
ATOM     13  C   UNL A   1      35.787  23.773  24.198  1.00  0.00     0.027 C 
ATOM     14  C   UNL A   1      33.940  24.920  22.838  1.00  0.00     0.029 C 
ATOM     15  C   UNL A   1      35.314  23.962  25.645  1.00  0.00     0.027 C 
ATOM     16  C   UNL A   1      33.226  25.317  25.233  1.00  0.00     0.029 C 
BRANCH  10  17
ATOM     17  C   UNL A   1      33.384  21.757  24.559  1.00  0.00     0.205 A 
ATOM     18  C   UNL A   1      32.031  21.349  22.457  1.00  0.00     0.153 C 
ATOM     19  N   UNL A   1      32.629  20.973  23.714  1.00  0.00    -0.320 N 
ATOM     20  C   UNL A   1      32.571  19.714  24.252  1.00  0.00     0.109 A 
ATOM     21  C   UNL A   1      33.364  19.772  25.370  1.00  0.00     0.133 A 
ATOM     22  N   UNL A   1      33.884  21.027  25.533  1.00  0.00    -0.221 NA
ENDBRANCH  10  17
ENDBRANCH   8   9
ENDBRANCH   5   8
ENDBRANCH   3   4
ENDBRANCH   2   3
ENDBRANCH   1   2
BRANCH   1  23
ATOM     23  C   UNL A   1      32.621  31.763  27.170  1.00  0.00     0.116 C 
BRANCH  23  24
ATOM     24  N   UNL A   1      32.848  33.179  27.441  1.00  0.00    -0.352 N 
ATOM     25  C   UNL A   1      33.957  33.776  28.000  1.00  0.00     0.251 C 
ATOM     26  H   UNL A   1      32.115  33.786  27.191  1.00  0.00     0.163 HD
ATOM     27  O   UNL A   1      33.956  34.972  28.257  1.00  0.00    -0.269 OA
BRANCH  25  28
ATOM     28  C   UNL A   1      35.119  32.922  28.329  1.00  0.00     0.039 A 
ATOM     29  C   UNL A   1      36.404  33.466  28.282  1.00  0.00     0.014 A 
ATOM     30  C   UNL A   1      34.910  31.630  28.813  1.00  0.00     0.014 A 
ATOM     31  C   UNL A   1      37.471  32.742  28.822  1.00  0.00     0.010 A 
ATOM     32  C   UNL A   1      35.946  30.970  29.455  1.00  0.00     0.010 A 
ATOM     33  C   UNL A   1      37.240  31.514  29.462  1.00  0.00    -0.014 A 
BRANCH  33  34
ATOM     34  C   UNL A   1      38.328  30.750  30.125  1.00  0.00     0.031 A 
ATOM     35  C   UNL A   1      38.673  31.064  31.556  1.00  0.00     0.074 A 
ATOM     36  C   UNL A   1      39.068  29.870  29.422  1.00  0.00     0.049 A 
ATOM     37  N   UNL A   1      39.685  30.659  32.277  1.00  0.00    -0.248 NA
ATOM     38  C   UNL A   1      37.785  32.012  32.248  1.00  0.00     0.031 C 
ATOM     39  C   UNL A   1      38.872  29.526  28.011  1.00  0.00     0.029 A 
ATOM     40  N   UNL A   1      40.150  29.114  29.796  1.00  0.00    -0.354 N 
ATOM     41  C   UNL A   1      39.579  31.336  33.487  1.00  0.00     0.074 A 
ATOM     42  C   UNL A   1      38.449  32.231  33.370  1.00  0.00     0.031 C 
ATOM     43  C   UNL A   1      39.785  28.610  27.650  1.00  0.00     0.029 A 
ATOM     44  C   UNL A   1      40.659  28.333  28.784  1.00  0.00     0.049 A 
ATOM     45  H   UNL A   1      40.528  29.128  30.706  1.00  0.00     0.167 HD
ATOM     46  C   UNL A   1      40.334  31.199  34.605  1.00  0.00     0.034 A 
ATOM     47  C   UNL A   1      41.717  27.498  28.772  1.00  0.00     0.034 A 
ATOM     48  C   UNL A   1      41.423  30.264  34.716  1.00  0.00     0.049 A 
ATOM     49  C   UNL A   1      42.524  27.333  30.035  1.00  0.00     0.074 A 
ATOM     50  C   UNL A   1      42.210  29.979  35.818  1.00  0.00     0.029 A 
ATOM     51  N   UNL A   1      41.876  29.450  33.684  1.00  0.00    -0.354 N 
ATOM     52  N   UNL A   1      42.383  27.944  31.188  1.00  0.00    -0.248 NA
ATOM     53  C   UNL A   1      43.622  26.360  29.998  1.00  0.00     0.031 C 
ATOM     54  C   UNL A   1      43.167  29.031  35.439  1.00  0.00     0.029 A 
ATOM     55  C   UNL A   1      42.940  28.677  34.118  1.00  0.00     0.049 A 
ATOM     56  H   UNL A   1      41.495  29.427  32.776  1.00  0.00     0.167 HD
ATOM     57  C   UNL A   1      43.359  27.406  32.023  1.00  0.00     0.074 A 
ATOM     58  C   UNL A   1      44.074  26.417  31.242  1.00  0.00     0.031 C 
ATOM     59  C   UNL A   1      43.637  27.698  33.319  1.00  0.00     0.034 A 
BRANCH  46  60
ATOM     60  C   UNL A   1      40.003  32.097  35.774  1.00  0.00     0.023 A 
ATOM     61  C   UNL A   1      39.106  31.697  36.779  1.00  0.00     0.031 A 
ATOM     62  C   UNL A   1      40.541  33.393  35.852  1.00  0.00     0.131 A 
ATOM     63  C   UNL A   1      38.692  32.615  37.755  1.00  0.00     0.055 A 
ATOM     64  C   UNL A   1      40.198  34.271  36.884  1.00  0.00     0.041 A 
ATOM     65  F   UNL A   1      41.389  33.841  34.912  1.00  0.00    -0.206 F 
ATOM     66  C   UNL A   1      39.252  33.891  37.831  1.00  0.00     0.022 A 
BRANCH  63  67
ATOM     67  S   UNL A   1      37.286  32.171  38.813  1.00  0.00     0.124 S 
ATOM     68  O   UNL A   1      36.244  33.060  38.303  1.00  0.00    -0.237 OA
ATOM     69  O   UNL A   1      37.111  30.753  38.527  1.00  0.00    -0.237 OA
ATOM     70  O   UNL A   1      37.758  32.485  40.160  1.00  0.00    -0.744 OA
ENDBRANCH  63  67
ENDBRANCH  46  60
BRANCH  47  71
ATOM     71  C   UNL A   1      42.077  26.752  27.534  1.00  0.00     0.023 A 
ATOM     72  C   UNL A   1      41.844  25.371  27.431  1.00  0.00     0.031 A 
ATOM     73  C   UNL A   1      42.684  27.401  26.445  1.00  0.00     0.131 A 
ATOM     74  C   UNL A   1      42.251  24.675  26.282  1.00  0.00     0.055 A 
ATOM     75  C   UNL A   1      43.047  26.712  25.286  1.00  0.00     0.041 A 
ATOM     76  F   UNL A   1      42.918  28.723  26.488  1.00  0.00    -0.206 F 
ATOM     77  C   UNL A   1      42.842  25.339  25.204  1.00  0.00     0.022 A 
BRANCH  74  78
ATOM     78  S   UNL A   1      42.054  22.872  26.243  1.00  0.00     0.124 S 
ATOM     79  O   UNL A   1      40.605  22.729  26.332  1.00  0.00    -0.237 OA
ATOM     80  O   UNL A   1      42.655  22.530  24.957  1.00  0.00    -0.237 OA
ATOM     81  O   UNL A   1      42.801  22.423  27.416  1.00  0.00    -0.744 OA
ENDBRANCH  74  78
ENDBRANCH  47  71
BRANCH  59  82
ATOM     82  C   UNL A   1      44.726  26.898  33.982  1.00  0.00     0.023 A 
ATOM     83  C   UNL A   1      44.498  25.601  34.471  1.00  0.00     0.031 A 
ATOM     84  C   UNL A   1      46.016  27.443  34.117  1.00  0.00     0.131 A 
ATOM     85  C   UNL A   1      45.533  24.907  35.114  1.00  0.00     0.055 A 
ATOM     86  C   UNL A   1      47.055  26.728  34.712  1.00  0.00     0.041 A 
ATOM     87  F   UNL A   1      46.285  28.679  33.665  1.00  0.00    -0.206 F 
ATOM     88  C   UNL A   1      46.814  25.456  35.222  1.00  0.00     0.022 A 
BRANCH  85  89
ATOM     89  S   UNL A   1      45.168  23.297  35.864  1.00  0.00     0.124 S 
ATOM     90  O   UNL A   1      46.168  22.438  35.240  1.00  0.00    -0.237 OA
ATOM     91  O   UNL A   1      45.355  23.565  37.287  1.00  0.00    -0.237 OA
ATOM     92  O   UNL A   1      43.787  23.037  35.461  1.00  0.00    -0.744 OA
ENDBRANCH  85  89
ENDBRANCH  59  82
ENDBRANCH  33  34
ENDBRANCH  25  28
ENDBRANCH  23  24
ENDBRANCH   1  23
TORSDOF 16
ENDMDL
MODEL 3
REMARK VINA RESULT:     -12.1      2.442      7.901
REMARK SMILES Cn1ccnc1N1[C@@H]2CC[C@H]1C[C@H](CC(=O)NCCCCNC(=O)c1ccc(-c3c4nc(c(-c5cc(S(=O)(=O)[O-])ccc5F)c5ccc([nH]5)c(-c5cc(S(=O)(=O)[O-])ccc5F)c5nc(c(-c6cc(S(=O)(=O)[O-])ccc6F)c6ccc3[nH]6)C=C5)C=C4)cc1)C2
REMARK SMILES IDX 20 1 19 2 18 3 17 4 15 5 16 6 14 8 13 9 7 10 8 11 11 12 9 13
REMARK SMILES IDX 88 14 10 15 12 16 6 17 1 18 2 19 3 20 4 21 5 22 21 23 22 24
REMARK SMILES IDX 23 25 24 27 25 28 26 29 87 30 27 31 86 32 28 33 29 34 30 35
REMARK SMILES IDX 80 36 31 37 85 38 79 39 81 40 32 41 84 42 78 43 77 44 33 46
REMARK SMILES IDX 65 47 45 48 64 49 46 50 49 51 63 52 82 53 47 54 48 55 62 57
REMARK SMILES IDX 83 58 50 59 34 60 35 61 43 62 36 63 42 64 44 65 41 66 37 67
REMARK SMILES IDX 38 68 39 69 40 70 66 71 67 72 75 73 68 74 74 75 76 76 73 77
REMARK SMILES IDX 69 78 70 79 71 80 72 81 51 82 52 83 60 84 53 85 59 86 61 87
REMARK SMILES IDX 58 88 54 89 55 90 56 91 57 92
REMARK H PARENT 17 7 22 26 81 45 49 56
REMARK Flexibility Score: inf
ROOT
ATOM      1  C   UNL A   1      31.533  32.216  26.500  1.00  0.00     0.023 C 
ENDROOT
BRANCH   1   2
ATOM      2  C   UNL A   1      31.453  30.709  26.352  1.00  0.00     0.023 C 
BRANCH   2   3
ATOM      3  C   UNL A   1      32.783  29.953  26.436  1.00  0.00     0.116 C 
BRANCH   3   4
ATOM      4  N   UNL A   1      33.300  29.627  25.117  1.00  0.00    -0.356 N 
ATOM      5  C   UNL A   1      33.714  28.438  24.590  1.00  0.00     0.220 C 
ATOM      6  O   UNL A   1      34.152  28.431  23.438  1.00  0.00    -0.275 OA
ATOM      7  H   UNL A   1      33.361  30.392  24.500  1.00  0.00     0.163 HD
BRANCH   5   8
ATOM      8  C   UNL A   1      33.665  27.151  25.403  1.00  0.00     0.103 C 
BRANCH   8   9
ATOM      9  C   UNL A   1      33.871  25.891  24.538  1.00  0.00     0.002 C 
ATOM     10  N   UNL A   1      33.324  23.031  24.736  1.00  0.00    -0.336 N 
ATOM     11  C   UNL A   1      32.710  23.782  23.629  1.00  0.00     0.086 C 
ATOM     12  C   UNL A   1      34.724  23.448  24.716  1.00  0.00     0.086 C 
ATOM     13  C   UNL A   1      33.763  23.673  22.507  1.00  0.00     0.027 C 
ATOM     14  C   UNL A   1      32.534  25.239  24.124  1.00  0.00     0.029 C 
ATOM     15  C   UNL A   1      35.089  23.405  23.231  1.00  0.00     0.027 C 
ATOM     16  C   UNL A   1      34.767  24.875  25.257  1.00  0.00     0.029 C 
BRANCH  10  17
ATOM     17  C   UNL A   1      33.041  21.710  24.872  1.00  0.00     0.205 A 
ATOM     18  C   UNL A   1      33.713  21.534  27.308  1.00  0.00     0.153 C 
ATOM     19  N   UNL A   1      33.294  21.009  26.032  1.00  0.00    -0.320 N 
ATOM     20  C   UNL A   1      33.028  19.687  25.790  1.00  0.00     0.109 A 
ATOM     21  C   UNL A   1      32.548  19.655  24.504  1.00  0.00     0.133 A 
ATOM     22  N   UNL A   1      32.532  20.910  23.959  1.00  0.00    -0.221 NA
ENDBRANCH  10  17
ENDBRANCH   8   9
ENDBRANCH   5   8
ENDBRANCH   3   4
ENDBRANCH   2   3
ENDBRANCH   1   2
BRANCH   1  23
ATOM     23  C   UNL A   1      32.795  32.709  27.173  1.00  0.00     0.116 C 
BRANCH  23  24
ATOM     24  N   UNL A   1      32.640  34.000  27.836  1.00  0.00    -0.352 N 
ATOM     25  C   UNL A   1      33.418  34.549  28.832  1.00  0.00     0.251 C 
ATOM     26  H   UNL A   1      31.883  34.550  27.532  1.00  0.00     0.163 HD
ATOM     27  O   UNL A   1      33.098  35.606  29.359  1.00  0.00    -0.269 OA
BRANCH  25  28
ATOM     28  C   UNL A   1      34.612  33.800  29.280  1.00  0.00     0.039 A 
ATOM     29  C   UNL A   1      35.882  34.263  28.932  1.00  0.00     0.014 A 
ATOM     30  C   UNL A   1      34.462  32.723  30.155  1.00  0.00     0.014 A 
ATOM     31  C   UNL A   1      37.004  33.705  29.549  1.00  0.00     0.010 A 
ATOM     32  C   UNL A   1      35.565  32.257  30.852  1.00  0.00     0.010 A 
ATOM     33  C   UNL A   1      36.850  32.737  30.554  1.00  0.00    -0.014 A 
BRANCH  33  34
ATOM     34  C   UNL A   1      38.007  32.176  31.298  1.00  0.00     0.031 A 
ATOM     35  C   UNL A   1      38.814  31.072  30.666  1.00  0.00     0.074 A 
ATOM     36  C   UNL A   1      38.262  32.570  32.561  1.00  0.00     0.049 A 
ATOM     37  N   UNL A   1      39.744  30.317  31.189  1.00  0.00    -0.248 NA
ATOM     38  C   UNL A   1      38.482  30.737  29.273  1.00  0.00     0.031 C 
ATOM     39  C   UNL A   1      37.513  33.586  33.304  1.00  0.00     0.029 A 
ATOM     40  N   UNL A   1      39.216  32.148  33.453  1.00  0.00    -0.354 N 
ATOM     41  C   UNL A   1      40.074  29.393  30.204  1.00  0.00     0.074 A 
ATOM     42  C   UNL A   1      39.191  29.636  29.085  1.00  0.00     0.031 C 
ATOM     43  C   UNL A   1      38.052  33.726  34.526  1.00  0.00     0.029 A 
ATOM     44  C   UNL A   1      39.154  32.781  34.673  1.00  0.00     0.049 A 
ATOM     45  H   UNL A   1      39.883  31.457  33.240  1.00  0.00     0.167 HD
ATOM     46  C   UNL A   1      41.047  28.448  30.219  1.00  0.00     0.034 A 
ATOM     47  C   UNL A   1      39.895  32.610  35.785  1.00  0.00     0.034 A 
ATOM     48  C   UNL A   1      41.950  28.257  31.325  1.00  0.00     0.049 A 
ATOM     49  C   UNL A   1      40.996  31.579  35.771  1.00  0.00     0.074 A 
ATOM     50  C   UNL A   1      43.022  27.388  31.426  1.00  0.00     0.029 A 
ATOM     51  N   UNL A   1      41.889  28.955  32.525  1.00  0.00    -0.354 N 
ATOM     52  N   UNL A   1      41.329  30.743  34.814  1.00  0.00    -0.248 NA
ATOM     53  C   UNL A   1      41.824  31.477  36.978  1.00  0.00     0.031 C 
ATOM     54  C   UNL A   1      43.578  27.527  32.703  1.00  0.00     0.029 A 
ATOM     55  C   UNL A   1      42.893  28.526  33.377  1.00  0.00     0.049 A 
ATOM     56  H   UNL A   1      41.228  29.654  32.738  1.00  0.00     0.167 HD
ATOM     57  C   UNL A   1      42.426  30.035  35.297  1.00  0.00     0.074 A 
ATOM     58  C   UNL A   1      42.702  30.549  36.623  1.00  0.00     0.031 C 
ATOM     59  C   UNL A   1      43.146  29.054  34.696  1.00  0.00     0.034 A 
BRANCH  46  60
ATOM     60  C   UNL A   1      41.159  27.555  29.006  1.00  0.00     0.023 A 
ATOM     61  C   UNL A   1      42.171  27.738  28.048  1.00  0.00     0.031 A 
ATOM     62  C   UNL A   1      40.205  26.551  28.769  1.00  0.00     0.131 A 
ATOM     63  C   UNL A   1      42.146  27.004  26.853  1.00  0.00     0.055 A 
ATOM     64  C   UNL A   1      40.242  25.756  27.620  1.00  0.00     0.041 A 
ATOM     65  F   UNL A   1      39.202  26.340  29.637  1.00  0.00    -0.206 F 
ATOM     66  C   UNL A   1      41.204  25.995  26.644  1.00  0.00     0.022 A 
BRANCH  63  67
ATOM     67  S   UNL A   1      43.255  27.509  25.509  1.00  0.00     0.124 S 
ATOM     68  O   UNL A   1      44.192  28.381  26.213  1.00  0.00    -0.237 OA
ATOM     69  O   UNL A   1      43.792  26.236  25.047  1.00  0.00    -0.237 OA
ATOM     70  O   UNL A   1      42.366  28.191  24.570  1.00  0.00    -0.744 OA
ENDBRANCH  63  67
ENDBRANCH  46  60
BRANCH  47  71
ATOM     71  C   UNL A   1      39.632  33.427  37.003  1.00  0.00     0.023 A 
ATOM     72  C   UNL A   1      38.980  32.873  38.116  1.00  0.00     0.031 A 
ATOM     73  C   UNL A   1      40.004  34.782  37.063  1.00  0.00     0.131 A 
ATOM     74  C   UNL A   1      38.682  33.678  39.226  1.00  0.00     0.055 A 
ATOM     75  C   UNL A   1      39.744  35.568  38.188  1.00  0.00     0.041 A 
ATOM     76  F   UNL A   1      40.640  35.357  36.030  1.00  0.00    -0.206 F 
ATOM     77  C   UNL A   1      39.069  35.019  39.274  1.00  0.00     0.022 A 
BRANCH  74  78
ATOM     78  S   UNL A   1      37.722  32.960  40.587  1.00  0.00     0.124 S 
ATOM     79  O   UNL A   1      36.363  33.023  40.059  1.00  0.00    -0.237 OA
ATOM     80  O   UNL A   1      38.305  31.627  40.699  1.00  0.00    -0.237 OA
ATOM     81  O   UNL A   1      37.999  33.855  41.709  1.00  0.00    -0.744 OA
ENDBRANCH  74  78
ENDBRANCH  47  71
BRANCH  59  82
ATOM     82  C   UNL A   1      44.330  28.513  35.454  1.00  0.00     0.023 A 
ATOM     83  C   UNL A   1      44.190  27.505  36.422  1.00  0.00     0.031 A 
ATOM     84  C   UNL A   1      45.618  29.014  35.194  1.00  0.00     0.131 A 
ATOM     85  C   UNL A   1      45.317  27.058  37.128  1.00  0.00     0.055 A 
ATOM     86  C   UNL A   1      46.741  28.530  35.864  1.00  0.00     0.041 A 
ATOM     87  F   UNL A   1      45.803  29.978  34.278  1.00  0.00    -0.206 F 
ATOM     88  C   UNL A   1      46.593  27.552  36.844  1.00  0.00     0.022 A 
BRANCH  85  89
ATOM     89  S   UNL A   1      45.084  25.863  38.472  1.00  0.00     0.124 S 
ATOM     90  O   UNL A   1      44.415  24.763  37.787  1.00  0.00    -0.237 OA
ATOM     91  O   UNL A   1      46.454  25.607  38.905  1.00  0.00    -0.237 OA
ATOM     92  O   UNL A   1      44.257  26.588  39.436  1.00  0.00    -0.744 OA
ENDBRANCH  85  89
ENDBRANCH  59  82
ENDBRANCH  33  34
ENDBRANCH  25  28
ENDBRANCH  23  24
ENDBRANCH   1  23
TORSDOF 16
ENDMDL
