MODEL 1
REMARK VINA RESULT:     -11.7      0.000      0.000
REMARK SMILES C[C@@H]([NH2+][C@H]1CCOC2(CCOCC2)C1)C(=O)NCCCCNC(=O)c1ccc(-c2c3nc(c(-c4cc(S(=O)(=O)[O-])ccc4F)c4ccc([nH]4)c(-c4cc(S(=O)(=O)[O-])ccc4F)c4nc(c(-c5cc(S(=O)(=O)[O-])ccc5F)c5ccc2[nH]5)C=C4)C=C3)cc1
REMARK SMILES IDX 20 1 19 2 18 3 17 4 15 5 16 6 2 8 1 9 3 10 4 13 5 14 14 15
REMARK SMILES IDX 6 16 8 17 7 18 9 19 13 20 10 21 12 22 11 23 21 24 22 25
REMARK SMILES IDX 23 26 24 28 25 29 26 30 87 31 27 32 86 33 28 34 29 35 30 36
REMARK SMILES IDX 80 37 31 38 85 39 79 40 81 41 32 42 84 43 78 44 77 45 33 47
REMARK SMILES IDX 65 48 45 49 64 50 46 51 49 52 63 53 82 54 47 55 48 56 62 58
REMARK SMILES IDX 83 59 50 60 34 61 35 62 43 63 36 64 42 65 44 66 41 67 37 68
REMARK SMILES IDX 38 69 39 70 40 71 66 72 67 73 75 74 68 75 74 76 76 77 73 78
REMARK SMILES IDX 69 79 70 80 71 81 72 82 51 83 52 84 60 85 53 86 59 87 61 88
REMARK SMILES IDX 58 89 54 90 55 91 56 92 57 93
REMARK H PARENT 17 7 3 11 3 12 22 27 81 46 49 57
REMARK Flexibility Score: inf
ROOT
ATOM      1  C   UNL A   1      32.437  29.384  25.523  1.00  0.00     0.023 C 
ENDROOT
BRANCH   1   2
ATOM      2  C   UNL A   1      33.630  28.426  25.471  1.00  0.00     0.023 C 
BRANCH   2   3
ATOM      3  C   UNL A   1      33.272  26.998  25.068  1.00  0.00     0.116 C 
BRANCH   3   4
ATOM      4  N   UNL A   1      32.230  26.456  25.918  1.00  0.00    -0.351 N 
ATOM      5  C   UNL A   1      31.013  25.940  25.587  1.00  0.00     0.277 C 
ATOM      6  O   UNL A   1      30.298  25.516  26.502  1.00  0.00    -0.268 OA
ATOM      7  H   UNL A   1      32.433  26.462  26.882  1.00  0.00     0.163 HD
BRANCH   5   8
ATOM      8  C   UNL A   1      30.528  25.862  24.125  1.00  0.00     0.269 C 
ATOM      9  C   UNL A   1      30.278  24.415  23.705  1.00  0.00     0.086 C 
BRANCH   8  10
ATOM     10  N   UNL A   1      29.341  26.717  23.876  1.00  0.00    -0.334 N 
ATOM     11  H   UNL A   1      28.801  26.790  24.738  1.00  0.00     0.347 HD
ATOM     12  H   UNL A   1      28.794  26.285  23.130  1.00  0.00     0.347 HD
BRANCH  10  13
ATOM     13  C   UNL A   1      29.714  28.074  23.433  1.00  0.00     0.188 C 
ATOM     14  C   UNL A   1      30.910  28.063  22.481  1.00  0.00     0.093 C 
ATOM     15  C   UNL A   1      28.525  28.719  22.713  1.00  0.00     0.100 C 
ATOM     16  C   UNL A   1      31.194  29.482  22.006  1.00  0.00     0.167 C 
ATOM     17  C   UNL A   1      28.865  30.136  22.213  1.00  0.00     0.078 C 
ATOM     18  O   UNL A   1      30.051  30.081  21.398  1.00  0.00    -0.374 OA
ATOM     19  C   UNL A   1      29.017  31.132  23.382  1.00  0.00     0.064 C 
ATOM     20  C   UNL A   1      27.724  30.631  21.302  1.00  0.00     0.064 C 
ATOM     21  C   UNL A   1      29.151  32.560  22.873  1.00  0.00     0.163 C 
ATOM     22  C   UNL A   1      27.922  32.090  20.912  1.00  0.00     0.163 C 
ATOM     23  O   UNL A   1      28.025  32.911  22.074  1.00  0.00    -0.381 OA
ENDBRANCH  10  13
ENDBRANCH   8  10
ENDBRANCH   5   8
ENDBRANCH   3   4
ENDBRANCH   2   3
ENDBRANCH   1   2
BRANCH   1  24
ATOM     24  C   UNL A   1      32.150  29.997  26.892  1.00  0.00     0.116 C 
BRANCH  24  25
ATOM     25  N   UNL A   1      32.103  31.451  26.860  1.00  0.00    -0.352 N 
ATOM     26  C   UNL A   1      33.008  32.353  27.366  1.00  0.00     0.251 C 
ATOM     27  H   UNL A   1      31.316  31.841  26.415  1.00  0.00     0.163 HD
ATOM     28  O   UNL A   1      32.735  33.550  27.380  1.00  0.00    -0.269 OA
BRANCH  26  29
ATOM     29  C   UNL A   1      34.287  31.868  27.926  1.00  0.00     0.039 A 
ATOM     30  C   UNL A   1      35.361  32.754  28.028  1.00  0.00     0.014 A 
ATOM     31  C   UNL A   1      34.415  30.550  28.373  1.00  0.00     0.014 A 
ATOM     32  C   UNL A   1      36.541  32.339  28.648  1.00  0.00     0.010 A 
ATOM     33  C   UNL A   1      35.568  30.160  29.051  1.00  0.00     0.010 A 
ATOM     34  C   UNL A   1      36.641  31.052  29.199  1.00  0.00    -0.014 A 
BRANCH  34  35
ATOM     35  C   UNL A   1      37.857  30.621  29.939  1.00  0.00     0.031 A 
ATOM     36  C   UNL A   1      38.820  29.652  29.308  1.00  0.00     0.074 A 
ATOM     37  C   UNL A   1      38.057  31.051  31.202  1.00  0.00     0.049 A 
ATOM     38  N   UNL A   1      39.890  29.099  29.818  1.00  0.00    -0.248 NA
ATOM     39  C   UNL A   1      38.519  29.228  27.934  1.00  0.00     0.031 C 
ATOM     40  C   UNL A   1      37.173  31.961  31.935  1.00  0.00     0.029 A 
ATOM     41  N   UNL A   1      39.060  30.774  32.096  1.00  0.00    -0.354 N 
ATOM     42  C   UNL A   1      40.383  28.248  28.833  1.00  0.00     0.074 A 
ATOM     43  C   UNL A   1      39.457  28.318  27.721  1.00  0.00     0.031 C 
ATOM     44  C   UNL A   1      37.687  32.185  33.155  1.00  0.00     0.029 A 
ATOM     45  C   UNL A   1      38.909  31.402  33.311  1.00  0.00     0.049 A 
ATOM     46  H   UNL A   1      39.818  30.181  31.888  1.00  0.00     0.167 HD
ATOM     47  C   UNL A   1      41.510  27.496  28.848  1.00  0.00     0.034 A 
ATOM     48  C   UNL A   1      39.662  31.345  34.427  1.00  0.00     0.034 A 
ATOM     49  C   UNL A   1      42.430  27.450  29.960  1.00  0.00     0.049 A 
ATOM     50  C   UNL A   1      40.900  30.484  34.428  1.00  0.00     0.074 A 
ATOM     51  C   UNL A   1      43.634  26.773  30.056  1.00  0.00     0.029 A 
ATOM     52  N   UNL A   1      42.243  28.098  31.174  1.00  0.00    -0.354 N 
ATOM     53  N   UNL A   1      41.382  29.728  33.468  1.00  0.00    -0.248 NA
ATOM     54  C   UNL A   1      41.700  30.475  35.659  1.00  0.00     0.031 C 
ATOM     55  C   UNL A   1      44.138  26.955  31.348  1.00  0.00     0.029 A 
ATOM     56  C   UNL A   1      43.291  27.810  32.036  1.00  0.00     0.049 A 
ATOM     57  H   UNL A   1      41.477  28.677  31.393  1.00  0.00     0.167 HD
ATOM     58  C   UNL A   1      42.560  29.182  33.971  1.00  0.00     0.074 A 
ATOM     59  C   UNL A   1      42.719  29.706  35.312  1.00  0.00     0.031 C 
ATOM     60  C   UNL A   1      43.433  28.330  33.376  1.00  0.00     0.034 A 
BRANCH  47  61
ATOM     61  C   UNL A   1      41.792  26.643  27.633  1.00  0.00     0.023 A 
ATOM     62  C   UNL A   1      41.416  25.290  27.576  1.00  0.00     0.031 A 
ATOM     63  C   UNL A   1      42.471  27.182  26.526  1.00  0.00     0.131 A 
ATOM     64  C   UNL A   1      41.790  24.503  26.476  1.00  0.00     0.055 A 
ATOM     65  C   UNL A   1      42.767  26.415  25.398  1.00  0.00     0.041 A 
ATOM     66  F   UNL A   1      42.873  28.463  26.528  1.00  0.00    -0.206 F 
ATOM     67  C   UNL A   1      42.442  25.062  25.374  1.00  0.00     0.022 A 
BRANCH  64  68
ATOM     68  S   UNL A   1      41.543  22.709  26.571  1.00  0.00     0.124 S 
ATOM     69  O   UNL A   1      40.087  22.607  26.501  1.00  0.00    -0.237 OA
ATOM     70  O   UNL A   1      42.273  22.227  25.405  1.00  0.00    -0.237 OA
ATOM     71  O   UNL A   1      42.124  22.351  27.864  1.00  0.00    -0.744 OA
ENDBRANCH  64  68
ENDBRANCH  47  61
BRANCH  48  72
ATOM     72  C   UNL A   1      39.274  32.115  35.643  1.00  0.00     0.023 A 
ATOM     73  C   UNL A   1      38.542  31.511  36.678  1.00  0.00     0.031 A 
ATOM     74  C   UNL A   1      39.590  33.480  35.770  1.00  0.00     0.131 A 
ATOM     75  C   UNL A   1      38.109  32.277  37.771  1.00  0.00     0.055 A 
ATOM     76  C   UNL A   1      39.202  34.226  36.885  1.00  0.00     0.041 A 
ATOM     77  F   UNL A   1      40.292  34.106  34.813  1.00  0.00    -0.206 F 
ATOM     78  C   UNL A   1      38.445  33.627  37.887  1.00  0.00     0.022 A 
BRANCH  75  79
ATOM     79  S   UNL A   1      37.026  31.501  39.000  1.00  0.00     0.124 S 
ATOM     80  O   UNL A   1      36.889  30.150  38.465  1.00  0.00    -0.237 OA
ATOM     81  O   UNL A   1      37.811  31.631  40.222  1.00  0.00    -0.237 OA
ATOM     82  O   UNL A   1      35.815  32.317  38.951  1.00  0.00    -0.744 OA
ENDBRANCH  75  79
ENDBRANCH  48  72
BRANCH  60  83
ATOM     83  C   UNL A   1      44.666  27.953  34.162  1.00  0.00     0.023 A 
ATOM     84  C   UNL A   1      44.700  26.818  34.990  1.00  0.00     0.031 A 
ATOM     85  C   UNL A   1      45.820  28.754  34.089  1.00  0.00     0.131 A 
ATOM     86  C   UNL A   1      45.845  26.546  35.754  1.00  0.00     0.055 A 
ATOM     87  C   UNL A   1      46.976  28.444  34.804  1.00  0.00     0.041 A 
ATOM     88  F   UNL A   1      45.842  29.852  33.316  1.00  0.00    -0.206 F 
ATOM     89  C   UNL A   1      46.989  27.342  35.654  1.00  0.00     0.022 A 
BRANCH  86  90
ATOM     90  S   UNL A   1      45.789  25.186  36.954  1.00  0.00     0.124 S 
ATOM     91  O   UNL A   1      47.069  24.523  36.721  1.00  0.00    -0.237 OA
ATOM     92  O   UNL A   1      45.661  25.894  38.223  1.00  0.00    -0.237 OA
ATOM     93  O   UNL A   1      44.612  24.419  36.551  1.00  0.00    -0.744 OA
ENDBRANCH  86  90
ENDBRANCH  60  83
ENDBRANCH  34  35
ENDBRANCH  26  29
ENDBRANCH  24  25
ENDBRANCH   1  24
TORSDOF 16
ENDMDL
MODEL 2
REMARK VINA RESULT:     -11.6      6.244     10.885
REMARK SMILES C[C@@H]([NH2+][C@H]1CCOC2(CCOCC2)C1)C(=O)NCCCCNC(=O)c1ccc(-c2c3nc(c(-c4cc(S(=O)(=O)[O-])ccc4F)c4ccc([nH]4)c(-c4cc(S(=O)(=O)[O-])ccc4F)c4nc(c(-c5cc(S(=O)(=O)[O-])ccc5F)c5ccc2[nH]5)C=C4)C=C3)cc1
REMARK SMILES IDX 20 1 19 2 18 3 17 4 15 5 16 6 2 8 1 9 3 10 4 13 5 14 14 15
REMARK SMILES IDX 6 16 8 17 7 18 9 19 13 20 10 21 12 22 11 23 21 24 22 25
REMARK SMILES IDX 23 26 24 28 25 29 26 30 87 31 27 32 86 33 28 34 29 35 30 36
REMARK SMILES IDX 80 37 31 38 85 39 79 40 81 41 32 42 84 43 78 44 77 45 33 47
REMARK SMILES IDX 65 48 45 49 64 50 46 51 49 52 63 53 82 54 47 55 48 56 62 58
REMARK SMILES IDX 83 59 50 60 34 61 35 62 43 63 36 64 42 65 44 66 41 67 37 68
REMARK SMILES IDX 38 69 39 70 40 71 66 72 67 73 75 74 68 75 74 76 76 77 73 78
REMARK SMILES IDX 69 79 70 80 71 81 72 82 51 83 52 84 60 85 53 86 59 87 61 88
REMARK SMILES IDX 58 89 54 90 55 91 56 92 57 93
REMARK H PARENT 17 7 3 11 3 12 22 27 81 46 49 57
REMARK Flexibility Score: inf
ROOT
ATOM      1  C   UNL A   1      42.266  20.781  27.435  1.00  0.00     0.023 C 
ENDROOT
BRANCH   1   2
ATOM      2  C   UNL A   1      41.900  19.595  26.539  1.00  0.00     0.023 C 
BRANCH   2   3
ATOM      3  C   UNL A   1      43.084  18.719  26.141  1.00  0.00     0.116 C 
BRANCH   3   4
ATOM      4  N   UNL A   1      43.397  18.863  24.733  1.00  0.00    -0.351 N 
ATOM      5  C   UNL A   1      44.475  19.440  24.132  1.00  0.00     0.277 C 
ATOM      6  O   UNL A   1      44.527  19.420  22.898  1.00  0.00    -0.268 OA
ATOM      7  H   UNL A   1      42.728  18.486  24.116  1.00  0.00     0.163 HD
BRANCH   5   8
ATOM      8  C   UNL A   1      45.616  20.088  24.946  1.00  0.00     0.269 C 
ATOM      9  C   UNL A   1      46.644  19.045  25.378  1.00  0.00     0.086 C 
BRANCH   8  10
ATOM     10  N   UNL A   1      46.252  21.219  24.226  1.00  0.00    -0.334 N 
ATOM     11  H   UNL A   1      45.842  21.289  23.295  1.00  0.00     0.347 HD
ATOM     12  H   UNL A   1      47.255  21.035  24.177  1.00  0.00     0.347 HD
BRANCH  10  13
ATOM     13  C   UNL A   1      46.063  22.503  24.926  1.00  0.00     0.188 C 
ATOM     14  C   UNL A   1      44.997  23.373  24.258  1.00  0.00     0.093 C 
ATOM     15  C   UNL A   1      45.636  22.235  26.373  1.00  0.00     0.100 C 
ATOM     16  C   UNL A   1      44.799  24.646  25.071  1.00  0.00     0.167 C 
ATOM     17  C   UNL A   1      45.407  23.546  27.148  1.00  0.00     0.078 C 
ATOM     18  O   UNL A   1      44.467  24.367  26.429  1.00  0.00    -0.374 OA
ATOM     19  C   UNL A   1      46.733  24.292  27.414  1.00  0.00     0.064 C 
ATOM     20  C   UNL A   1      44.759  23.216  28.507  1.00  0.00     0.064 C 
ATOM     21  C   UNL A   1      46.521  25.473  28.350  1.00  0.00     0.163 C 
ATOM     22  C   UNL A   1      44.662  24.454  29.390  1.00  0.00     0.163 C 
ATOM     23  O   UNL A   1      45.949  25.037  29.580  1.00  0.00    -0.381 OA
ENDBRANCH  10  13
ENDBRANCH   8  10
ENDBRANCH   5   8
ENDBRANCH   3   4
ENDBRANCH   2   3
ENDBRANCH   1   2
BRANCH   1  24
ATOM     24  C   UNL A   1      41.101  21.686  27.829  1.00  0.00     0.116 C 
BRANCH  24  25
ATOM     25  N   UNL A   1      39.968  21.576  26.922  1.00  0.00    -0.352 N 
ATOM     26  C   UNL A   1      39.116  22.562  26.485  1.00  0.00     0.251 C 
ATOM     27  H   UNL A   1      39.789  20.673  26.574  1.00  0.00     0.163 HD
ATOM     28  O   UNL A   1      38.120  22.263  25.833  1.00  0.00    -0.269 OA
BRANCH  26  29
ATOM     29  C   UNL A   1      39.388  23.971  26.839  1.00  0.00     0.039 A 
ATOM     30  C   UNL A   1      39.020  24.433  28.105  1.00  0.00     0.014 A 
ATOM     31  C   UNL A   1      40.029  24.823  25.935  1.00  0.00     0.014 A 
ATOM     32  C   UNL A   1      39.362  25.731  28.491  1.00  0.00     0.010 A 
ATOM     33  C   UNL A   1      40.428  26.092  26.347  1.00  0.00     0.010 A 
ATOM     34  C   UNL A   1      40.102  26.557  27.631  1.00  0.00    -0.014 A 
BRANCH  34  35
ATOM     35  C   UNL A   1      40.551  27.910  28.057  1.00  0.00     0.031 A 
ATOM     36  C   UNL A   1      42.018  28.244  28.081  1.00  0.00     0.074 A 
ATOM     37  C   UNL A   1      39.644  28.811  28.484  1.00  0.00     0.049 A 
ATOM     38  N   UNL A   1      42.612  29.334  28.493  1.00  0.00    -0.248 NA
ATOM     39  C   UNL A   1      42.938  27.199  27.609  1.00  0.00     0.031 C 
ATOM     40  C   UNL A   1      38.197  28.590  28.544  1.00  0.00     0.029 A 
ATOM     41  N   UNL A   1      39.802  30.089  28.957  1.00  0.00    -0.354 N 
ATOM     42  C   UNL A   1      43.976  29.103  28.345  1.00  0.00     0.074 A 
ATOM     43  C   UNL A   1      44.118  27.744  27.861  1.00  0.00     0.031 C 
ATOM     44  C   UNL A   1      37.600  29.703  29.001  1.00  0.00     0.029 A 
ATOM     45  C   UNL A   1      38.620  30.699  29.313  1.00  0.00     0.049 A 
ATOM     46  H   UNL A   1      40.679  30.529  29.036  1.00  0.00     0.167 HD
ATOM     47  C   UNL A   1      45.010  29.949  28.571  1.00  0.00     0.034 A 
ATOM     48  C   UNL A   1      38.386  31.917  29.839  1.00  0.00     0.034 A 
ATOM     49  C   UNL A   1      44.849  31.305  29.040  1.00  0.00     0.049 A 
ATOM     50  C   UNL A   1      39.554  32.833  30.104  1.00  0.00     0.074 A 
ATOM     51  C   UNL A   1      45.823  32.269  29.241  1.00  0.00     0.029 A 
ATOM     52  N   UNL A   1      43.638  31.887  29.391  1.00  0.00    -0.354 N 
ATOM     53  N   UNL A   1      40.835  32.619  29.906  1.00  0.00    -0.248 NA
ATOM     54  C   UNL A   1      39.244  34.159  30.654  1.00  0.00     0.031 C 
ATOM     55  C   UNL A   1      45.210  33.407  29.778  1.00  0.00     0.029 A 
ATOM     56  C   UNL A   1      43.843  33.184  29.838  1.00  0.00     0.049 A 
ATOM     57  H   UNL A   1      42.761  31.444  29.331  1.00  0.00     0.167 HD
ATOM     58  C   UNL A   1      41.478  33.796  30.277  1.00  0.00     0.074 A 
ATOM     59  C   UNL A   1      40.443  34.719  30.697  1.00  0.00     0.031 C 
ATOM     60  C   UNL A   1      42.804  34.091  30.266  1.00  0.00     0.034 A 
BRANCH  47  61
ATOM     61  C   UNL A   1      46.406  29.418  28.341  1.00  0.00     0.023 A 
ATOM     62  C   UNL A   1      46.880  29.118  27.052  1.00  0.00     0.031 A 
ATOM     63  C   UNL A   1      47.267  29.182  29.428  1.00  0.00     0.131 A 
ATOM     64  C   UNL A   1      48.142  28.526  26.888  1.00  0.00     0.055 A 
ATOM     65  C   UNL A   1      48.554  28.670  29.251  1.00  0.00     0.041 A 
ATOM     66  F   UNL A   1      46.865  29.430  30.684  1.00  0.00    -0.206 F 
ATOM     67  C   UNL A   1      48.993  28.323  27.976  1.00  0.00     0.022 A 
BRANCH  64  68
ATOM     68  S   UNL A   1      48.594  27.892  25.250  1.00  0.00     0.124 S 
ATOM     69  O   UNL A   1      47.466  28.342  24.437  1.00  0.00    -0.237 OA
ATOM     70  O   UNL A   1      49.868  28.553  24.995  1.00  0.00    -0.237 OA
ATOM     71  O   UNL A   1      48.670  26.446  25.452  1.00  0.00    -0.744 OA
ENDBRANCH  64  68
ENDBRANCH  47  61
BRANCH  48  72
ATOM     72  C   UNL A   1      36.996  32.349  30.161  1.00  0.00     0.023 A 
ATOM     73  C   UNL A   1      36.195  32.980  29.196  1.00  0.00     0.031 A 
ATOM     74  C   UNL A   1      36.461  32.177  31.451  1.00  0.00     0.131 A 
ATOM     75  C   UNL A   1      34.923  33.460  29.546  1.00  0.00     0.055 A 
ATOM     76  C   UNL A   1      35.175  32.609  31.779  1.00  0.00     0.041 A 
ATOM     77  F   UNL A   1      37.183  31.574  32.409  1.00  0.00    -0.206 F 
ATOM     78  C   UNL A   1      34.403  33.267  30.827  1.00  0.00     0.022 A 
BRANCH  75  79
ATOM     79  S   UNL A   1      33.989  34.417  28.320  1.00  0.00     0.124 S 
ATOM     80  O   UNL A   1      33.658  35.622  29.073  1.00  0.00    -0.237 OA
ATOM     81  O   UNL A   1      34.967  34.576  27.250  1.00  0.00    -0.237 OA
ATOM     82  O   UNL A   1      32.858  33.549  28.003  1.00  0.00    -0.744 OA
ENDBRANCH  75  79
ENDBRANCH  48  72
BRANCH  60  83
ATOM     83  C   UNL A   1      43.198  35.488  30.677  1.00  0.00     0.023 A 
ATOM     84  C   UNL A   1      43.319  35.859  32.027  1.00  0.00     0.031 A 
ATOM     85  C   UNL A   1      43.444  36.468  29.697  1.00  0.00     0.131 A 
ATOM     86  C   UNL A   1      43.622  37.188  32.362  1.00  0.00     0.055 A 
ATOM     87  C   UNL A   1      43.804  37.772  30.037  1.00  0.00     0.041 A 
ATOM     88  F   UNL A   1      43.339  36.171  28.392  1.00  0.00    -0.206 F 
ATOM     89  C   UNL A   1      43.882  38.142  31.376  1.00  0.00     0.022 A 
BRANCH  86  90
ATOM     90  S   UNL A   1      43.584  37.676  34.109  1.00  0.00     0.124 S 
ATOM     91  O   UNL A   1      43.034  36.483  34.746  1.00  0.00    -0.237 OA
ATOM     92  O   UNL A   1      44.989  37.956  34.387  1.00  0.00    -0.237 OA
ATOM     93  O   UNL A   1      42.706  38.845  34.120  1.00  0.00    -0.744 OA
ENDBRANCH  86  90
ENDBRANCH  60  83
ENDBRANCH  34  35
ENDBRANCH  26  29
ENDBRANCH  24  25
ENDBRANCH   1  24
TORSDOF 16
ENDMDL
MODEL 3
REMARK VINA RESULT:     -11.5      6.542     11.714
REMARK SMILES C[C@@H]([NH2+][C@H]1CCOC2(CCOCC2)C1)C(=O)NCCCCNC(=O)c1ccc(-c2c3nc(c(-c4cc(S(=O)(=O)[O-])ccc4F)c4ccc([nH]4)c(-c4cc(S(=O)(=O)[O-])ccc4F)c4nc(c(-c5cc(S(=O)(=O)[O-])ccc5F)c5ccc2[nH]5)C=C4)C=C3)cc1
REMARK SMILES IDX 20 1 19 2 18 3 17 4 15 5 16 6 2 8 1 9 3 10 4 13 5 14 14 15
REMARK SMILES IDX 6 16 8 17 7 18 9 19 13 20 10 21 12 22 11 23 21 24 22 25
REMARK SMILES IDX 23 26 24 28 25 29 26 30 87 31 27 32 86 33 28 34 29 35 30 36
REMARK SMILES IDX 80 37 31 38 85 39 79 40 81 41 32 42 84 43 78 44 77 45 33 47
REMARK SMILES IDX 65 48 45 49 64 50 46 51 49 52 63 53 82 54 47 55 48 56 62 58
REMARK SMILES IDX 83 59 50 60 34 61 35 62 43 63 36 64 42 65 44 66 41 67 37 68
REMARK SMILES IDX 38 69 39 70 40 71 66 72 67 73 75 74 68 75 74 76 76 77 73 78
REMARK SMILES IDX 69 79 70 80 71 81 72 82 51 83 52 84 60 85 53 86 59 87 61 88
REMARK SMILES IDX 58 89 54 90 55 91 56 92 57 93
REMARK H PARENT 17 7 3 11 3 12 22 27 81 46 49 57
REMARK Flexibility Score: inf
ROOT
ATOM      1  C   UNL A   1      37.943  20.425  24.936  1.00  0.00     0.023 C 
ENDROOT
BRANCH   1   2
ATOM      2  C   UNL A   1      37.054  21.635  24.636  1.00  0.00     0.023 C 
BRANCH   2   3
ATOM      3  C   UNL A   1      36.521  22.346  25.876  1.00  0.00     0.116 C 
BRANCH   3   4
ATOM      4  N   UNL A   1      35.730  23.507  25.519  1.00  0.00    -0.351 N 
ATOM      5  C   UNL A   1      34.382  23.629  25.359  1.00  0.00     0.277 C 
ATOM      6  O   UNL A   1      33.935  24.744  25.069  1.00  0.00    -0.268 OA
ATOM      7  H   UNL A   1      36.245  24.333  25.370  1.00  0.00     0.163 HD
BRANCH   5   8
ATOM      8  C   UNL A   1      33.424  22.435  25.546  1.00  0.00     0.269 C 
ATOM      9  C   UNL A   1      32.436  22.694  26.682  1.00  0.00     0.086 C 
BRANCH   8  10
ATOM     10  N   UNL A   1      32.727  22.066  24.288  1.00  0.00    -0.334 N 
ATOM     11  H   UNL A   1      33.284  22.389  23.497  1.00  0.00     0.347 HD
ATOM     12  H   UNL A   1      31.806  22.505  24.299  1.00  0.00     0.347 HD
BRANCH  10  13
ATOM     13  C   UNL A   1      32.531  20.609  24.165  1.00  0.00     0.188 C 
ATOM     14  C   UNL A   1      32.215  20.188  22.730  1.00  0.00     0.093 C 
ATOM     15  C   UNL A   1      33.805  19.885  24.615  1.00  0.00     0.100 C 
ATOM     16  C   UNL A   1      32.099  18.670  22.661  1.00  0.00     0.167 C 
ATOM     17  C   UNL A   1      33.661  18.356  24.492  1.00  0.00     0.078 C 
ATOM     18  O   UNL A   1      33.272  18.022  23.146  1.00  0.00    -0.374 OA
ATOM     19  C   UNL A   1      32.672  17.790  25.532  1.00  0.00     0.064 C 
ATOM     20  C   UNL A   1      35.038  17.705  24.730  1.00  0.00     0.064 C 
ATOM     21  C   UNL A   1      32.691  16.267  25.537  1.00  0.00     0.163 C 
ATOM     22  C   UNL A   1      34.929  16.186  24.788  1.00  0.00     0.163 C 
ATOM     23  O   UNL A   1      34.006  15.787  25.800  1.00  0.00    -0.381 OA
ENDBRANCH  10  13
ENDBRANCH   8  10
ENDBRANCH   5   8
ENDBRANCH   3   4
ENDBRANCH   2   3
ENDBRANCH   1   2
BRANCH   1  24
ATOM     24  C   UNL A   1      39.128  20.698  25.859  1.00  0.00     0.116 C 
BRANCH  24  25
ATOM     25  N   UNL A   1      40.047  19.572  25.946  1.00  0.00    -0.352 N 
ATOM     26  C   UNL A   1      41.409  19.584  26.129  1.00  0.00     0.251 C 
ATOM     27  H   UNL A   1      39.636  18.681  25.863  1.00  0.00     0.163 HD
ATOM     28  O   UNL A   1      42.047  18.541  26.030  1.00  0.00    -0.269 OA
BRANCH  26  29
ATOM     29  C   UNL A   1      42.096  20.863  26.404  1.00  0.00     0.039 A 
ATOM     30  C   UNL A   1      42.396  21.714  25.337  1.00  0.00     0.014 A 
ATOM     31  C   UNL A   1      42.418  21.233  27.713  1.00  0.00     0.014 A 
ATOM     32  C   UNL A   1      42.951  22.969  25.591  1.00  0.00     0.010 A 
ATOM     33  C   UNL A   1      42.909  22.511  27.968  1.00  0.00     0.010 A 
ATOM     34  C   UNL A   1      43.177  23.394  26.911  1.00  0.00    -0.014 A 
BRANCH  34  35
ATOM     35  C   UNL A   1      43.685  24.760  27.205  1.00  0.00     0.031 A 
ATOM     36  C   UNL A   1      42.753  25.812  27.742  1.00  0.00     0.074 A 
ATOM     37  C   UNL A   1      44.968  25.069  26.928  1.00  0.00     0.049 A 
ATOM     38  N   UNL A   1      42.984  27.076  27.987  1.00  0.00    -0.248 NA
ATOM     39  C   UNL A   1      41.369  25.392  28.005  1.00  0.00     0.031 C 
ATOM     40  C   UNL A   1      45.958  24.145  26.369  1.00  0.00     0.029 A 
ATOM     41  N   UNL A   1      45.658  26.247  27.068  1.00  0.00    -0.354 N 
ATOM     42  C   UNL A   1      41.773  27.607  28.420  1.00  0.00     0.074 A 
ATOM     43  C   UNL A   1      40.799  26.538  28.344  1.00  0.00     0.031 C 
ATOM     44  C   UNL A   1      47.132  24.784  26.239  1.00  0.00     0.029 A 
ATOM     45  C   UNL A   1      46.970  26.173  26.658  1.00  0.00     0.049 A 
ATOM     46  H   UNL A   1      45.253  27.069  27.428  1.00  0.00     0.167 HD
ATOM     47  C   UNL A   1      41.504  28.861  28.857  1.00  0.00     0.034 A 
ATOM     48  C   UNL A   1      47.930  27.118  26.614  1.00  0.00     0.034 A 
ATOM     49  C   UNL A   1      42.491  29.911  28.940  1.00  0.00     0.049 A 
ATOM     50  C   UNL A   1      47.601  28.513  27.085  1.00  0.00     0.074 A 
ATOM     51  C   UNL A   1      42.342  31.198  29.428  1.00  0.00     0.029 A 
ATOM     52  N   UNL A   1      43.809  29.800  28.514  1.00  0.00    -0.354 N 
ATOM     53  N   UNL A   1      46.464  28.984  27.543  1.00  0.00    -0.248 NA
ATOM     54  C   UNL A   1      48.687  29.499  27.041  1.00  0.00     0.031 C 
ATOM     55  C   UNL A   1      43.547  31.884  29.234  1.00  0.00     0.029 A 
ATOM     56  C   UNL A   1      44.473  31.003  28.697  1.00  0.00     0.049 A 
ATOM     57  H   UNL A   1      44.213  28.985  28.137  1.00  0.00     0.167 HD
ATOM     58  C   UNL A   1      46.711  30.314  27.873  1.00  0.00     0.074 A 
ATOM     59  C   UNL A   1      48.106  30.563  27.573  1.00  0.00     0.031 C 
ATOM     60  C   UNL A   1      45.863  31.243  28.384  1.00  0.00     0.034 A 
BRANCH  47  61
ATOM     61  C   UNL A   1      40.078  29.169  29.252  1.00  0.00     0.023 A 
ATOM     62  C   UNL A   1      39.683  29.243  30.599  1.00  0.00     0.031 A 
ATOM     63  C   UNL A   1      39.093  29.364  28.268  1.00  0.00     0.131 A 
ATOM     64  C   UNL A   1      38.330  29.423  30.925  1.00  0.00     0.055 A 
ATOM     65  C   UNL A   1      37.763  29.627  28.598  1.00  0.00     0.041 A 
ATOM     66  F   UNL A   1      39.404  29.288  26.964  1.00  0.00    -0.206 F 
ATOM     67  C   UNL A   1      37.370  29.641  29.934  1.00  0.00     0.022 A 
BRANCH  64  68
ATOM     68  S   UNL A   1      37.822  29.223  32.654  1.00  0.00     0.124 S 
ATOM     69  O   UNL A   1      38.930  29.857  33.363  1.00  0.00    -0.237 OA
ATOM     70  O   UNL A   1      36.549  29.932  32.694  1.00  0.00    -0.237 OA
ATOM     71  O   UNL A   1      37.734  27.773  32.819  1.00  0.00    -0.744 OA
ENDBRANCH  64  68
ENDBRANCH  47  61
BRANCH  48  72
ATOM     72  C   UNL A   1      49.292  26.792  26.102  1.00  0.00     0.023 A 
ATOM     73  C   UNL A   1      49.708  27.224  24.834  1.00  0.00     0.031 A 
ATOM     74  C   UNL A   1      50.182  26.006  26.857  1.00  0.00     0.131 A 
ATOM     75  C   UNL A   1      50.959  26.828  24.334  1.00  0.00     0.055 A 
ATOM     76  C   UNL A   1      51.447  25.660  26.378  1.00  0.00     0.041 A 
ATOM     77  F   UNL A   1      49.836  25.571  28.078  1.00  0.00    -0.206 F 
ATOM     78  C   UNL A   1      51.836  26.061  25.103  1.00  0.00     0.022 A 
BRANCH  75  79
ATOM     79  S   UNL A   1      51.391  27.266  22.628  1.00  0.00     0.124 S 
ATOM     80  O   UNL A   1      51.453  28.722  22.701  1.00  0.00    -0.237 OA
ATOM     81  O   UNL A   1      52.664  26.577  22.451  1.00  0.00    -0.237 OA
ATOM     82  O   UNL A   1      50.279  26.727  21.848  1.00  0.00    -0.744 OA
ENDBRANCH  75  79
ENDBRANCH  48  72
BRANCH  60  83
ATOM     83  C   UNL A   1      46.442  32.602  28.694  1.00  0.00     0.023 A 
ATOM     84  C   UNL A   1      46.422  33.649  27.757  1.00  0.00     0.031 A 
ATOM     85  C   UNL A   1      47.036  32.846  29.946  1.00  0.00     0.131 A 
ATOM     86  C   UNL A   1      47.033  34.874  28.065  1.00  0.00     0.055 A 
ATOM     87  C   UNL A   1      47.588  34.085  30.269  1.00  0.00     0.041 A 
ATOM     88  F   UNL A   1      47.086  31.880  30.878  1.00  0.00    -0.206 F 
ATOM     89  C   UNL A   1      47.601  35.104  29.321  1.00  0.00     0.022 A 
BRANCH  86  90
ATOM     90  S   UNL A   1      47.158  36.137  26.768  1.00  0.00     0.124 S 
ATOM     91  O   UNL A   1      48.469  36.720  27.038  1.00  0.00    -0.237 OA
ATOM     92  O   UNL A   1      47.053  35.344  25.548  1.00  0.00    -0.237 OA
ATOM     93  O   UNL A   1      46.023  37.017  27.035  1.00  0.00    -0.744 OA
ENDBRANCH  86  90
ENDBRANCH  60  83
ENDBRANCH  34  35
ENDBRANCH  26  29
ENDBRANCH  24  25
ENDBRANCH   1  24
TORSDOF 16
ENDMDL
