MODEL 1
REMARK VINA RESULT:     -11.4      0.000      0.000
REMARK SMILES CC[C@](O)(C(=O)NCCCCNC(=O)c1ccc(-c2c3nc(c(-c4cc(S(=O)(=O)[O-])ccc4F)c4ccc([nH]4)c(-c4cc(S(=O)(=O)[O-])ccc4F)c4nc(c(-c5cc(S(=O)(=O)[O-])ccc5F)c5ccc2[nH]5)C=C4)C=C3)cc1)[C@@H](C)c1ccc2c(c1)OCCO2
REMARK SMILES IDX 10 1 9 2 8 3 7 4 5 5 6 6 3 8 2 9 1 10 78 11 79 12 80 13
REMARK SMILES IDX 81 14 85 15 82 16 84 17 83 18 86 19 89 20 87 21 88 22 4 23
REMARK SMILES IDX 11 25 12 26 13 27 14 29 15 30 16 31 77 32 17 33 76 34 18 35
REMARK SMILES IDX 19 36 20 37 70 38 21 39 75 40 69 41 71 42 22 43 74 44 68 45
REMARK SMILES IDX 67 46 23 48 55 49 35 50 54 51 36 52 39 53 53 54 72 55 37 56
REMARK SMILES IDX 38 57 52 59 73 60 40 61 24 62 25 63 33 64 26 65 32 66 34 67
REMARK SMILES IDX 31 68 27 69 28 70 29 71 30 72 56 73 57 74 65 75 58 76 64 77
REMARK SMILES IDX 66 78 63 79 59 80 60 81 61 82 62 83 41 84 42 85 50 86 43 87
REMARK SMILES IDX 49 88 51 89 48 90 44 91 45 92 46 93 47 94
REMARK H PARENT 7 7 4 24 12 28 71 47 39 58
REMARK Flexibility Score: inf
ROOT
ATOM      1  C   UNL A   1      32.589  28.549  27.650  1.00  0.00     0.023 C 
ENDROOT
BRANCH   1   2
ATOM      2  C   UNL A   1      31.680  27.596  26.878  1.00  0.00     0.023 C 
BRANCH   2   3
ATOM      3  C   UNL A   1      32.332  26.296  26.431  1.00  0.00     0.116 C 
BRANCH   3   4
ATOM      4  N   UNL A   1      31.456  25.412  25.679  1.00  0.00    -0.354 N 
ATOM      5  C   UNL A   1      31.332  25.230  24.325  1.00  0.00     0.252 C 
ATOM      6  O   UNL A   1      30.662  24.261  23.952  1.00  0.00    -0.272 OA
ATOM      7  H   UNL A   1      30.856  24.857  26.227  1.00  0.00     0.163 HD
BRANCH   5   8
ATOM      8  C   UNL A   1      32.063  26.152  23.297  1.00  0.00     0.149 C 
BRANCH   8   9
ATOM      9  C   UNL A   1      31.656  25.695  21.861  1.00  0.00     0.043 C 
ATOM     10  C   UNL A   1      32.656  25.752  20.720  1.00  0.00     0.007 C 
ENDBRANCH   8   9
BRANCH   8  11
ATOM     11  C   UNL A   1      31.630  27.692  23.558  1.00  0.00     0.058 C 
ATOM     12  C   UNL A   1      32.715  28.683  23.095  1.00  0.00     0.016 C 
BRANCH  11  13
ATOM     13  C   UNL A   1      30.269  27.999  22.884  1.00  0.00    -0.038 A 
ATOM     14  C   UNL A   1      29.066  27.450  23.370  1.00  0.00     0.008 A 
ATOM     15  C   UNL A   1      30.207  29.116  22.039  1.00  0.00     0.054 A 
ATOM     16  C   UNL A   1      27.883  28.184  23.297  1.00  0.00     0.051 A 
ATOM     17  C   UNL A   1      29.084  29.927  22.128  1.00  0.00     0.161 A 
ATOM     18  C   UNL A   1      27.949  29.477  22.803  1.00  0.00     0.161 A 
ATOM     19  O   UNL A   1      29.251  31.239  21.768  1.00  0.00    -0.486 OA
ATOM     20  O   UNL A   1      26.984  30.372  23.203  1.00  0.00    -0.486 OA
ATOM     21  C   UNL A   1      28.534  32.151  22.618  1.00  0.00     0.271 C 
ATOM     22  C   UNL A   1      27.711  31.496  23.726  1.00  0.00     0.271 C 
ENDBRANCH  11  13
ENDBRANCH   8  11
BRANCH   8  23
ATOM     23  O   UNL A   1      33.486  26.074  23.433  1.00  0.00    -0.379 OA
ATOM     24  H   UNL A   1      33.845  25.486  22.750  1.00  0.00     0.212 HD
ENDBRANCH   8  23
ENDBRANCH   5   8
ENDBRANCH   3   4
ENDBRANCH   2   3
ENDBRANCH   1   2
BRANCH   1  25
ATOM     25  C   UNL A   1      33.446  29.488  26.807  1.00  0.00     0.116 C 
BRANCH  25  26
ATOM     26  N   UNL A   1      33.403  30.871  27.254  1.00  0.00    -0.352 N 
ATOM     27  C   UNL A   1      34.296  31.573  28.036  1.00  0.00     0.251 C 
ATOM     28  H   UNL A   1      32.617  31.383  26.954  1.00  0.00     0.163 HD
ATOM     29  O   UNL A   1      34.016  32.703  28.405  1.00  0.00    -0.269 OA
BRANCH  27  30
ATOM     30  C   UNL A   1      35.571  30.941  28.453  1.00  0.00     0.039 A 
ATOM     31  C   UNL A   1      36.775  31.497  28.014  1.00  0.00     0.014 A 
ATOM     32  C   UNL A   1      35.585  29.811  29.273  1.00  0.00     0.014 A 
ATOM     33  C   UNL A   1      37.989  30.956  28.448  1.00  0.00     0.010 A 
ATOM     34  C   UNL A   1      36.791  29.335  29.781  1.00  0.00     0.010 A 
ATOM     35  C   UNL A   1      38.009  29.889  29.360  1.00  0.00    -0.014 A 
BRANCH  35  36
ATOM     36  C   UNL A   1      39.292  29.308  29.842  1.00  0.00     0.031 A 
ATOM     37  C   UNL A   1      39.970  29.888  31.056  1.00  0.00     0.074 A 
ATOM     38  C   UNL A   1      39.870  28.293  29.167  1.00  0.00     0.049 A 
ATOM     39  N   UNL A   1      41.105  29.555  31.615  1.00  0.00    -0.248 NA
ATOM     40  C   UNL A   1      39.294  31.022  31.707  1.00  0.00     0.031 C 
ATOM     41  C   UNL A   1      39.340  27.674  27.950  1.00  0.00     0.029 A 
ATOM     42  N   UNL A   1      41.030  27.599  29.411  1.00  0.00    -0.354 N 
ATOM     43  C   UNL A   1      41.290  30.449  32.665  1.00  0.00     0.074 A 
ATOM     44  C   UNL A   1      40.186  31.383  32.615  1.00  0.00     0.031 C 
ATOM     45  C   UNL A   1      40.151  26.669  27.578  1.00  0.00     0.029 A 
ATOM     46  C   UNL A   1      41.278  26.594  28.503  1.00  0.00     0.049 A 
ATOM     47  H   UNL A   1      41.630  27.802  30.164  1.00  0.00     0.167 HD
ATOM     48  C   UNL A   1      42.271  30.474  33.602  1.00  0.00     0.034 A 
ATOM     49  C   UNL A   1      42.295  25.713  28.428  1.00  0.00     0.034 A 
ATOM     50  C   UNL A   1      43.351  29.518  33.650  1.00  0.00     0.049 A 
ATOM     51  C   UNL A   1      43.373  25.754  29.482  1.00  0.00     0.074 A 
ATOM     52  C   UNL A   1      44.365  29.409  34.586  1.00  0.00     0.029 A 
ATOM     53  N   UNL A   1      43.559  28.505  32.722  1.00  0.00    -0.354 N 
ATOM     54  N   UNL A   1      43.502  26.569  30.504  1.00  0.00    -0.248 NA
ATOM     55  C   UNL A   1      44.432  24.741  29.384  1.00  0.00     0.031 C 
ATOM     56  C   UNL A   1      45.223  28.379  34.186  1.00  0.00     0.029 A 
ATOM     57  C   UNL A   1      44.699  27.786  33.049  1.00  0.00     0.049 A 
ATOM     58  H   UNL A   1      42.983  28.325  31.945  1.00  0.00     0.167 HD
ATOM     59  C   UNL A   1      44.631  26.134  31.196  1.00  0.00     0.074 A 
ATOM     60  C   UNL A   1      45.136  24.982  30.479  1.00  0.00     0.031 C 
ATOM     61  C   UNL A   1      45.193  26.636  32.326  1.00  0.00     0.034 A 
BRANCH  48  62
ATOM     62  C   UNL A   1      42.226  31.586  34.626  1.00  0.00     0.023 A 
ATOM     63  C   UNL A   1      41.329  31.562  35.709  1.00  0.00     0.031 A 
ATOM     64  C   UNL A   1      43.062  32.710  34.494  1.00  0.00     0.131 A 
ATOM     65  C   UNL A   1      41.222  32.674  36.557  1.00  0.00     0.055 A 
ATOM     66  C   UNL A   1      43.016  33.773  35.398  1.00  0.00     0.041 A 
ATOM     67  F   UNL A   1      43.925  32.803  33.470  1.00  0.00    -0.206 F 
ATOM     68  C   UNL A   1      42.078  33.769  36.426  1.00  0.00     0.022 A 
BRANCH  65  69
ATOM     69  S   UNL A   1      39.834  32.742  37.725  1.00  0.00     0.124 S 
ATOM     70  O   UNL A   1      39.407  34.132  37.594  1.00  0.00    -0.237 OA
ATOM     71  O   UNL A   1      38.921  31.740  37.188  1.00  0.00    -0.237 OA
ATOM     72  O   UNL A   1      40.448  32.405  39.008  1.00  0.00    -0.744 OA
ENDBRANCH  65  69
ENDBRANCH  48  62
BRANCH  49  73
ATOM     73  C   UNL A   1      42.342  24.698  27.334  1.00  0.00     0.023 A 
ATOM     74  C   UNL A   1      41.548  23.541  27.391  1.00  0.00     0.031 A 
ATOM     75  C   UNL A   1      43.217  24.842  26.244  1.00  0.00     0.131 A 
ATOM     76  C   UNL A   1      41.683  22.549  26.407  1.00  0.00     0.055 A 
ATOM     77  C   UNL A   1      43.308  23.879  25.238  1.00  0.00     0.041 A 
ATOM     78  F   UNL A   1      43.994  25.932  26.137  1.00  0.00    -0.206 F 
ATOM     79  C   UNL A   1      42.549  22.715  25.324  1.00  0.00     0.022 A 
BRANCH  76  80
ATOM     80  S   UNL A   1      40.774  20.991  26.612  1.00  0.00     0.124 S 
ATOM     81  O   UNL A   1      39.461  21.342  26.088  1.00  0.00    -0.237 OA
ATOM     82  O   UNL A   1      41.565  20.071  25.802  1.00  0.00    -0.237 OA
ATOM     83  O   UNL A   1      40.830  20.753  28.053  1.00  0.00    -0.744 OA
ENDBRANCH  76  80
ENDBRANCH  49  73
BRANCH  61  84
ATOM     84  C   UNL A   1      46.379  25.891  32.893  1.00  0.00     0.023 A 
ATOM     85  C   UNL A   1      46.229  24.846  33.822  1.00  0.00     0.031 A 
ATOM     86  C   UNL A   1      47.684  26.255  32.517  1.00  0.00     0.131 A 
ATOM     87  C   UNL A   1      47.363  24.253  34.396  1.00  0.00     0.055 A 
ATOM     88  C   UNL A   1      48.808  25.613  33.038  1.00  0.00     0.041 A 
ATOM     89  F   UNL A   1      47.889  27.248  31.636  1.00  0.00    -0.206 F 
ATOM     90  C   UNL A   1      48.652  24.617  33.997  1.00  0.00     0.022 A 
BRANCH  87  91
ATOM     91  S   UNL A   1      47.136  23.081  35.763  1.00  0.00     0.124 S 
ATOM     92  O   UNL A   1      45.943  22.354  35.344  1.00  0.00    -0.237 OA
ATOM     93  O   UNL A   1      48.385  22.326  35.737  1.00  0.00    -0.237 OA
ATOM     94  O   UNL A   1      46.959  23.945  36.929  1.00  0.00    -0.744 OA
ENDBRANCH  87  91
ENDBRANCH  61  84
ENDBRANCH  35  36
ENDBRANCH  27  30
ENDBRANCH  25  26
ENDBRANCH   1  25
TORSDOF 18
ENDMDL
MODEL 2
REMARK VINA RESULT:     -11.3      2.033      3.779
REMARK SMILES CC[C@](O)(C(=O)NCCCCNC(=O)c1ccc(-c2c3nc(c(-c4cc(S(=O)(=O)[O-])ccc4F)c4ccc([nH]4)c(-c4cc(S(=O)(=O)[O-])ccc4F)c4nc(c(-c5cc(S(=O)(=O)[O-])ccc5F)c5ccc2[nH]5)C=C4)C=C3)cc1)[C@@H](C)c1ccc2c(c1)OCCO2
REMARK SMILES IDX 10 1 9 2 8 3 7 4 5 5 6 6 3 8 2 9 1 10 78 11 79 12 80 13
REMARK SMILES IDX 81 14 85 15 82 16 84 17 83 18 86 19 89 20 87 21 88 22 4 23
REMARK SMILES IDX 11 25 12 26 13 27 14 29 15 30 16 31 77 32 17 33 76 34 18 35
REMARK SMILES IDX 19 36 20 37 70 38 21 39 75 40 69 41 71 42 22 43 74 44 68 45
REMARK SMILES IDX 67 46 23 48 55 49 35 50 54 51 36 52 39 53 53 54 72 55 37 56
REMARK SMILES IDX 38 57 52 59 73 60 40 61 24 62 25 63 33 64 26 65 32 66 34 67
REMARK SMILES IDX 31 68 27 69 28 70 29 71 30 72 56 73 57 74 65 75 58 76 64 77
REMARK SMILES IDX 66 78 63 79 59 80 60 81 61 82 62 83 41 84 42 85 50 86 43 87
REMARK SMILES IDX 49 88 51 89 48 90 44 91 45 92 46 93 47 94
REMARK H PARENT 7 7 4 24 12 28 71 47 39 58
REMARK Flexibility Score: inf
ROOT
ATOM      1  C   UNL A   1      32.752  28.239  25.941  1.00  0.00     0.023 C 
ENDROOT
BRANCH   1   2
ATOM      2  C   UNL A   1      31.651  29.081  25.302  1.00  0.00     0.023 C 
BRANCH   2   3
ATOM      3  C   UNL A   1      31.515  28.935  23.793  1.00  0.00     0.116 C 
BRANCH   3   4
ATOM      4  N   UNL A   1      32.770  28.699  23.097  1.00  0.00    -0.354 N 
ATOM      5  C   UNL A   1      33.128  27.698  22.231  1.00  0.00     0.252 C 
ATOM      6  O   UNL A   1      34.186  27.849  21.612  1.00  0.00    -0.272 OA
ATOM      7  H   UNL A   1      33.475  29.363  23.275  1.00  0.00     0.163 HD
BRANCH   5   8
ATOM      8  C   UNL A   1      32.211  26.459  21.977  1.00  0.00     0.149 C 
BRANCH   8   9
ATOM      9  C   UNL A   1      32.889  25.569  20.889  1.00  0.00     0.043 C 
ATOM     10  C   UNL A   1      32.353  25.543  19.468  1.00  0.00     0.007 C 
ENDBRANCH   8   9
BRANCH   8  11
ATOM     11  C   UNL A   1      32.025  25.637  23.362  1.00  0.00     0.058 C 
ATOM     12  C   UNL A   1      30.774  24.740  23.337  1.00  0.00     0.016 C 
BRANCH  11  13
ATOM     13  C   UNL A   1      33.298  24.814  23.683  1.00  0.00    -0.038 A 
ATOM     14  C   UNL A   1      34.297  25.309  24.544  1.00  0.00     0.008 A 
ATOM     15  C   UNL A   1      33.256  23.437  23.419  1.00  0.00     0.054 A 
ATOM     16  C   UNL A   1      35.005  24.435  25.369  1.00  0.00     0.051 A 
ATOM     17  C   UNL A   1      33.817  22.586  24.361  1.00  0.00     0.161 A 
ATOM     18  C   UNL A   1      34.643  23.097  25.362  1.00  0.00     0.161 A 
ATOM     19  O   UNL A   1      33.310  21.313  24.409  1.00  0.00    -0.486 OA
ATOM     20  O   UNL A   1      34.911  22.349  26.485  1.00  0.00    -0.486 OA
ATOM     21  C   UNL A   1      33.181  20.808  25.749  1.00  0.00     0.271 C 
ATOM     22  C   UNL A   1      33.653  21.758  26.849  1.00  0.00     0.271 C 
ENDBRANCH  11  13
ENDBRANCH   8  11
BRANCH   8  23
ATOM     23  O   UNL A   1      30.908  26.847  21.526  1.00  0.00    -0.379 OA
ATOM     24  H   UNL A   1      30.266  26.159  21.759  1.00  0.00     0.212 HD
ENDBRANCH   8  23
ENDBRANCH   5   8
ENDBRANCH   3   4
ENDBRANCH   2   3
ENDBRANCH   1   2
BRANCH   1  25
ATOM     25  C   UNL A   1      34.011  28.990  26.363  1.00  0.00     0.116 C 
BRANCH  25  26
ATOM     26  N   UNL A   1      33.750  30.339  26.838  1.00  0.00    -0.352 N 
ATOM     27  C   UNL A   1      34.460  31.111  27.733  1.00  0.00     0.251 C 
ATOM     28  H   UNL A   1      32.944  30.765  26.465  1.00  0.00     0.163 HD
ATOM     29  O   UNL A   1      34.004  32.183  28.098  1.00  0.00    -0.269 OA
BRANCH  27  30
ATOM     30  C   UNL A   1      35.751  30.620  28.273  1.00  0.00     0.039 A 
ATOM     31  C   UNL A   1      35.743  29.835  29.430  1.00  0.00     0.014 A 
ATOM     32  C   UNL A   1      36.961  30.924  27.647  1.00  0.00     0.014 A 
ATOM     33  C   UNL A   1      36.942  29.308  29.919  1.00  0.00     0.010 A 
ATOM     34  C   UNL A   1      38.139  30.320  28.079  1.00  0.00     0.010 A 
ATOM     35  C   UNL A   1      38.148  29.520  29.231  1.00  0.00    -0.014 A 
BRANCH  35  36
ATOM     36  C   UNL A   1      39.432  28.957  29.732  1.00  0.00     0.031 A 
ATOM     37  C   UNL A   1      40.111  29.581  30.924  1.00  0.00     0.074 A 
ATOM     38  C   UNL A   1      40.010  27.919  29.093  1.00  0.00     0.049 A 
ATOM     39  N   UNL A   1      41.247  29.269  31.492  1.00  0.00    -0.248 NA
ATOM     40  C   UNL A   1      39.435  30.737  31.535  1.00  0.00     0.031 C 
ATOM     41  C   UNL A   1      39.479  27.257  27.900  1.00  0.00     0.029 A 
ATOM     42  N   UNL A   1      41.170  27.236  29.360  1.00  0.00    -0.354 N 
ATOM     43  C   UNL A   1      41.432  30.200  32.509  1.00  0.00     0.074 A 
ATOM     44  C   UNL A   1      40.328  31.131  32.428  1.00  0.00     0.031 C 
ATOM     45  C   UNL A   1      40.290  26.240  27.562  1.00  0.00     0.029 A 
ATOM     46  C   UNL A   1      41.418  26.199  28.488  1.00  0.00     0.049 A 
ATOM     47  H   UNL A   1      41.771  27.466  30.104  1.00  0.00     0.167 HD
ATOM     48  C   UNL A   1      42.415  30.258  33.444  1.00  0.00     0.034 A 
ATOM     49  C   UNL A   1      42.435  25.316  28.443  1.00  0.00     0.034 A 
ATOM     50  C   UNL A   1      43.495  29.306  33.525  1.00  0.00     0.049 A 
ATOM     51  C   UNL A   1      43.515  25.396  29.494  1.00  0.00     0.074 A 
ATOM     52  C   UNL A   1      44.511  29.231  34.463  1.00  0.00     0.029 A 
ATOM     53  N   UNL A   1      43.703  28.261  32.633  1.00  0.00    -0.354 N 
ATOM     54  N   UNL A   1      43.644  26.247  30.486  1.00  0.00    -0.248 NA
ATOM     55  C   UNL A   1      44.574  24.380  29.430  1.00  0.00     0.031 C 
ATOM     56  C   UNL A   1      45.370  28.188  34.099  1.00  0.00     0.029 A 
ATOM     57  C   UNL A   1      44.844  27.554  32.984  1.00  0.00     0.049 A 
ATOM     58  H   UNL A   1      43.126  28.052  31.863  1.00  0.00     0.167 HD
ATOM     59  C   UNL A   1      44.775  25.838  31.191  1.00  0.00     0.074 A 
ATOM     60  C   UNL A   1      45.280  24.661  30.515  1.00  0.00     0.031 C 
ATOM     61  C   UNL A   1      45.338  26.380  32.301  1.00  0.00     0.034 A 
BRANCH  48  62
ATOM     62  C   UNL A   1      42.371  31.407  34.428  1.00  0.00     0.023 A 
ATOM     63  C   UNL A   1      41.482  31.416  35.517  1.00  0.00     0.031 A 
ATOM     64  C   UNL A   1      43.198  32.530  34.249  1.00  0.00     0.131 A 
ATOM     65  C   UNL A   1      41.374  32.558  36.326  1.00  0.00     0.055 A 
ATOM     66  C   UNL A   1      43.152  33.625  35.114  1.00  0.00     0.041 A 
ATOM     67  F   UNL A   1      44.054  32.592  33.216  1.00  0.00    -0.206 F 
ATOM     68  C   UNL A   1      42.222  33.652  36.149  1.00  0.00     0.022 A 
BRANCH  65  69
ATOM     69  S   UNL A   1      39.994  32.659  37.501  1.00  0.00     0.124 S 
ATOM     70  O   UNL A   1      39.178  31.517  37.095  1.00  0.00    -0.237 OA
ATOM     71  O   UNL A   1      40.667  32.538  38.789  1.00  0.00    -0.237 OA
ATOM     72  O   UNL A   1      39.403  33.966  37.224  1.00  0.00    -0.744 OA
ENDBRANCH  65  69
ENDBRANCH  48  62
BRANCH  49  73
ATOM     73  C   UNL A   1      42.482  24.263  27.386  1.00  0.00     0.023 A 
ATOM     74  C   UNL A   1      41.783  23.054  27.542  1.00  0.00     0.031 A 
ATOM     75  C   UNL A   1      43.264  24.425  26.230  1.00  0.00     0.131 A 
ATOM     76  C   UNL A   1      41.923  22.035  26.588  1.00  0.00     0.055 A 
ATOM     77  C   UNL A   1      43.357  23.430  25.256  1.00  0.00     0.041 A 
ATOM     78  F   UNL A   1      43.948  25.563  26.027  1.00  0.00    -0.206 F 
ATOM     79  C   UNL A   1      42.695  22.219  25.439  1.00  0.00     0.022 A 
BRANCH  76  80
ATOM     80  S   UNL A   1      41.151  20.425  26.915  1.00  0.00     0.124 S 
ATOM     81  O   UNL A   1      40.010  20.453  26.008  1.00  0.00    -0.237 OA
ATOM     82  O   UNL A   1      42.225  19.500  26.570  1.00  0.00    -0.237 OA
ATOM     83  O   UNL A   1      40.821  20.490  28.338  1.00  0.00    -0.744 OA
ENDBRANCH  76  80
ENDBRANCH  49  73
BRANCH  61  84
ATOM     84  C   UNL A   1      46.525  25.656  32.894  1.00  0.00     0.023 A 
ATOM     85  C   UNL A   1      47.838  25.881  32.444  1.00  0.00     0.031 A 
ATOM     86  C   UNL A   1      46.331  24.701  33.908  1.00  0.00     0.131 A 
ATOM     87  C   UNL A   1      48.893  25.111  32.955  1.00  0.00     0.055 A 
ATOM     88  C   UNL A   1      47.394  23.988  34.463  1.00  0.00     0.041 A 
ATOM     89  F   UNL A   1      45.098  24.442  34.375  1.00  0.00    -0.206 F 
ATOM     90  C   UNL A   1      48.682  24.178  33.975  1.00  0.00     0.022 A 
BRANCH  87  91
ATOM     91  S   UNL A   1      50.530  25.255  32.185  1.00  0.00     0.124 S 
ATOM     92  O   UNL A   1      50.786  23.884  31.757  1.00  0.00    -0.237 OA
ATOM     93  O   UNL A   1      50.287  26.221  31.117  1.00  0.00    -0.237 OA
ATOM     94  O   UNL A   1      51.380  25.735  33.273  1.00  0.00    -0.744 OA
ENDBRANCH  87  91
ENDBRANCH  61  84
ENDBRANCH  35  36
ENDBRANCH  27  30
ENDBRANCH  25  26
ENDBRANCH   1  25
TORSDOF 18
ENDMDL
MODEL 3
REMARK VINA RESULT:     -11.3      1.819      2.380
REMARK SMILES CC[C@](O)(C(=O)NCCCCNC(=O)c1ccc(-c2c3nc(c(-c4cc(S(=O)(=O)[O-])ccc4F)c4ccc([nH]4)c(-c4cc(S(=O)(=O)[O-])ccc4F)c4nc(c(-c5cc(S(=O)(=O)[O-])ccc5F)c5ccc2[nH]5)C=C4)C=C3)cc1)[C@@H](C)c1ccc2c(c1)OCCO2
REMARK SMILES IDX 10 1 9 2 8 3 7 4 5 5 6 6 3 8 2 9 1 10 78 11 79 12 80 13
REMARK SMILES IDX 81 14 85 15 82 16 84 17 83 18 86 19 89 20 87 21 88 22 4 23
REMARK SMILES IDX 11 25 12 26 13 27 14 29 15 30 16 31 77 32 17 33 76 34 18 35
REMARK SMILES IDX 19 36 20 37 70 38 21 39 75 40 69 41 71 42 22 43 74 44 68 45
REMARK SMILES IDX 67 46 23 48 55 49 35 50 54 51 36 52 39 53 53 54 72 55 37 56
REMARK SMILES IDX 38 57 52 59 73 60 40 61 24 62 25 63 33 64 26 65 32 66 34 67
REMARK SMILES IDX 31 68 27 69 28 70 29 71 30 72 56 73 57 74 65 75 58 76 64 77
REMARK SMILES IDX 66 78 63 79 59 80 60 81 61 82 62 83 41 84 42 85 50 86 43 87
REMARK SMILES IDX 49 88 51 89 48 90 44 91 45 92 46 93 47 94
REMARK H PARENT 7 7 4 24 12 28 71 47 39 58
REMARK Flexibility Score: inf
ROOT
ATOM      1  C   UNL A   1      31.352  28.898  26.142  1.00  0.00     0.023 C 
ENDROOT
BRANCH   1   2
ATOM      2  C   UNL A   1      31.427  27.436  26.576  1.00  0.00     0.023 C 
BRANCH   2   3
ATOM      3  C   UNL A   1      32.399  26.573  25.784  1.00  0.00     0.116 C 
BRANCH   3   4
ATOM      4  N   UNL A   1      31.769  25.513  25.013  1.00  0.00    -0.354 N 
ATOM      5  C   UNL A   1      31.731  25.306  23.658  1.00  0.00     0.252 C 
ATOM      6  O   UNL A   1      31.310  24.211  23.273  1.00  0.00    -0.272 OA
ATOM      7  H   UNL A   1      31.295  24.836  25.548  1.00  0.00     0.163 HD
BRANCH   5   8
ATOM      8  C   UNL A   1      32.263  26.371  22.645  1.00  0.00     0.149 C 
BRANCH   8   9
ATOM      9  C   UNL A   1      31.700  26.018  21.232  1.00  0.00     0.043 C 
ATOM     10  C   UNL A   1      32.626  25.532  20.131  1.00  0.00     0.007 C 
ENDBRANCH   8   9
BRANCH   8  11
ATOM     11  C   UNL A   1      31.775  27.844  23.110  1.00  0.00     0.058 C 
ATOM     12  C   UNL A   1      32.742  28.947  22.643  1.00  0.00     0.016 C 
BRANCH  11  13
ATOM     13  C   UNL A   1      30.331  28.121  22.620  1.00  0.00    -0.038 A 
ATOM     14  C   UNL A   1      29.211  27.585  23.285  1.00  0.00     0.008 A 
ATOM     15  C   UNL A   1      30.144  29.209  21.755  1.00  0.00     0.054 A 
ATOM     16  C   UNL A   1      28.023  28.310  23.350  1.00  0.00     0.051 A 
ATOM     17  C   UNL A   1      29.036  30.018  21.970  1.00  0.00     0.161 A 
ATOM     18  C   UNL A   1      28.008  29.587  22.809  1.00  0.00     0.161 A 
ATOM     19  O   UNL A   1      29.141  31.318  21.547  1.00  0.00    -0.486 OA
ATOM     20  O   UNL A   1      27.100  30.490  23.308  1.00  0.00    -0.486 OA
ATOM     21  C   UNL A   1      28.539  32.255  22.456  1.00  0.00     0.271 C 
ATOM     22  C   UNL A   1      27.881  31.635  23.688  1.00  0.00     0.271 C 
ENDBRANCH  11  13
ENDBRANCH   8  11
BRANCH   8  23
ATOM     23  O   UNL A   1      33.694  26.385  22.594  1.00  0.00    -0.379 OA
ATOM     24  H   UNL A   1      33.988  26.993  21.899  1.00  0.00     0.212 HD
ENDBRANCH   8  23
ENDBRANCH   5   8
ENDBRANCH   3   4
ENDBRANCH   2   3
ENDBRANCH   1   2
BRANCH   1  25
ATOM     25  C   UNL A   1      32.661  29.679  26.192  1.00  0.00     0.116 C 
BRANCH  25  26
ATOM     26  N   UNL A   1      32.480  31.098  26.457  1.00  0.00    -0.352 N 
ATOM     27  C   UNL A   1      33.223  31.949  27.247  1.00  0.00     0.251 C 
ATOM     28  H   UNL A   1      31.710  31.513  26.004  1.00  0.00     0.163 HD
ATOM     29  O   UNL A   1      32.832  33.090  27.438  1.00  0.00    -0.269 OA
BRANCH  27  30
ATOM     30  C   UNL A   1      34.470  31.464  27.888  1.00  0.00     0.039 A 
ATOM     31  C   UNL A   1      35.533  32.355  28.057  1.00  0.00     0.014 A 
ATOM     32  C   UNL A   1      34.593  30.143  28.325  1.00  0.00     0.014 A 
ATOM     33  C   UNL A   1      36.692  31.937  28.717  1.00  0.00     0.010 A 
ATOM     34  C   UNL A   1      35.707  29.758  29.067  1.00  0.00     0.010 A 
ATOM     35  C   UNL A   1      36.779  30.643  29.256  1.00  0.00    -0.014 A 
BRANCH  35  36
ATOM     36  C   UNL A   1      38.000  30.184  29.971  1.00  0.00     0.031 A 
ATOM     37  C   UNL A   1      38.269  30.659  31.377  1.00  0.00     0.074 A 
ATOM     38  C   UNL A   1      38.887  29.382  29.349  1.00  0.00     0.049 A 
ATOM     39  N   UNL A   1      39.288  30.409  32.158  1.00  0.00    -0.248 NA
ATOM     40  C   UNL A   1      37.273  31.567  31.966  1.00  0.00     0.031 C 
ATOM     41  C   UNL A   1      38.767  28.892  27.974  1.00  0.00     0.029 A 
ATOM     42  N   UNL A   1      40.065  28.833  29.792  1.00  0.00    -0.354 N 
ATOM     43  C   UNL A   1      39.067  31.145  33.319  1.00  0.00     0.074 A 
ATOM     44  C   UNL A   1      37.855  31.906  33.105  1.00  0.00     0.031 C 
ATOM     45  C   UNL A   1      39.807  28.085  27.701  1.00  0.00     0.029 A 
ATOM     46  C   UNL A   1      40.688  28.029  28.864  1.00  0.00     0.049 A 
ATOM     47  H   UNL A   1      40.432  29.000  30.690  1.00  0.00     0.167 HD
ATOM     48  C   UNL A   1      39.788  31.162  34.468  1.00  0.00     0.034 A 
ATOM     49  C   UNL A   1      41.835  27.326  28.943  1.00  0.00     0.034 A 
ATOM     50  C   UNL A   1      40.981  30.376  34.673  1.00  0.00     0.049 A 
ATOM     51  C   UNL A   1      42.620  27.356  30.231  1.00  0.00     0.074 A 
ATOM     52  C   UNL A   1      41.759  30.269  35.813  1.00  0.00     0.029 A 
ATOM     53  N   UNL A   1      41.572  29.563  33.714  1.00  0.00    -0.354 N 
ATOM     54  N   UNL A   1      42.366  28.011  31.341  1.00  0.00    -0.248 NA
ATOM     55  C   UNL A   1      43.836  26.534  30.282  1.00  0.00     0.031 C 
ATOM     56  C   UNL A   1      42.854  29.449  35.523  1.00  0.00     0.029 A 
ATOM     57  C   UNL A   1      42.716  28.972  34.229  1.00  0.00     0.049 A 
ATOM     58  H   UNL A   1      41.229  29.425  32.801  1.00  0.00     0.167 HD
ATOM     59  C   UNL A   1      43.366  27.640  32.237  1.00  0.00     0.074 A 
ATOM     60  C   UNL A   1      44.218  26.699  31.539  1.00  0.00     0.031 C 
ATOM     61  C   UNL A   1      43.558  28.034  33.523  1.00  0.00     0.034 A 
BRANCH  48  62
ATOM     62  C   UNL A   1      39.315  32.082  35.571  1.00  0.00     0.023 A 
ATOM     63  C   UNL A   1      39.668  33.443  35.605  1.00  0.00     0.031 A 
ATOM     64  C   UNL A   1      38.535  31.583  36.630  1.00  0.00     0.131 A 
ATOM     65  C   UNL A   1      39.326  34.231  36.714  1.00  0.00     0.055 A 
ATOM     66  C   UNL A   1      38.117  32.396  37.685  1.00  0.00     0.041 A 
ATOM     67  F   UNL A   1      38.181  30.288  36.667  1.00  0.00    -0.206 F 
ATOM     68  C   UNL A   1      38.529  33.724  37.742  1.00  0.00     0.022 A 
BRANCH  65  69
ATOM     69  S   UNL A   1      40.080  35.873  36.876  1.00  0.00     0.124 S 
ATOM     70  O   UNL A   1      39.705  36.496  35.609  1.00  0.00    -0.237 OA
ATOM     71  O   UNL A   1      39.428  36.405  38.067  1.00  0.00    -0.237 OA
ATOM     72  O   UNL A   1      41.505  35.584  37.020  1.00  0.00    -0.744 OA
ENDBRANCH  65  69
ENDBRANCH  48  62
BRANCH  49  73
ATOM     73  C   UNL A   1      42.310  26.512  27.784  1.00  0.00     0.023 A 
ATOM     74  C   UNL A   1      41.935  25.166  27.648  1.00  0.00     0.031 A 
ATOM     75  C   UNL A   1      43.185  27.051  26.826  1.00  0.00     0.131 A 
ATOM     76  C   UNL A   1      42.474  24.389  26.611  1.00  0.00     0.055 A 
ATOM     77  C   UNL A   1      43.676  26.290  25.764  1.00  0.00     0.041 A 
ATOM     78  F   UNL A   1      43.571  28.335  26.904  1.00  0.00    -0.206 F 
ATOM     79  C   UNL A   1      43.333  24.945  25.660  1.00  0.00     0.022 A 
BRANCH  76  80
ATOM     80  S   UNL A   1      42.109  22.612  26.575  1.00  0.00     0.124 S 
ATOM     81  O   UNL A   1      42.618  22.230  25.264  1.00  0.00    -0.237 OA
ATOM     82  O   UNL A   1      42.864  22.125  27.725  1.00  0.00    -0.237 OA
ATOM     83  O   UNL A   1      40.656  22.561  26.722  1.00  0.00    -0.744 OA
ENDBRANCH  76  80
ENDBRANCH  49  73
BRANCH  61  84
ATOM     84  C   UNL A   1      44.697  27.387  34.277  1.00  0.00     0.023 A 
ATOM     85  C   UNL A   1      44.522  26.209  35.025  1.00  0.00     0.031 A 
ATOM     86  C   UNL A   1      45.972  27.979  34.269  1.00  0.00     0.131 A 
ATOM     87  C   UNL A   1      45.585  25.704  35.790  1.00  0.00     0.055 A 
ATOM     88  C   UNL A   1      47.044  27.432  34.975  1.00  0.00     0.041 A 
ATOM     89  F   UNL A   1      46.197  29.107  33.574  1.00  0.00    -0.206 F 
ATOM     90  C   UNL A   1      46.849  26.297  35.756  1.00  0.00     0.022 A 
BRANCH  87  91
ATOM     91  S   UNL A   1      45.260  24.329  36.930  1.00  0.00     0.124 S 
ATOM     92  O   UNL A   1      44.189  24.870  37.761  1.00  0.00    -0.237 OA
ATOM     93  O   UNL A   1      44.880  23.254  36.020  1.00  0.00    -0.237 OA
ATOM     94  O   UNL A   1      46.540  24.140  37.612  1.00  0.00    -0.744 OA
ENDBRANCH  87  91
ENDBRANCH  61  84
ENDBRANCH  35  36
ENDBRANCH  27  30
ENDBRANCH  25  26
ENDBRANCH   1  25
TORSDOF 18
ENDMDL
