MODEL 1
REMARK VINA RESULT:     -11.9      0.000      0.000
REMARK SMILES CCn1c(=O)n(CC)c2cc(C(=O)NCCCCNC(=O)c3ccc(-c4c5nc(c(-c6cc(S(=O)(=O)[O-])ccc6F)c6ccc([nH]6)c(-c6cc(S(=O)(=O)[O-])ccc6F)c6nc(c(-c7cc(S(=O)(=O)[O-])ccc7F)c7ccc4[nH]7)C=C6)C=C5)cc3)ccc21
REMARK SMILES IDX 17 1 16 2 15 3 14 4 12 5 13 6 11 8 3 9 4 10 87 11 5 12 6 13
REMARK SMILES IDX 9 14 86 15 10 16 85 17 2 18 1 19 7 20 8 21 18 22 19 23 20 24
REMARK SMILES IDX 21 26 22 27 23 28 84 29 24 30 83 31 25 32 26 33 27 34 77 35
REMARK SMILES IDX 28 36 82 37 76 38 78 39 29 40 81 41 75 42 74 43 30 45 62 46
REMARK SMILES IDX 42 47 61 48 43 49 46 50 60 51 79 52 44 53 45 54 59 56 80 57
REMARK SMILES IDX 47 58 31 59 32 60 40 61 33 62 39 63 41 64 38 65 34 66 35 67
REMARK SMILES IDX 36 68 37 69 63 70 64 71 72 72 65 73 71 74 73 75 70 76 66 77
REMARK SMILES IDX 67 78 68 79 69 80 48 81 49 82 57 83 50 84 56 85 58 86 55 87
REMARK SMILES IDX 51 88 52 89 53 90 54 91
REMARK H PARENT 14 7 19 25 78 44 46 55
REMARK Flexibility Score: inf
ROOT
ATOM      1  C   UNL A   1      31.953  29.791  27.047  1.00  0.00     0.023 C 
ENDROOT
BRANCH   1   2
ATOM      2  C   UNL A   1      31.915  28.274  27.297  1.00  0.00     0.023 C 
BRANCH   2   3
ATOM      3  C   UNL A   1      31.405  27.464  26.102  1.00  0.00     0.116 C 
BRANCH   3   4
ATOM      4  N   UNL A   1      30.705  26.277  26.549  1.00  0.00    -0.352 N 
ATOM      5  C   UNL A   1      31.067  24.956  26.587  1.00  0.00     0.251 C 
ATOM      6  O   UNL A   1      30.276  24.163  27.098  1.00  0.00    -0.269 OA
ATOM      7  H   UNL A   1      29.799  26.452  26.890  1.00  0.00     0.163 HD
BRANCH   5   8
ATOM      8  C   UNL A   1      32.389  24.453  26.115  1.00  0.00     0.042 A 
ATOM      9  N   UNL A   1      35.981  22.580  25.217  1.00  0.00    -0.292 N 
ATOM     10  C   UNL A   1      35.582  21.226  25.252  1.00  0.00     0.329 A 
ATOM     11  C   UNL A   1      34.861  23.383  25.464  1.00  0.00     0.069 A 
ATOM     12  O   UNL A   1      36.289  20.245  25.034  1.00  0.00    -0.248 OA
ATOM     13  N   UNL A   1      34.202  21.223  25.556  1.00  0.00    -0.292 N 
ATOM     14  C   UNL A   1      33.775  22.549  25.720  1.00  0.00     0.070 A 
ATOM     15  C   UNL A   1      34.727  24.751  25.432  1.00  0.00     0.029 A 
ATOM     16  C   UNL A   1      32.538  23.055  26.056  1.00  0.00     0.042 A 
ATOM     17  C   UNL A   1      33.465  25.278  25.722  1.00  0.00     0.016 A 
BRANCH   9  18
ATOM     18  C   UNL A   1      37.309  23.061  24.926  1.00  0.00     0.124 C 
ATOM     19  C   UNL A   1      37.985  23.710  26.125  1.00  0.00     0.028 C 
ENDBRANCH   9  18
BRANCH  13  20
ATOM     20  C   UNL A   1      33.344  20.064  25.524  1.00  0.00     0.124 C 
ATOM     21  C   UNL A   1      32.682  19.829  24.178  1.00  0.00     0.028 C 
ENDBRANCH  13  20
ENDBRANCH   5   8
ENDBRANCH   3   4
ENDBRANCH   2   3
ENDBRANCH   1   2
BRANCH   1  22
ATOM     22  C   UNL A   1      33.370  30.369  26.998  1.00  0.00     0.116 C 
BRANCH  22  23
ATOM     23  N   UNL A   1      33.655  31.249  28.114  1.00  0.00    -0.352 N 
ATOM     24  C   UNL A   1      34.780  31.597  28.807  1.00  0.00     0.251 C 
ATOM     25  H   UNL A   1      32.849  31.700  28.452  1.00  0.00     0.163 HD
ATOM     26  O   UNL A   1      34.627  32.475  29.662  1.00  0.00    -0.269 OA
BRANCH  24  27
ATOM     27  C   UNL A   1      36.112  30.958  28.652  1.00  0.00     0.039 A 
ATOM     28  C   UNL A   1      36.324  29.634  28.271  1.00  0.00     0.014 A 
ATOM     29  C   UNL A   1      37.223  31.740  29.022  1.00  0.00     0.014 A 
ATOM     30  C   UNL A   1      37.581  29.067  28.383  1.00  0.00     0.010 A 
ATOM     31  C   UNL A   1      38.491  31.182  29.115  1.00  0.00     0.010 A 
ATOM     32  C   UNL A   1      38.646  29.824  28.869  1.00  0.00    -0.014 A 
BRANCH  32  33
ATOM     33  C   UNL A   1      39.894  29.108  29.099  1.00  0.00     0.031 A 
ATOM     34  C   UNL A   1      40.205  28.823  30.528  1.00  0.00     0.074 A 
ATOM     35  C   UNL A   1      40.703  28.723  28.094  1.00  0.00     0.049 A 
ATOM     36  N   UNL A   1      41.169  29.291  31.256  1.00  0.00    -0.248 NA
ATOM     37  C   UNL A   1      39.218  28.030  31.273  1.00  0.00     0.031 C 
ATOM     38  C   UNL A   1      40.421  28.684  26.655  1.00  0.00     0.029 A 
ATOM     39  N   UNL A   1      41.944  28.179  28.176  1.00  0.00    -0.354 N 
ATOM     40  C   UNL A   1      41.014  28.705  32.514  1.00  0.00     0.074 A 
ATOM     41  C   UNL A   1      39.720  28.072  32.506  1.00  0.00     0.031 C 
ATOM     42  C   UNL A   1      41.347  27.910  26.045  1.00  0.00     0.029 A 
ATOM     43  C   UNL A   1      42.364  27.550  27.017  1.00  0.00     0.049 A 
ATOM     44  H   UNL A   1      42.496  28.227  28.990  1.00  0.00     0.167 HD
ATOM     45  C   UNL A   1      42.034  28.619  33.416  1.00  0.00     0.034 A 
ATOM     46  C   UNL A   1      43.415  26.704  26.900  1.00  0.00     0.034 A 
ATOM     47  C   UNL A   1      43.106  29.517  33.099  1.00  0.00     0.049 A 
ATOM     48  C   UNL A   1      44.315  26.934  28.058  1.00  0.00     0.074 A 
ATOM     49  C   UNL A   1      43.250  30.888  33.060  1.00  0.00     0.029 A 
ATOM     50  N   UNL A   1      44.190  29.006  32.428  1.00  0.00    -0.354 N 
ATOM     51  N   UNL A   1      45.001  28.028  28.243  1.00  0.00    -0.248 NA
ATOM     52  C   UNL A   1      44.104  26.119  29.246  1.00  0.00     0.031 C 
ATOM     53  C   UNL A   1      44.131  31.132  31.971  1.00  0.00     0.029 A 
ATOM     54  C   UNL A   1      44.509  29.897  31.438  1.00  0.00     0.049 A 
ATOM     55  H   UNL A   1      44.650  28.158  32.623  1.00  0.00     0.167 HD
ATOM     56  C   UNL A   1      44.933  28.259  29.610  1.00  0.00     0.074 A 
ATOM     57  C   UNL A   1      44.448  27.005  30.184  1.00  0.00     0.031 C 
ATOM     58  C   UNL A   1      45.006  29.520  30.129  1.00  0.00     0.034 A 
BRANCH  45  59
ATOM     59  C   UNL A   1      42.189  27.484  34.400  1.00  0.00     0.023 A 
ATOM     60  C   UNL A   1      42.939  26.332  34.107  1.00  0.00     0.031 A 
ATOM     61  C   UNL A   1      41.790  27.631  35.745  1.00  0.00     0.131 A 
ATOM     62  C   UNL A   1      43.251  25.383  35.087  1.00  0.00     0.055 A 
ATOM     63  C   UNL A   1      42.161  26.717  36.743  1.00  0.00     0.041 A 
ATOM     64  F   UNL A   1      41.080  28.697  36.145  1.00  0.00    -0.206 F 
ATOM     65  C   UNL A   1      42.896  25.585  36.415  1.00  0.00     0.022 A 
BRANCH  62  66
ATOM     66  S   UNL A   1      44.142  23.870  34.636  1.00  0.00     0.124 S 
ATOM     67  O   UNL A   1      43.142  23.161  33.846  1.00  0.00    -0.237 OA
ATOM     68  O   UNL A   1      45.277  24.406  33.888  1.00  0.00    -0.237 OA
ATOM     69  O   UNL A   1      44.480  23.276  35.926  1.00  0.00    -0.744 OA
ENDBRANCH  62  66
ENDBRANCH  45  59
BRANCH  46  70
ATOM     70  C   UNL A   1      43.342  25.396  26.208  1.00  0.00     0.023 A 
ATOM     71  C   UNL A   1      42.442  24.413  26.669  1.00  0.00     0.031 A 
ATOM     72  C   UNL A   1      44.328  24.992  25.295  1.00  0.00     0.131 A 
ATOM     73  C   UNL A   1      42.558  23.083  26.251  1.00  0.00     0.055 A 
ATOM     74  C   UNL A   1      44.435  23.663  24.867  1.00  0.00     0.041 A 
ATOM     75  F   UNL A   1      45.240  25.869  24.849  1.00  0.00    -0.206 F 
ATOM     76  C   UNL A   1      43.555  22.698  25.355  1.00  0.00     0.022 A 
BRANCH  73  77
ATOM     77  S   UNL A   1      41.462  21.806  26.930  1.00  0.00     0.124 S 
ATOM     78  O   UNL A   1      40.812  22.516  28.029  1.00  0.00    -0.237 OA
ATOM     79  O   UNL A   1      40.612  21.505  25.784  1.00  0.00    -0.237 OA
ATOM     80  O   UNL A   1      42.379  20.747  27.338  1.00  0.00    -0.744 OA
ENDBRANCH  73  77
ENDBRANCH  46  70
BRANCH  58  81
ATOM     81  C   UNL A   1      45.373  30.672  29.222  1.00  0.00     0.023 A 
ATOM     82  C   UNL A   1      46.683  31.174  29.319  1.00  0.00     0.031 A 
ATOM     83  C   UNL A   1      44.434  31.441  28.508  1.00  0.00     0.131 A 
ATOM     84  C   UNL A   1      47.003  32.424  28.779  1.00  0.00     0.055 A 
ATOM     85  C   UNL A   1      44.776  32.656  27.905  1.00  0.00     0.041 A 
ATOM     86  F   UNL A   1      43.141  31.095  28.458  1.00  0.00    -0.206 F 
ATOM     87  C   UNL A   1      46.062  33.164  28.057  1.00  0.00     0.022 A 
BRANCH  84  88
ATOM     88  S   UNL A   1      48.594  33.200  29.158  1.00  0.00     0.124 S 
ATOM     89  O   UNL A   1      48.977  33.767  27.868  1.00  0.00    -0.237 OA
ATOM     90  O   UNL A   1      48.225  34.174  30.185  1.00  0.00    -0.237 OA
ATOM     91  O   UNL A   1      49.426  32.095  29.626  1.00  0.00    -0.744 OA
ENDBRANCH  84  88
ENDBRANCH  58  81
ENDBRANCH  32  33
ENDBRANCH  24  27
ENDBRANCH  22  23
ENDBRANCH   1  22
TORSDOF 16
ENDMDL
MODEL 2
REMARK VINA RESULT:     -11.6      3.250      8.638
REMARK SMILES CCn1c(=O)n(CC)c2cc(C(=O)NCCCCNC(=O)c3ccc(-c4c5nc(c(-c6cc(S(=O)(=O)[O-])ccc6F)c6ccc([nH]6)c(-c6cc(S(=O)(=O)[O-])ccc6F)c6nc(c(-c7cc(S(=O)(=O)[O-])ccc7F)c7ccc4[nH]7)C=C6)C=C5)cc3)ccc21
REMARK SMILES IDX 17 1 16 2 15 3 14 4 12 5 13 6 11 8 3 9 4 10 87 11 5 12 6 13
REMARK SMILES IDX 9 14 86 15 10 16 85 17 2 18 1 19 7 20 8 21 18 22 19 23 20 24
REMARK SMILES IDX 21 26 22 27 23 28 84 29 24 30 83 31 25 32 26 33 27 34 77 35
REMARK SMILES IDX 28 36 82 37 76 38 78 39 29 40 81 41 75 42 74 43 30 45 62 46
REMARK SMILES IDX 42 47 61 48 43 49 46 50 60 51 79 52 44 53 45 54 59 56 80 57
REMARK SMILES IDX 47 58 31 59 32 60 40 61 33 62 39 63 41 64 38 65 34 66 35 67
REMARK SMILES IDX 36 68 37 69 63 70 64 71 72 72 65 73 71 74 73 75 70 76 66 77
REMARK SMILES IDX 67 78 68 79 69 80 48 81 49 82 57 83 50 84 56 85 58 86 55 87
REMARK SMILES IDX 51 88 52 89 53 90 54 91
REMARK H PARENT 14 7 19 25 78 44 46 55
REMARK Flexibility Score: inf
ROOT
ATOM      1  C   UNL A   1      37.490  21.638  24.677  1.00  0.00     0.023 C 
ENDROOT
BRANCH   1   2
ATOM      2  C   UNL A   1      36.413  20.625  25.098  1.00  0.00     0.023 C 
BRANCH   2   3
ATOM      3  C   UNL A   1      35.268  21.242  25.905  1.00  0.00     0.116 C 
BRANCH   3   4
ATOM      4  N   UNL A   1      34.020  20.561  25.626  1.00  0.00    -0.352 N 
ATOM      5  C   UNL A   1      32.743  21.020  25.441  1.00  0.00     0.251 C 
ATOM      6  O   UNL A   1      31.878  20.197  25.140  1.00  0.00    -0.269 OA
ATOM      7  H   UNL A   1      34.106  19.583  25.556  1.00  0.00     0.163 HD
BRANCH   5   8
ATOM      8  C   UNL A   1      32.372  22.463  25.511  1.00  0.00     0.042 A 
ATOM      9  N   UNL A   1      31.926  26.588  25.485  1.00  0.00    -0.292 N 
ATOM     10  C   UNL A   1      32.593  26.912  24.284  1.00  0.00     0.329 A 
ATOM     11  C   UNL A   1      31.942  25.198  25.644  1.00  0.00     0.069 A 
ATOM     12  O   UNL A   1      32.734  28.033  23.800  1.00  0.00    -0.248 OA
ATOM     13  N   UNL A   1      33.041  25.691  23.731  1.00  0.00    -0.292 N 
ATOM     14  C   UNL A   1      32.668  24.647  24.590  1.00  0.00     0.070 A 
ATOM     15  C   UNL A   1      31.339  24.408  26.594  1.00  0.00     0.029 A 
ATOM     16  C   UNL A   1      32.905  23.292  24.506  1.00  0.00     0.042 A 
ATOM     17  C   UNL A   1      31.529  23.026  26.493  1.00  0.00     0.016 A 
BRANCH   9  18
ATOM     18  C   UNL A   1      31.291  27.527  26.377  1.00  0.00     0.124 C 
ATOM     19  C   UNL A   1      32.210  28.008  27.492  1.00  0.00     0.028 C 
ENDBRANCH   9  18
BRANCH  13  20
ATOM     20  C   UNL A   1      33.621  25.532  22.421  1.00  0.00     0.124 C 
ATOM     21  C   UNL A   1      32.597  25.451  21.303  1.00  0.00     0.028 C 
ENDBRANCH  13  20
ENDBRANCH   5   8
ENDBRANCH   3   4
ENDBRANCH   2   3
ENDBRANCH   1   2
BRANCH   1  22
ATOM     22  C   UNL A   1      38.046  22.463  25.840  1.00  0.00     0.116 C 
BRANCH  22  23
ATOM     23  N   UNL A   1      39.217  21.860  26.446  1.00  0.00    -0.352 N 
ATOM     24  C   UNL A   1      40.252  22.316  27.211  1.00  0.00     0.251 C 
ATOM     25  H   UNL A   1      39.282  20.896  26.260  1.00  0.00     0.163 HD
ATOM     26  O   UNL A   1      41.032  21.452  27.621  1.00  0.00    -0.269 OA
BRANCH  24  27
ATOM     27  C   UNL A   1      40.529  23.745  27.510  1.00  0.00     0.039 A 
ATOM     28  C   UNL A   1      41.554  24.205  28.335  1.00  0.00     0.014 A 
ATOM     29  C   UNL A   1      39.611  24.678  26.990  1.00  0.00     0.014 A 
ATOM     30  C   UNL A   1      41.586  25.528  28.738  1.00  0.00     0.010 A 
ATOM     31  C   UNL A   1      39.652  26.012  27.374  1.00  0.00     0.010 A 
ATOM     32  C   UNL A   1      40.597  26.412  28.310  1.00  0.00    -0.014 A 
BRANCH  32  33
ATOM     33  C   UNL A   1      40.619  27.742  28.903  1.00  0.00     0.031 A 
ATOM     34  C   UNL A   1      41.674  28.653  28.376  1.00  0.00     0.074 A 
ATOM     35  C   UNL A   1      39.743  28.126  29.851  1.00  0.00     0.049 A 
ATOM     36  N   UNL A   1      42.705  29.139  28.992  1.00  0.00    -0.248 NA
ATOM     37  C   UNL A   1      41.649  28.926  26.933  1.00  0.00     0.031 C 
ATOM     38  C   UNL A   1      38.504  27.465  30.276  1.00  0.00     0.029 A 
ATOM     39  N   UNL A   1      39.740  29.273  30.576  1.00  0.00    -0.354 N 
ATOM     40  C   UNL A   1      43.367  29.934  28.054  1.00  0.00     0.074 A 
ATOM     41  C   UNL A   1      42.765  29.638  26.779  1.00  0.00     0.031 C 
ATOM     42  C   UNL A   1      37.754  28.342  30.978  1.00  0.00     0.029 A 
ATOM     43  C   UNL A   1      38.531  29.551  31.190  1.00  0.00     0.049 A 
ATOM     44  H   UNL A   1      40.528  29.857  30.658  1.00  0.00     0.167 HD
ATOM     45  C   UNL A   1      44.240  30.920  28.411  1.00  0.00     0.034 A 
ATOM     46  C   UNL A   1      38.162  30.735  31.735  1.00  0.00     0.034 A 
ATOM     47  C   UNL A   1      44.686  30.776  29.766  1.00  0.00     0.049 A 
ATOM     48  C   UNL A   1      39.396  31.514  32.006  1.00  0.00     0.074 A 
ATOM     49  C   UNL A   1      45.445  29.849  30.449  1.00  0.00     0.029 A 
ATOM     50  N   UNL A   1      44.062  31.533  30.727  1.00  0.00    -0.354 N 
ATOM     51  N   UNL A   1      40.284  31.187  32.904  1.00  0.00    -0.248 NA
ATOM     52  C   UNL A   1      39.864  32.417  30.964  1.00  0.00     0.031 C 
ATOM     53  C   UNL A   1      44.865  29.787  31.747  1.00  0.00     0.029 A 
ATOM     54  C   UNL A   1      43.817  30.709  31.794  1.00  0.00     0.049 A 
ATOM     55  H   UNL A   1      43.834  32.488  30.661  1.00  0.00     0.167 HD
ATOM     56  C   UNL A   1      41.506  31.478  32.313  1.00  0.00     0.074 A 
ATOM     57  C   UNL A   1      41.180  32.317  31.161  1.00  0.00     0.031 C 
ATOM     58  C   UNL A   1      42.642  30.794  32.639  1.00  0.00     0.034 A 
BRANCH  45  59
ATOM     59  C   UNL A   1      44.433  32.194  27.623  1.00  0.00     0.023 A 
ATOM     60  C   UNL A   1      43.792  33.396  27.970  1.00  0.00     0.031 A 
ATOM     61  C   UNL A   1      45.448  32.298  26.650  1.00  0.00     0.131 A 
ATOM     62  C   UNL A   1      44.131  34.614  27.370  1.00  0.00     0.055 A 
ATOM     63  C   UNL A   1      45.837  33.527  26.098  1.00  0.00     0.041 A 
ATOM     64  F   UNL A   1      46.137  31.218  26.248  1.00  0.00    -0.206 F 
ATOM     65  C   UNL A   1      45.176  34.695  26.458  1.00  0.00     0.022 A 
BRANCH  62  66
ATOM     66  S   UNL A   1      43.210  36.119  27.787  1.00  0.00     0.124 S 
ATOM     67  O   UNL A   1      44.259  37.130  27.752  1.00  0.00    -0.237 OA
ATOM     68  O   UNL A   1      42.234  36.179  26.701  1.00  0.00    -0.237 OA
ATOM     69  O   UNL A   1      42.650  35.822  29.102  1.00  0.00    -0.744 OA
ENDBRANCH  62  66
ENDBRANCH  45  59
BRANCH  46  70
ATOM     70  C   UNL A   1      36.860  31.390  31.470  1.00  0.00     0.023 A 
ATOM     71  C   UNL A   1      36.390  31.495  30.145  1.00  0.00     0.031 A 
ATOM     72  C   UNL A   1      36.212  32.159  32.449  1.00  0.00     0.131 A 
ATOM     73  C   UNL A   1      35.340  32.363  29.824  1.00  0.00     0.055 A 
ATOM     74  C   UNL A   1      35.152  33.017  32.129  1.00  0.00     0.041 A 
ATOM     75  F   UNL A   1      36.636  32.136  33.721  1.00  0.00    -0.206 F 
ATOM     76  C   UNL A   1      34.719  33.131  30.809  1.00  0.00     0.022 A 
BRANCH  73  77
ATOM     77  S   UNL A   1      34.812  32.570  28.101  1.00  0.00     0.124 S 
ATOM     78  O   UNL A   1      33.461  33.105  28.259  1.00  0.00    -0.237 OA
ATOM     79  O   UNL A   1      35.806  33.510  27.596  1.00  0.00    -0.237 OA
ATOM     80  O   UNL A   1      34.878  31.218  27.555  1.00  0.00    -0.744 OA
ENDBRANCH  73  77
ENDBRANCH  46  70
BRANCH  58  81
ATOM     81  C   UNL A   1      42.619  29.839  33.811  1.00  0.00     0.023 A 
ATOM     82  C   UNL A   1      43.160  30.299  35.024  1.00  0.00     0.031 A 
ATOM     83  C   UNL A   1      42.357  28.461  33.697  1.00  0.00     0.131 A 
ATOM     84  C   UNL A   1      43.484  29.395  36.041  1.00  0.00     0.055 A 
ATOM     85  C   UNL A   1      42.612  27.569  34.744  1.00  0.00     0.041 A 
ATOM     86  F   UNL A   1      41.945  27.921  32.542  1.00  0.00    -0.206 F 
ATOM     87  C   UNL A   1      43.199  28.032  35.917  1.00  0.00     0.022 A 
BRANCH  84  88
ATOM     88  S   UNL A   1      44.449  29.941  37.473  1.00  0.00     0.124 S 
ATOM     89  O   UNL A   1      45.632  30.524  36.845  1.00  0.00    -0.237 OA
ATOM     90  O   UNL A   1      43.543  30.895  38.109  1.00  0.00    -0.237 OA
ATOM     91  O   UNL A   1      44.686  28.715  38.230  1.00  0.00    -0.744 OA
ENDBRANCH  84  88
ENDBRANCH  58  81
ENDBRANCH  32  33
ENDBRANCH  24  27
ENDBRANCH  22  23
ENDBRANCH   1  22
TORSDOF 16
ENDMDL
MODEL 3
REMARK VINA RESULT:     -11.5      3.550      6.332
REMARK SMILES CCn1c(=O)n(CC)c2cc(C(=O)NCCCCNC(=O)c3ccc(-c4c5nc(c(-c6cc(S(=O)(=O)[O-])ccc6F)c6ccc([nH]6)c(-c6cc(S(=O)(=O)[O-])ccc6F)c6nc(c(-c7cc(S(=O)(=O)[O-])ccc7F)c7ccc4[nH]7)C=C6)C=C5)cc3)ccc21
REMARK SMILES IDX 17 1 16 2 15 3 14 4 12 5 13 6 11 8 3 9 4 10 87 11 5 12 6 13
REMARK SMILES IDX 9 14 86 15 10 16 85 17 2 18 1 19 7 20 8 21 18 22 19 23 20 24
REMARK SMILES IDX 21 26 22 27 23 28 84 29 24 30 83 31 25 32 26 33 27 34 77 35
REMARK SMILES IDX 28 36 82 37 76 38 78 39 29 40 81 41 75 42 74 43 30 45 62 46
REMARK SMILES IDX 42 47 61 48 43 49 46 50 60 51 79 52 44 53 45 54 59 56 80 57
REMARK SMILES IDX 47 58 31 59 32 60 40 61 33 62 39 63 41 64 38 65 34 66 35 67
REMARK SMILES IDX 36 68 37 69 63 70 64 71 72 72 65 73 71 74 73 75 70 76 66 77
REMARK SMILES IDX 67 78 68 79 69 80 48 81 49 82 57 83 50 84 56 85 58 86 55 87
REMARK SMILES IDX 51 88 52 89 53 90 54 91
REMARK H PARENT 14 7 19 25 78 44 46 55
REMARK Flexibility Score: inf
ROOT
ATOM      1  C   UNL A   1      34.424  35.041  28.309  1.00  0.00     0.023 C 
ENDROOT
BRANCH   1   2
ATOM      2  C   UNL A   1      33.732  36.080  29.207  1.00  0.00     0.023 C 
BRANCH   2   3
ATOM      3  C   UNL A   1      33.147  35.491  30.494  1.00  0.00     0.116 C 
BRANCH   3   4
ATOM      4  N   UNL A   1      33.259  36.436  31.587  1.00  0.00    -0.352 N 
ATOM      5  C   UNL A   1      34.035  36.448  32.715  1.00  0.00     0.251 C 
ATOM      6  O   UNL A   1      33.968  37.439  33.444  1.00  0.00    -0.269 OA
ATOM      7  H   UNL A   1      32.666  37.216  31.502  1.00  0.00     0.163 HD
BRANCH   5   8
ATOM      8  C   UNL A   1      35.003  35.365  33.058  1.00  0.00     0.042 A 
ATOM      9  N   UNL A   1      37.796  32.314  33.384  1.00  0.00    -0.292 N 
ATOM     10  C   UNL A   1      38.734  32.718  32.410  1.00  0.00     0.329 A 
ATOM     11  C   UNL A   1      36.774  33.270  33.445  1.00  0.00     0.069 A 
ATOM     12  O   UNL A   1      39.783  32.147  32.118  1.00  0.00    -0.248 OA
ATOM     13  N   UNL A   1      38.245  33.924  31.859  1.00  0.00    -0.292 N 
ATOM     14  C   UNL A   1      37.025  34.237  32.474  1.00  0.00     0.070 A 
ATOM     15  C   UNL A   1      35.702  33.368  34.300  1.00  0.00     0.029 A 
ATOM     16  C   UNL A   1      36.155  35.282  32.254  1.00  0.00     0.042 A 
ATOM     17  C   UNL A   1      34.838  34.452  34.122  1.00  0.00     0.016 A 
BRANCH   9  18
ATOM     18  C   UNL A   1      37.894  31.139  34.215  1.00  0.00     0.124 C 
ATOM     19  C   UNL A   1      38.684  31.378  35.495  1.00  0.00     0.028 C 
ENDBRANCH   9  18
BRANCH  13  20
ATOM     20  C   UNL A   1      38.969  34.778  30.949  1.00  0.00     0.124 C 
ATOM     21  C   UNL A   1      38.587  34.583  29.492  1.00  0.00     0.028 C 
ENDBRANCH  13  20
ENDBRANCH   5   8
ENDBRANCH   3   4
ENDBRANCH   2   3
ENDBRANCH   1   2
BRANCH   1  22
ATOM     22  C   UNL A   1      34.839  33.769  29.051  1.00  0.00     0.116 C 
BRANCH  22  23
ATOM     23  N   UNL A   1      34.194  32.580  28.529  1.00  0.00    -0.352 N 
ATOM     24  C   UNL A   1      34.607  31.318  28.206  1.00  0.00     0.251 C 
ATOM     25  H   UNL A   1      33.232  32.714  28.368  1.00  0.00     0.163 HD
ATOM     26  O   UNL A   1      33.715  30.537  27.866  1.00  0.00    -0.269 OA
BRANCH  24  27
ATOM     27  C   UNL A   1      36.022  30.865  28.170  1.00  0.00     0.039 A 
ATOM     28  C   UNL A   1      36.488  29.755  27.469  1.00  0.00     0.014 A 
ATOM     29  C   UNL A   1      36.921  31.570  28.995  1.00  0.00     0.014 A 
ATOM     30  C   UNL A   1      37.769  29.279  27.686  1.00  0.00     0.010 A 
ATOM     31  C   UNL A   1      38.215  31.109  29.198  1.00  0.00     0.010 A 
ATOM     32  C   UNL A   1      38.606  29.918  28.600  1.00  0.00    -0.014 A 
BRANCH  32  33
ATOM     33  C   UNL A   1      39.876  29.264  28.879  1.00  0.00     0.031 A 
ATOM     34  C   UNL A   1      40.148  28.999  30.320  1.00  0.00     0.074 A 
ATOM     35  C   UNL A   1      40.738  28.912  27.907  1.00  0.00     0.049 A 
ATOM     36  N   UNL A   1      41.062  29.516  31.080  1.00  0.00    -0.248 NA
ATOM     37  C   UNL A   1      39.173  28.164  31.034  1.00  0.00     0.031 C 
ATOM     38  C   UNL A   1      40.511  28.854  26.459  1.00  0.00     0.029 A 
ATOM     39  N   UNL A   1      42.000  28.428  28.037  1.00  0.00    -0.354 N 
ATOM     40  C   UNL A   1      40.889  28.929  32.335  1.00  0.00     0.074 A 
ATOM     41  C   UNL A   1      39.627  28.235  32.284  1.00  0.00     0.031 C 
ATOM     42  C   UNL A   1      41.494  28.123  25.887  1.00  0.00     0.029 A 
ATOM     43  C   UNL A   1      42.491  27.815  26.898  1.00  0.00     0.049 A 
ATOM     44  H   UNL A   1      42.520  28.506  28.869  1.00  0.00     0.167 HD
ATOM     45  C   UNL A   1      41.879  28.895  33.274  1.00  0.00     0.034 A 
ATOM     46  C   UNL A   1      43.584  27.019  26.824  1.00  0.00     0.034 A 
ATOM     47  C   UNL A   1      42.918  29.841  32.991  1.00  0.00     0.049 A 
ATOM     48  C   UNL A   1      44.429  27.297  28.012  1.00  0.00     0.074 A 
ATOM     49  C   UNL A   1      42.998  31.217  32.948  1.00  0.00     0.029 A 
ATOM     50  N   UNL A   1      44.048  29.379  32.362  1.00  0.00    -0.354 N 
ATOM     51  N   UNL A   1      45.057  28.423  28.215  1.00  0.00    -0.248 NA
ATOM     52  C   UNL A   1      44.214  26.478  29.197  1.00  0.00     0.031 C 
ATOM     53  C   UNL A   1      43.906  31.498  31.890  1.00  0.00     0.029 A 
ATOM     54  C   UNL A   1      44.361  30.280  31.378  1.00  0.00     0.049 A 
ATOM     55  H   UNL A   1      44.541  28.555  32.578  1.00  0.00     0.167 HD
ATOM     56  C   UNL A   1      44.927  28.656  29.577  1.00  0.00     0.074 A 
ATOM     57  C   UNL A   1      44.482  27.383  30.141  1.00  0.00     0.031 C 
ATOM     58  C   UNL A   1      44.923  29.922  30.091  1.00  0.00     0.034 A 
BRANCH  45  59
ATOM     59  C   UNL A   1      42.051  27.773  34.269  1.00  0.00     0.023 A 
ATOM     60  C   UNL A   1      42.824  26.632  33.991  1.00  0.00     0.031 A 
ATOM     61  C   UNL A   1      41.644  27.925  35.611  1.00  0.00     0.131 A 
ATOM     62  C   UNL A   1      43.150  25.700  34.982  1.00  0.00     0.055 A 
ATOM     63  C   UNL A   1      42.028  27.029  36.619  1.00  0.00     0.041 A 
ATOM     64  F   UNL A   1      40.912  28.982  35.998  1.00  0.00    -0.206 F 
ATOM     65  C   UNL A   1      42.786  25.908  36.306  1.00  0.00     0.022 A 
BRANCH  62  66
ATOM     66  S   UNL A   1      44.071  24.199  34.549  1.00  0.00     0.124 S 
ATOM     67  O   UNL A   1      44.342  24.414  33.133  1.00  0.00    -0.237 OA
ATOM     68  O   UNL A   1      45.227  24.294  35.437  1.00  0.00    -0.237 OA
ATOM     69  O   UNL A   1      43.136  23.123  34.867  1.00  0.00    -0.744 OA
ENDBRANCH  62  66
ENDBRANCH  45  59
BRANCH  46  70
ATOM     70  C   UNL A   1      43.598  25.706  26.137  1.00  0.00     0.023 A 
ATOM     71  C   UNL A   1      42.709  24.693  26.553  1.00  0.00     0.031 A 
ATOM     72  C   UNL A   1      44.649  25.334  25.285  1.00  0.00     0.131 A 
ATOM     73  C   UNL A   1      42.897  23.366  26.152  1.00  0.00     0.055 A 
ATOM     74  C   UNL A   1      44.828  24.008  24.873  1.00  0.00     0.041 A 
ATOM     75  F   UNL A   1      45.553  26.241  24.886  1.00  0.00    -0.206 F 
ATOM     76  C   UNL A   1      43.957  23.014  25.316  1.00  0.00     0.022 A 
BRANCH  73  77
ATOM     77  S   UNL A   1      41.811  22.054  26.775  1.00  0.00     0.124 S 
ATOM     78  O   UNL A   1      42.548  20.847  26.406  1.00  0.00    -0.237 OA
ATOM     79  O   UNL A   1      41.769  22.354  28.201  1.00  0.00    -0.237 OA
ATOM     80  O   UNL A   1      40.565  22.262  26.044  1.00  0.00    -0.744 OA
ENDBRANCH  73  77
ENDBRANCH  46  70
BRANCH  58  81
ATOM     81  C   UNL A   1      45.267  31.086  29.190  1.00  0.00     0.023 A 
ATOM     82  C   UNL A   1      46.536  31.668  29.352  1.00  0.00     0.031 A 
ATOM     83  C   UNL A   1      44.324  31.788  28.417  1.00  0.00     0.131 A 
ATOM     84  C   UNL A   1      46.808  32.931  28.815  1.00  0.00     0.055 A 
ATOM     85  C   UNL A   1      44.624  33.016  27.818  1.00  0.00     0.041 A 
ATOM     86  F   UNL A   1      43.060  31.362  28.300  1.00  0.00    -0.206 F 
ATOM     87  C   UNL A   1      45.865  33.605  28.033  1.00  0.00     0.022 A 
BRANCH  84  88
ATOM     88  S   UNL A   1      48.326  33.808  29.271  1.00  0.00     0.124 S 
ATOM     89  O   UNL A   1      49.167  33.603  28.095  1.00  0.00    -0.237 OA
ATOM     90  O   UNL A   1      47.844  35.175  29.465  1.00  0.00    -0.237 OA
ATOM     91  O   UNL A   1      48.775  33.134  30.486  1.00  0.00    -0.744 OA
ENDBRANCH  84  88
ENDBRANCH  58  81
ENDBRANCH  32  33
ENDBRANCH  24  27
ENDBRANCH  22  23
ENDBRANCH   1  22
TORSDOF 16
ENDMDL
