MODEL 1
REMARK VINA RESULT:     -12.5      0.000      0.000
REMARK SMILES CCn1c(CC2CC[NH+](Cc3cn[nH]c3C(=O)NCCCCNC(=O)c3ccc(-c4c5nc(c(-c6cc(S(=O)(=O)[O-])ccc6F)c6ccc([nH]6)c(-c6cc(S(=O)(=O)[O-])ccc6F)c6nc(c(-c7cc(S(=O)(=O)[O-])ccc7F)c7ccc4[nH]7)C=C6)C=C5)cc3)CC2)nn(C)c1=O
REMARK SMILES IDX 19 1 18 2 16 3 17 4 15 6 11 7 12 8 13 9 14 10 10 12 9 13
REMARK SMILES IDX 6 14 7 15 90 16 8 17 89 18 5 20 4 21 3 22 94 23 91 24 92 25
REMARK SMILES IDX 95 26 93 27 2 28 1 29 20 30 21 31 22 32 23 33 24 34 25 36
REMARK SMILES IDX 26 37 27 38 88 39 28 40 87 41 29 42 30 43 31 44 81 45 32 46
REMARK SMILES IDX 86 47 80 48 82 49 33 50 85 51 79 52 78 53 34 55 66 56 46 57
REMARK SMILES IDX 65 58 47 59 50 60 64 61 83 62 48 63 49 64 63 66 84 67 51 68
REMARK SMILES IDX 35 69 36 70 44 71 37 72 43 73 45 74 42 75 38 76 39 77 40 78
REMARK SMILES IDX 41 79 67 80 68 81 76 82 69 83 75 84 77 85 74 86 70 87 71 88
REMARK SMILES IDX 72 89 73 90 52 91 53 92 61 93 54 94 60 95 62 96 59 97 55 98
REMARK SMILES IDX 56 99 57 100 58 101
REMARK H PARENT 18 5 14 11 9 19 23 35 82 54 50 65
REMARK Flexibility Score: inf
ROOT
ATOM      1  C   UNL A   1      33.395  28.640  26.217  1.00  0.00     0.116 C 
ENDROOT
BRANCH   1   2
ATOM      2  N   UNL A   1      33.924  29.078  24.962  1.00  0.00    -0.351 N 
ATOM      3  C   UNL A   1      33.696  28.592  23.705  1.00  0.00     0.269 C 
ATOM      4  O   UNL A   1      34.094  29.306  22.783  1.00  0.00    -0.268 OA
ATOM      5  H   UNL A   1      34.542  29.842  25.009  1.00  0.00     0.163 HD
BRANCH   3   6
ATOM      6  C   UNL A   1      33.004  27.343  23.408  1.00  0.00     0.131 A 
ATOM      7  C   UNL A   1      31.714  26.269  24.088  1.00  0.00     0.057 A 
ATOM      8  C   UNL A   1      31.574  24.735  22.850  1.00  0.00     0.145 A 
ATOM      9  N   UNL A   1      32.779  24.863  21.609  1.00  0.00    -0.183 NA
ATOM     10  N   UNL A   1      33.644  26.496  21.857  1.00  0.00    -0.272 N 
ATOM     11  H   UNL A   1      34.337  26.862  21.261  1.00  0.00     0.190 HD
BRANCH   7  12
ATOM     12  C   UNL A   1      30.767  26.345  25.271  1.00  0.00     0.303 C 
BRANCH  12  13
ATOM     13  N   UNL A   1      30.902  25.268  26.269  1.00  0.00    -0.331 N 
ATOM     14  C   UNL A   1      31.441  22.395  26.659  1.00  0.00     0.008 C 
ATOM     15  C   UNL A   1      30.039  22.982  26.859  1.00  0.00     0.065 C 
ATOM     16  C   UNL A   1      32.423  23.429  27.171  1.00  0.00     0.065 C 
ATOM     17  C   UNL A   1      29.816  24.303  26.142  1.00  0.00     0.262 C 
ATOM     18  C   UNL A   1      32.257  24.765  26.461  1.00  0.00     0.262 C 
ATOM     19  H   UNL A   1      30.767  25.673  27.196  1.00  0.00     0.348 HD
BRANCH  14  20
ATOM     20  C   UNL A   1      31.800  21.839  25.256  1.00  0.00     0.081 C 
BRANCH  20  21
ATOM     21  C   UNL A   1      32.684  20.604  25.149  1.00  0.00     0.133 A 
ATOM     22  N   UNL A   1      33.974  20.606  24.807  1.00  0.00    -0.279 N 
ATOM     23  C   UNL A   1      34.475  19.307  24.803  1.00  0.00     0.345 A 
ATOM     24  N   UNL A   1      32.185  19.437  25.367  1.00  0.00    -0.155 NA
ATOM     25  N   UNL A   1      33.286  18.334  24.970  1.00  0.00    -0.216 N 
ATOM     26  O   UNL A   1      35.663  19.039  24.628  1.00  0.00    -0.246 OA
ATOM     27  C   UNL A   1      32.894  16.192  24.757  1.00  0.00     0.179 C 
BRANCH  22  28
ATOM     28  C   UNL A   1      34.823  21.699  24.358  1.00  0.00     0.125 C 
ATOM     29  C   UNL A   1      35.476  22.487  25.480  1.00  0.00     0.028 C 
ENDBRANCH  22  28
ENDBRANCH  20  21
ENDBRANCH  14  20
ENDBRANCH  12  13
ENDBRANCH   7  12
ENDBRANCH   3   6
ENDBRANCH   1   2
BRANCH   1  30
ATOM     30  C   UNL A   1      32.027  29.240  26.522  1.00  0.00     0.023 C 
BRANCH  30  31
ATOM     31  C   UNL A   1      31.830  30.742  26.353  1.00  0.00     0.023 C 
BRANCH  31  32
ATOM     32  C   UNL A   1      32.745  31.547  27.257  1.00  0.00     0.116 C 
BRANCH  32  33
ATOM     33  N   UNL A   1      32.500  32.991  27.263  1.00  0.00    -0.352 N 
ATOM     34  C   UNL A   1      32.997  33.883  28.211  1.00  0.00     0.251 C 
ATOM     35  H   UNL A   1      31.940  33.359  26.542  1.00  0.00     0.163 HD
ATOM     36  O   UNL A   1      32.463  34.962  28.424  1.00  0.00    -0.269 OA
BRANCH  34  37
ATOM     37  C   UNL A   1      34.271  33.511  28.866  1.00  0.00     0.039 A 
ATOM     38  C   UNL A   1      34.415  32.728  30.012  1.00  0.00     0.014 A 
ATOM     39  C   UNL A   1      35.401  33.964  28.207  1.00  0.00     0.014 A 
ATOM     40  C   UNL A   1      35.723  32.425  30.448  1.00  0.00     0.010 A 
ATOM     41  C   UNL A   1      36.545  33.247  28.385  1.00  0.00     0.010 A 
ATOM     42  C   UNL A   1      36.830  32.768  29.641  1.00  0.00    -0.014 A 
BRANCH  42  43
ATOM     43  C   UNL A   1      38.198  32.224  29.747  1.00  0.00     0.031 A 
ATOM     44  C   UNL A   1      38.171  30.799  29.279  1.00  0.00     0.074 A 
ATOM     45  C   UNL A   1      39.315  32.979  30.018  1.00  0.00     0.049 A 
ATOM     46  N   UNL A   1      37.969  29.770  30.039  1.00  0.00    -0.248 NA
ATOM     47  C   UNL A   1      37.951  30.467  27.846  1.00  0.00     0.031 C 
ATOM     48  C   UNL A   1      39.436  34.418  30.324  1.00  0.00     0.029 A 
ATOM     49  N   UNL A   1      40.647  32.600  30.093  1.00  0.00    -0.354 N 
ATOM     50  C   UNL A   1      38.074  28.672  29.196  1.00  0.00     0.074 A 
ATOM     51  C   UNL A   1      37.693  29.155  27.906  1.00  0.00     0.031 C 
ATOM     52  C   UNL A   1      40.740  34.818  30.314  1.00  0.00     0.029 A 
ATOM     53  C   UNL A   1      41.609  33.664  30.133  1.00  0.00     0.049 A 
ATOM     54  H   UNL A   1      40.917  31.654  30.119  1.00  0.00     0.167 HD
ATOM     55  C   UNL A   1      38.899  27.645  29.548  1.00  0.00     0.034 A 
ATOM     56  C   UNL A   1      42.997  33.564  30.161  1.00  0.00     0.034 A 
ATOM     57  C   UNL A   1      39.221  27.758  30.960  1.00  0.00     0.049 A 
ATOM     58  C   UNL A   1      43.277  32.186  30.651  1.00  0.00     0.074 A 
ATOM     59  C   UNL A   1      38.482  27.824  32.125  1.00  0.00     0.029 A 
ATOM     60  N   UNL A   1      40.440  28.327  31.249  1.00  0.00    -0.354 N 
ATOM     61  N   UNL A   1      42.969  31.811  31.863  1.00  0.00    -0.248 NA
ATOM     62  C   UNL A   1      43.265  31.145  29.631  1.00  0.00     0.031 C 
ATOM     63  C   UNL A   1      39.110  28.844  32.902  1.00  0.00     0.029 A 
ATOM     64  C   UNL A   1      40.299  29.222  32.277  1.00  0.00     0.049 A 
ATOM     65  H   UNL A   1      41.285  28.122  30.787  1.00  0.00     0.167 HD
ATOM     66  C   UNL A   1      42.259  30.636  31.684  1.00  0.00     0.074 A 
ATOM     67  C   UNL A   1      42.473  30.277  30.272  1.00  0.00     0.031 C 
ATOM     68  C   UNL A   1      41.274  30.261  32.555  1.00  0.00     0.034 A 
BRANCH  55  69
ATOM     69  C   UNL A   1      39.820  26.898  28.592  1.00  0.00     0.023 A 
ATOM     70  C   UNL A   1      40.868  27.649  28.025  1.00  0.00     0.031 A 
ATOM     71  C   UNL A   1      39.580  25.643  27.986  1.00  0.00     0.131 A 
ATOM     72  C   UNL A   1      41.532  27.216  26.864  1.00  0.00     0.055 A 
ATOM     73  C   UNL A   1      40.287  25.187  26.867  1.00  0.00     0.041 A 
ATOM     74  F   UNL A   1      38.605  24.815  28.373  1.00  0.00    -0.206 F 
ATOM     75  C   UNL A   1      41.252  25.987  26.281  1.00  0.00     0.022 A 
BRANCH  72  76
ATOM     76  S   UNL A   1      42.646  28.379  26.036  1.00  0.00     0.124 S 
ATOM     77  O   UNL A   1      43.949  27.874  26.450  1.00  0.00    -0.237 OA
ATOM     78  O   UNL A   1      42.293  28.181  24.634  1.00  0.00    -0.237 OA
ATOM     79  O   UNL A   1      42.263  29.671  26.598  1.00  0.00    -0.744 OA
ENDBRANCH  72  76
ENDBRANCH  55  69
BRANCH  56  80
ATOM     80  C   UNL A   1      44.088  34.328  29.396  1.00  0.00     0.023 A 
ATOM     81  C   UNL A   1      44.664  33.965  28.122  1.00  0.00     0.031 A 
ATOM     82  C   UNL A   1      44.357  35.643  29.815  1.00  0.00     0.131 A 
ATOM     83  C   UNL A   1      45.436  34.907  27.360  1.00  0.00     0.055 A 
ATOM     84  C   UNL A   1      45.076  36.568  29.044  1.00  0.00     0.041 A 
ATOM     85  F   UNL A   1      43.853  36.111  30.965  1.00  0.00    -0.206 F 
ATOM     86  C   UNL A   1      45.604  36.214  27.815  1.00  0.00     0.022 A 
BRANCH  83  87
ATOM     87  S   UNL A   1      46.233  34.524  25.731  1.00  0.00     0.124 S 
ATOM     88  O   UNL A   1      46.900  35.779  25.400  1.00  0.00    -0.237 OA
ATOM     89  O   UNL A   1      47.096  33.391  26.043  1.00  0.00    -0.237 OA
ATOM     90  O   UNL A   1      45.101  34.197  24.858  1.00  0.00    -0.744 OA
ENDBRANCH  83  87
ENDBRANCH  56  80
BRANCH  68  91
ATOM     91  C   UNL A   1      41.139  30.998  33.877  1.00  0.00     0.023 A 
ATOM     92  C   UNL A   1      40.329  32.130  34.153  1.00  0.00     0.031 A 
ATOM     93  C   UNL A   1      41.824  30.413  34.955  1.00  0.00     0.131 A 
ATOM     94  C   UNL A   1      40.255  32.634  35.475  1.00  0.00     0.055 A 
ATOM     95  C   UNL A   1      41.715  30.887  36.258  1.00  0.00     0.041 A 
ATOM     96  F   UNL A   1      42.593  29.329  34.760  1.00  0.00    -0.206 F 
ATOM     97  C   UNL A   1      40.938  32.005  36.522  1.00  0.00     0.022 A 
BRANCH  94  98
ATOM     98  S   UNL A   1      39.327  34.160  35.868  1.00  0.00     0.124 S 
ATOM     99  O   UNL A   1      38.939  34.662  34.555  1.00  0.00    -0.237 OA
ATOM    100  O   UNL A   1      38.241  33.667  36.709  1.00  0.00    -0.237 OA
ATOM    101  O   UNL A   1      40.311  34.988  36.570  1.00  0.00    -0.744 OA
ENDBRANCH  94  98
ENDBRANCH  68  91
ENDBRANCH  42  43
ENDBRANCH  34  37
ENDBRANCH  32  33
ENDBRANCH  31  32
ENDBRANCH  30  31
ENDBRANCH   1  30
TORSDOF 19
ENDMDL
MODEL 2
REMARK VINA RESULT:     -11.5      1.583      2.046
REMARK SMILES CCn1c(CC2CC[NH+](Cc3cn[nH]c3C(=O)NCCCCNC(=O)c3ccc(-c4c5nc(c(-c6cc(S(=O)(=O)[O-])ccc6F)c6ccc([nH]6)c(-c6cc(S(=O)(=O)[O-])ccc6F)c6nc(c(-c7cc(S(=O)(=O)[O-])ccc7F)c7ccc4[nH]7)C=C6)C=C5)cc3)CC2)nn(C)c1=O
REMARK SMILES IDX 19 1 18 2 16 3 17 4 15 6 11 7 12 8 13 9 14 10 10 12 9 13
REMARK SMILES IDX 6 14 7 15 90 16 8 17 89 18 5 20 4 21 3 22 94 23 91 24 92 25
REMARK SMILES IDX 95 26 93 27 2 28 1 29 20 30 21 31 22 32 23 33 24 34 25 36
REMARK SMILES IDX 26 37 27 38 88 39 28 40 87 41 29 42 30 43 31 44 81 45 32 46
REMARK SMILES IDX 86 47 80 48 82 49 33 50 85 51 79 52 78 53 34 55 66 56 46 57
REMARK SMILES IDX 65 58 47 59 50 60 64 61 83 62 48 63 49 64 63 66 84 67 51 68
REMARK SMILES IDX 35 69 36 70 44 71 37 72 43 73 45 74 42 75 38 76 39 77 40 78
REMARK SMILES IDX 41 79 67 80 68 81 76 82 69 83 75 84 77 85 74 86 70 87 71 88
REMARK SMILES IDX 72 89 73 90 52 91 53 92 61 93 54 94 60 95 62 96 59 97 55 98
REMARK SMILES IDX 56 99 57 100 58 101
REMARK H PARENT 18 5 14 11 9 19 23 35 82 54 50 65
REMARK Flexibility Score: inf
ROOT
ATOM      1  C   UNL A   1      31.764  29.494  25.976  1.00  0.00     0.116 C 
ENDROOT
BRANCH   1   2
ATOM      2  N   UNL A   1      31.037  30.027  24.866  1.00  0.00    -0.351 N 
ATOM      3  C   UNL A   1      30.483  29.380  23.797  1.00  0.00     0.269 C 
ATOM      4  O   UNL A   1      29.711  30.056  23.114  1.00  0.00    -0.268 OA
ATOM      5  H   UNL A   1      30.918  31.004  24.872  1.00  0.00     0.163 HD
BRANCH   3   6
ATOM      6  C   UNL A   1      30.718  27.983  23.458  1.00  0.00     0.131 A 
ATOM      7  C   UNL A   1      30.407  26.320  24.104  1.00  0.00     0.057 A 
ATOM      8  C   UNL A   1      31.221  25.069  22.810  1.00  0.00     0.145 A 
ATOM      9  N   UNL A   1      32.043  25.956  21.566  1.00  0.00    -0.183 NA
ATOM     10  N   UNL A   1      31.701  27.763  21.870  1.00  0.00    -0.272 N 
ATOM     11  H   UNL A   1      31.994  28.498  21.284  1.00  0.00     0.190 HD
BRANCH   7  12
ATOM     12  C   UNL A   1      29.656  25.754  25.297  1.00  0.00     0.303 C 
BRANCH  12  13
ATOM     13  N   UNL A   1      30.487  25.098  26.323  1.00  0.00    -0.331 N 
ATOM     14  C   UNL A   1      32.522  23.020  26.811  1.00  0.00     0.008 C 
ATOM     15  C   UNL A   1      31.069  22.842  27.267  1.00  0.00     0.065 C 
ATOM     16  C   UNL A   1      32.865  24.482  27.011  1.00  0.00     0.065 C 
ATOM     17  C   UNL A   1      30.076  23.711  26.514  1.00  0.00     0.262 C 
ATOM     18  C   UNL A   1      31.913  25.395  26.252  1.00  0.00     0.262 C 
ATOM     19  H   UNL A   1      30.293  25.540  27.221  1.00  0.00     0.348 HD
BRANCH  14  20
ATOM     20  C   UNL A   1      32.914  22.477  25.412  1.00  0.00     0.081 C 
BRANCH  20  21
ATOM     21  C   UNL A   1      34.232  21.732  25.245  1.00  0.00     0.133 A 
ATOM     22  N   UNL A   1      34.356  20.416  25.064  1.00  0.00    -0.279 N 
ATOM     23  C   UNL A   1      35.700  20.068  24.954  1.00  0.00     0.345 A 
ATOM     24  N   UNL A   1      35.345  22.377  25.307  1.00  0.00    -0.155 NA
ATOM     25  N   UNL A   1      36.547  21.308  25.316  1.00  0.00    -0.216 N 
ATOM     26  O   UNL A   1      36.086  18.934  24.674  1.00  0.00    -0.246 OA
ATOM     27  C   UNL A   1      38.632  21.772  25.794  1.00  0.00     0.179 C 
BRANCH  22  28
ATOM     28  C   UNL A   1      33.348  19.367  25.085  1.00  0.00     0.125 C 
ATOM     29  C   UNL A   1      32.643  19.150  23.758  1.00  0.00     0.028 C 
ENDBRANCH  22  28
ENDBRANCH  20  21
ENDBRANCH  14  20
ENDBRANCH  12  13
ENDBRANCH   7  12
ENDBRANCH   3   6
ENDBRANCH   1   2
BRANCH   1  30
ATOM     30  C   UNL A   1      32.928  30.384  26.402  1.00  0.00     0.023 C 
BRANCH  30  31
ATOM     31  C   UNL A   1      32.680  31.464  27.449  1.00  0.00     0.023 C 
BRANCH  31  32
ATOM     32  C   UNL A   1      33.536  32.695  27.218  1.00  0.00     0.116 C 
BRANCH  32  33
ATOM     33  N   UNL A   1      33.092  33.901  27.920  1.00  0.00    -0.352 N 
ATOM     34  C   UNL A   1      33.428  34.233  29.232  1.00  0.00     0.251 C 
ATOM     35  H   UNL A   1      32.513  34.526  27.428  1.00  0.00     0.163 HD
ATOM     36  O   UNL A   1      32.741  34.993  29.901  1.00  0.00    -0.269 OA
BRANCH  34  37
ATOM     37  C   UNL A   1      34.718  33.713  29.737  1.00  0.00     0.039 A 
ATOM     38  C   UNL A   1      34.889  32.781  30.762  1.00  0.00     0.014 A 
ATOM     39  C   UNL A   1      35.826  34.187  29.058  1.00  0.00     0.014 A 
ATOM     40  C   UNL A   1      36.203  32.356  31.057  1.00  0.00     0.010 A 
ATOM     41  C   UNL A   1      36.933  33.394  29.058  1.00  0.00     0.010 A 
ATOM     42  C   UNL A   1      37.272  32.741  30.219  1.00  0.00    -0.014 A 
BRANCH  42  43
ATOM     43  C   UNL A   1      38.608  32.116  30.153  1.00  0.00     0.031 A 
ATOM     44  C   UNL A   1      38.448  30.729  29.605  1.00  0.00     0.074 A 
ATOM     45  C   UNL A   1      39.790  32.789  30.354  1.00  0.00     0.049 A 
ATOM     46  N   UNL A   1      38.257  29.665  30.318  1.00  0.00    -0.248 NA
ATOM     47  C   UNL A   1      38.068  30.506  28.185  1.00  0.00     0.031 C 
ATOM     48  C   UNL A   1      40.028  34.195  30.733  1.00  0.00     0.029 A 
ATOM     49  N   UNL A   1      41.097  32.333  30.272  1.00  0.00    -0.354 N 
ATOM     50  C   UNL A   1      38.212  28.621  29.404  1.00  0.00     0.074 A 
ATOM     51  C   UNL A   1      37.737  29.209  28.191  1.00  0.00     0.031 C 
ATOM     52  C   UNL A   1      41.348  34.522  30.616  1.00  0.00     0.029 A 
ATOM     53  C   UNL A   1      42.122  33.337  30.279  1.00  0.00     0.049 A 
ATOM     54  H   UNL A   1      41.310  31.374  30.213  1.00  0.00     0.167 HD
ATOM     55  C   UNL A   1      39.003  27.529  29.608  1.00  0.00     0.034 A 
ATOM     56  C   UNL A   1      43.498  33.158  30.160  1.00  0.00     0.034 A 
ATOM     57  C   UNL A   1      39.466  27.530  30.984  1.00  0.00     0.049 A 
ATOM     58  C   UNL A   1      43.739  31.737  30.534  1.00  0.00     0.074 A 
ATOM     59  C   UNL A   1      38.850  27.560  32.220  1.00  0.00     0.029 A 
ATOM     60  N   UNL A   1      40.741  28.010  31.183  1.00  0.00    -0.354 N 
ATOM     61  N   UNL A   1      43.528  31.301  31.747  1.00  0.00    -0.248 NA
ATOM     62  C   UNL A   1      43.563  30.769  29.460  1.00  0.00     0.031 C 
ATOM     63  C   UNL A   1      39.613  28.490  32.990  1.00  0.00     0.029 A 
ATOM     64  C   UNL A   1      40.756  28.841  32.272  1.00  0.00     0.049 A 
ATOM     65  H   UNL A   1      41.523  27.790  30.625  1.00  0.00     0.167 HD
ATOM     66  C   UNL A   1      42.733  30.181  31.570  1.00  0.00     0.074 A 
ATOM     67  C   UNL A   1      42.785  29.906  30.124  1.00  0.00     0.031 C 
ATOM     68  C   UNL A   1      41.816  29.804  32.512  1.00  0.00     0.034 A 
BRANCH  55  69
ATOM     69  C   UNL A   1      39.778  26.797  28.520  1.00  0.00     0.023 A 
ATOM     70  C   UNL A   1      40.850  27.503  27.940  1.00  0.00     0.031 A 
ATOM     71  C   UNL A   1      39.377  25.631  27.827  1.00  0.00     0.131 A 
ATOM     72  C   UNL A   1      41.387  27.125  26.697  1.00  0.00     0.055 A 
ATOM     73  C   UNL A   1      39.956  25.223  26.620  1.00  0.00     0.041 A 
ATOM     74  F   UNL A   1      38.357  24.860  28.216  1.00  0.00    -0.206 F 
ATOM     75  C   UNL A   1      40.950  25.986  26.032  1.00  0.00     0.022 A 
BRANCH  72  76
ATOM     76  S   UNL A   1      42.545  28.257  25.889  1.00  0.00     0.124 S 
ATOM     77  O   UNL A   1      43.753  28.043  26.676  1.00  0.00    -0.237 OA
ATOM     78  O   UNL A   1      42.564  27.739  24.525  1.00  0.00    -0.237 OA
ATOM     79  O   UNL A   1      41.909  29.562  26.051  1.00  0.00    -0.744 OA
ENDBRANCH  72  76
ENDBRANCH  55  69
BRANCH  56  80
ATOM     80  C   UNL A   1      44.554  33.910  29.336  1.00  0.00     0.023 A 
ATOM     81  C   UNL A   1      45.830  34.395  29.806  1.00  0.00     0.031 A 
ATOM     82  C   UNL A   1      44.408  33.883  27.937  1.00  0.00     0.131 A 
ATOM     83  C   UNL A   1      46.858  34.795  28.885  1.00  0.00     0.055 A 
ATOM     84  C   UNL A   1      45.432  34.236  27.047  1.00  0.00     0.041 A 
ATOM     85  F   UNL A   1      43.281  33.424  27.375  1.00  0.00    -0.206 F 
ATOM     86  C   UNL A   1      46.659  34.678  27.511  1.00  0.00     0.022 A 
BRANCH  83  87
ATOM     87  S   UNL A   1      48.515  35.452  29.395  1.00  0.00     0.124 S 
ATOM     88  O   UNL A   1      48.692  36.593  28.503  1.00  0.00    -0.237 OA
ATOM     89  O   UNL A   1      48.330  35.754  30.809  1.00  0.00    -0.237 OA
ATOM     90  O   UNL A   1      49.427  34.335  29.131  1.00  0.00    -0.744 OA
ENDBRANCH  83  87
ENDBRANCH  56  80
BRANCH  68  91
ATOM     91  C   UNL A   1      41.856  30.458  33.883  1.00  0.00     0.023 A 
ATOM     92  C   UNL A   1      41.168  31.627  34.299  1.00  0.00     0.031 A 
ATOM     93  C   UNL A   1      42.581  29.751  34.857  1.00  0.00     0.131 A 
ATOM     94  C   UNL A   1      41.250  32.045  35.651  1.00  0.00     0.055 A 
ATOM     95  C   UNL A   1      42.624  30.143  36.190  1.00  0.00     0.041 A 
ATOM     96  F   UNL A   1      43.239  28.628  34.527  1.00  0.00    -0.206 F 
ATOM     97  C   UNL A   1      41.967  31.297  36.592  1.00  0.00     0.022 A 
BRANCH  94  98
ATOM     98  S   UNL A   1      40.487  33.608  36.218  1.00  0.00     0.124 S 
ATOM     99  O   UNL A   1      39.569  33.944  35.137  1.00  0.00    -0.237 OA
ATOM    100  O   UNL A   1      39.868  33.221  37.483  1.00  0.00    -0.237 OA
ATOM    101  O   UNL A   1      41.628  34.516  36.354  1.00  0.00    -0.744 OA
ENDBRANCH  94  98
ENDBRANCH  68  91
ENDBRANCH  42  43
ENDBRANCH  34  37
ENDBRANCH  32  33
ENDBRANCH  31  32
ENDBRANCH  30  31
ENDBRANCH   1  30
TORSDOF 19
ENDMDL
MODEL 3
REMARK VINA RESULT:     -11.3      5.779     11.342
REMARK SMILES CCn1c(CC2CC[NH+](Cc3cn[nH]c3C(=O)NCCCCNC(=O)c3ccc(-c4c5nc(c(-c6cc(S(=O)(=O)[O-])ccc6F)c6ccc([nH]6)c(-c6cc(S(=O)(=O)[O-])ccc6F)c6nc(c(-c7cc(S(=O)(=O)[O-])ccc7F)c7ccc4[nH]7)C=C6)C=C5)cc3)CC2)nn(C)c1=O
REMARK SMILES IDX 19 1 18 2 16 3 17 4 15 6 11 7 12 8 13 9 14 10 10 12 9 13
REMARK SMILES IDX 6 14 7 15 90 16 8 17 89 18 5 20 4 21 3 22 94 23 91 24 92 25
REMARK SMILES IDX 95 26 93 27 2 28 1 29 20 30 21 31 22 32 23 33 24 34 25 36
REMARK SMILES IDX 26 37 27 38 88 39 28 40 87 41 29 42 30 43 31 44 81 45 32 46
REMARK SMILES IDX 86 47 80 48 82 49 33 50 85 51 79 52 78 53 34 55 66 56 46 57
REMARK SMILES IDX 65 58 47 59 50 60 64 61 83 62 48 63 49 64 63 66 84 67 51 68
REMARK SMILES IDX 35 69 36 70 44 71 37 72 43 73 45 74 42 75 38 76 39 77 40 78
REMARK SMILES IDX 41 79 67 80 68 81 76 82 69 83 75 84 77 85 74 86 70 87 71 88
REMARK SMILES IDX 72 89 73 90 52 91 53 92 61 93 54 94 60 95 62 96 59 97 55 98
REMARK SMILES IDX 56 99 57 100 58 101
REMARK H PARENT 18 5 14 11 9 19 23 35 82 54 50 65
REMARK Flexibility Score: inf
ROOT
ATOM      1  C   UNL A   1      47.885  32.301  27.174  1.00  0.00     0.116 C 
ENDROOT
BRANCH   1   2
ATOM      2  N   UNL A   1      46.662  32.073  26.469  1.00  0.00    -0.351 N 
ATOM      3  C   UNL A   1      45.627  31.233  26.771  1.00  0.00     0.269 C 
ATOM      4  O   UNL A   1      44.596  31.411  26.119  1.00  0.00    -0.268 OA
ATOM      5  H   UNL A   1      46.548  32.598  25.644  1.00  0.00     0.163 HD
BRANCH   3   6
ATOM      6  C   UNL A   1      45.663  30.205  27.803  1.00  0.00     0.131 A 
ATOM      7  C   UNL A   1      46.709  28.843  28.378  1.00  0.00     0.057 A 
ATOM      8  C   UNL A   1      45.757  28.031  29.907  1.00  0.00     0.145 A 
ATOM      9  N   UNL A   1      44.218  28.801  30.123  1.00  0.00    -0.183 NA
ATOM     10  N   UNL A   1      44.137  30.205  28.900  1.00  0.00    -0.272 N 
ATOM     11  H   UNL A   1      43.399  30.854  28.836  1.00  0.00     0.190 HD
BRANCH   7  12
ATOM     12  C   UNL A   1      48.074  28.300  27.992  1.00  0.00     0.303 C 
BRANCH  12  13
ATOM     13  N   UNL A   1      48.124  27.529  26.736  1.00  0.00    -0.331 N 
ATOM     14  C   UNL A   1      47.324  25.016  25.415  1.00  0.00     0.008 C 
ATOM     15  C   UNL A   1      48.783  25.292  25.801  1.00  0.00     0.065 C 
ATOM     16  C   UNL A   1      46.740  26.336  24.956  1.00  0.00     0.065 C 
ATOM     17  C   UNL A   1      48.946  26.334  26.893  1.00  0.00     0.262 C 
ATOM     18  C   UNL A   1      46.854  27.409  26.029  1.00  0.00     0.262 C 
ATOM     19  H   UNL A   1      48.623  28.084  26.041  1.00  0.00     0.348 HD
BRANCH  14  20
ATOM     20  C   UNL A   1      46.434  24.266  26.440  1.00  0.00     0.081 C 
BRANCH  20  21
ATOM     21  C   UNL A   1      45.648  23.044  25.987  1.00  0.00     0.133 A 
ATOM     22  N   UNL A   1      44.317  22.963  25.924  1.00  0.00    -0.279 N 
ATOM     23  C   UNL A   1      43.929  21.704  25.473  1.00  0.00     0.345 A 
ATOM     24  N   UNL A   1      46.270  21.966  25.657  1.00  0.00    -0.155 NA
ATOM     25  N   UNL A   1      45.182  20.801  25.440  1.00  0.00    -0.216 N 
ATOM     26  O   UNL A   1      42.763  21.403  25.222  1.00  0.00    -0.246 OA
ATOM     27  C   UNL A   1      45.649  18.672  25.248  1.00  0.00     0.179 C 
BRANCH  22  28
ATOM     28  C   UNL A   1      43.299  23.913  26.347  1.00  0.00     0.125 C 
ATOM     29  C   UNL A   1      43.032  25.029  25.353  1.00  0.00     0.028 C 
ENDBRANCH  22  28
ENDBRANCH  20  21
ENDBRANCH  14  20
ENDBRANCH  12  13
ENDBRANCH   7  12
ENDBRANCH   3   6
ENDBRANCH   1   2
BRANCH   1  30
ATOM     30  C   UNL A   1      47.726  33.289  28.326  1.00  0.00     0.023 C 
BRANCH  30  31
ATOM     31  C   UNL A   1      48.213  34.721  28.136  1.00  0.00     0.023 C 
BRANCH  31  32
ATOM     32  C   UNL A   1      47.066  35.707  28.018  1.00  0.00     0.116 C 
BRANCH  32  33
ATOM     33  N   UNL A   1      46.325  35.650  26.755  1.00  0.00    -0.352 N 
ATOM     34  C   UNL A   1      45.062  35.085  26.593  1.00  0.00     0.251 C 
ATOM     35  H   UNL A   1      46.753  36.042  25.960  1.00  0.00     0.163 HD
ATOM     36  O   UNL A   1      44.664  34.695  25.504  1.00  0.00    -0.269 OA
BRANCH  34  37
ATOM     37  C   UNL A   1      44.179  35.086  27.781  1.00  0.00     0.039 A 
ATOM     38  C   UNL A   1      43.358  36.133  28.202  1.00  0.00     0.014 A 
ATOM     39  C   UNL A   1      44.161  33.889  28.475  1.00  0.00     0.014 A 
ATOM     40  C   UNL A   1      42.534  35.917  29.327  1.00  0.00     0.010 A 
ATOM     41  C   UNL A   1      43.036  33.607  29.188  1.00  0.00     0.010 A 
ATOM     42  C   UNL A   1      42.431  34.625  29.886  1.00  0.00    -0.014 A 
BRANCH  42  43
ATOM     43  C   UNL A   1      41.375  34.142  30.798  1.00  0.00     0.031 A 
ATOM     44  C   UNL A   1      41.912  34.187  32.199  1.00  0.00     0.074 A 
ATOM     45  C   UNL A   1      40.072  33.913  30.425  1.00  0.00     0.049 A 
ATOM     46  N   UNL A   1      42.525  33.212  32.791  1.00  0.00    -0.248 NA
ATOM     47  C   UNL A   1      42.167  35.483  32.880  1.00  0.00     0.031 C 
ATOM     48  C   UNL A   1      39.435  34.009  29.097  1.00  0.00     0.029 A 
ATOM     49  N   UNL A   1      38.986  33.511  31.188  1.00  0.00    -0.354 N 
ATOM     50  C   UNL A   1      42.797  33.680  34.069  1.00  0.00     0.074 A 
ATOM     51  C   UNL A   1      42.901  35.099  33.931  1.00  0.00     0.031 C 
ATOM     52  C   UNL A   1      38.077  33.913  29.191  1.00  0.00     0.029 A 
ATOM     53  C   UNL A   1      37.698  33.612  30.564  1.00  0.00     0.049 A 
ATOM     54  H   UNL A   1      39.093  33.175  32.107  1.00  0.00     0.167 HD
ATOM     55  C   UNL A   1      42.438  32.920  35.143  1.00  0.00     0.034 A 
ATOM     56  C   UNL A   1      36.453  33.326  31.116  1.00  0.00     0.034 A 
ATOM     57  C   UNL A   1      42.171  31.565  34.695  1.00  0.00     0.049 A 
ATOM     58  C   UNL A   1      36.737  32.427  32.269  1.00  0.00     0.074 A 
ATOM     59  C   UNL A   1      42.890  30.606  34.007  1.00  0.00     0.029 A 
ATOM     60  N   UNL A   1      40.844  31.248  34.514  1.00  0.00    -0.354 N 
ATOM     61  N   UNL A   1      37.226  31.228  32.101  1.00  0.00    -0.248 NA
ATOM     62  C   UNL A   1      37.087  33.099  33.514  1.00  0.00     0.031 C 
ATOM     63  C   UNL A   1      41.965  30.055  33.069  1.00  0.00     0.029 A 
ATOM     64  C   UNL A   1      40.691  30.553  33.343  1.00  0.00     0.049 A 
ATOM     65  H   UNL A   1      40.115  31.485  35.133  1.00  0.00     0.167 HD
ATOM     66  C   UNL A   1      38.315  31.184  32.955  1.00  0.00     0.074 A 
ATOM     67  C   UNL A   1      38.179  32.381  33.802  1.00  0.00     0.031 C 
ATOM     68  C   UNL A   1      39.413  30.420  32.668  1.00  0.00     0.034 A 
BRANCH  55  69
ATOM     69  C   UNL A   1      41.817  33.458  36.426  1.00  0.00     0.023 A 
ATOM     70  C   UNL A   1      42.414  33.034  37.629  1.00  0.00     0.031 A 
ATOM     71  C   UNL A   1      40.556  34.083  36.564  1.00  0.00     0.131 A 
ATOM     72  C   UNL A   1      41.731  33.126  38.854  1.00  0.00     0.055 A 
ATOM     73  C   UNL A   1      39.906  34.228  37.795  1.00  0.00     0.041 A 
ATOM     74  F   UNL A   1      39.834  34.517  35.526  1.00  0.00    -0.206 F 
ATOM     75  C   UNL A   1      40.480  33.724  38.948  1.00  0.00     0.022 A 
BRANCH  72  76
ATOM     76  S   UNL A   1      42.442  32.285  40.291  1.00  0.00     0.124 S 
ATOM     77  O   UNL A   1      41.284  31.565  40.806  1.00  0.00    -0.237 OA
ATOM     78  O   UNL A   1      43.485  31.472  39.674  1.00  0.00    -0.237 OA
ATOM     79  O   UNL A   1      42.921  33.386  41.123  1.00  0.00    -0.744 OA
ENDBRANCH  72  76
ENDBRANCH  55  69
BRANCH  56  80
ATOM     80  C   UNL A   1      35.117  34.081  31.061  1.00  0.00     0.023 A 
ATOM     81  C   UNL A   1      34.646  35.072  32.001  1.00  0.00     0.031 A 
ATOM     82  C   UNL A   1      34.405  34.028  29.850  1.00  0.00     0.131 A 
ATOM     83  C   UNL A   1      33.540  35.933  31.683  1.00  0.00     0.055 A 
ATOM     84  C   UNL A   1      33.354  34.901  29.532  1.00  0.00     0.041 A 
ATOM     85  F   UNL A   1      34.763  33.173  28.882  1.00  0.00    -0.206 F 
ATOM     86  C   UNL A   1      32.927  35.861  30.433  1.00  0.00     0.022 A 
BRANCH  83  87
ATOM     87  S   UNL A   1      32.852  37.213  32.834  1.00  0.00     0.124 S 
ATOM     88  O   UNL A   1      33.718  37.087  34.001  1.00  0.00    -0.237 OA
ATOM     89  O   UNL A   1      32.970  38.446  32.066  1.00  0.00    -0.237 OA
ATOM     90  O   UNL A   1      31.472  36.771  33.059  1.00  0.00    -0.744 OA
ENDBRANCH  83  87
ENDBRANCH  56  80
BRANCH  68  91
ATOM     91  C   UNL A   1      39.329  29.402  31.544  1.00  0.00     0.023 A 
ATOM     92  C   UNL A   1      39.898  29.502  30.248  1.00  0.00     0.031 A 
ATOM     93  C   UNL A   1      38.698  28.193  31.883  1.00  0.00     0.131 A 
ATOM     94  C   UNL A   1      39.797  28.409  29.351  1.00  0.00     0.055 A 
ATOM     95  C   UNL A   1      38.638  27.110  31.014  1.00  0.00     0.041 A 
ATOM     96  F   UNL A   1      38.155  28.032  33.101  1.00  0.00    -0.206 F 
ATOM     97  C   UNL A   1      39.178  27.216  29.741  1.00  0.00     0.022 A 
BRANCH  94  98
ATOM     98  S   UNL A   1      40.402  28.524  27.629  1.00  0.00     0.124 S 
ATOM     99  O   UNL A   1      39.365  29.301  26.961  1.00  0.00    -0.237 OA
ATOM    100  O   UNL A   1      41.694  29.188  27.787  1.00  0.00    -0.237 OA
ATOM    101  O   UNL A   1      40.487  27.126  27.202  1.00  0.00    -0.744 OA
ENDBRANCH  94  98
ENDBRANCH  68  91
ENDBRANCH  42  43
ENDBRANCH  34  37
ENDBRANCH  32  33
ENDBRANCH  31  32
ENDBRANCH  30  31
ENDBRANCH   1  30
TORSDOF 19
ENDMDL
