MODEL 1
REMARK VINA RESULT:     -12.3      0.000      0.000
REMARK SMILES CC(C)c1ccc([C@]2(C(=O)NCCCCNC(=O)c3ccc(-c4c5nc(c(-c6cc(S(=O)(=O)[O-])ccc6F)c6ccc([nH]6)c(-c6cc(S(=O)(=O)[O-])ccc6F)c6nc(c(-c7cc(S(=O)(=O)[O-])ccc7F)c7ccc4[nH]7)C=C6)C=C5)cc3)CCC[C@@H]2C)cc1
REMARK SMILES IDX 14 1 13 2 12 3 11 4 9 5 10 6 8 8 82 9 85 10 83 11 84 12
REMARK SMILES IDX 86 13 7 14 4 15 5 16 88 17 6 18 87 19 2 20 1 21 3 22 15 23
REMARK SMILES IDX 16 24 17 25 18 27 19 28 20 29 81 30 21 31 80 32 22 33 23 34
REMARK SMILES IDX 24 35 74 36 25 37 79 38 73 39 75 40 26 41 78 42 72 43 71 44
REMARK SMILES IDX 27 46 59 47 39 48 58 49 40 50 43 51 57 52 76 53 41 54 42 55
REMARK SMILES IDX 56 57 77 58 44 59 28 60 29 61 37 62 30 63 36 64 38 65 35 66
REMARK SMILES IDX 31 67 32 68 33 69 34 70 60 71 61 72 69 73 62 74 68 75 70 76
REMARK SMILES IDX 67 77 63 78 64 79 65 80 66 81 45 82 46 83 54 84 47 85 53 86
REMARK SMILES IDX 55 87 52 88 48 89 49 90 50 91 51 92
REMARK H PARENT 11 7 16 26 75 45 43 56
REMARK Flexibility Score: inf
ROOT
ATOM      1  C   UNL A   1      31.398  29.414  26.393  1.00  0.00     0.023 C 
ENDROOT
BRANCH   1   2
ATOM      2  C   UNL A   1      31.623  28.434  27.542  1.00  0.00     0.023 C 
BRANCH   2   3
ATOM      3  C   UNL A   1      32.083  27.044  27.124  1.00  0.00     0.116 C 
BRANCH   3   4
ATOM      4  N   UNL A   1      31.072  26.234  26.495  1.00  0.00    -0.355 N 
ATOM      5  C   UNL A   1      30.967  25.702  25.248  1.00  0.00     0.230 C 
ATOM      6  O   UNL A   1      30.288  24.664  25.230  1.00  0.00    -0.274 OA
ATOM      7  H   UNL A   1      30.308  26.027  27.081  1.00  0.00     0.163 HD
BRANCH   5   8
ATOM      8  C   UNL A   1      31.574  26.302  23.899  1.00  0.00     0.077 C 
ATOM      9  C   UNL A   1      32.988  26.908  24.097  1.00  0.00     0.022 C 
ATOM     10  C   UNL A   1      31.824  25.233  22.764  1.00  0.00     0.006 C 
ATOM     11  C   UNL A   1      34.024  25.927  23.543  1.00  0.00     0.002 C 
ATOM     12  C   UNL A   1      33.269  24.751  22.938  1.00  0.00     0.005 C 
ATOM     13  C   UNL A   1      31.766  25.706  21.294  1.00  0.00     0.009 C 
BRANCH   8  14
ATOM     14  C   UNL A   1      30.550  27.405  23.477  1.00  0.00    -0.032 A 
ATOM     15  C   UNL A   1      28.722  29.452  22.699  1.00  0.00    -0.045 A 
ATOM     16  C   UNL A   1      30.100  29.646  22.599  1.00  0.00     0.004 A 
ATOM     17  C   UNL A   1      28.263  28.197  23.119  1.00  0.00     0.004 A 
ATOM     18  C   UNL A   1      30.991  28.624  22.934  1.00  0.00     0.005 A 
ATOM     19  C   UNL A   1      29.162  27.188  23.497  1.00  0.00     0.005 A 
BRANCH  15  20
ATOM     20  C   UNL A   1      27.735  30.561  22.386  1.00  0.00     0.013 C 
ATOM     21  C   UNL A   1      27.696  31.575  23.535  1.00  0.00     0.012 C 
ATOM     22  C   UNL A   1      28.031  31.267  21.058  1.00  0.00     0.012 C 
ENDBRANCH  15  20
ENDBRANCH   8  14
ENDBRANCH   5   8
ENDBRANCH   3   4
ENDBRANCH   2   3
ENDBRANCH   1   2
BRANCH   1  23
ATOM     23  C   UNL A   1      32.555  30.365  26.093  1.00  0.00     0.116 C 
BRANCH  23  24
ATOM     24  N   UNL A   1      32.321  31.745  26.491  1.00  0.00    -0.352 N 
ATOM     25  C   UNL A   1      33.099  32.533  27.314  1.00  0.00     0.251 C 
ATOM     26  H   UNL A   1      31.508  32.166  26.129  1.00  0.00     0.163 HD
ATOM     27  O   UNL A   1      32.729  33.656  27.620  1.00  0.00    -0.269 OA
BRANCH  25  28
ATOM     28  C   UNL A   1      34.357  31.972  27.855  1.00  0.00     0.039 A 
ATOM     29  C   UNL A   1      35.462  32.811  28.008  1.00  0.00     0.014 A 
ATOM     30  C   UNL A   1      34.420  30.638  28.268  1.00  0.00     0.014 A 
ATOM     31  C   UNL A   1      36.610  32.327  28.641  1.00  0.00     0.010 A 
ATOM     32  C   UNL A   1      35.528  30.188  28.976  1.00  0.00     0.010 A 
ATOM     33  C   UNL A   1      36.640  31.023  29.162  1.00  0.00    -0.014 A 
BRANCH  33  34
ATOM     34  C   UNL A   1      37.838  30.505  29.872  1.00  0.00     0.031 A 
ATOM     35  C   UNL A   1      38.087  30.900  31.303  1.00  0.00     0.074 A 
ATOM     36  C   UNL A   1      38.725  29.730  29.216  1.00  0.00     0.049 A 
ATOM     37  N   UNL A   1      39.083  30.584  32.091  1.00  0.00    -0.248 NA
ATOM     38  C   UNL A   1      37.103  31.803  31.917  1.00  0.00     0.031 C 
ATOM     39  C   UNL A   1      38.625  29.332  27.811  1.00  0.00     0.029 A 
ATOM     40  N   UNL A   1      39.885  29.135  29.645  1.00  0.00    -0.354 N 
ATOM     41  C   UNL A   1      38.857  31.267  33.281  1.00  0.00     0.074 A 
ATOM     42  C   UNL A   1      37.670  32.071  33.082  1.00  0.00     0.031 C 
ATOM     43  C   UNL A   1      39.655  28.526  27.507  1.00  0.00     0.029 A 
ATOM     44  C   UNL A   1      40.507  28.376  28.682  1.00  0.00     0.049 A 
ATOM     45  H   UNL A   1      40.239  29.243  30.557  1.00  0.00     0.167 HD
ATOM     46  C   UNL A   1      39.553  31.206  34.444  1.00  0.00     0.034 A 
ATOM     47  C   UNL A   1      41.633  27.637  28.744  1.00  0.00     0.034 A 
ATOM     48  C   UNL A   1      40.717  30.375  34.630  1.00  0.00     0.049 A 
ATOM     49  C   UNL A   1      42.383  27.569  30.052  1.00  0.00     0.074 A 
ATOM     50  C   UNL A   1      41.462  30.177  35.779  1.00  0.00     0.029 A 
ATOM     51  N   UNL A   1      41.309  29.603  33.638  1.00  0.00    -0.354 N 
ATOM     52  N   UNL A   1      42.116  28.163  31.191  1.00  0.00    -0.248 NA
ATOM     53  C   UNL A   1      43.574  26.712  30.082  1.00  0.00     0.031 C 
ATOM     54  C   UNL A   1      42.537  29.338  35.466  1.00  0.00     0.029 A 
ATOM     55  C   UNL A   1      42.423  28.950  34.140  1.00  0.00     0.049 A 
ATOM     56  H   UNL A   1      40.984  29.532  32.711  1.00  0.00     0.167 HD
ATOM     57  C   UNL A   1      43.086  27.720  32.086  1.00  0.00     0.074 A 
ATOM     58  C   UNL A   1      43.932  26.798  31.354  1.00  0.00     0.031 C 
ATOM     59  C   UNL A   1      43.260  28.038  33.395  1.00  0.00     0.034 A 
BRANCH  46  60
ATOM     60  C   UNL A   1      39.080  32.081  35.581  1.00  0.00     0.023 A 
ATOM     61  C   UNL A   1      39.497  33.419  35.709  1.00  0.00     0.031 A 
ATOM     62  C   UNL A   1      38.242  31.558  36.582  1.00  0.00     0.131 A 
ATOM     63  C   UNL A   1      39.158  34.153  36.856  1.00  0.00     0.055 A 
ATOM     64  C   UNL A   1      37.831  32.326  37.675  1.00  0.00     0.041 A 
ATOM     65  F   UNL A   1      37.825  30.284  36.528  1.00  0.00    -0.206 F 
ATOM     66  C   UNL A   1      38.306  33.625  37.827  1.00  0.00     0.022 A 
BRANCH  63  67
ATOM     67  S   UNL A   1      39.985  35.743  37.140  1.00  0.00     0.124 S 
ATOM     68  O   UNL A   1      41.381  35.328  37.273  1.00  0.00    -0.237 OA
ATOM     69  O   UNL A   1      39.654  36.491  35.932  1.00  0.00    -0.237 OA
ATOM     70  O   UNL A   1      39.369  36.236  38.370  1.00  0.00    -0.744 OA
ENDBRANCH  63  67
ENDBRANCH  46  60
BRANCH  47  71
ATOM     71  C   UNL A   1      42.111  26.878  27.553  1.00  0.00     0.023 A 
ATOM     72  C   UNL A   1      41.909  25.491  27.456  1.00  0.00     0.031 A 
ATOM     73  C   UNL A   1      42.814  27.515  26.517  1.00  0.00     0.131 A 
ATOM     74  C   UNL A   1      42.448  24.779  26.374  1.00  0.00     0.055 A 
ATOM     75  C   UNL A   1      43.305  26.810  25.416  1.00  0.00     0.041 A 
ATOM     76  F   UNL A   1      43.026  28.840  26.554  1.00  0.00    -0.206 F 
ATOM     77  C   UNL A   1      43.134  25.430  25.348  1.00  0.00     0.022 A 
BRANCH  74  78
ATOM     78  S   UNL A   1      42.308  22.970  26.369  1.00  0.00     0.124 S 
ATOM     79  O   UNL A   1      43.276  22.592  27.391  1.00  0.00    -0.237 OA
ATOM     80  O   UNL A   1      40.903  22.776  26.713  1.00  0.00    -0.237 OA
ATOM     81  O   UNL A   1      42.667  22.605  25.001  1.00  0.00    -0.744 OA
ENDBRANCH  74  78
ENDBRANCH  47  71
BRANCH  59  82
ATOM     82  C   UNL A   1      44.379  27.335  34.125  1.00  0.00     0.023 A 
ATOM     83  C   UNL A   1      44.205  26.068  34.707  1.00  0.00     0.031 A 
ATOM     84  C   UNL A   1      45.631  27.962  34.264  1.00  0.00     0.131 A 
ATOM     85  C   UNL A   1      45.242  25.496  35.459  1.00  0.00     0.055 A 
ATOM     86  C   UNL A   1      46.682  27.357  34.957  1.00  0.00     0.041 A 
ATOM     87  F   UNL A   1      45.854  29.173  33.730  1.00  0.00    -0.206 F 
ATOM     88  C   UNL A   1      46.484  26.125  35.574  1.00  0.00     0.022 A 
BRANCH  85  89
ATOM     89  S   UNL A   1      44.909  23.971  36.381  1.00  0.00     0.124 S 
ATOM     90  O   UNL A   1      43.775  23.415  35.649  1.00  0.00    -0.237 OA
ATOM     91  O   UNL A   1      46.169  23.246  36.249  1.00  0.00    -0.237 OA
ATOM     92  O   UNL A   1      44.604  24.444  37.730  1.00  0.00    -0.744 OA
ENDBRANCH  85  89
ENDBRANCH  59  82
ENDBRANCH  33  34
ENDBRANCH  25  28
ENDBRANCH  23  24
ENDBRANCH   1  23
TORSDOF 16
ENDMDL
MODEL 2
REMARK VINA RESULT:     -12.1      2.321      3.967
REMARK SMILES CC(C)c1ccc([C@]2(C(=O)NCCCCNC(=O)c3ccc(-c4c5nc(c(-c6cc(S(=O)(=O)[O-])ccc6F)c6ccc([nH]6)c(-c6cc(S(=O)(=O)[O-])ccc6F)c6nc(c(-c7cc(S(=O)(=O)[O-])ccc7F)c7ccc4[nH]7)C=C6)C=C5)cc3)CCC[C@@H]2C)cc1
REMARK SMILES IDX 14 1 13 2 12 3 11 4 9 5 10 6 8 8 82 9 85 10 83 11 84 12
REMARK SMILES IDX 86 13 7 14 4 15 5 16 88 17 6 18 87 19 2 20 1 21 3 22 15 23
REMARK SMILES IDX 16 24 17 25 18 27 19 28 20 29 81 30 21 31 80 32 22 33 23 34
REMARK SMILES IDX 24 35 74 36 25 37 79 38 73 39 75 40 26 41 78 42 72 43 71 44
REMARK SMILES IDX 27 46 59 47 39 48 58 49 40 50 43 51 57 52 76 53 41 54 42 55
REMARK SMILES IDX 56 57 77 58 44 59 28 60 29 61 37 62 30 63 36 64 38 65 35 66
REMARK SMILES IDX 31 67 32 68 33 69 34 70 60 71 61 72 69 73 62 74 68 75 70 76
REMARK SMILES IDX 67 77 63 78 64 79 65 80 66 81 45 82 46 83 54 84 47 85 53 86
REMARK SMILES IDX 55 87 52 88 48 89 49 90 50 91 51 92
REMARK H PARENT 11 7 16 26 75 45 43 56
REMARK Flexibility Score: inf
ROOT
ATOM      1  C   UNL A   1      31.663  28.989  27.099  1.00  0.00     0.023 C 
ENDROOT
BRANCH   1   2
ATOM      2  C   UNL A   1      31.863  27.477  27.146  1.00  0.00     0.023 C 
BRANCH   2   3
ATOM      3  C   UNL A   1      30.987  26.680  26.188  1.00  0.00     0.116 C 
BRANCH   3   4
ATOM      4  N   UNL A   1      30.863  25.280  26.502  1.00  0.00    -0.355 N 
ATOM      5  C   UNL A   1      31.720  24.232  26.377  1.00  0.00     0.230 C 
ATOM      6  O   UNL A   1      31.504  23.340  27.212  1.00  0.00    -0.274 OA
ATOM      7  H   UNL A   1      29.987  25.035  26.880  1.00  0.00     0.163 HD
BRANCH   5   8
ATOM      8  C   UNL A   1      32.870  24.064  25.282  1.00  0.00     0.077 C 
ATOM      9  C   UNL A   1      32.622  24.926  24.018  1.00  0.00     0.022 C 
ATOM     10  C   UNL A   1      34.295  24.558  25.752  1.00  0.00     0.006 C 
ATOM     11  C   UNL A   1      33.538  26.151  24.072  1.00  0.00     0.002 C 
ATOM     12  C   UNL A   1      34.404  26.026  25.318  1.00  0.00     0.005 C 
ATOM     13  C   UNL A   1      35.539  23.892  25.122  1.00  0.00     0.009 C 
BRANCH   8  14
ATOM     14  C   UNL A   1      32.843  22.541  24.933  1.00  0.00    -0.032 A 
ATOM     15  C   UNL A   1      32.767  19.773  24.247  1.00  0.00    -0.045 A 
ATOM     16  C   UNL A   1      32.338  20.747  23.344  1.00  0.00     0.004 A 
ATOM     17  C   UNL A   1      33.306  20.199  25.467  1.00  0.00     0.004 A 
ATOM     18  C   UNL A   1      32.423  22.104  23.664  1.00  0.00     0.005 A 
ATOM     19  C   UNL A   1      33.349  21.561  25.803  1.00  0.00     0.005 A 
BRANCH  15  20
ATOM     20  C   UNL A   1      32.642  18.292  23.941  1.00  0.00     0.013 C 
ATOM     21  C   UNL A   1      32.352  18.081  22.451  1.00  0.00     0.012 C 
ATOM     22  C   UNL A   1      33.875  17.487  24.367  1.00  0.00     0.012 C 
ENDBRANCH  15  20
ENDBRANCH   8  14
ENDBRANCH   5   8
ENDBRANCH   3   4
ENDBRANCH   2   3
ENDBRANCH   1   2
BRANCH   1  23
ATOM     23  C   UNL A   1      32.863  29.806  26.626  1.00  0.00     0.116 C 
BRANCH  23  24
ATOM     24  N   UNL A   1      32.758  31.236  26.877  1.00  0.00    -0.352 N 
ATOM     25  C   UNL A   1      33.659  32.050  27.533  1.00  0.00     0.251 C 
ATOM     26  H   UNL A   1      31.945  31.675  26.538  1.00  0.00     0.163 HD
ATOM     27  O   UNL A   1      33.393  33.224  27.736  1.00  0.00    -0.269 OA
BRANCH  25  28
ATOM     28  C   UNL A   1      34.922  31.458  28.029  1.00  0.00     0.039 A 
ATOM     29  C   UNL A   1      36.070  32.251  28.071  1.00  0.00     0.014 A 
ATOM     30  C   UNL A   1      34.951  30.147  28.510  1.00  0.00     0.014 A 
ATOM     31  C   UNL A   1      37.232  31.747  28.661  1.00  0.00     0.010 A 
ATOM     32  C   UNL A   1      36.080  29.681  29.174  1.00  0.00     0.010 A 
ATOM     33  C   UNL A   1      37.237  30.471  29.249  1.00  0.00    -0.014 A 
BRANCH  33  34
ATOM     34  C   UNL A   1      38.452  29.935  29.914  1.00  0.00     0.031 A 
ATOM     35  C   UNL A   1      38.806  30.391  31.304  1.00  0.00     0.074 A 
ATOM     36  C   UNL A   1      39.262  29.086  29.250  1.00  0.00     0.049 A 
ATOM     37  N   UNL A   1      39.834  30.070  32.047  1.00  0.00    -0.248 NA
ATOM     38  C   UNL A   1      37.902  31.371  31.925  1.00  0.00     0.031 C 
ATOM     39  C   UNL A   1      39.057  28.620  27.877  1.00  0.00     0.029 A 
ATOM     40  N   UNL A   1      40.419  28.460  29.642  1.00  0.00    -0.354 N 
ATOM     41  C   UNL A   1      39.712  30.824  33.210  1.00  0.00     0.074 A 
ATOM     42  C   UNL A   1      38.552  31.672  33.038  1.00  0.00     0.031 C 
ATOM     43  C   UNL A   1      40.030  27.751  27.557  1.00  0.00     0.029 A 
ATOM     44  C   UNL A   1      40.946  27.623  28.686  1.00  0.00     0.049 A 
ATOM     45  H   UNL A   1      40.833  28.598  30.524  1.00  0.00     0.167 HD
ATOM     46  C   UNL A   1      40.475  30.790  34.331  1.00  0.00     0.034 A 
ATOM     47  C   UNL A   1      42.040  26.835  28.722  1.00  0.00     0.034 A 
ATOM     48  C   UNL A   1      41.611  29.917  34.493  1.00  0.00     0.049 A 
ATOM     49  C   UNL A   1      42.865  26.800  29.985  1.00  0.00     0.074 A 
ATOM     50  C   UNL A   1      42.416  29.743  35.605  1.00  0.00     0.029 A 
ATOM     51  N   UNL A   1      42.105  29.067  33.511  1.00  0.00    -0.354 N 
ATOM     52  N   UNL A   1      42.695  27.465  31.104  1.00  0.00    -0.248 NA
ATOM     53  C   UNL A   1      44.017  25.891  29.991  1.00  0.00     0.031 C 
ATOM     54  C   UNL A   1      43.431  28.839  35.275  1.00  0.00     0.029 A 
ATOM     55  C   UNL A   1      43.218  28.388  33.982  1.00  0.00     0.049 A 
ATOM     56  H   UNL A   1      41.721  28.962  32.611  1.00  0.00     0.167 HD
ATOM     57  C   UNL A   1      43.699  27.023  31.963  1.00  0.00     0.074 A 
ATOM     58  C   UNL A   1      44.457  26.025  31.234  1.00  0.00     0.031 C 
ATOM     59  C   UNL A   1      43.967  27.400  33.239  1.00  0.00     0.034 A 
BRANCH  46  60
ATOM     60  C   UNL A   1      40.112  31.745  35.445  1.00  0.00     0.023 A 
ATOM     61  C   UNL A   1      39.222  31.379  36.472  1.00  0.00     0.031 A 
ATOM     62  C   UNL A   1      40.619  33.056  35.454  1.00  0.00     0.131 A 
ATOM     63  C   UNL A   1      38.793  32.338  37.403  1.00  0.00     0.055 A 
ATOM     64  C   UNL A   1      40.260  33.979  36.440  1.00  0.00     0.041 A 
ATOM     65  F   UNL A   1      41.458  33.472  34.492  1.00  0.00    -0.206 F 
ATOM     66  C   UNL A   1      39.326  33.628  37.411  1.00  0.00     0.022 A 
BRANCH  63  67
ATOM     67  S   UNL A   1      37.403  31.922  38.493  1.00  0.00     0.124 S 
ATOM     68  O   UNL A   1      38.008  32.081  39.814  1.00  0.00    -0.237 OA
ATOM     69  O   UNL A   1      36.403  32.919  38.124  1.00  0.00    -0.237 OA
ATOM     70  O   UNL A   1      37.079  30.545  38.126  1.00  0.00    -0.744 OA
ENDBRANCH  63  67
ENDBRANCH  46  60
BRANCH  47  71
ATOM     71  C   UNL A   1      42.410  25.994  27.548  1.00  0.00     0.023 A 
ATOM     72  C   UNL A   1      41.948  24.671  27.438  1.00  0.00     0.031 A 
ATOM     73  C   UNL A   1      43.263  26.479  26.543  1.00  0.00     0.131 A 
ATOM     74  C   UNL A   1      42.382  23.864  26.375  1.00  0.00     0.055 A 
ATOM     75  C   UNL A   1      43.652  25.688  25.460  1.00  0.00     0.041 A 
ATOM     76  F   UNL A   1      43.725  27.738  26.594  1.00  0.00    -0.206 F 
ATOM     77  C   UNL A   1      43.221  24.366  25.380  1.00  0.00     0.022 A 
BRANCH  74  78
ATOM     78  S   UNL A   1      41.896  22.117  26.358  1.00  0.00     0.124 S 
ATOM     79  O   UNL A   1      42.687  21.597  25.249  1.00  0.00    -0.237 OA
ATOM     80  O   UNL A   1      42.296  21.679  27.692  1.00  0.00    -0.237 OA
ATOM     81  O   UNL A   1      40.454  22.167  26.128  1.00  0.00    -0.744 OA
ENDBRANCH  74  78
ENDBRANCH  47  71
BRANCH  59  82
ATOM     82  C   UNL A   1      45.097  26.684  33.940  1.00  0.00     0.023 A 
ATOM     83  C   UNL A   1      44.876  25.539  34.723  1.00  0.00     0.031 A 
ATOM     84  C   UNL A   1      46.410  27.178  33.842  1.00  0.00     0.131 A 
ATOM     85  C   UNL A   1      45.941  24.964  35.434  1.00  0.00     0.055 A 
ATOM     86  C   UNL A   1      47.477  26.562  34.498  1.00  0.00     0.041 A 
ATOM     87  F   UNL A   1      46.679  28.270  33.109  1.00  0.00    -0.206 F 
ATOM     88  C   UNL A   1      47.242  25.457  35.313  1.00  0.00     0.022 A 
BRANCH  85  89
ATOM     89  S   UNL A   1      45.582  23.629  36.608  1.00  0.00     0.124 S 
ATOM     90  O   UNL A   1      46.920  23.152  36.944  1.00  0.00    -0.237 OA
ATOM     91  O   UNL A   1      44.871  24.331  37.671  1.00  0.00    -0.237 OA
ATOM     92  O   UNL A   1      44.770  22.696  35.830  1.00  0.00    -0.744 OA
ENDBRANCH  85  89
ENDBRANCH  59  82
ENDBRANCH  33  34
ENDBRANCH  25  28
ENDBRANCH  23  24
ENDBRANCH   1  23
TORSDOF 16
ENDMDL
MODEL 3
REMARK VINA RESULT:     -12.0      2.173      2.675
REMARK SMILES CC(C)c1ccc([C@]2(C(=O)NCCCCNC(=O)c3ccc(-c4c5nc(c(-c6cc(S(=O)(=O)[O-])ccc6F)c6ccc([nH]6)c(-c6cc(S(=O)(=O)[O-])ccc6F)c6nc(c(-c7cc(S(=O)(=O)[O-])ccc7F)c7ccc4[nH]7)C=C6)C=C5)cc3)CCC[C@@H]2C)cc1
REMARK SMILES IDX 14 1 13 2 12 3 11 4 9 5 10 6 8 8 82 9 85 10 83 11 84 12
REMARK SMILES IDX 86 13 7 14 4 15 5 16 88 17 6 18 87 19 2 20 1 21 3 22 15 23
REMARK SMILES IDX 16 24 17 25 18 27 19 28 20 29 81 30 21 31 80 32 22 33 23 34
REMARK SMILES IDX 24 35 74 36 25 37 79 38 73 39 75 40 26 41 78 42 72 43 71 44
REMARK SMILES IDX 27 46 59 47 39 48 58 49 40 50 43 51 57 52 76 53 41 54 42 55
REMARK SMILES IDX 56 57 77 58 44 59 28 60 29 61 37 62 30 63 36 64 38 65 35 66
REMARK SMILES IDX 31 67 32 68 33 69 34 70 60 71 61 72 69 73 62 74 68 75 70 76
REMARK SMILES IDX 67 77 63 78 64 79 65 80 66 81 45 82 46 83 54 84 47 85 53 86
REMARK SMILES IDX 55 87 52 88 48 89 49 90 50 91 51 92
REMARK H PARENT 11 7 16 26 75 45 43 56
REMARK Flexibility Score: inf
ROOT
ATOM      1  C   UNL A   1      31.882  29.400  26.676  1.00  0.00     0.023 C 
ENDROOT
BRANCH   1   2
ATOM      2  C   UNL A   1      31.540  28.234  27.601  1.00  0.00     0.023 C 
BRANCH   2   3
ATOM      3  C   UNL A   1      32.090  26.883  27.165  1.00  0.00     0.116 C 
BRANCH   3   4
ATOM      4  N   UNL A   1      31.144  26.032  26.490  1.00  0.00    -0.355 N 
ATOM      5  C   UNL A   1      31.096  25.538  25.224  1.00  0.00     0.230 C 
ATOM      6  O   UNL A   1      30.485  24.459  25.159  1.00  0.00    -0.274 OA
ATOM      7  H   UNL A   1      30.385  25.757  27.054  1.00  0.00     0.163 HD
BRANCH   5   8
ATOM      8  C   UNL A   1      31.686  26.221  23.908  1.00  0.00     0.077 C 
ATOM      9  C   UNL A   1      33.096  26.825  24.129  1.00  0.00     0.022 C 
ATOM     10  C   UNL A   1      31.933  25.222  22.710  1.00  0.00     0.006 C 
ATOM     11  C   UNL A   1      34.135  25.887  23.510  1.00  0.00     0.002 C 
ATOM     12  C   UNL A   1      33.384  24.742  22.843  1.00  0.00     0.005 C 
ATOM     13  C   UNL A   1      31.858  25.781  21.271  1.00  0.00     0.009 C 
BRANCH   8  14
ATOM     14  C   UNL A   1      30.649  27.338  23.561  1.00  0.00    -0.032 A 
ATOM     15  C   UNL A   1      28.717  29.337  22.923  1.00  0.00    -0.045 A 
ATOM     16  C   UNL A   1      28.333  28.013  23.140  1.00  0.00     0.004 A 
ATOM     17  C   UNL A   1      30.066  29.669  23.103  1.00  0.00     0.004 A 
ATOM     18  C   UNL A   1      29.275  27.047  23.500  1.00  0.00     0.005 A 
ATOM     19  C   UNL A   1      31.016  28.687  23.422  1.00  0.00     0.005 A 
BRANCH  15  20
ATOM     20  C   UNL A   1      27.721  30.395  22.486  1.00  0.00     0.013 C 
ATOM     21  C   UNL A   1      27.617  31.496  23.546  1.00  0.00     0.012 C 
ATOM     22  C   UNL A   1      28.053  30.998  21.117  1.00  0.00     0.012 C 
ENDBRANCH  15  20
ENDBRANCH   8  14
ENDBRANCH   5   8
ENDBRANCH   3   4
ENDBRANCH   2   3
ENDBRANCH   1   2
BRANCH   1  23
ATOM     23  C   UNL A   1      33.255  30.034  26.882  1.00  0.00     0.116 C 
BRANCH  23  24
ATOM     24  N   UNL A   1      33.222  31.428  27.299  1.00  0.00    -0.352 N 
ATOM     25  C   UNL A   1      34.178  32.124  28.010  1.00  0.00     0.251 C 
ATOM     26  H   UNL A   1      32.418  31.935  27.043  1.00  0.00     0.163 HD
ATOM     27  O   UNL A   1      33.971  33.277  28.355  1.00  0.00    -0.269 OA
BRANCH  25  28
ATOM     28  C   UNL A   1      35.429  31.429  28.388  1.00  0.00     0.039 A 
ATOM     29  C   UNL A   1      36.647  32.088  28.219  1.00  0.00     0.014 A 
ATOM     30  C   UNL A   1      35.388  30.157  28.967  1.00  0.00     0.014 A 
ATOM     31  C   UNL A   1      37.821  31.498  28.696  1.00  0.00     0.010 A 
ATOM     32  C   UNL A   1      36.542  29.614  29.519  1.00  0.00     0.010 A 
ATOM     33  C   UNL A   1      37.774  30.272  29.381  1.00  0.00    -0.014 A 
BRANCH  33  34
ATOM     34  C   UNL A   1      39.006  29.649  29.928  1.00  0.00     0.031 A 
ATOM     35  C   UNL A   1      39.592  30.159  31.218  1.00  0.00     0.074 A 
ATOM     36  C   UNL A   1      39.625  28.668  29.241  1.00  0.00     0.049 A 
ATOM     37  N   UNL A   1      40.673  29.775  31.848  1.00  0.00    -0.248 NA
ATOM     38  C   UNL A   1      38.889  31.277  31.864  1.00  0.00     0.031 C 
ATOM     39  C   UNL A   1      39.188  28.133  27.950  1.00  0.00     0.029 A 
ATOM     40  N   UNL A   1      40.753  27.943  29.533  1.00  0.00    -0.354 N 
ATOM     41  C   UNL A   1      40.790  30.618  32.948  1.00  0.00     0.074 A 
ATOM     42  C   UNL A   1      39.711  31.579  32.854  1.00  0.00     0.031 C 
ATOM     43  C   UNL A   1      40.012  27.139  27.583  1.00  0.00     0.029 A 
ATOM     44  C   UNL A   1      41.055  26.987  28.592  1.00  0.00     0.049 A 
ATOM     45  H   UNL A   1      41.296  28.095  30.340  1.00  0.00     0.167 HD
ATOM     46  C   UNL A   1      41.692  30.577  33.961  1.00  0.00     0.034 A 
ATOM     47  C   UNL A   1      42.056  26.083  28.555  1.00  0.00     0.034 A 
ATOM     48  C   UNL A   1      42.742  29.592  34.050  1.00  0.00     0.049 A 
ATOM     49  C   UNL A   1      43.038  26.043  29.699  1.00  0.00     0.074 A 
ATOM     50  C   UNL A   1      43.669  29.407  35.061  1.00  0.00     0.029 A 
ATOM     51  N   UNL A   1      43.007  28.625  33.089  1.00  0.00    -0.354 N 
ATOM     52  N   UNL A   1      43.093  26.800  30.771  1.00  0.00    -0.248 NA
ATOM     53  C   UNL A   1      44.079  25.011  29.636  1.00  0.00     0.031 C 
ATOM     54  C   UNL A   1      44.530  28.372  34.681  1.00  0.00     0.029 A 
ATOM     55  C   UNL A   1      44.097  27.858  33.469  1.00  0.00     0.049 A 
ATOM     56  H   UNL A   1      42.494  28.502  32.257  1.00  0.00     0.167 HD
ATOM     57  C   UNL A   1      44.153  26.308  31.528  1.00  0.00     0.074 A 
ATOM     58  C   UNL A   1      44.696  25.182  30.795  1.00  0.00     0.031 C 
ATOM     59  C   UNL A   1      44.630  26.741  32.723  1.00  0.00     0.034 A 
BRANCH  46  60
ATOM     60  C   UNL A   1      41.585  31.642  35.027  1.00  0.00     0.023 A 
ATOM     61  C   UNL A   1      40.571  31.615  36.002  1.00  0.00     0.031 A 
ATOM     62  C   UNL A   1      42.476  32.730  35.040  1.00  0.00     0.131 A 
ATOM     63  C   UNL A   1      40.413  32.698  36.881  1.00  0.00     0.055 A 
ATOM     64  C   UNL A   1      42.370  33.759  35.979  1.00  0.00     0.041 A 
ATOM     65  F   UNL A   1      43.454  32.824  34.125  1.00  0.00    -0.206 F 
ATOM     66  C   UNL A   1      41.322  33.757  36.894  1.00  0.00     0.022 A 
BRANCH  63  67
ATOM     67  S   UNL A   1      38.906  32.780  37.888  1.00  0.00     0.124 S 
ATOM     68  O   UNL A   1      39.451  32.691  39.241  1.00  0.00    -0.237 OA
ATOM     69  O   UNL A   1      38.344  34.073  37.510  1.00  0.00    -0.237 OA
ATOM     70  O   UNL A   1      38.139  31.614  37.454  1.00  0.00    -0.744 OA
ENDBRANCH  63  67
ENDBRANCH  46  60
BRANCH  47  71
ATOM     71  C   UNL A   1      42.173  25.125  27.419  1.00  0.00     0.023 A 
ATOM     72  C   UNL A   1      41.461  23.913  27.425  1.00  0.00     0.031 A 
ATOM     73  C   UNL A   1      43.027  25.381  26.334  1.00  0.00     0.131 A 
ATOM     74  C   UNL A   1      41.655  22.982  26.394  1.00  0.00     0.055 A 
ATOM     75  C   UNL A   1      43.179  24.472  25.283  1.00  0.00     0.041 A 
ATOM     76  F   UNL A   1      43.723  26.527  26.273  1.00  0.00    -0.206 F 
ATOM     77  C   UNL A   1      42.500  23.257  25.318  1.00  0.00     0.022 A 
BRANCH  74  78
ATOM     78  S   UNL A   1      40.845  21.364  26.522  1.00  0.00     0.124 S 
ATOM     79  O   UNL A   1      41.754  20.513  25.763  1.00  0.00    -0.237 OA
ATOM     80  O   UNL A   1      40.823  21.151  27.966  1.00  0.00    -0.237 OA
ATOM     81  O   UNL A   1      39.539  21.587  25.908  1.00  0.00    -0.744 OA
ENDBRANCH  74  78
ENDBRANCH  47  71
BRANCH  59  82
ATOM     82  C   UNL A   1      45.765  25.952  33.331  1.00  0.00     0.023 A 
ATOM     83  C   UNL A   1      47.105  26.196  32.988  1.00  0.00     0.031 A 
ATOM     84  C   UNL A   1      45.492  24.921  34.248  1.00  0.00     0.131 A 
ATOM     85  C   UNL A   1      48.119  25.374  33.504  1.00  0.00     0.055 A 
ATOM     86  C   UNL A   1      46.512  24.149  34.810  1.00  0.00     0.041 A 
ATOM     87  F   UNL A   1      44.230  24.643  34.610  1.00  0.00    -0.206 F 
ATOM     88  C   UNL A   1      47.833  24.364  34.425  1.00  0.00     0.022 A 
BRANCH  85  89
ATOM     89  S   UNL A   1      49.806  25.571  32.869  1.00  0.00     0.124 S 
ATOM     90  O   UNL A   1      50.457  26.297  33.955  1.00  0.00    -0.237 OA
ATOM     91  O   UNL A   1      50.232  24.188  32.682  1.00  0.00    -0.237 OA
ATOM     92  O   UNL A   1      49.622  26.335  31.637  1.00  0.00    -0.744 OA
ENDBRANCH  85  89
ENDBRANCH  59  82
ENDBRANCH  33  34
ENDBRANCH  25  28
ENDBRANCH  23  24
ENDBRANCH   1  23
TORSDOF 16
ENDMDL
