MODEL 1
REMARK VINA RESULT:     -11.7      0.000      0.000
REMARK SMILES COc1cc(OC)cc(-c2ccc(C(=O)NCCCCNC(=O)c3ccc(-c4c5nc(c(-c6cc(S(=O)(=O)[O-])ccc6F)c6ccc([nH]6)c(-c6cc(S(=O)(=O)[O-])ccc6F)c6nc(c(-c7cc(S(=O)(=O)[O-])ccc7F)c7ccc4[nH]7)C=C6)C=C5)cc3)o2)c1
REMARK SMILES IDX 19 1 18 2 17 3 16 4 14 5 15 6 13 8 10 9 11 10 87 11 12 12
REMARK SMILES IDX 9 13 3 14 4 15 88 16 5 17 8 18 2 19 1 20 6 21 7 22 20 23
REMARK SMILES IDX 21 24 22 25 23 27 24 28 25 29 86 30 26 31 85 32 27 33 28 34
REMARK SMILES IDX 29 35 79 36 30 37 84 38 78 39 80 40 31 41 83 42 77 43 76 44
REMARK SMILES IDX 32 46 64 47 44 48 63 49 45 50 48 51 62 52 81 53 46 54 47 55
REMARK SMILES IDX 61 57 82 58 49 59 33 60 34 61 42 62 35 63 41 64 43 65 40 66
REMARK SMILES IDX 36 67 37 68 38 69 39 70 65 71 66 72 74 73 67 74 73 75 75 76
REMARK SMILES IDX 72 77 68 78 69 79 70 80 71 81 50 82 51 83 59 84 52 85 58 86
REMARK SMILES IDX 60 87 57 88 53 89 54 90 55 91 56 92
REMARK H PARENT 16 7 21 26 80 45 48 56
REMARK Flexibility Score: inf
ROOT
ATOM      1  C   UNL A   1      31.721  28.962  26.663  1.00  0.00     0.023 C 
ENDROOT
BRANCH   1   2
ATOM      2  C   UNL A   1      32.152  27.491  26.642  1.00  0.00     0.023 C 
BRANCH   2   3
ATOM      3  C   UNL A   1      31.296  26.615  25.727  1.00  0.00     0.116 C 
BRANCH   3   4
ATOM      4  N   UNL A   1      30.490  25.691  26.496  1.00  0.00    -0.349 N 
ATOM      5  C   UNL A   1      30.310  24.330  26.377  1.00  0.00     0.287 C 
ATOM      6  O   UNL A   1      29.594  23.806  27.231  1.00  0.00    -0.266 OA
ATOM      7  H   UNL A   1      29.984  26.106  27.232  1.00  0.00     0.163 HD
BRANCH   5   8
ATOM      8  C   UNL A   1      30.952  23.577  25.311  1.00  0.00     0.192 A 
ATOM      9  C   UNL A   1      32.267  21.967  24.562  1.00  0.00     0.135 A 
ATOM     10  C   UNL A   1      31.850  22.665  23.454  1.00  0.00     0.052 A 
ATOM     11  O   UNL A   1      31.730  22.500  25.689  1.00  0.00    -0.451 OA
ATOM     12  C   UNL A   1      30.963  23.653  23.928  1.00  0.00     0.057 A 
BRANCH   9  13
ATOM     13  C   UNL A   1      33.081  20.779  24.697  1.00  0.00     0.025 A 
ATOM     14  C   UNL A   1      35.286  19.799  24.893  1.00  0.00     0.123 A 
ATOM     15  C   UNL A   1      34.758  18.578  24.462  1.00  0.00     0.092 A 
ATOM     16  C   UNL A   1      34.443  20.901  25.007  1.00  0.00     0.058 A 
ATOM     17  C   UNL A   1      33.398  18.440  24.171  1.00  0.00     0.123 A 
ATOM     18  C   UNL A   1      32.554  19.539  24.320  1.00  0.00     0.058 A 
BRANCH  14  19
ATOM     19  O   UNL A   1      36.638  19.806  25.102  1.00  0.00    -0.497 OA
ATOM     20  C   UNL A   1      37.340  20.981  24.715  1.00  0.00     0.278 C 
ENDBRANCH  14  19
BRANCH  17  21
ATOM     21  O   UNL A   1      33.020  17.205  23.717  1.00  0.00    -0.497 OA
ATOM     22  C   UNL A   1      33.385  16.097  24.534  1.00  0.00     0.278 C 
ENDBRANCH  17  21
ENDBRANCH   9  13
ENDBRANCH   5   8
ENDBRANCH   3   4
ENDBRANCH   2   3
ENDBRANCH   1   2
BRANCH   1  23
ATOM     23  C   UNL A   1      32.735  29.937  26.071  1.00  0.00     0.116 C 
BRANCH  23  24
ATOM     24  N   UNL A   1      32.500  31.318  26.466  1.00  0.00    -0.352 N 
ATOM     25  C   UNL A   1      33.252  32.106  27.305  1.00  0.00     0.251 C 
ATOM     26  H   UNL A   1      31.698  31.742  26.084  1.00  0.00     0.163 HD
ATOM     27  O   UNL A   1      32.838  33.211  27.639  1.00  0.00    -0.269 OA
BRANCH  25  28
ATOM     28  C   UNL A   1      34.533  31.586  27.826  1.00  0.00     0.039 A 
ATOM     29  C   UNL A   1      35.607  32.465  27.972  1.00  0.00     0.014 A 
ATOM     30  C   UNL A   1      34.657  30.248  28.209  1.00  0.00     0.014 A 
ATOM     31  C   UNL A   1      36.786  32.015  28.568  1.00  0.00     0.010 A 
ATOM     32  C   UNL A   1      35.803  29.824  28.874  1.00  0.00     0.010 A 
ATOM     33  C   UNL A   1      36.880  30.703  29.063  1.00  0.00    -0.014 A 
BRANCH  33  34
ATOM     34  C   UNL A   1      38.100  30.241  29.777  1.00  0.00     0.031 A 
ATOM     35  C   UNL A   1      38.398  30.743  31.164  1.00  0.00     0.074 A 
ATOM     36  C   UNL A   1      38.954  29.398  29.161  1.00  0.00     0.049 A 
ATOM     37  N   UNL A   1      39.432  30.494  31.928  1.00  0.00    -0.248 NA
ATOM     38  C   UNL A   1      37.419  31.665  31.760  1.00  0.00     0.031 C 
ATOM     39  C   UNL A   1      38.792  28.876  27.801  1.00  0.00     0.029 A 
ATOM     40  N   UNL A   1      40.128  28.832  29.592  1.00  0.00    -0.354 N 
ATOM     41  C   UNL A   1      39.222  31.219  33.096  1.00  0.00     0.074 A 
ATOM     42  C   UNL A   1      38.006  31.981  32.904  1.00  0.00     0.031 C 
ATOM     43  C   UNL A   1      39.811  28.046  27.524  1.00  0.00     0.029 A 
ATOM     44  C   UNL A   1      40.725  28.013  28.661  1.00  0.00     0.049 A 
ATOM     45  H   UNL A   1      40.508  28.997  30.485  1.00  0.00     0.167 HD
ATOM     46  C   UNL A   1      39.954  31.221  34.237  1.00  0.00     0.034 A 
ATOM     47  C   UNL A   1      41.883  27.325  28.712  1.00  0.00     0.034 A 
ATOM     48  C   UNL A   1      41.165  30.460  34.415  1.00  0.00     0.049 A 
ATOM     49  C   UNL A   1      42.708  27.388  29.977  1.00  0.00     0.074 A 
ATOM     50  C   UNL A   1      41.978  30.380  35.532  1.00  0.00     0.029 A 
ATOM     51  N   UNL A   1      41.742  29.646  33.448  1.00  0.00    -0.354 N 
ATOM     52  N   UNL A   1      42.469  28.047  31.088  1.00  0.00    -0.248 NA
ATOM     53  C   UNL A   1      43.947  26.600  29.999  1.00  0.00     0.031 C 
ATOM     54  C   UNL A   1      43.076  29.574  35.221  1.00  0.00     0.029 A 
ATOM     55  C   UNL A   1      42.909  29.080  33.938  1.00  0.00     0.049 A 
ATOM     56  H   UNL A   1      41.376  29.494  32.547  1.00  0.00     0.167 HD
ATOM     57  C   UNL A   1      43.511  27.720  31.952  1.00  0.00     0.074 A 
ATOM     58  C   UNL A   1      44.362  26.788  31.243  1.00  0.00     0.031 C 
ATOM     59  C   UNL A   1      43.748  28.151  33.218  1.00  0.00     0.034 A 
BRANCH  46  60
ATOM     60  C   UNL A   1      39.459  32.078  35.378  1.00  0.00     0.023 A 
ATOM     61  C   UNL A   1      39.864  33.419  35.512  1.00  0.00     0.031 A 
ATOM     62  C   UNL A   1      38.584  31.556  36.345  1.00  0.00     0.131 A 
ATOM     63  C   UNL A   1      39.448  34.170  36.621  1.00  0.00     0.055 A 
ATOM     64  C   UNL A   1      38.108  32.335  37.402  1.00  0.00     0.041 A 
ATOM     65  F   UNL A   1      38.182  30.276  36.284  1.00  0.00    -0.206 F 
ATOM     66  C   UNL A   1      38.550  33.646  37.553  1.00  0.00     0.022 A 
BRANCH  63  67
ATOM     67  S   UNL A   1      40.205  35.793  36.899  1.00  0.00     0.124 S 
ATOM     68  O   UNL A   1      39.694  36.555  35.762  1.00  0.00    -0.237 OA
ATOM     69  O   UNL A   1      39.678  36.168  38.207  1.00  0.00    -0.237 OA
ATOM     70  O   UNL A   1      41.638  35.515  36.860  1.00  0.00    -0.744 OA
ENDBRANCH  63  67
ENDBRANCH  46  60
BRANCH  47  71
ATOM     71  C   UNL A   1      42.357  26.533  27.537  1.00  0.00     0.023 A 
ATOM     72  C   UNL A   1      41.961  25.199  27.353  1.00  0.00     0.031 A 
ATOM     73  C   UNL A   1      43.285  27.072  26.627  1.00  0.00     0.131 A 
ATOM     74  C   UNL A   1      42.544  24.427  26.336  1.00  0.00     0.055 A 
ATOM     75  C   UNL A   1      43.808  26.322  25.573  1.00  0.00     0.041 A 
ATOM     76  F   UNL A   1      43.701  28.343  26.752  1.00  0.00    -0.206 F 
ATOM     77  C   UNL A   1      43.455  24.983  25.436  1.00  0.00     0.022 A 
BRANCH  74  78
ATOM     78  S   UNL A   1      42.203  22.646  26.297  1.00  0.00     0.124 S 
ATOM     79  O   UNL A   1      42.849  22.194  27.525  1.00  0.00    -0.237 OA
ATOM     80  O   UNL A   1      40.745  22.617  26.292  1.00  0.00    -0.237 OA
ATOM     81  O   UNL A   1      42.840  22.205  25.057  1.00  0.00    -0.744 OA
ENDBRANCH  74  78
ENDBRANCH  47  71
BRANCH  59  82
ATOM     82  C   UNL A   1      44.946  27.569  33.930  1.00  0.00     0.023 A 
ATOM     83  C   UNL A   1      44.886  26.330  34.592  1.00  0.00     0.031 A 
ATOM     84  C   UNL A   1      46.160  28.277  33.964  1.00  0.00     0.131 A 
ATOM     85  C   UNL A   1      45.996  25.870  35.317  1.00  0.00     0.055 A 
ATOM     86  C   UNL A   1      47.284  27.780  34.627  1.00  0.00     0.041 A 
ATOM     87  F   UNL A   1      46.276  29.466  33.352  1.00  0.00    -0.206 F 
ATOM     88  C   UNL A   1      47.200  26.579  35.323  1.00  0.00     0.022 A 
BRANCH  85  89
ATOM     89  S   UNL A   1      45.808  24.389  36.347  1.00  0.00     0.124 S 
ATOM     90  O   UNL A   1      45.814  24.952  37.693  1.00  0.00    -0.237 OA
ATOM     91  O   UNL A   1      44.531  23.850  35.888  1.00  0.00    -0.237 OA
ATOM     92  O   UNL A   1      46.978  23.583  36.005  1.00  0.00    -0.744 OA
ENDBRANCH  85  89
ENDBRANCH  59  82
ENDBRANCH  33  34
ENDBRANCH  25  28
ENDBRANCH  23  24
ENDBRANCH   1  23
TORSDOF 17
ENDMDL
MODEL 2
REMARK VINA RESULT:     -11.7      4.285      8.024
REMARK SMILES COc1cc(OC)cc(-c2ccc(C(=O)NCCCCNC(=O)c3ccc(-c4c5nc(c(-c6cc(S(=O)(=O)[O-])ccc6F)c6ccc([nH]6)c(-c6cc(S(=O)(=O)[O-])ccc6F)c6nc(c(-c7cc(S(=O)(=O)[O-])ccc7F)c7ccc4[nH]7)C=C6)C=C5)cc3)o2)c1
REMARK SMILES IDX 19 1 18 2 17 3 16 4 14 5 15 6 13 8 10 9 11 10 87 11 12 12
REMARK SMILES IDX 9 13 3 14 4 15 88 16 5 17 8 18 2 19 1 20 6 21 7 22 20 23
REMARK SMILES IDX 21 24 22 25 23 27 24 28 25 29 86 30 26 31 85 32 27 33 28 34
REMARK SMILES IDX 29 35 79 36 30 37 84 38 78 39 80 40 31 41 83 42 77 43 76 44
REMARK SMILES IDX 32 46 64 47 44 48 63 49 45 50 48 51 62 52 81 53 46 54 47 55
REMARK SMILES IDX 61 57 82 58 49 59 33 60 34 61 42 62 35 63 41 64 43 65 40 66
REMARK SMILES IDX 36 67 37 68 38 69 39 70 65 71 66 72 74 73 67 74 73 75 75 76
REMARK SMILES IDX 72 77 68 78 69 79 70 80 71 81 50 82 51 83 59 84 52 85 58 86
REMARK SMILES IDX 60 87 57 88 53 89 54 90 55 91 56 92
REMARK H PARENT 16 7 21 26 80 45 48 56
REMARK Flexibility Score: inf
ROOT
ATOM      1  C   UNL A   1      34.992  34.420  28.336  1.00  0.00     0.023 C 
ENDROOT
BRANCH   1   2
ATOM      2  C   UNL A   1      34.289  35.721  28.736  1.00  0.00     0.023 C 
BRANCH   2   3
ATOM      3  C   UNL A   1      32.876  35.512  29.282  1.00  0.00     0.116 C 
BRANCH   3   4
ATOM      4  N   UNL A   1      32.595  36.431  30.364  1.00  0.00    -0.349 N 
ATOM      5  C   UNL A   1      32.979  36.418  31.687  1.00  0.00     0.287 C 
ATOM      6  O   UNL A   1      32.623  37.385  32.361  1.00  0.00    -0.266 OA
ATOM      7  H   UNL A   1      32.033  37.199  30.111  1.00  0.00     0.163 HD
BRANCH   5   8
ATOM      8  C   UNL A   1      33.774  35.326  32.228  1.00  0.00     0.192 A 
ATOM      9  C   UNL A   1      35.692  34.307  32.632  1.00  0.00     0.135 A 
ATOM     10  C   UNL A   1      34.710  33.467  33.096  1.00  0.00     0.052 A 
ATOM     11  O   UNL A   1      35.146  35.435  32.111  1.00  0.00    -0.451 OA
ATOM     12  C   UNL A   1      33.490  34.145  32.894  1.00  0.00     0.057 A 
BRANCH   9  13
ATOM     13  C   UNL A   1      37.135  34.212  32.677  1.00  0.00     0.025 A 
ATOM     14  C   UNL A   1      39.184  34.486  33.937  1.00  0.00     0.123 A 
ATOM     15  C   UNL A   1      39.892  34.542  32.732  1.00  0.00     0.092 A 
ATOM     16  C   UNL A   1      37.802  34.323  33.905  1.00  0.00     0.058 A 
ATOM     17  C   UNL A   1      39.239  34.411  31.503  1.00  0.00     0.123 A 
ATOM     18  C   UNL A   1      37.860  34.214  31.480  1.00  0.00     0.058 A 
BRANCH  14  19
ATOM     19  O   UNL A   1      39.939  34.670  35.063  1.00  0.00    -0.497 OA
ATOM     20  C   UNL A   1      40.007  35.995  35.578  1.00  0.00     0.278 C 
ENDBRANCH  14  19
BRANCH  17  21
ATOM     21  O   UNL A   1      40.042  34.529  30.400  1.00  0.00    -0.497 OA
ATOM     22  C   UNL A   1      40.865  33.407  30.100  1.00  0.00     0.278 C 
ENDBRANCH  17  21
ENDBRANCH   9  13
ENDBRANCH   5   8
ENDBRANCH   3   4
ENDBRANCH   2   3
ENDBRANCH   1   2
BRANCH   1  23
ATOM     23  C   UNL A   1      34.477  33.168  29.042  1.00  0.00     0.116 C 
BRANCH  23  24
ATOM     24  N   UNL A   1      33.942  32.173  28.125  1.00  0.00    -0.352 N 
ATOM     25  C   UNL A   1      34.508  30.984  27.729  1.00  0.00     0.251 C 
ATOM     26  H   UNL A   1      33.061  32.377  27.737  1.00  0.00     0.163 HD
ATOM     27  O   UNL A   1      33.982  30.321  26.843  1.00  0.00    -0.269 OA
BRANCH  25  28
ATOM     28  C   UNL A   1      35.774  30.546  28.354  1.00  0.00     0.039 A 
ATOM     29  C   UNL A   1      35.719  29.726  29.482  1.00  0.00     0.014 A 
ATOM     30  C   UNL A   1      37.005  30.908  27.802  1.00  0.00     0.014 A 
ATOM     31  C   UNL A   1      36.902  29.211  30.015  1.00  0.00     0.010 A 
ATOM     32  C   UNL A   1      38.175  30.331  28.286  1.00  0.00     0.010 A 
ATOM     33  C   UNL A   1      38.137  29.474  29.397  1.00  0.00    -0.014 A 
BRANCH  33  34
ATOM     34  C   UNL A   1      39.393  28.861  29.906  1.00  0.00     0.031 A 
ATOM     35  C   UNL A   1      40.077  29.438  31.115  1.00  0.00     0.074 A 
ATOM     36  C   UNL A   1      39.931  27.808  29.258  1.00  0.00     0.049 A 
ATOM     37  N   UNL A   1      41.201  29.075  31.680  1.00  0.00    -0.248 NA
ATOM     38  C   UNL A   1      39.427  30.590  31.759  1.00  0.00     0.031 C 
ATOM     39  C   UNL A   1      39.381  27.189  28.049  1.00  0.00     0.029 A 
ATOM     40  N   UNL A   1      41.061  27.074  29.517  1.00  0.00    -0.354 N 
ATOM     41  C   UNL A   1      41.385  29.944  32.749  1.00  0.00     0.074 A 
ATOM     42  C   UNL A   1      40.303  30.904  32.701  1.00  0.00     0.031 C 
ATOM     43  C   UNL A   1      40.157  26.152  27.694  1.00  0.00     0.029 A 
ATOM     44  C   UNL A   1      41.286  26.061  28.613  1.00  0.00     0.049 A 
ATOM     45  H   UNL A   1      41.656  27.254  30.281  1.00  0.00     0.167 HD
ATOM     46  C   UNL A   1      42.347  29.924  33.705  1.00  0.00     0.034 A 
ATOM     47  C   UNL A   1      42.294  25.170  28.526  1.00  0.00     0.034 A 
ATOM     48  C   UNL A   1      43.423  28.964  33.740  1.00  0.00     0.049 A 
ATOM     49  C   UNL A   1      43.383  25.203  29.573  1.00  0.00     0.074 A 
ATOM     50  C   UNL A   1      44.443  28.846  34.668  1.00  0.00     0.029 A 
ATOM     51  N   UNL A   1      43.621  27.957  32.804  1.00  0.00    -0.354 N 
ATOM     52  N   UNL A   1      43.516  26.009  30.602  1.00  0.00    -0.248 NA
ATOM     53  C   UNL A   1      44.445  24.197  29.456  1.00  0.00     0.031 C 
ATOM     54  C   UNL A   1      45.292  27.813  34.260  1.00  0.00     0.029 A 
ATOM     55  C   UNL A   1      44.758  27.229  33.123  1.00  0.00     0.049 A 
ATOM     56  H   UNL A   1      43.040  27.785  32.028  1.00  0.00     0.167 HD
ATOM     57  C   UNL A   1      44.657  25.578  31.274  1.00  0.00     0.074 A 
ATOM     58  C   UNL A   1      45.157  24.429  30.548  1.00  0.00     0.031 C 
ATOM     59  C   UNL A   1      45.244  26.085  32.389  1.00  0.00     0.034 A 
BRANCH  46  60
ATOM     60  C   UNL A   1      42.275  30.976  34.786  1.00  0.00     0.023 A 
ATOM     61  C   UNL A   1      43.023  32.164  34.700  1.00  0.00     0.031 A 
ATOM     62  C   UNL A   1      41.461  30.792  35.917  1.00  0.00     0.131 A 
ATOM     63  C   UNL A   1      42.993  33.090  35.753  1.00  0.00     0.055 A 
ATOM     64  C   UNL A   1      41.372  31.756  36.923  1.00  0.00     0.041 A 
ATOM     65  F   UNL A   1      40.742  29.668  36.067  1.00  0.00    -0.206 F 
ATOM     66  C   UNL A   1      42.151  32.908  36.851  1.00  0.00     0.022 A 
BRANCH  63  67
ATOM     67  S   UNL A   1      44.172  34.467  35.727  1.00  0.00     0.124 S 
ATOM     68  O   UNL A   1      44.563  34.493  34.319  1.00  0.00    -0.237 OA
ATOM     69  O   UNL A   1      43.359  35.588  36.185  1.00  0.00    -0.237 OA
ATOM     70  O   UNL A   1      45.221  34.038  36.649  1.00  0.00    -0.744 OA
ENDBRANCH  63  67
ENDBRANCH  46  60
BRANCH  47  71
ATOM     71  C   UNL A   1      42.350  24.182  27.406  1.00  0.00     0.023 A 
ATOM     72  C   UNL A   1      41.742  22.921  27.518  1.00  0.00     0.031 A 
ATOM     73  C   UNL A   1      43.088  24.451  26.239  1.00  0.00     0.131 A 
ATOM     74  C   UNL A   1      41.945  21.953  26.523  1.00  0.00     0.055 A 
ATOM     75  C   UNL A   1      43.226  23.510  25.217  1.00  0.00     0.041 A 
ATOM     76  F   UNL A   1      43.690  25.640  26.074  1.00  0.00    -0.206 F 
ATOM     77  C   UNL A   1      42.671  22.243  25.366  1.00  0.00     0.022 A 
BRANCH  74  78
ATOM     78  S   UNL A   1      41.366  20.261  26.830  1.00  0.00     0.124 S 
ATOM     79  O   UNL A   1      40.786  20.384  28.163  1.00  0.00    -0.237 OA
ATOM     80  O   UNL A   1      40.422  20.062  25.735  1.00  0.00    -0.237 OA
ATOM     81  O   UNL A   1      42.589  19.465  26.751  1.00  0.00    -0.744 OA
ENDBRANCH  74  78
ENDBRANCH  47  71
BRANCH  59  82
ATOM     82  C   UNL A   1      46.457  25.359  32.918  1.00  0.00     0.023 A 
ATOM     83  C   UNL A   1      46.346  24.292  33.828  1.00  0.00     0.031 A 
ATOM     84  C   UNL A   1      47.746  25.756  32.522  1.00  0.00     0.131 A 
ATOM     85  C   UNL A   1      47.503  23.706  34.362  1.00  0.00     0.055 A 
ATOM     86  C   UNL A   1      48.893  25.121  33.003  1.00  0.00     0.041 A 
ATOM     87  F   UNL A   1      47.914  26.770  31.658  1.00  0.00    -0.206 F 
ATOM     88  C   UNL A   1      48.775  24.102  33.942  1.00  0.00     0.022 A 
BRANCH  85  89
ATOM     89  S   UNL A   1      47.324  22.497  35.703  1.00  0.00     0.124 S 
ATOM     90  O   UNL A   1      45.911  22.624  36.041  1.00  0.00    -0.237 OA
ATOM     91  O   UNL A   1      47.713  21.250  35.051  1.00  0.00    -0.237 OA
ATOM     92  O   UNL A   1      48.253  22.977  36.725  1.00  0.00    -0.744 OA
ENDBRANCH  85  89
ENDBRANCH  59  82
ENDBRANCH  33  34
ENDBRANCH  25  28
ENDBRANCH  23  24
ENDBRANCH   1  23
TORSDOF 17
ENDMDL
MODEL 3
REMARK VINA RESULT:     -11.7      5.519     11.496
REMARK SMILES COc1cc(OC)cc(-c2ccc(C(=O)NCCCCNC(=O)c3ccc(-c4c5nc(c(-c6cc(S(=O)(=O)[O-])ccc6F)c6ccc([nH]6)c(-c6cc(S(=O)(=O)[O-])ccc6F)c6nc(c(-c7cc(S(=O)(=O)[O-])ccc7F)c7ccc4[nH]7)C=C6)C=C5)cc3)o2)c1
REMARK SMILES IDX 19 1 18 2 17 3 16 4 14 5 15 6 13 8 10 9 11 10 87 11 12 12
REMARK SMILES IDX 9 13 3 14 4 15 88 16 5 17 8 18 2 19 1 20 6 21 7 22 20 23
REMARK SMILES IDX 21 24 22 25 23 27 24 28 25 29 86 30 26 31 85 32 27 33 28 34
REMARK SMILES IDX 29 35 79 36 30 37 84 38 78 39 80 40 31 41 83 42 77 43 76 44
REMARK SMILES IDX 32 46 64 47 44 48 63 49 45 50 48 51 62 52 81 53 46 54 47 55
REMARK SMILES IDX 61 57 82 58 49 59 33 60 34 61 42 62 35 63 41 64 43 65 40 66
REMARK SMILES IDX 36 67 37 68 38 69 39 70 65 71 66 72 74 73 67 74 73 75 75 76
REMARK SMILES IDX 72 77 68 78 69 79 70 80 71 81 50 82 51 83 59 84 52 85 58 86
REMARK SMILES IDX 60 87 57 88 53 89 54 90 55 91 56 92
REMARK H PARENT 16 7 21 26 80 45 48 56
REMARK Flexibility Score: inf
ROOT
ATOM      1  C   UNL A   1      42.235  20.906  27.241  1.00  0.00     0.023 C 
ENDROOT
BRANCH   1   2
ATOM      2  C   UNL A   1      42.469  19.416  26.968  1.00  0.00     0.023 C 
BRANCH   2   3
ATOM      3  C   UNL A   1      42.732  19.096  25.496  1.00  0.00     0.116 C 
BRANCH   3   4
ATOM      4  N   UNL A   1      44.083  18.616  25.301  1.00  0.00    -0.349 N 
ATOM      5  C   UNL A   1      45.263  19.294  25.085  1.00  0.00     0.287 C 
ATOM      6  O   UNL A   1      46.277  18.600  25.012  1.00  0.00    -0.266 OA
ATOM      7  H   UNL A   1      44.176  17.636  25.327  1.00  0.00     0.163 HD
BRANCH   5   8
ATOM      8  C   UNL A   1      45.287  20.744  24.973  1.00  0.00     0.192 A 
ATOM      9  C   UNL A   1      45.534  22.774  25.811  1.00  0.00     0.135 A 
ATOM     10  C   UNL A   1      45.178  22.946  24.496  1.00  0.00     0.052 A 
ATOM     11  O   UNL A   1      45.611  21.453  26.115  1.00  0.00    -0.451 OA
ATOM     12  C   UNL A   1      45.080  21.651  23.947  1.00  0.00     0.057 A 
BRANCH   9  13
ATOM     13  C   UNL A   1      45.891  23.726  26.840  1.00  0.00     0.025 A 
ATOM     14  C   UNL A   1      47.597  25.072  27.906  1.00  0.00     0.123 A 
ATOM     15  C   UNL A   1      46.792  25.150  29.048  1.00  0.00     0.092 A 
ATOM     16  C   UNL A   1      47.143  24.355  26.803  1.00  0.00     0.058 A 
ATOM     17  C   UNL A   1      45.533  24.544  29.087  1.00  0.00     0.123 A 
ATOM     18  C   UNL A   1      45.071  23.858  27.967  1.00  0.00     0.058 A 
BRANCH  14  19
ATOM     19  O   UNL A   1      48.821  25.673  28.017  1.00  0.00    -0.497 OA
ATOM     20  C   UNL A   1      49.762  25.402  26.985  1.00  0.00     0.278 C 
ENDBRANCH  14  19
BRANCH  17  21
ATOM     21  O   UNL A   1      44.868  24.659  30.278  1.00  0.00    -0.497 OA
ATOM     22  C   UNL A   1      44.108  23.526  30.685  1.00  0.00     0.278 C 
ENDBRANCH  17  21
ENDBRANCH   9  13
ENDBRANCH   5   8
ENDBRANCH   3   4
ENDBRANCH   2   3
ENDBRANCH   1   2
BRANCH   1  23
ATOM     23  C   UNL A   1      41.757  21.712  26.036  1.00  0.00     0.116 C 
BRANCH  23  24
ATOM     24  N   UNL A   1      40.307  21.761  25.918  1.00  0.00    -0.352 N 
ATOM     25  C   UNL A   1      39.453  22.769  26.298  1.00  0.00     0.251 C 
ATOM     26  H   UNL A   1      39.883  20.969  25.515  1.00  0.00     0.163 HD
ATOM     27  O   UNL A   1      38.241  22.594  26.250  1.00  0.00    -0.269 OA
BRANCH  25  28
ATOM     28  C   UNL A   1      40.017  24.039  26.801  1.00  0.00     0.039 A 
ATOM     29  C   UNL A   1      40.245  25.079  25.898  1.00  0.00     0.014 A 
ATOM     30  C   UNL A   1      40.276  24.215  28.163  1.00  0.00     0.014 A 
ATOM     31  C   UNL A   1      40.669  26.320  26.374  1.00  0.00     0.010 A 
ATOM     32  C   UNL A   1      40.621  25.475  28.643  1.00  0.00     0.010 A 
ATOM     33  C   UNL A   1      40.820  26.542  27.755  1.00  0.00    -0.014 A 
BRANCH  33  34
ATOM     34  C   UNL A   1      41.187  27.885  28.277  1.00  0.00     0.031 A 
ATOM     35  C   UNL A   1      42.630  28.312  28.313  1.00  0.00     0.074 A 
ATOM     36  C   UNL A   1      40.225  28.703  28.750  1.00  0.00     0.049 A 
ATOM     37  N   UNL A   1      43.152  29.420  28.774  1.00  0.00    -0.248 NA
ATOM     38  C   UNL A   1      43.617  27.358  27.784  1.00  0.00     0.031 C 
ATOM     39  C   UNL A   1      38.796  28.382  28.806  1.00  0.00     0.029 A 
ATOM     40  N   UNL A   1      40.298  29.969  29.277  1.00  0.00    -0.354 N 
ATOM     41  C   UNL A   1      44.524  29.301  28.581  1.00  0.00     0.074 A 
ATOM     42  C   UNL A   1      44.758  27.979  28.040  1.00  0.00     0.031 C 
ATOM     43  C   UNL A   1      38.128  29.433  29.308  1.00  0.00     0.029 A 
ATOM     44  C   UNL A   1      39.079  30.483  29.657  1.00  0.00     0.049 A 
ATOM     45  H   UNL A   1      41.144  30.463  29.373  1.00  0.00     0.167 HD
ATOM     46  C   UNL A   1      45.496  30.220  28.800  1.00  0.00     0.034 A 
ATOM     47  C   UNL A   1      38.766  31.660  30.234  1.00  0.00     0.034 A 
ATOM     48  C   UNL A   1      45.250  31.533  29.343  1.00  0.00     0.049 A 
ATOM     49  C   UNL A   1      39.875  32.647  30.518  1.00  0.00     0.074 A 
ATOM     50  C   UNL A   1      46.159  32.547  29.594  1.00  0.00     0.029 A 
ATOM     51  N   UNL A   1      44.005  32.017  29.721  1.00  0.00    -0.354 N 
ATOM     52  N   UNL A   1      41.164  32.530  30.288  1.00  0.00    -0.248 NA
ATOM     53  C   UNL A   1      39.485  33.927  31.121  1.00  0.00     0.031 C 
ATOM     54  C   UNL A   1      45.476  33.615  30.183  1.00  0.00     0.029 A 
ATOM     55  C   UNL A   1      44.127  33.304  30.223  1.00  0.00     0.049 A 
ATOM     56  H   UNL A   1      43.159  31.519  29.645  1.00  0.00     0.167 HD
ATOM     57  C   UNL A   1      41.729  33.740  30.685  1.00  0.00     0.074 A 
ATOM     58  C   UNL A   1      40.639  34.577  31.142  1.00  0.00     0.031 C 
ATOM     59  C   UNL A   1      43.030  34.127  30.675  1.00  0.00     0.034 A 
BRANCH  46  60
ATOM     60  C   UNL A   1      46.913  29.830  28.452  1.00  0.00     0.023 A 
ATOM     61  C   UNL A   1      47.733  29.160  29.378  1.00  0.00     0.031 A 
ATOM     62  C   UNL A   1      47.455  30.133  27.191  1.00  0.00     0.131 A 
ATOM     63  C   UNL A   1      49.068  28.876  29.055  1.00  0.00     0.055 A 
ATOM     64  C   UNL A   1      48.760  29.773  26.847  1.00  0.00     0.041 A 
ATOM     65  F   UNL A   1      46.729  30.792  26.275  1.00  0.00    -0.206 F 
ATOM     66  C   UNL A   1      49.579  29.152  27.785  1.00  0.00     0.022 A 
BRANCH  63  67
ATOM     67  S   UNL A   1      50.163  28.263  30.364  1.00  0.00     0.124 S 
ATOM     68  O   UNL A   1      50.330  29.457  31.190  1.00  0.00    -0.237 OA
ATOM     69  O   UNL A   1      49.378  27.184  30.952  1.00  0.00    -0.237 OA
ATOM     70  O   UNL A   1      51.360  27.843  29.641  1.00  0.00    -0.744 OA
ENDBRANCH  63  67
ENDBRANCH  46  60
BRANCH  47  71
ATOM     71  C   UNL A   1      37.355  31.979  30.610  1.00  0.00     0.023 A 
ATOM     72  C   UNL A   1      36.467  32.545  29.680  1.00  0.00     0.031 A 
ATOM     73  C   UNL A   1      36.899  31.804  31.928  1.00  0.00     0.131 A 
ATOM     74  C   UNL A   1      35.201  32.985  30.098  1.00  0.00     0.055 A 
ATOM     75  C   UNL A   1      35.612  32.177  32.322  1.00  0.00     0.041 A 
ATOM     76  F   UNL A   1      37.702  31.267  32.861  1.00  0.00    -0.206 F 
ATOM     77  C   UNL A   1      34.762  32.792  31.408  1.00  0.00     0.022 A 
BRANCH  74  78
ATOM     78  S   UNL A   1      34.191  33.944  28.935  1.00  0.00     0.124 S 
ATOM     79  O   UNL A   1      33.713  32.905  28.030  1.00  0.00    -0.237 OA
ATOM     80  O   UNL A   1      33.192  34.536  29.818  1.00  0.00    -0.237 OA
ATOM     81  O   UNL A   1      35.146  34.887  28.355  1.00  0.00    -0.744 OA
ENDBRANCH  74  78
ENDBRANCH  47  71
BRANCH  59  82
ATOM     82  C   UNL A   1      43.331  35.538  31.121  1.00  0.00     0.023 A 
ATOM     83  C   UNL A   1      43.476  36.593  30.202  1.00  0.00     0.031 A 
ATOM     84  C   UNL A   1      43.498  35.826  32.487  1.00  0.00     0.131 A 
ATOM     85  C   UNL A   1      43.845  37.868  30.654  1.00  0.00     0.055 A 
ATOM     86  C   UNL A   1      43.794  37.115  32.937  1.00  0.00     0.041 A 
ATOM     87  F   UNL A   1      43.373  34.860  33.410  1.00  0.00    -0.206 F 
ATOM     88  C   UNL A   1      43.987  38.140  32.017  1.00  0.00     0.022 A 
BRANCH  85  89
ATOM     89  S   UNL A   1      44.250  39.141  29.426  1.00  0.00     0.124 S 
ATOM     90  O   UNL A   1      42.956  39.779  29.212  1.00  0.00    -0.237 OA
ATOM     91  O   UNL A   1      45.248  39.943  30.127  1.00  0.00    -0.237 OA
ATOM     92  O   UNL A   1      44.759  38.372  28.291  1.00  0.00    -0.744 OA
ENDBRANCH  85  89
ENDBRANCH  59  82
ENDBRANCH  33  34
ENDBRANCH  25  28
ENDBRANCH  23  24
ENDBRANCH   1  23
TORSDOF 17
ENDMDL
