MODEL 1
REMARK VINA RESULT:     -12.3      0.000      0.000
REMARK SMILES C#Cc1cc(Cl)c2c(c1)C=C(C(=O)NCCCCNC(=O)c1ccc(-c3c4nc(c(-c5cc(S(=O)(=O)[O-])ccc5F)c5ccc([nH]5)c(-c5cc(S(=O)(=O)[O-])ccc5F)c5nc(c(-c6cc(S(=O)(=O)[O-])ccc6F)c6ccc3[nH]6)C=C5)C=C4)cc1)[C@@H](C(F)(F)F)O2
REMARK SMILES IDX 17 1 16 2 15 3 14 4 12 5 13 6 11 8 3 9 4 10 9 11 5 12 8 13
REMARK SMILES IDX 6 14 7 15 10 16 90 17 85 18 2 19 1 20 86 21 87 22 88 23
REMARK SMILES IDX 89 24 18 25 19 26 20 27 21 29 22 30 23 31 84 32 24 33 83 34
REMARK SMILES IDX 25 35 26 36 27 37 77 38 28 39 82 40 76 41 78 42 29 43 81 44
REMARK SMILES IDX 75 45 74 46 30 48 62 49 42 50 61 51 43 52 46 53 60 54 79 55
REMARK SMILES IDX 44 56 45 57 59 59 80 60 47 61 31 62 32 63 40 64 33 65 39 66
REMARK SMILES IDX 41 67 38 68 34 69 35 70 36 71 37 72 63 73 64 74 72 75 65 76
REMARK SMILES IDX 71 77 73 78 70 79 66 80 67 81 68 82 69 83 48 84 49 85 57 86
REMARK SMILES IDX 50 87 56 88 58 89 55 90 51 91 52 92 53 93 54 94
REMARK H PARENT 14 7 19 28 78 47 46 58
REMARK Flexibility Score: inf
ROOT
ATOM      1  C   UNL A   1      34.734  22.132  26.257  1.00  0.00     0.023 C 
ENDROOT
BRANCH   1   2
ATOM      2  C   UNL A   1      33.946  21.176  25.369  1.00  0.00     0.023 C 
BRANCH   2   3
ATOM      3  C   UNL A   1      32.794  21.851  24.638  1.00  0.00     0.116 C 
BRANCH   3   4
ATOM      4  N   UNL A   1      33.179  22.314  23.314  1.00  0.00    -0.352 N 
ATOM      5  C   UNL A   1      33.272  23.504  22.672  1.00  0.00     0.251 C 
ATOM      6  O   UNL A   1      33.701  23.461  21.516  1.00  0.00    -0.270 OA
ATOM      7  H   UNL A   1      33.442  21.565  22.731  1.00  0.00     0.163 HD
BRANCH   5   8
ATOM      8  C   UNL A   1      32.888  24.820  23.266  1.00  0.00     0.067 C 
ATOM      9  C   UNL A   1      33.948  28.483  26.246  1.00  0.00     0.027 A 
ATOM     10  C   UNL A   1      32.852  29.202  25.767  1.00  0.00     0.041 A 
ATOM     11  C   UNL A   1      34.245  27.217  25.729  1.00  0.00     0.029 A 
ATOM     12  C   UNL A   1      32.053  28.654  24.770  1.00  0.00     0.084 A 
ATOM     13  C   UNL A   1      33.441  26.664  24.726  1.00  0.00     0.020 A 
ATOM     14  Cl  UNL A   1      30.710  29.575  24.192  1.00  0.00    -0.080 Cl
ATOM     15  C   UNL A   1      32.340  27.387  24.255  1.00  0.00     0.146 A 
ATOM     16  C   UNL A   1      33.763  25.371  24.127  1.00  0.00     0.025 C 
ATOM     17  O   UNL A   1      31.543  26.923  23.252  1.00  0.00    -0.474 OA
ATOM     18  C   UNL A   1      31.591  25.508  22.962  1.00  0.00     0.314 C 
BRANCH   9  19
ATOM     19  C   UNL A   1      34.772  29.066  27.258  1.00  0.00    -0.070 C 
ATOM     20  C   UNL A   1      35.458  29.527  28.130  1.00  0.00     0.010 C 
ENDBRANCH   9  19
BRANCH  18  21
ATOM     21  C   UNL A   1      30.388  24.812  23.630  1.00  0.00     0.429 C 
ATOM     22  F   UNL A   1      30.057  23.685  22.953  1.00  0.00    -0.167 F 
ATOM     23  F   UNL A   1      30.639  24.435  24.905  1.00  0.00    -0.167 F 
ATOM     24  F   UNL A   1      29.292  25.605  23.666  1.00  0.00    -0.167 F 
ENDBRANCH  18  21
ENDBRANCH   5   8
ENDBRANCH   3   4
ENDBRANCH   2   3
ENDBRANCH   1   2
BRANCH   1  25
ATOM     25  C   UNL A   1      36.103  22.516  25.710  1.00  0.00     0.116 C 
BRANCH  25  26
ATOM     26  N   UNL A   1      37.018  21.386  25.602  1.00  0.00    -0.352 N 
ATOM     27  C   UNL A   1      38.372  21.372  25.845  1.00  0.00     0.251 C 
ATOM     28  H   UNL A   1      36.619  20.531  25.321  1.00  0.00     0.163 HD
ATOM     29  O   UNL A   1      39.046  20.384  25.579  1.00  0.00    -0.269 OA
BRANCH  27  30
ATOM     30  C   UNL A   1      38.986  22.594  26.393  1.00  0.00     0.039 A 
ATOM     31  C   UNL A   1      40.118  22.481  27.198  1.00  0.00     0.014 A 
ATOM     32  C   UNL A   1      38.506  23.846  25.994  1.00  0.00     0.014 A 
ATOM     33  C   UNL A   1      40.815  23.635  27.550  1.00  0.00     0.010 A 
ATOM     34  C   UNL A   1      39.257  24.980  26.264  1.00  0.00     0.010 A 
ATOM     35  C   UNL A   1      40.415  24.887  27.052  1.00  0.00    -0.014 A 
BRANCH  35  36
ATOM     36  C   UNL A   1      41.179  26.117  27.373  1.00  0.00     0.031 A 
ATOM     37  C   UNL A   1      40.554  27.169  28.246  1.00  0.00     0.074 A 
ATOM     38  C   UNL A   1      42.417  26.292  26.870  1.00  0.00     0.049 A 
ATOM     39  N   UNL A   1      41.042  28.322  28.622  1.00  0.00    -0.248 NA
ATOM     40  C   UNL A   1      39.195  26.900  28.745  1.00  0.00     0.031 C 
ATOM     41  C   UNL A   1      43.116  25.347  25.995  1.00  0.00     0.029 A 
ATOM     42  N   UNL A   1      43.313  27.319  27.029  1.00  0.00    -0.354 N 
ATOM     43  C   UNL A   1      40.055  28.909  29.405  1.00  0.00     0.074 A 
ATOM     44  C   UNL A   1      38.913  28.024  29.385  1.00  0.00     0.031 C 
ATOM     45  C   UNL A   1      44.349  25.814  25.742  1.00  0.00     0.029 A 
ATOM     46  C   UNL A   1      44.512  27.113  26.387  1.00  0.00     0.049 A 
ATOM     47  H   UNL A   1      43.117  28.127  27.554  1.00  0.00     0.167 HD
ATOM     48  C   UNL A   1      40.110  30.063  30.108  1.00  0.00     0.034 A 
ATOM     49  C   UNL A   1      45.618  27.883  26.326  1.00  0.00     0.034 A 
ATOM     50  C   UNL A   1      41.259  30.929  30.132  1.00  0.00     0.049 A 
ATOM     51  C   UNL A   1      45.629  29.199  27.059  1.00  0.00     0.074 A 
ATOM     52  C   UNL A   1      41.428  32.110  30.834  1.00  0.00     0.029 A 
ATOM     53  N   UNL A   1      42.434  30.712  29.424  1.00  0.00    -0.354 N 
ATOM     54  N   UNL A   1      44.693  29.730  27.811  1.00  0.00    -0.248 NA
ATOM     55  C   UNL A   1      46.842  30.018  26.937  1.00  0.00     0.031 C 
ATOM     56  C   UNL A   1      42.672  32.645  30.492  1.00  0.00     0.029 A 
ATOM     57  C   UNL A   1      43.315  31.758  29.643  1.00  0.00     0.049 A 
ATOM     58  H   UNL A   1      42.613  29.933  28.851  1.00  0.00     0.167 HD
ATOM     59  C   UNL A   1      45.214  30.936  28.269  1.00  0.00     0.074 A 
ATOM     60  C   UNL A   1      46.548  31.049  27.719  1.00  0.00     0.031 C 
ATOM     61  C   UNL A   1      44.640  31.863  29.077  1.00  0.00     0.034 A 
BRANCH  48  62
ATOM     62  C   UNL A   1      38.896  30.455  30.907  1.00  0.00     0.023 A 
ATOM     63  C   UNL A   1      37.930  31.331  30.386  1.00  0.00     0.031 A 
ATOM     64  C   UNL A   1      38.690  29.930  32.194  1.00  0.00     0.131 A 
ATOM     65  C   UNL A   1      36.819  31.688  31.163  1.00  0.00     0.055 A 
ATOM     66  C   UNL A   1      37.547  30.236  32.936  1.00  0.00     0.041 A 
ATOM     67  F   UNL A   1      39.593  29.106  32.748  1.00  0.00    -0.206 F 
ATOM     68  C   UNL A   1      36.607  31.125  32.424  1.00  0.00     0.022 A 
BRANCH  65  69
ATOM     69  S   UNL A   1      35.695  32.964  30.534  1.00  0.00     0.124 S 
ATOM     70  O   UNL A   1      35.810  32.771  29.089  1.00  0.00    -0.237 OA
ATOM     71  O   UNL A   1      34.419  32.583  31.128  1.00  0.00    -0.237 OA
ATOM     72  O   UNL A   1      36.272  34.208  31.038  1.00  0.00    -0.744 OA
ENDBRANCH  65  69
ENDBRANCH  48  62
BRANCH  49  73
ATOM     73  C   UNL A   1      46.804  27.425  25.548  1.00  0.00     0.023 A 
ATOM     74  C   UNL A   1      46.982  27.813  24.211  1.00  0.00     0.031 A 
ATOM     75  C   UNL A   1      47.782  26.602  26.133  1.00  0.00     0.131 A 
ATOM     76  C   UNL A   1      48.102  27.362  23.495  1.00  0.00     0.055 A 
ATOM     77  C   UNL A   1      48.916  26.191  25.431  1.00  0.00     0.041 A 
ATOM     78  F   UNL A   1      47.662  26.209  27.411  1.00  0.00    -0.206 F 
ATOM     79  C   UNL A   1      49.079  26.566  24.102  1.00  0.00     0.022 A 
BRANCH  76  80
ATOM     80  S   UNL A   1      48.256  27.806  21.744  1.00  0.00     0.124 S 
ATOM     81  O   UNL A   1      46.983  28.472  21.494  1.00  0.00    -0.237 OA
ATOM     82  O   UNL A   1      49.438  28.662  21.750  1.00  0.00    -0.237 OA
ATOM     83  O   UNL A   1      48.428  26.516  21.079  1.00  0.00    -0.744 OA
ENDBRANCH  76  80
ENDBRANCH  49  73
BRANCH  61  84
ATOM     84  C   UNL A   1      45.453  33.079  29.437  1.00  0.00     0.023 A 
ATOM     85  C   UNL A   1      45.389  34.254  28.672  1.00  0.00     0.031 A 
ATOM     86  C   UNL A   1      46.247  33.083  30.599  1.00  0.00     0.131 A 
ATOM     87  C   UNL A   1      46.127  35.380  29.062  1.00  0.00     0.055 A 
ATOM     88  C   UNL A   1      46.937  34.222  31.011  1.00  0.00     0.041 A 
ATOM     89  F   UNL A   1      46.337  31.986  31.367  1.00  0.00    -0.206 F 
ATOM     90  C   UNL A   1      46.884  35.379  30.237  1.00  0.00     0.022 A 
BRANCH  87  91
ATOM     91  S   UNL A   1      46.118  36.840  27.988  1.00  0.00     0.124 S 
ATOM     92  O   UNL A   1      44.805  36.745  27.359  1.00  0.00    -0.237 OA
ATOM     93  O   UNL A   1      46.289  37.933  28.942  1.00  0.00    -0.237 OA
ATOM     94  O   UNL A   1      47.253  36.617  27.095  1.00  0.00    -0.744 OA
ENDBRANCH  87  91
ENDBRANCH  61  84
ENDBRANCH  35  36
ENDBRANCH  27  30
ENDBRANCH  25  26
ENDBRANCH   1  25
TORSDOF 16
ENDMDL
MODEL 2
REMARK VINA RESULT:     -12.1      5.138     10.110
REMARK SMILES C#Cc1cc(Cl)c2c(c1)C=C(C(=O)NCCCCNC(=O)c1ccc(-c3c4nc(c(-c5cc(S(=O)(=O)[O-])ccc5F)c5ccc([nH]5)c(-c5cc(S(=O)(=O)[O-])ccc5F)c5nc(c(-c6cc(S(=O)(=O)[O-])ccc6F)c6ccc3[nH]6)C=C5)C=C4)cc1)[C@@H](C(F)(F)F)O2
REMARK SMILES IDX 17 1 16 2 15 3 14 4 12 5 13 6 11 8 3 9 4 10 9 11 5 12 8 13
REMARK SMILES IDX 6 14 7 15 10 16 90 17 85 18 2 19 1 20 86 21 87 22 88 23
REMARK SMILES IDX 89 24 18 25 19 26 20 27 21 29 22 30 23 31 84 32 24 33 83 34
REMARK SMILES IDX 25 35 26 36 27 37 77 38 28 39 82 40 76 41 78 42 29 43 81 44
REMARK SMILES IDX 75 45 74 46 30 48 62 49 42 50 61 51 43 52 46 53 60 54 79 55
REMARK SMILES IDX 44 56 45 57 59 59 80 60 47 61 31 62 32 63 40 64 33 65 39 66
REMARK SMILES IDX 41 67 38 68 34 69 35 70 36 71 37 72 63 73 64 74 72 75 65 76
REMARK SMILES IDX 71 77 73 78 70 79 66 80 67 81 68 82 69 83 48 84 49 85 57 86
REMARK SMILES IDX 50 87 56 88 58 89 55 90 51 91 52 92 53 93 54 94
REMARK H PARENT 14 7 19 28 78 47 46 58
REMARK Flexibility Score: inf
ROOT
ATOM      1  C   UNL A   1      31.707  28.675  25.414  1.00  0.00     0.023 C 
ENDROOT
BRANCH   1   2
ATOM      2  C   UNL A   1      31.660  28.453  23.907  1.00  0.00     0.023 C 
BRANCH   2   3
ATOM      3  C   UNL A   1      33.041  28.368  23.271  1.00  0.00     0.116 C 
BRANCH   3   4
ATOM      4  N   UNL A   1      33.075  27.440  22.153  1.00  0.00    -0.352 N 
ATOM      5  C   UNL A   1      33.172  26.098  21.985  1.00  0.00     0.251 C 
ATOM      6  O   UNL A   1      33.118  25.695  20.820  1.00  0.00    -0.270 OA
ATOM      7  H   UNL A   1      33.009  27.910  21.290  1.00  0.00     0.163 HD
BRANCH   5   8
ATOM      8  C   UNL A   1      33.345  25.115  23.096  1.00  0.00     0.067 C 
ATOM      9  C   UNL A   1      35.899  21.512  25.076  1.00  0.00     0.027 A 
ATOM     10  C   UNL A   1      35.110  21.573  26.226  1.00  0.00     0.041 A 
ATOM     11  C   UNL A   1      35.670  22.394  24.014  1.00  0.00     0.029 A 
ATOM     12  C   UNL A   1      34.092  22.515  26.313  1.00  0.00     0.084 A 
ATOM     13  C   UNL A   1      34.645  23.343  24.099  1.00  0.00     0.020 A 
ATOM     14  Cl  UNL A   1      33.141  22.571  27.754  1.00  0.00    -0.080 Cl
ATOM     15  C   UNL A   1      33.854  23.394  25.251  1.00  0.00     0.146 A 
ATOM     16  C   UNL A   1      34.424  24.314  23.031  1.00  0.00     0.025 C 
ATOM     17  O   UNL A   1      32.869  24.320  25.415  1.00  0.00    -0.474 OA
ATOM     18  C   UNL A   1      32.371  24.981  24.229  1.00  0.00     0.314 C 
BRANCH   9  19
ATOM     19  C   UNL A   1      36.954  20.551  25.008  1.00  0.00    -0.070 C 
ATOM     20  C   UNL A   1      37.865  19.770  24.948  1.00  0.00     0.010 C 
ENDBRANCH   9  19
BRANCH  18  21
ATOM     21  C   UNL A   1      31.052  24.314  23.792  1.00  0.00     0.429 C 
ATOM     22  F   UNL A   1      30.503  23.628  24.825  1.00  0.00    -0.167 F 
ATOM     23  F   UNL A   1      30.120  25.206  23.386  1.00  0.00    -0.167 F 
ATOM     24  F   UNL A   1      31.230  23.443  22.773  1.00  0.00    -0.167 F 
ENDBRANCH  18  21
ENDBRANCH   5   8
ENDBRANCH   3   4
ENDBRANCH   2   3
ENDBRANCH   1   2
BRANCH   1  25
ATOM     25  C   UNL A   1      32.893  29.503  25.892  1.00  0.00     0.116 C 
BRANCH  25  26
ATOM     26  N   UNL A   1      32.536  30.874  26.241  1.00  0.00    -0.352 N 
ATOM     27  C   UNL A   1      33.184  31.717  27.112  1.00  0.00     0.251 C 
ATOM     28  H   UNL A   1      31.735  31.238  25.799  1.00  0.00     0.163 HD
ATOM     29  O   UNL A   1      32.695  32.798  27.419  1.00  0.00    -0.269 OA
BRANCH  27  30
ATOM     30  C   UNL A   1      34.459  31.260  27.693  1.00  0.00     0.039 A 
ATOM     31  C   UNL A   1      35.455  32.196  27.964  1.00  0.00     0.014 A 
ATOM     32  C   UNL A   1      34.600  29.923  28.082  1.00  0.00     0.014 A 
ATOM     33  C   UNL A   1      36.575  31.802  28.693  1.00  0.00     0.010 A 
ATOM     34  C   UNL A   1      35.667  29.560  28.891  1.00  0.00     0.010 A 
ATOM     35  C   UNL A   1      36.668  30.493  29.198  1.00  0.00    -0.014 A 
BRANCH  35  36
ATOM     36  C   UNL A   1      37.828  30.074  30.022  1.00  0.00     0.031 A 
ATOM     37  C   UNL A   1      38.863  29.157  29.432  1.00  0.00     0.074 A 
ATOM     38  C   UNL A   1      37.939  30.501  31.296  1.00  0.00     0.049 A 
ATOM     39  N   UNL A   1      39.932  28.655  29.991  1.00  0.00    -0.248 NA
ATOM     40  C   UNL A   1      38.658  28.731  28.037  1.00  0.00     0.031 C 
ATOM     41  C   UNL A   1      36.985  31.377  31.981  1.00  0.00     0.029 A 
ATOM     42  N   UNL A   1      38.907  30.267  32.239  1.00  0.00    -0.354 N 
ATOM     43  C   UNL A   1      40.529  27.864  29.016  1.00  0.00     0.074 A 
ATOM     44  C   UNL A   1      39.662  27.888  27.860  1.00  0.00     0.031 C 
ATOM     45  C   UNL A   1      37.444  31.648  33.213  1.00  0.00     0.029 A 
ATOM     46  C   UNL A   1      38.694  30.926  33.428  1.00  0.00     0.049 A 
ATOM     47  H   UNL A   1      39.683  29.683  32.080  1.00  0.00     0.167 HD
ATOM     48  C   UNL A   1      41.710  27.208  29.068  1.00  0.00     0.034 A 
ATOM     49  C   UNL A   1      39.423  30.946  34.562  1.00  0.00     0.034 A 
ATOM     50  C   UNL A   1      42.571  27.204  30.221  1.00  0.00     0.049 A 
ATOM     51  C   UNL A   1      40.700  30.149  34.621  1.00  0.00     0.074 A 
ATOM     52  C   UNL A   1      43.803  26.591  30.367  1.00  0.00     0.029 A 
ATOM     53  N   UNL A   1      42.292  27.837  31.424  1.00  0.00    -0.354 N 
ATOM     54  N   UNL A   1      41.260  29.421  33.682  1.00  0.00    -0.248 NA
ATOM     55  C   UNL A   1      41.444  30.174  35.887  1.00  0.00     0.031 C 
ATOM     56  C   UNL A   1      44.234  26.791  31.681  1.00  0.00     0.029 A 
ATOM     57  C   UNL A   1      43.313  27.598  32.330  1.00  0.00     0.049 A 
ATOM     58  H   UNL A   1      41.490  28.376  31.607  1.00  0.00     0.167 HD
ATOM     59  C   UNL A   1      42.432  28.920  34.238  1.00  0.00     0.074 A 
ATOM     60  C   UNL A   1      42.506  29.437  35.589  1.00  0.00     0.031 C 
ATOM     61  C   UNL A   1      43.366  28.111  33.678  1.00  0.00     0.034 A 
BRANCH  48  62
ATOM     62  C   UNL A   1      42.140  26.442  27.845  1.00  0.00     0.023 A 
ATOM     63  C   UNL A   1      41.810  25.087  27.678  1.00  0.00     0.031 A 
ATOM     64  C   UNL A   1      42.866  27.079  26.824  1.00  0.00     0.131 A 
ATOM     65  C   UNL A   1      42.240  24.399  26.534  1.00  0.00     0.055 A 
ATOM     66  C   UNL A   1      43.233  26.406  25.657  1.00  0.00     0.041 A 
ATOM     67  F   UNL A   1      43.227  28.366  26.943  1.00  0.00    -0.206 F 
ATOM     68  C   UNL A   1      42.925  25.057  25.510  1.00  0.00     0.022 A 
BRANCH  65  69
ATOM     69  S   UNL A   1      41.960  22.611  26.442  1.00  0.00     0.124 S 
ATOM     70  O   UNL A   1      40.505  22.534  26.558  1.00  0.00    -0.237 OA
ATOM     71  O   UNL A   1      42.515  22.269  25.138  1.00  0.00    -0.237 OA
ATOM     72  O   UNL A   1      42.698  22.089  27.591  1.00  0.00    -0.744 OA
ENDBRANCH  65  69
ENDBRANCH  48  62
BRANCH  49  73
ATOM     73  C   UNL A   1      38.966  31.752  35.730  1.00  0.00     0.023 A 
ATOM     74  C   UNL A   1      38.195  31.171  36.749  1.00  0.00     0.031 A 
ATOM     75  C   UNL A   1      39.300  33.113  35.848  1.00  0.00     0.131 A 
ATOM     76  C   UNL A   1      37.768  31.953  37.834  1.00  0.00     0.055 A 
ATOM     77  C   UNL A   1      38.909  33.875  36.949  1.00  0.00     0.041 A 
ATOM     78  F   UNL A   1      40.041  33.714  34.903  1.00  0.00    -0.206 F 
ATOM     79  C   UNL A   1      38.133  33.297  37.948  1.00  0.00     0.022 A 
BRANCH  76  80
ATOM     80  S   UNL A   1      36.699  31.195  39.087  1.00  0.00     0.124 S 
ATOM     81  O   UNL A   1      37.586  31.143  40.242  1.00  0.00    -0.237 OA
ATOM     82  O   UNL A   1      35.597  32.150  39.164  1.00  0.00    -0.237 OA
ATOM     83  O   UNL A   1      36.356  29.899  38.503  1.00  0.00    -0.744 OA
ENDBRANCH  76  80
ENDBRANCH  49  73
BRANCH  61  84
ATOM     84  C   UNL A   1      44.564  27.741  34.514  1.00  0.00     0.023 A 
ATOM     85  C   UNL A   1      44.596  26.553  35.262  1.00  0.00     0.031 A 
ATOM     86  C   UNL A   1      45.713  28.553  34.504  1.00  0.00     0.131 A 
ATOM     87  C   UNL A   1      45.745  26.221  35.993  1.00  0.00     0.055 A 
ATOM     88  C   UNL A   1      46.872  28.191  35.190  1.00  0.00     0.041 A 
ATOM     89  F   UNL A   1      45.736  29.696  33.800  1.00  0.00    -0.206 F 
ATOM     90  C   UNL A   1      46.890  27.022  35.945  1.00  0.00     0.022 A 
BRANCH  87  91
ATOM     91  S   UNL A   1      45.711  24.745  37.044  1.00  0.00     0.124 S 
ATOM     92  O   UNL A   1      47.089  24.679  37.518  1.00  0.00    -0.237 OA
ATOM     93  O   UNL A   1      44.710  25.096  38.046  1.00  0.00    -0.237 OA
ATOM     94  O   UNL A   1      45.318  23.679  36.124  1.00  0.00    -0.744 OA
ENDBRANCH  87  91
ENDBRANCH  61  84
ENDBRANCH  35  36
ENDBRANCH  27  30
ENDBRANCH  25  26
ENDBRANCH   1  25
TORSDOF 16
ENDMDL
MODEL 3
REMARK VINA RESULT:     -12.1      1.510      7.577
REMARK SMILES C#Cc1cc(Cl)c2c(c1)C=C(C(=O)NCCCCNC(=O)c1ccc(-c3c4nc(c(-c5cc(S(=O)(=O)[O-])ccc5F)c5ccc([nH]5)c(-c5cc(S(=O)(=O)[O-])ccc5F)c5nc(c(-c6cc(S(=O)(=O)[O-])ccc6F)c6ccc3[nH]6)C=C5)C=C4)cc1)[C@@H](C(F)(F)F)O2
REMARK SMILES IDX 17 1 16 2 15 3 14 4 12 5 13 6 11 8 3 9 4 10 9 11 5 12 8 13
REMARK SMILES IDX 6 14 7 15 10 16 90 17 85 18 2 19 1 20 86 21 87 22 88 23
REMARK SMILES IDX 89 24 18 25 19 26 20 27 21 29 22 30 23 31 84 32 24 33 83 34
REMARK SMILES IDX 25 35 26 36 27 37 77 38 28 39 82 40 76 41 78 42 29 43 81 44
REMARK SMILES IDX 75 45 74 46 30 48 62 49 42 50 61 51 43 52 46 53 60 54 79 55
REMARK SMILES IDX 44 56 45 57 59 59 80 60 47 61 31 62 32 63 40 64 33 65 39 66
REMARK SMILES IDX 41 67 38 68 34 69 35 70 36 71 37 72 63 73 64 74 72 75 65 76
REMARK SMILES IDX 71 77 73 78 70 79 66 80 67 81 68 82 69 83 48 84 49 85 57 86
REMARK SMILES IDX 50 87 56 88 58 89 55 90 51 91 52 92 53 93 54 94
REMARK H PARENT 14 7 19 28 78 47 46 58
REMARK Flexibility Score: inf
ROOT
ATOM      1  C   UNL A   1      35.380  21.846  24.699  1.00  0.00     0.023 C 
ENDROOT
BRANCH   1   2
ATOM      2  C   UNL A   1      34.019  22.027  25.360  1.00  0.00     0.023 C 
BRANCH   2   3
ATOM      3  C   UNL A   1      32.858  21.896  24.385  1.00  0.00     0.116 C 
BRANCH   3   4
ATOM      4  N   UNL A   1      33.189  22.406  23.064  1.00  0.00    -0.352 N 
ATOM      5  C   UNL A   1      33.240  23.616  22.456  1.00  0.00     0.251 C 
ATOM      6  O   UNL A   1      33.629  23.616  21.285  1.00  0.00    -0.270 OA
ATOM      7  H   UNL A   1      33.444  21.680  22.449  1.00  0.00     0.163 HD
BRANCH   5   8
ATOM      8  C   UNL A   1      32.856  24.906  23.103  1.00  0.00     0.067 C 
ATOM      9  C   UNL A   1      33.955  28.489  26.166  1.00  0.00     0.027 A 
ATOM     10  C   UNL A   1      32.835  29.206  25.744  1.00  0.00     0.041 A 
ATOM     11  C   UNL A   1      34.253  27.245  25.600  1.00  0.00     0.029 A 
ATOM     12  C   UNL A   1      32.014  28.679  24.754  1.00  0.00     0.084 A 
ATOM     13  C   UNL A   1      33.427  26.711  24.604  1.00  0.00     0.020 A 
ATOM     14  Cl  UNL A   1      30.641  29.596  24.245  1.00  0.00    -0.080 Cl
ATOM     15  C   UNL A   1      32.303  27.432  24.190  1.00  0.00     0.146 A 
ATOM     16  C   UNL A   1      33.749  25.443  23.954  1.00  0.00     0.025 C 
ATOM     17  O   UNL A   1      31.482  26.989  23.197  1.00  0.00    -0.474 OA
ATOM     18  C   UNL A   1      31.541  25.584  22.860  1.00  0.00     0.314 C 
BRANCH   9  19
ATOM     19  C   UNL A   1      34.801  29.052  27.171  1.00  0.00    -0.070 C 
ATOM     20  C   UNL A   1      35.538  29.500  28.007  1.00  0.00     0.010 C 
ENDBRANCH   9  19
BRANCH  18  21
ATOM     21  C   UNL A   1      30.369  24.850  23.541  1.00  0.00     0.429 C 
ATOM     22  F   UNL A   1      29.290  25.667  23.638  1.00  0.00    -0.167 F 
ATOM     23  F   UNL A   1      29.962  23.757  22.856  1.00  0.00    -0.167 F 
ATOM     24  F   UNL A   1      30.680  24.435  24.790  1.00  0.00    -0.167 F 
ENDBRANCH  18  21
ENDBRANCH   5   8
ENDBRANCH   3   4
ENDBRANCH   2   3
ENDBRANCH   1   2
BRANCH   1  25
ATOM     25  C   UNL A   1      36.567  22.130  25.611  1.00  0.00     0.116 C 
BRANCH  25  26
ATOM     26  N   UNL A   1      37.572  21.074  25.596  1.00  0.00    -0.352 N 
ATOM     27  C   UNL A   1      38.898  21.168  25.949  1.00  0.00     0.251 C 
ATOM     28  H   UNL A   1      37.264  20.188  25.298  1.00  0.00     0.163 HD
ATOM     29  O   UNL A   1      39.666  20.232  25.755  1.00  0.00    -0.269 OA
BRANCH  27  30
ATOM     30  C   UNL A   1      39.369  22.440  26.524  1.00  0.00     0.039 A 
ATOM     31  C   UNL A   1      40.403  22.419  27.459  1.00  0.00     0.014 A 
ATOM     32  C   UNL A   1      38.865  23.649  26.032  1.00  0.00     0.014 A 
ATOM     33  C   UNL A   1      40.984  23.623  27.852  1.00  0.00     0.010 A 
ATOM     34  C   UNL A   1      39.511  24.834  26.351  1.00  0.00     0.010 A 
ATOM     35  C   UNL A   1      40.571  24.834  27.270  1.00  0.00    -0.014 A 
BRANCH  35  36
ATOM     36  C   UNL A   1      41.217  26.117  27.639  1.00  0.00     0.031 A 
ATOM     37  C   UNL A   1      42.639  26.375  27.224  1.00  0.00     0.074 A 
ATOM     38  C   UNL A   1      40.536  27.034  28.355  1.00  0.00     0.049 A 
ATOM     39  N   UNL A   1      43.391  27.416  27.467  1.00  0.00    -0.248 NA
ATOM     40  C   UNL A   1      43.310  25.317  26.452  1.00  0.00     0.031 C 
ATOM     41  C   UNL A   1      39.158  26.883  28.830  1.00  0.00     0.029 A 
ATOM     42  N   UNL A   1      40.904  28.278  28.800  1.00  0.00    -0.354 N 
ATOM     43  C   UNL A   1      44.616  27.141  26.873  1.00  0.00     0.074 A 
ATOM     44  C   UNL A   1      44.534  25.805  26.328  1.00  0.00     0.031 C 
ATOM     45  C   UNL A   1      38.782  28.012  29.451  1.00  0.00     0.029 A 
ATOM     46  C   UNL A   1      39.903  28.946  29.468  1.00  0.00     0.049 A 
ATOM     47  H   UNL A   1      41.800  28.658  28.655  1.00  0.00     0.167 HD
ATOM     48  C   UNL A   1      45.699  27.944  26.760  1.00  0.00     0.034 A 
ATOM     49  C   UNL A   1      39.891  30.172  30.030  1.00  0.00     0.034 A 
ATOM     50  C   UNL A   1      45.763  29.278  27.294  1.00  0.00     0.049 A 
ATOM     51  C   UNL A   1      41.134  31.020  29.953  1.00  0.00     0.074 A 
ATOM     52  C   UNL A   1      46.805  30.185  27.212  1.00  0.00     0.029 A 
ATOM     53  N   UNL A   1      44.749  29.897  28.013  1.00  0.00    -0.354 N 
ATOM     54  N   UNL A   1      42.280  30.751  29.371  1.00  0.00    -0.248 NA
ATOM     55  C   UNL A   1      41.085  32.334  30.608  1.00  0.00     0.031 C 
ATOM     56  C   UNL A   1      46.451  31.322  27.942  1.00  0.00     0.029 A 
ATOM     57  C   UNL A   1      45.157  31.159  28.411  1.00  0.00     0.049 A 
ATOM     58  H   UNL A   1      43.872  29.498  28.210  1.00  0.00     0.167 HD
ATOM     59  C   UNL A   1      43.079  31.871  29.570  1.00  0.00     0.074 A 
ATOM     60  C   UNL A   1      42.283  32.823  30.316  1.00  0.00     0.031 C 
ATOM     61  C   UNL A   1      44.355  32.093  29.166  1.00  0.00     0.034 A 
BRANCH  48  62
ATOM     62  C   UNL A   1      46.900  27.401  26.031  1.00  0.00     0.023 A 
ATOM     63  C   UNL A   1      47.931  26.737  26.715  1.00  0.00     0.031 A 
ATOM     64  C   UNL A   1      47.003  27.527  24.636  1.00  0.00     0.131 A 
ATOM     65  C   UNL A   1      49.043  26.258  26.008  1.00  0.00     0.055 A 
ATOM     66  C   UNL A   1      48.080  26.988  23.929  1.00  0.00     0.041 A 
ATOM     67  F   UNL A   1      46.057  28.172  23.936  1.00  0.00    -0.206 F 
ATOM     68  C   UNL A   1      49.111  26.355  24.616  1.00  0.00     0.022 A 
BRANCH  65  69
ATOM     69  S   UNL A   1      50.439  25.578  26.944  1.00  0.00     0.124 S 
ATOM     70  O   UNL A   1      50.818  26.718  27.777  1.00  0.00    -0.237 OA
ATOM     71  O   UNL A   1      49.833  24.452  27.644  1.00  0.00    -0.237 OA
ATOM     72  O   UNL A   1      51.405  25.223  25.907  1.00  0.00    -0.744 OA
ENDBRANCH  65  69
ENDBRANCH  48  62
BRANCH  49  73
ATOM     73  C   UNL A   1      38.660  30.670  30.707  1.00  0.00     0.023 A 
ATOM     74  C   UNL A   1      37.796  31.568  30.061  1.00  0.00     0.031 A 
ATOM     75  C   UNL A   1      38.325  30.249  32.006  1.00  0.00     0.131 A 
ATOM     76  C   UNL A   1      36.647  32.030  30.722  1.00  0.00     0.055 A 
ATOM     77  C   UNL A   1      37.160  30.679  32.643  1.00  0.00     0.041 A 
ATOM     78  F   UNL A   1      39.116  29.386  32.665  1.00  0.00    -0.206 F 
ATOM     79  C   UNL A   1      36.316  31.580  32.003  1.00  0.00     0.022 A 
BRANCH  76  80
ATOM     80  S   UNL A   1      35.600  33.258  29.895  1.00  0.00     0.124 S 
ATOM     81  O   UNL A   1      35.349  34.207  30.973  1.00  0.00    -0.237 OA
ATOM     82  O   UNL A   1      36.469  33.723  28.818  1.00  0.00    -0.237 OA
ATOM     83  O   UNL A   1      34.440  32.480  29.463  1.00  0.00    -0.744 OA
ENDBRANCH  76  80
ENDBRANCH  49  73
BRANCH  61  84
ATOM     84  C   UNL A   1      44.975  33.425  29.503  1.00  0.00     0.023 A 
ATOM     85  C   UNL A   1      44.865  34.523  28.636  1.00  0.00     0.031 A 
ATOM     86  C   UNL A   1      45.623  33.613  30.738  1.00  0.00     0.131 A 
ATOM     87  C   UNL A   1      45.418  35.758  29.003  1.00  0.00     0.055 A 
ATOM     88  C   UNL A   1      46.124  34.856  31.121  1.00  0.00     0.041 A 
ATOM     89  F   UNL A   1      45.750  32.594  31.604  1.00  0.00    -0.206 F 
ATOM     90  C   UNL A   1      46.028  35.937  30.249  1.00  0.00     0.022 A 
BRANCH  87  91
ATOM     91  S   UNL A   1      45.365  37.123  27.813  1.00  0.00     0.124 S 
ATOM     92  O   UNL A   1      46.247  36.638  26.756  1.00  0.00    -0.237 OA
ATOM     93  O   UNL A   1      43.947  37.191  27.476  1.00  0.00    -0.237 OA
ATOM     94  O   UNL A   1      45.875  38.262  28.573  1.00  0.00    -0.744 OA
ENDBRANCH  87  91
ENDBRANCH  61  84
ENDBRANCH  35  36
ENDBRANCH  27  30
ENDBRANCH  25  26
ENDBRANCH   1  25
TORSDOF 16
ENDMDL
