MODEL 1
REMARK VINA RESULT:     -13.0      0.000      0.000
REMARK SMILES O=C1[NH+]=C(Nc2ccc(C(=O)NCCCCNC(=O)c3ccc(-c4c5nc(c(-c6cc(S(=O)(=O)[O-])ccc6F)c6ccc([nH]6)c(-c6cc(S(=O)(=O)[O-])ccc6F)c6nc(c(-c7cc(S(=O)(=O)[O-])ccc7F)c7ccc4[nH]7)C=C6)C=C5)cc3)c(O)c2)S/C1=C\c1ccc[nH]1
REMARK SMILES IDX 15 1 14 2 13 3 12 4 10 5 11 6 9 8 6 9 7 10 85 11 8 12 83 13
REMARK SMILES IDX 5 14 1 15 2 16 3 17 87 18 4 19 86 21 88 22 89 24 90 25 93 26
REMARK SMILES IDX 91 27 92 28 84 30 16 32 17 33 18 34 19 36 20 37 21 38 82 39
REMARK SMILES IDX 22 40 81 41 23 42 24 43 25 44 75 45 26 46 80 47 74 48 76 49
REMARK SMILES IDX 27 50 79 51 73 52 72 53 28 55 60 56 40 57 59 58 41 59 44 60
REMARK SMILES IDX 58 61 77 62 42 63 43 64 57 66 78 67 45 68 29 69 30 70 38 71
REMARK SMILES IDX 31 72 37 73 39 74 36 75 32 76 33 77 34 78 35 79 61 80 62 81
REMARK SMILES IDX 70 82 63 83 69 84 71 85 68 86 64 87 65 88 66 89 67 90 46 91
REMARK SMILES IDX 47 92 55 93 48 94 54 95 56 96 53 97 49 98 50 99 51 100
REMARK SMILES IDX 52 101
REMARK H PARENT 12 7 3 20 5 23 93 29 84 31 17 35 76 54 44 65
REMARK Flexibility Score: inf
ROOT
ATOM      1  C   UNL A   1      31.585  32.007  26.918  1.00  0.00     0.023 C 
ENDROOT
BRANCH   1   2
ATOM      2  C   UNL A   1      31.935  30.524  26.817  1.00  0.00     0.023 C 
BRANCH   2   3
ATOM      3  C   UNL A   1      32.175  29.976  25.415  1.00  0.00     0.116 C 
BRANCH   3   4
ATOM      4  N   UNL A   1      31.032  30.059  24.518  1.00  0.00    -0.352 N 
ATOM      5  C   UNL A   1      30.344  29.061  23.867  1.00  0.00     0.255 C 
ATOM      6  O   UNL A   1      29.394  29.359  23.146  1.00  0.00    -0.269 OA
ATOM      7  H   UNL A   1      30.700  30.970  24.352  1.00  0.00     0.163 HD
BRANCH   5   8
ATOM      8  C   UNL A   1      30.755  27.638  23.960  1.00  0.00     0.081 A 
ATOM      9  C   UNL A   1      31.264  24.884  24.339  1.00  0.00     0.129 A 
ATOM     10  C   UNL A   1      31.061  25.730  25.434  1.00  0.00     0.053 A 
ATOM     11  C   UNL A   1      31.283  25.450  23.059  1.00  0.00     0.098 A 
ATOM     12  C   UNL A   1      30.814  27.093  25.250  1.00  0.00     0.022 A 
ATOM     13  C   UNL A   1      31.075  26.818  22.876  1.00  0.00     0.132 A 
BRANCH   9  14
ATOM     14  N   UNL A   1      31.365  23.494  24.473  1.00  0.00    -0.234 N 
ATOM     15  O   UNL A   1      35.859  22.278  24.811  1.00  0.00    -0.240 OA
ATOM     16  C   UNL A   1      34.646  22.139  24.704  1.00  0.00     0.346 C 
ATOM     17  N   UNL A   1      33.741  23.167  24.583  1.00  0.00    -0.199 N 
ATOM     18  C   UNL A   1      33.976  20.808  24.695  1.00  0.00     0.111 C 
ATOM     19  C   UNL A   1      32.515  22.765  24.531  1.00  0.00     0.322 C 
ATOM     20  H   UNL A   1      34.001  24.115  24.541  1.00  0.00     0.316 HD
ATOM     21  S   UNL A   1      32.275  21.033  24.589  1.00  0.00     0.006 SA
ATOM     22  C   UNL A   1      34.666  19.663  24.784  1.00  0.00     0.050 C 
ATOM     23  H   UNL A   1      30.519  22.993  24.530  1.00  0.00     0.313 HD
BRANCH  22  24
ATOM     24  C   UNL A   1      34.046  18.393  24.707  1.00  0.00     0.039 A 
ATOM     25  C   UNL A   1      34.079  17.372  23.777  1.00  0.00     0.027 A 
ATOM     26  N   UNL A   1      33.217  17.997  25.728  1.00  0.00    -0.362 N 
ATOM     27  C   UNL A   1      33.216  16.348  24.233  1.00  0.00     0.020 A 
ATOM     28  C   UNL A   1      32.690  16.764  25.435  1.00  0.00     0.083 A 
ATOM     29  H   UNL A   1      33.030  18.518  26.542  1.00  0.00     0.166 HD
ENDBRANCH  22  24
ENDBRANCH   9  14
BRANCH  13  30
ATOM     30  O   UNL A   1      31.231  27.270  21.596  1.00  0.00    -0.507 OA
ATOM     31  H   UNL A   1      31.978  27.788  21.369  1.00  0.00     0.293 HD
ENDBRANCH  13  30
ENDBRANCH   5   8
ENDBRANCH   3   4
ENDBRANCH   2   3
ENDBRANCH   1   2
BRANCH   1  32
ATOM     32  C   UNL A   1      32.760  32.979  26.923  1.00  0.00     0.116 C 
BRANCH  32  33
ATOM     33  N   UNL A   1      32.537  34.160  27.747  1.00  0.00    -0.352 N 
ATOM     34  C   UNL A   1      33.195  34.588  28.878  1.00  0.00     0.251 C 
ATOM     35  H   UNL A   1      31.801  34.743  27.448  1.00  0.00     0.163 HD
ATOM     36  O   UNL A   1      32.769  35.559  29.496  1.00  0.00    -0.269 OA
BRANCH  34  37
ATOM     37  C   UNL A   1      34.382  33.853  29.370  1.00  0.00     0.039 A 
ATOM     38  C   UNL A   1      35.655  34.352  29.086  1.00  0.00     0.014 A 
ATOM     39  C   UNL A   1      34.243  32.697  30.139  1.00  0.00     0.014 A 
ATOM     40  C   UNL A   1      36.780  33.748  29.656  1.00  0.00     0.010 A 
ATOM     41  C   UNL A   1      35.353  32.158  30.786  1.00  0.00     0.010 A 
ATOM     42  C   UNL A   1      36.635  32.680  30.557  1.00  0.00    -0.014 A 
BRANCH  42  43
ATOM     43  C   UNL A   1      37.806  32.103  31.274  1.00  0.00     0.031 A 
ATOM     44  C   UNL A   1      38.609  30.996  30.643  1.00  0.00     0.074 A 
ATOM     45  C   UNL A   1      38.107  32.528  32.519  1.00  0.00     0.049 A 
ATOM     46  N   UNL A   1      39.608  30.311  31.137  1.00  0.00    -0.248 NA
ATOM     47  C   UNL A   1      38.210  30.582  29.289  1.00  0.00     0.031 C 
ATOM     48  C   UNL A   1      37.380  33.563  33.257  1.00  0.00     0.029 A 
ATOM     49  N   UNL A   1      39.096  32.138  33.389  1.00  0.00    -0.354 N 
ATOM     50  C   UNL A   1      39.948  29.378  30.164  1.00  0.00     0.074 A 
ATOM     51  C   UNL A   1      39.002  29.541  29.081  1.00  0.00     0.031 C 
ATOM     52  C   UNL A   1      37.967  33.748  34.451  1.00  0.00     0.029 A 
ATOM     53  C   UNL A   1      39.074  32.808  34.592  1.00  0.00     0.049 A 
ATOM     54  H   UNL A   1      39.760  31.444  33.173  1.00  0.00     0.167 HD
ATOM     55  C   UNL A   1      40.970  28.486  30.161  1.00  0.00     0.034 A 
ATOM     56  C   UNL A   1      39.843  32.673  35.691  1.00  0.00     0.034 A 
ATOM     57  C   UNL A   1      41.910  28.343  31.247  1.00  0.00     0.049 A 
ATOM     58  C   UNL A   1      40.952  31.648  35.680  1.00  0.00     0.074 A 
ATOM     59  C   UNL A   1      43.015  27.514  31.324  1.00  0.00     0.029 A 
ATOM     60  N   UNL A   1      41.850  29.035  32.450  1.00  0.00    -0.354 N 
ATOM     61  N   UNL A   1      41.296  30.812  34.727  1.00  0.00    -0.248 NA
ATOM     62  C   UNL A   1      41.782  31.556  36.888  1.00  0.00     0.031 C 
ATOM     63  C   UNL A   1      43.569  27.638  32.601  1.00  0.00     0.029 A 
ATOM     64  C   UNL A   1      42.874  28.620  33.289  1.00  0.00     0.049 A 
ATOM     65  H   UNL A   1      41.179  29.720  32.676  1.00  0.00     0.167 HD
ATOM     66  C   UNL A   1      42.404  30.122  35.209  1.00  0.00     0.074 A 
ATOM     67  C   UNL A   1      42.679  30.648  36.530  1.00  0.00     0.031 C 
ATOM     68  C   UNL A   1      43.134  29.145  34.611  1.00  0.00     0.034 A 
BRANCH  55  69
ATOM     69  C   UNL A   1      41.102  27.579  28.960  1.00  0.00     0.023 A 
ATOM     70  C   UNL A   1      42.097  27.777  27.986  1.00  0.00     0.031 A 
ATOM     71  C   UNL A   1      40.203  26.513  28.771  1.00  0.00     0.131 A 
ATOM     72  C   UNL A   1      42.119  26.978  26.832  1.00  0.00     0.055 A 
ATOM     73  C   UNL A   1      40.288  25.664  27.665  1.00  0.00     0.041 A 
ATOM     74  F   UNL A   1      39.216  26.286  29.652  1.00  0.00    -0.206 F 
ATOM     75  C   UNL A   1      41.240  25.904  26.679  1.00  0.00     0.022 A 
BRANCH  72  76
ATOM     76  S   UNL A   1      43.205  27.465  25.464  1.00  0.00     0.124 S 
ATOM     77  O   UNL A   1      43.675  26.168  24.984  1.00  0.00    -0.237 OA
ATOM     78  O   UNL A   1      42.297  28.184  24.579  1.00  0.00    -0.237 OA
ATOM     79  O   UNL A   1      44.226  28.286  26.113  1.00  0.00    -0.744 OA
ENDBRANCH  72  76
ENDBRANCH  55  69
BRANCH  56  80
ATOM     80  C   UNL A   1      39.591  33.509  36.902  1.00  0.00     0.023 A 
ATOM     81  C   UNL A   1      38.923  32.987  38.022  1.00  0.00     0.031 A 
ATOM     82  C   UNL A   1      39.976  34.862  36.939  1.00  0.00     0.131 A 
ATOM     83  C   UNL A   1      38.618  33.821  39.108  1.00  0.00     0.055 A 
ATOM     84  C   UNL A   1      39.725  35.672  38.048  1.00  0.00     0.041 A 
ATOM     85  F   UNL A   1      40.617  35.415  35.897  1.00  0.00    -0.206 F 
ATOM     86  C   UNL A   1      39.029  35.156  39.135  1.00  0.00     0.022 A 
BRANCH  83  87
ATOM     87  S   UNL A   1      37.586  33.164  40.448  1.00  0.00     0.124 S 
ATOM     88  O   UNL A   1      38.484  32.193  41.064  1.00  0.00    -0.237 OA
ATOM     89  O   UNL A   1      37.303  34.363  41.228  1.00  0.00    -0.237 OA
ATOM     90  O   UNL A   1      36.438  32.595  39.745  1.00  0.00    -0.744 OA
ENDBRANCH  83  87
ENDBRANCH  56  80
BRANCH  68  91
ATOM     91  C   UNL A   1      44.336  28.621  35.360  1.00  0.00     0.023 A 
ATOM     92  C   UNL A   1      44.236  27.579  36.299  1.00  0.00     0.031 A 
ATOM     93  C   UNL A   1      45.608  29.180  35.131  1.00  0.00     0.131 A 
ATOM     94  C   UNL A   1      45.372  27.168  37.012  1.00  0.00     0.055 A 
ATOM     95  C   UNL A   1      46.746  28.719  35.792  1.00  0.00     0.041 A 
ATOM     96  F   UNL A   1      45.765  30.182  34.251  1.00  0.00    -0.206 F 
ATOM     97  C   UNL A   1      46.630  27.716  36.749  1.00  0.00     0.022 A 
BRANCH  94  98
ATOM     98  S   UNL A   1      45.167  25.978  38.366  1.00  0.00     0.124 S 
ATOM     99  O   UNL A   1      46.548  25.593  38.642  1.00  0.00    -0.237 OA
ATOM    100  O   UNL A   1      44.513  26.782  39.393  1.00  0.00    -0.237 OA
ATOM    101  O   UNL A   1      44.336  24.929  37.777  1.00  0.00    -0.744 OA
ENDBRANCH  94  98
ENDBRANCH  68  91
ENDBRANCH  42  43
ENDBRANCH  34  37
ENDBRANCH  32  33
ENDBRANCH   1  32
TORSDOF 17
ENDMDL
MODEL 2
REMARK VINA RESULT:     -13.0      2.196      7.617
REMARK SMILES O=C1[NH+]=C(Nc2ccc(C(=O)NCCCCNC(=O)c3ccc(-c4c5nc(c(-c6cc(S(=O)(=O)[O-])ccc6F)c6ccc([nH]6)c(-c6cc(S(=O)(=O)[O-])ccc6F)c6nc(c(-c7cc(S(=O)(=O)[O-])ccc7F)c7ccc4[nH]7)C=C6)C=C5)cc3)c(O)c2)S/C1=C\c1ccc[nH]1
REMARK SMILES IDX 15 1 14 2 13 3 12 4 10 5 11 6 9 8 6 9 7 10 85 11 8 12 83 13
REMARK SMILES IDX 5 14 1 15 2 16 3 17 87 18 4 19 86 21 88 22 89 24 90 25 93 26
REMARK SMILES IDX 91 27 92 28 84 30 16 32 17 33 18 34 19 36 20 37 21 38 82 39
REMARK SMILES IDX 22 40 81 41 23 42 24 43 25 44 75 45 26 46 80 47 74 48 76 49
REMARK SMILES IDX 27 50 79 51 73 52 72 53 28 55 60 56 40 57 59 58 41 59 44 60
REMARK SMILES IDX 58 61 77 62 42 63 43 64 57 66 78 67 45 68 29 69 30 70 38 71
REMARK SMILES IDX 31 72 37 73 39 74 36 75 32 76 33 77 34 78 35 79 61 80 62 81
REMARK SMILES IDX 70 82 63 83 69 84 71 85 68 86 64 87 65 88 66 89 67 90 46 91
REMARK SMILES IDX 47 92 55 93 48 94 54 95 56 96 53 97 49 98 50 99 51 100
REMARK SMILES IDX 52 101
REMARK H PARENT 12 7 3 20 5 23 93 29 84 31 17 35 76 54 44 65
REMARK Flexibility Score: inf
ROOT
ATOM      1  C   UNL A   1      31.866  29.606  25.400  1.00  0.00     0.023 C 
ENDROOT
BRANCH   1   2
ATOM      2  C   UNL A   1      33.130  29.146  24.676  1.00  0.00     0.023 C 
BRANCH   2   3
ATOM      3  C   UNL A   1      33.169  29.368  23.168  1.00  0.00     0.116 C 
BRANCH   3   4
ATOM      4  N   UNL A   1      31.869  29.377  22.514  1.00  0.00    -0.352 N 
ATOM      5  C   UNL A   1      31.000  28.341  22.260  1.00  0.00     0.255 C 
ATOM      6  O   UNL A   1      29.939  28.576  21.686  1.00  0.00    -0.269 OA
ATOM      7  H   UNL A   1      31.566  30.261  22.206  1.00  0.00     0.163 HD
BRANCH   5   8
ATOM      8  C   UNL A   1      31.334  26.937  22.604  1.00  0.00     0.081 A 
ATOM      9  C   UNL A   1      31.635  24.204  23.255  1.00  0.00     0.129 A 
ATOM     10  C   UNL A   1      30.774  25.023  23.993  1.00  0.00     0.053 A 
ATOM     11  C   UNL A   1      32.397  24.789  22.238  1.00  0.00     0.098 A 
ATOM     12  C   UNL A   1      30.628  26.377  23.676  1.00  0.00     0.022 A 
ATOM     13  C   UNL A   1      32.280  26.149  21.945  1.00  0.00     0.132 A 
BRANCH   9  14
ATOM     14  N   UNL A   1      31.697  22.818  23.443  1.00  0.00    -0.234 N 
ATOM     15  O   UNL A   1      35.786  21.687  25.390  1.00  0.00    -0.240 OA
ATOM     16  C   UNL A   1      34.693  21.525  24.860  1.00  0.00     0.346 C 
ATOM     17  N   UNL A   1      33.880  22.534  24.402  1.00  0.00    -0.199 N 
ATOM     18  C   UNL A   1      34.086  20.182  24.638  1.00  0.00     0.111 C 
ATOM     19  C   UNL A   1      32.758  22.111  23.923  1.00  0.00     0.322 C 
ATOM     20  H   UNL A   1      34.127  23.486  24.437  1.00  0.00     0.316 HD
ATOM     21  S   UNL A   1      32.534  20.375  23.926  1.00  0.00     0.006 SA
ATOM     22  C   UNL A   1      34.712  19.051  24.991  1.00  0.00     0.050 C 
ATOM     23  H   UNL A   1      30.893  22.302  23.205  1.00  0.00     0.313 HD
BRANCH  22  24
ATOM     24  C   UNL A   1      34.175  17.769  24.722  1.00  0.00     0.039 A 
ATOM     25  C   UNL A   1      34.017  17.025  23.570  1.00  0.00     0.027 A 
ATOM     26  N   UNL A   1      33.682  17.026  25.767  1.00  0.00    -0.362 N 
ATOM     27  C   UNL A   1      33.377  15.814  23.925  1.00  0.00     0.020 A 
ATOM     28  C   UNL A   1      33.173  15.845  25.286  1.00  0.00     0.083 A 
ATOM     29  H   UNL A   1      33.691  17.298  26.713  1.00  0.00     0.166 HD
ENDBRANCH  22  24
ENDBRANCH   9  14
BRANCH  13  30
ATOM     30  O   UNL A   1      33.157  26.627  21.012  1.00  0.00    -0.507 OA
ATOM     31  H   UNL A   1      32.981  26.511  20.100  1.00  0.00     0.293 HD
ENDBRANCH  13  30
ENDBRANCH   5   8
ENDBRANCH   3   4
ENDBRANCH   2   3
ENDBRANCH   1   2
BRANCH   1  32
ATOM     32  C   UNL A   1      32.052  30.127  26.820  1.00  0.00     0.116 C 
BRANCH  32  33
ATOM     33  N   UNL A   1      32.105  31.580  26.907  1.00  0.00    -0.352 N 
ATOM     34  C   UNL A   1      33.085  32.401  27.419  1.00  0.00     0.251 C 
ATOM     35  H   UNL A   1      31.319  32.048  26.542  1.00  0.00     0.163 HD
ATOM     36  O   UNL A   1      32.880  33.608  27.505  1.00  0.00    -0.269 OA
BRANCH  34  37
ATOM     37  C   UNL A   1      34.358  31.825  27.907  1.00  0.00     0.039 A 
ATOM     38  C   UNL A   1      35.448  32.671  28.122  1.00  0.00     0.014 A 
ATOM     39  C   UNL A   1      34.470  30.461  28.186  1.00  0.00     0.014 A 
ATOM     40  C   UNL A   1      36.613  32.168  28.709  1.00  0.00     0.010 A 
ATOM     41  C   UNL A   1      35.590  29.983  28.862  1.00  0.00     0.010 A 
ATOM     42  C   UNL A   1      36.673  30.831  29.137  1.00  0.00    -0.014 A 
BRANCH  42  43
ATOM     43  C   UNL A   1      37.853  30.305  29.878  1.00  0.00     0.031 A 
ATOM     44  C   UNL A   1      38.117  30.748  31.293  1.00  0.00     0.074 A 
ATOM     45  C   UNL A   1      38.723  29.481  29.257  1.00  0.00     0.049 A 
ATOM     46  N   UNL A   1      39.128  30.468  32.074  1.00  0.00    -0.248 NA
ATOM     47  C   UNL A   1      37.128  31.655  31.895  1.00  0.00     0.031 C 
ATOM     48  C   UNL A   1      38.603  29.013  27.875  1.00  0.00     0.029 A 
ATOM     49  N   UNL A   1      39.884  28.897  29.701  1.00  0.00    -0.354 N 
ATOM     50  C   UNL A   1      38.906  31.173  33.252  1.00  0.00     0.074 A 
ATOM     51  C   UNL A   1      37.700  31.948  33.053  1.00  0.00     0.031 C 
ATOM     52  C   UNL A   1      39.628  28.191  27.597  1.00  0.00     0.029 A 
ATOM     53  C   UNL A   1      40.511  28.116  28.756  1.00  0.00     0.049 A 
ATOM     54  H   UNL A   1      40.237  29.025  30.612  1.00  0.00     0.167 HD
ATOM     55  C   UNL A   1      39.626  31.157  34.402  1.00  0.00     0.034 A 
ATOM     56  C   UNL A   1      41.672  27.432  28.806  1.00  0.00     0.034 A 
ATOM     57  C   UNL A   1      40.822  30.371  34.586  1.00  0.00     0.049 A 
ATOM     58  C   UNL A   1      42.475  27.457  30.084  1.00  0.00     0.074 A 
ATOM     59  C   UNL A   1      41.595  30.236  35.725  1.00  0.00     0.029 A 
ATOM     60  N   UNL A   1      41.428  29.599  33.603  1.00  0.00    -0.354 N 
ATOM     61  N   UNL A   1      42.220  28.085  31.209  1.00  0.00    -0.248 NA
ATOM     62  C   UNL A   1      43.717  26.674  30.102  1.00  0.00     0.031 C 
ATOM     63  C   UNL A   1      42.711  29.456  35.409  1.00  0.00     0.029 A 
ATOM     64  C   UNL A   1      42.586  29.019  34.100  1.00  0.00     0.049 A 
ATOM     65  H   UNL A   1      41.087  29.480  32.687  1.00  0.00     0.167 HD
ATOM     66  C   UNL A   1      43.252  27.741  32.078  1.00  0.00     0.074 A 
ATOM     67  C   UNL A   1      44.124  26.842  31.352  1.00  0.00     0.031 C 
ATOM     68  C   UNL A   1      43.456  28.130  33.364  1.00  0.00     0.034 A 
BRANCH  55  69
ATOM     69  C   UNL A   1      39.151  32.038  35.535  1.00  0.00     0.023 A 
ATOM     70  C   UNL A   1      39.549  33.382  35.646  1.00  0.00     0.031 A 
ATOM     71  C   UNL A   1      38.307  31.520  36.533  1.00  0.00     0.131 A 
ATOM     72  C   UNL A   1      39.173  34.135  36.769  1.00  0.00     0.055 A 
ATOM     73  C   UNL A   1      37.861  32.302  37.601  1.00  0.00     0.041 A 
ATOM     74  F   UNL A   1      37.911  30.237  36.497  1.00  0.00    -0.206 F 
ATOM     75  C   UNL A   1      38.306  33.613  37.733  1.00  0.00     0.022 A 
BRANCH  72  76
ATOM     76  S   UNL A   1      39.960  35.747  37.033  1.00  0.00     0.124 S 
ATOM     77  O   UNL A   1      39.265  36.224  38.226  1.00  0.00    -0.237 OA
ATOM     78  O   UNL A   1      41.363  35.388  37.213  1.00  0.00    -0.237 OA
ATOM     79  O   UNL A   1      39.655  36.482  35.808  1.00  0.00    -0.744 OA
ENDBRANCH  72  76
ENDBRANCH  55  69
BRANCH  56  80
ATOM     80  C   UNL A   1      42.160  26.678  27.614  1.00  0.00     0.023 A 
ATOM     81  C   UNL A   1      41.860  25.316  27.441  1.00  0.00     0.031 A 
ATOM     82  C   UNL A   1      42.975  27.299  26.649  1.00  0.00     0.131 A 
ATOM     83  C   UNL A   1      42.410  24.610  26.359  1.00  0.00     0.055 A 
ATOM     84  C   UNL A   1      43.468  26.607  25.542  1.00  0.00     0.041 A 
ATOM     85  F   UNL A   1      43.294  28.598  26.764  1.00  0.00    -0.206 F 
ATOM     86  C   UNL A   1      43.197  25.250  25.400  1.00  0.00     0.022 A 
BRANCH  83  87
ATOM     87  S   UNL A   1      42.161  22.815  26.276  1.00  0.00     0.124 S 
ATOM     88  O   UNL A   1      40.706  22.716  26.310  1.00  0.00    -0.237 OA
ATOM     89  O   UNL A   1      42.798  22.480  25.007  1.00  0.00    -0.237 OA
ATOM     90  O   UNL A   1      42.849  22.320  27.466  1.00  0.00    -0.744 OA
ENDBRANCH  83  87
ENDBRANCH  56  80
BRANCH  68  91
ATOM     91  C   UNL A   1      44.643  27.537  34.086  1.00  0.00     0.023 A 
ATOM     92  C   UNL A   1      44.550  26.337  34.814  1.00  0.00     0.031 A 
ATOM     93  C   UNL A   1      45.890  28.188  34.046  1.00  0.00     0.131 A 
ATOM     94  C   UNL A   1      45.666  25.857  35.517  1.00  0.00     0.055 A 
ATOM     95  C   UNL A   1      47.014  27.668  34.688  1.00  0.00     0.041 A 
ATOM     96  F   UNL A   1      46.038  29.340  33.372  1.00  0.00    -0.206 F 
ATOM     97  C   UNL A   1      46.903  26.504  35.441  1.00  0.00     0.022 A 
BRANCH  94  98
ATOM     98  S   UNL A   1      45.455  24.432  36.619  1.00  0.00     0.124 S 
ATOM     99  O   UNL A   1      44.005  24.382  36.774  1.00  0.00    -0.237 OA
ATOM    100  O   UNL A   1      46.051  23.348  35.846  1.00  0.00    -0.237 OA
ATOM    101  O   UNL A   1      46.195  24.816  37.820  1.00  0.00    -0.744 OA
ENDBRANCH  94  98
ENDBRANCH  68  91
ENDBRANCH  42  43
ENDBRANCH  34  37
ENDBRANCH  32  33
ENDBRANCH   1  32
TORSDOF 17
ENDMDL
MODEL 3
REMARK VINA RESULT:     -12.9      3.191      8.242
REMARK SMILES O=C1[NH+]=C(Nc2ccc(C(=O)NCCCCNC(=O)c3ccc(-c4c5nc(c(-c6cc(S(=O)(=O)[O-])ccc6F)c6ccc([nH]6)c(-c6cc(S(=O)(=O)[O-])ccc6F)c6nc(c(-c7cc(S(=O)(=O)[O-])ccc7F)c7ccc4[nH]7)C=C6)C=C5)cc3)c(O)c2)S/C1=C\c1ccc[nH]1
REMARK SMILES IDX 15 1 14 2 13 3 12 4 10 5 11 6 9 8 6 9 7 10 85 11 8 12 83 13
REMARK SMILES IDX 5 14 1 15 2 16 3 17 87 18 4 19 86 21 88 22 89 24 90 25 93 26
REMARK SMILES IDX 91 27 92 28 84 30 16 32 17 33 18 34 19 36 20 37 21 38 82 39
REMARK SMILES IDX 22 40 81 41 23 42 24 43 25 44 75 45 26 46 80 47 74 48 76 49
REMARK SMILES IDX 27 50 79 51 73 52 72 53 28 55 60 56 40 57 59 58 41 59 44 60
REMARK SMILES IDX 58 61 77 62 42 63 43 64 57 66 78 67 45 68 29 69 30 70 38 71
REMARK SMILES IDX 31 72 37 73 39 74 36 75 32 76 33 77 34 78 35 79 61 80 62 81
REMARK SMILES IDX 70 82 63 83 69 84 71 85 68 86 64 87 65 88 66 89 67 90 46 91
REMARK SMILES IDX 47 92 55 93 48 94 54 95 56 96 53 97 49 98 50 99 51 100
REMARK SMILES IDX 52 101
REMARK H PARENT 12 7 3 20 5 23 93 29 84 31 17 35 76 54 44 65
REMARK Flexibility Score: inf
ROOT
ATOM      1  C   UNL A   1      33.706  28.737  25.928  1.00  0.00     0.023 C 
ENDROOT
BRANCH   1   2
ATOM      2  C   UNL A   1      32.908  29.380  24.795  1.00  0.00     0.023 C 
BRANCH   2   3
ATOM      3  C   UNL A   1      31.425  29.618  25.058  1.00  0.00     0.116 C 
BRANCH   3   4
ATOM      4  N   UNL A   1      30.583  29.626  23.872  1.00  0.00    -0.352 N 
ATOM      5  C   UNL A   1      30.176  28.584  23.069  1.00  0.00     0.255 C 
ATOM      6  O   UNL A   1      29.454  28.819  22.103  1.00  0.00    -0.269 OA
ATOM      7  H   UNL A   1      30.255  30.513  23.601  1.00  0.00     0.163 HD
BRANCH   5   8
ATOM      8  C   UNL A   1      30.633  27.192  23.303  1.00  0.00     0.081 A 
ATOM      9  C   UNL A   1      31.178  24.468  23.820  1.00  0.00     0.129 A 
ATOM     10  C   UNL A   1      30.486  25.247  24.753  1.00  0.00     0.053 A 
ATOM     11  C   UNL A   1      31.658  25.090  22.662  1.00  0.00     0.098 A 
ATOM     12  C   UNL A   1      30.221  26.596  24.502  1.00  0.00     0.022 A 
ATOM     13  C   UNL A   1      31.425  26.447  22.427  1.00  0.00     0.132 A 
BRANCH   9  14
ATOM     14  N   UNL A   1      31.334  23.084  23.966  1.00  0.00    -0.234 N 
ATOM     15  O   UNL A   1      35.762  22.118  25.083  1.00  0.00    -0.240 OA
ATOM     16  C   UNL A   1      34.596  21.913  24.765  1.00  0.00     0.346 C 
ATOM     17  N   UNL A   1      33.669  22.889  24.490  1.00  0.00    -0.199 N 
ATOM     18  C   UNL A   1      34.016  20.546  24.636  1.00  0.00     0.111 C 
ATOM     19  C   UNL A   1      32.496  22.420  24.223  1.00  0.00     0.322 C 
ATOM     20  H   UNL A   1      33.878  23.851  24.496  1.00  0.00     0.316 HD
ATOM     21  S   UNL A   1      32.350  20.677  24.234  1.00  0.00     0.006 SA
ATOM     22  C   UNL A   1      34.744  19.440  24.841  1.00  0.00     0.050 C 
ATOM     23  H   UNL A   1      30.521  22.536  23.874  1.00  0.00     0.313 HD
BRANCH  22  24
ATOM     24  C   UNL A   1      34.221  18.139  24.654  1.00  0.00     0.039 A 
ATOM     25  C   UNL A   1      34.147  17.289  23.568  1.00  0.00     0.027 A 
ATOM     26  N   UNL A   1      33.644  17.497  25.722  1.00  0.00    -0.362 N 
ATOM     27  C   UNL A   1      33.474  16.117  23.984  1.00  0.00     0.020 A 
ATOM     28  C   UNL A   1      33.166  16.276  25.317  1.00  0.00     0.083 A 
ATOM     29  H   UNL A   1      33.582  17.857  26.636  1.00  0.00     0.166 HD
ENDBRANCH  22  24
ENDBRANCH   9  14
BRANCH  13  30
ATOM     30  O   UNL A   1      32.039  26.965  21.322  1.00  0.00    -0.507 OA
ATOM     31  H   UNL A   1      31.745  27.776  20.958  1.00  0.00     0.293 HD
ENDBRANCH  13  30
ENDBRANCH   5   8
ENDBRANCH   3   4
ENDBRANCH   2   3
ENDBRANCH   1   2
BRANCH   1  32
ATOM     32  C   UNL A   1      33.297  29.123  27.346  1.00  0.00     0.116 C 
BRANCH  32  33
ATOM     33  N   UNL A   1      33.493  30.535  27.646  1.00  0.00    -0.352 N 
ATOM     34  C   UNL A   1      34.568  31.177  28.217  1.00  0.00     0.251 C 
ATOM     35  H   UNL A   1      32.739  31.121  27.402  1.00  0.00     0.163 HD
ATOM     36  O   UNL A   1      34.484  32.370  28.496  1.00  0.00    -0.269 OA
BRANCH  34  37
ATOM     37  C   UNL A   1      35.801  30.423  28.537  1.00  0.00     0.039 A 
ATOM     38  C   UNL A   1      36.886  30.493  27.660  1.00  0.00     0.014 A 
ATOM     39  C   UNL A   1      35.904  29.678  29.713  1.00  0.00     0.014 A 
ATOM     40  C   UNL A   1      38.102  29.899  28.012  1.00  0.00     0.010 A 
ATOM     41  C   UNL A   1      37.141  29.174  30.108  1.00  0.00     0.010 A 
ATOM     42  C   UNL A   1      38.257  29.283  29.265  1.00  0.00    -0.014 A 
BRANCH  42  43
ATOM     43  C   UNL A   1      39.576  28.756  29.714  1.00  0.00     0.031 A 
ATOM     44  C   UNL A   1      40.344  29.463  30.799  1.00  0.00     0.074 A 
ATOM     45  C   UNL A   1      40.113  27.680  29.100  1.00  0.00     0.049 A 
ATOM     46  N   UNL A   1      41.537  29.208  31.271  1.00  0.00    -0.248 NA
ATOM     47  C   UNL A   1      39.695  30.633  31.411  1.00  0.00     0.031 C 
ATOM     48  C   UNL A   1      39.489  26.933  28.006  1.00  0.00     0.029 A 
ATOM     49  N   UNL A   1      41.307  27.033  29.300  1.00  0.00    -0.354 N 
ATOM     50  C   UNL A   1      41.788  30.192  32.221  1.00  0.00     0.074 A 
ATOM     51  C   UNL A   1      40.651  31.086  32.207  1.00  0.00     0.031 C 
ATOM     52  C   UNL A   1      40.289  25.913  27.655  1.00  0.00     0.029 A 
ATOM     53  C   UNL A   1      41.509  25.964  28.455  1.00  0.00     0.049 A 
ATOM     54  H   UNL A   1      41.960  27.307  29.984  1.00  0.00     0.167 HD
ATOM     55  C   UNL A   1      42.856  30.323  33.048  1.00  0.00     0.034 A 
ATOM     56  C   UNL A   1      42.560  25.129  28.324  1.00  0.00     0.034 A 
ATOM     57  C   UNL A   1      43.978  29.416  33.055  1.00  0.00     0.049 A 
ATOM     58  C   UNL A   1      43.753  25.316  29.230  1.00  0.00     0.074 A 
ATOM     59  C   UNL A   1      45.083  29.421  33.887  1.00  0.00     0.029 A 
ATOM     60  N   UNL A   1      44.148  28.350  32.180  1.00  0.00    -0.354 N 
ATOM     61  N   UNL A   1      43.950  26.218  30.163  1.00  0.00    -0.248 NA
ATOM     62  C   UNL A   1      44.861  24.365  29.070  1.00  0.00     0.031 C 
ATOM     63  C   UNL A   1      45.959  28.418  33.462  1.00  0.00     0.029 A 
ATOM     64  C   UNL A   1      45.358  27.718  32.428  1.00  0.00     0.049 A 
ATOM     65  H   UNL A   1      43.504  28.081  31.485  1.00  0.00     0.167 HD
ATOM     66  C   UNL A   1      45.187  25.919  30.726  1.00  0.00     0.074 A 
ATOM     67  C   UNL A   1      45.684  24.748  30.036  1.00  0.00     0.031 C 
ATOM     68  C   UNL A   1      45.851  26.554  31.727  1.00  0.00     0.034 A 
BRANCH  55  69
ATOM     69  C   UNL A   1      42.870  31.506  33.989  1.00  0.00     0.023 A 
ATOM     70  C   UNL A   1      42.355  31.420  35.295  1.00  0.00     0.031 A 
ATOM     71  C   UNL A   1      43.383  32.745  33.566  1.00  0.00     0.131 A 
ATOM     72  C   UNL A   1      42.289  32.568  36.100  1.00  0.00     0.055 A 
ATOM     73  C   UNL A   1      43.398  33.862  34.406  1.00  0.00     0.041 A 
ATOM     74  F   UNL A   1      43.867  32.898  32.323  1.00  0.00    -0.206 F 
ATOM     75  C   UNL A   1      42.834  33.782  35.675  1.00  0.00     0.022 A 
BRANCH  72  76
ATOM     76  S   UNL A   1      41.336  32.490  37.640  1.00  0.00     0.124 S 
ATOM     77  O   UNL A   1      40.065  31.940  37.174  1.00  0.00    -0.237 OA
ATOM     78  O   UNL A   1      42.148  31.607  38.470  1.00  0.00    -0.237 OA
ATOM     79  O   UNL A   1      41.278  33.882  38.079  1.00  0.00    -0.744 OA
ENDBRANCH  72  76
ENDBRANCH  55  69
BRANCH  56  80
ATOM     80  C   UNL A   1      42.549  24.052  27.291  1.00  0.00     0.023 A 
ATOM     81  C   UNL A   1      41.922  22.818  27.532  1.00  0.00     0.031 A 
ATOM     82  C   UNL A   1      43.206  24.225  26.058  1.00  0.00     0.131 A 
ATOM     83  C   UNL A   1      42.007  21.791  26.579  1.00  0.00     0.055 A 
ATOM     84  C   UNL A   1      43.234  23.222  25.088  1.00  0.00     0.041 A 
ATOM     85  F   UNL A   1      43.822  25.384  25.774  1.00  0.00    -0.206 F 
ATOM     86  C   UNL A   1      42.645  21.990  25.352  1.00  0.00     0.022 A 
BRANCH  83  87
ATOM     87  S   UNL A   1      41.357  20.152  27.005  1.00  0.00     0.124 S 
ATOM     88  O   UNL A   1      40.359  19.949  25.961  1.00  0.00    -0.237 OA
ATOM     89  O   UNL A   1      42.552  19.321  26.921  1.00  0.00    -0.237 OA
ATOM     90  O   UNL A   1      40.822  20.338  28.352  1.00  0.00    -0.744 OA
ENDBRANCH  83  87
ENDBRANCH  56  80
BRANCH  68  91
ATOM     91  C   UNL A   1      47.164  25.957  32.175  1.00  0.00     0.023 A 
ATOM     92  C   UNL A   1      47.248  25.074  33.266  1.00  0.00     0.031 A 
ATOM     93  C   UNL A   1      48.354  26.281  31.497  1.00  0.00     0.131 A 
ATOM     94  C   UNL A   1      48.499  24.591  33.680  1.00  0.00     0.055 A 
ATOM     95  C   UNL A   1      49.585  25.743  31.870  1.00  0.00     0.041 A 
ATOM     96  F   UNL A   1      48.336  27.125  30.452  1.00  0.00    -0.206 F 
ATOM     97  C   UNL A   1      49.666  24.903  32.976  1.00  0.00     0.022 A 
BRANCH  94  98
ATOM     98  S   UNL A   1      48.599  23.633  35.217  1.00  0.00     0.124 S 
ATOM     99  O   UNL A   1      48.567  22.261  34.721  1.00  0.00    -0.237 OA
ATOM    100  O   UNL A   1      49.869  24.078  35.781  1.00  0.00    -0.237 OA
ATOM    101  O   UNL A   1      47.411  24.053  35.960  1.00  0.00    -0.744 OA
ENDBRANCH  94  98
ENDBRANCH  68  91
ENDBRANCH  42  43
ENDBRANCH  34  37
ENDBRANCH  32  33
ENDBRANCH   1  32
TORSDOF 17
ENDMDL
