MODEL 1
REMARK VINA RESULT:     -11.1      0.000      0.000
REMARK SMILES Cc1cc(C(=O)N(C)[C@H]2CCSC2)sc1/C=C/C(=O)NCCCCNC(=O)c1ccc(-c2c3nc(c(-c4cc(S(=O)(=O)[O-])ccc4F)c4ccc([nH]4)c(-c4cc(S(=O)(=O)[O-])ccc4F)c4nc(c(-c5cc(S(=O)(=O)[O-])ccc5F)c5ccc2[nH]5)C=C4)C=C3)cc1
REMARK SMILES IDX 22 1 21 2 20 3 18 4 19 5 17 7 16 8 15 9 1 10 2 11 3 12 4 13
REMARK SMILES IDX 14 14 5 15 6 16 7 17 8 18 9 19 10 20 13 21 11 22 12 23 23 24
REMARK SMILES IDX 24 25 25 26 26 27 27 29 28 30 29 31 90 32 30 33 89 34 31 35
REMARK SMILES IDX 32 36 33 37 83 38 34 39 88 40 82 41 84 42 35 43 87 44 81 45
REMARK SMILES IDX 80 46 36 48 68 49 48 50 67 51 49 52 52 53 66 54 85 55 50 56
REMARK SMILES IDX 51 57 65 59 86 60 53 61 37 62 38 63 46 64 39 65 45 66 47 67
REMARK SMILES IDX 44 68 40 69 41 70 42 71 43 72 69 73 70 74 78 75 71 76 77 77
REMARK SMILES IDX 79 78 76 79 72 80 73 81 74 82 75 83 54 84 55 85 63 86 56 87
REMARK SMILES IDX 62 88 64 89 61 90 57 91 58 92 59 93 60 94
REMARK H PARENT 20 6 25 28 84 47 52 58
REMARK Flexibility Score: inf
ROOT
ATOM      1  C   UNL A   1      35.699  21.551  25.928  1.00  0.00     0.023 C 
ENDROOT
BRANCH   1   2
ATOM      2  C   UNL A   1      35.340  20.688  24.717  1.00  0.00     0.116 C 
BRANCH   2   3
ATOM      3  N   UNL A   1      34.299  19.733  25.052  1.00  0.00    -0.353 N 
ATOM      4  C   UNL A   1      32.971  19.923  25.275  1.00  0.00     0.244 C 
ATOM      5  O   UNL A   1      32.234  18.961  25.469  1.00  0.00    -0.270 OA
ATOM      6  H   UNL A   1      34.603  18.800  25.132  1.00  0.00     0.163 HD
BRANCH   4   7
ATOM      7  C   UNL A   1      32.381  21.277  25.201  1.00  0.00     0.072 C 
ATOM      8  C   UNL A   1      32.372  22.138  26.228  1.00  0.00     0.025 C 
BRANCH   8   9
ATOM      9  C   UNL A   1      31.763  23.427  26.179  1.00  0.00     0.031 A 
ATOM     10  C   UNL A   1      29.431  22.892  27.139  1.00  0.00     0.046 C 
ATOM     11  C   UNL A   1      30.455  23.774  26.496  1.00  0.00    -0.032 A 
ATOM     12  C   UNL A   1      30.171  25.121  26.095  1.00  0.00     0.029 A 
ATOM     13  C   UNL A   1      31.247  25.783  25.524  1.00  0.00     0.093 A 
ATOM     14  S   UNL A   1      32.634  24.811  25.654  1.00  0.00    -0.130 S 
BRANCH  13  15
ATOM     15  C   UNL A   1      31.190  27.156  25.007  1.00  0.00     0.263 C 
ATOM     16  O   UNL A   1      31.361  28.093  25.797  1.00  0.00    -0.268 OA
BRANCH  15  17
ATOM     17  N   UNL A   1      30.940  27.471  23.652  1.00  0.00    -0.337 N 
ATOM     18  C   UNL A   1      31.337  26.655  22.509  1.00  0.00     0.147 C 
BRANCH  17  19
ATOM     19  C   UNL A   1      30.062  28.628  23.392  1.00  0.00     0.095 C 
ATOM     20  C   UNL A   1      30.412  29.441  22.142  1.00  0.00     0.037 C 
ATOM     21  C   UNL A   1      28.589  28.222  23.260  1.00  0.00     0.094 C 
ATOM     22  C   UNL A   1      29.313  30.482  22.004  1.00  0.00     0.072 C 
ATOM     23  S   UNL A   1      27.778  29.595  22.388  1.00  0.00    -0.160 SA
ENDBRANCH  17  19
ENDBRANCH  15  17
ENDBRANCH  13  15
ENDBRANCH   8   9
ENDBRANCH   4   7
ENDBRANCH   2   3
ENDBRANCH   1   2
BRANCH   1  24
ATOM     24  C   UNL A   1      36.075  22.995  25.582  1.00  0.00     0.023 C 
BRANCH  24  25
ATOM     25  C   UNL A   1      37.431  23.450  26.113  1.00  0.00     0.116 C 
BRANCH  25  26
ATOM     26  N   UNL A   1      38.418  22.383  26.157  1.00  0.00    -0.352 N 
ATOM     27  C   UNL A   1      39.759  22.479  26.455  1.00  0.00     0.251 C 
ATOM     28  H   UNL A   1      38.086  21.480  25.949  1.00  0.00     0.163 HD
ATOM     29  O   UNL A   1      40.485  21.500  26.345  1.00  0.00    -0.269 OA
BRANCH  27  30
ATOM     30  C   UNL A   1      40.307  23.793  26.853  1.00  0.00     0.039 A 
ATOM     31  C   UNL A   1      40.333  24.823  25.913  1.00  0.00     0.014 A 
ATOM     32  C   UNL A   1      40.736  24.015  28.164  1.00  0.00     0.014 A 
ATOM     33  C   UNL A   1      40.723  26.105  26.308  1.00  0.00     0.010 A 
ATOM     34  C   UNL A   1      41.062  25.305  28.571  1.00  0.00     0.010 A 
ATOM     35  C   UNL A   1      41.052  26.363  27.648  1.00  0.00    -0.014 A 
BRANCH  35  36
ATOM     36  C   UNL A   1      41.388  27.734  28.109  1.00  0.00     0.031 A 
ATOM     37  C   UNL A   1      42.824  28.176  28.160  1.00  0.00     0.074 A 
ATOM     38  C   UNL A   1      40.409  28.545  28.555  1.00  0.00     0.049 A 
ATOM     39  N   UNL A   1      43.332  29.290  28.619  1.00  0.00    -0.248 NA
ATOM     40  C   UNL A   1      43.822  27.221  27.655  1.00  0.00     0.031 C 
ATOM     41  C   UNL A   1      38.984  28.207  28.598  1.00  0.00     0.029 A 
ATOM     42  N   UNL A   1      40.463  29.816  29.070  1.00  0.00    -0.354 N 
ATOM     43  C   UNL A   1      44.709  29.165  28.476  1.00  0.00     0.074 A 
ATOM     44  C   UNL A   1      44.956  27.840  27.943  1.00  0.00     0.031 C 
ATOM     45  C   UNL A   1      38.300  29.250  29.095  1.00  0.00     0.029 A 
ATOM     46  C   UNL A   1      39.235  30.315  29.442  1.00  0.00     0.049 A 
ATOM     47  H   UNL A   1      41.301  30.324  29.164  1.00  0.00     0.167 HD
ATOM     48  C   UNL A   1      45.677  30.076  28.744  1.00  0.00     0.034 A 
ATOM     49  C   UNL A   1      38.906  31.491  30.009  1.00  0.00     0.034 A 
ATOM     50  C   UNL A   1      45.409  31.397  29.260  1.00  0.00     0.049 A 
ATOM     51  C   UNL A   1      39.996  32.490  30.301  1.00  0.00     0.074 A 
ATOM     52  C   UNL A   1      46.305  32.421  29.516  1.00  0.00     0.029 A 
ATOM     53  N   UNL A   1      44.152  31.876  29.602  1.00  0.00    -0.354 N 
ATOM     54  N   UNL A   1      41.291  32.375  30.114  1.00  0.00    -0.248 NA
ATOM     55  C   UNL A   1      39.580  33.781  30.865  1.00  0.00     0.031 C 
ATOM     56  C   UNL A   1      45.598  33.497  30.065  1.00  0.00     0.029 A 
ATOM     57  C   UNL A   1      44.251  33.171  30.088  1.00  0.00     0.049 A 
ATOM     58  H   UNL A   1      43.312  31.371  29.513  1.00  0.00     0.167 HD
ATOM     59  C   UNL A   1      41.839  33.593  30.508  1.00  0.00     0.074 A 
ATOM     60  C   UNL A   1      40.734  34.427  30.933  1.00  0.00     0.031 C 
ATOM     61  C   UNL A   1      43.138  33.987  30.511  1.00  0.00     0.034 A 
BRANCH  48  62
ATOM     62  C   UNL A   1      47.107  29.658  28.504  1.00  0.00     0.023 A 
ATOM     63  C   UNL A   1      47.879  29.057  29.515  1.00  0.00     0.031 A 
ATOM     64  C   UNL A   1      47.722  29.894  27.262  1.00  0.00     0.131 A 
ATOM     65  C   UNL A   1      49.239  28.794  29.297  1.00  0.00     0.055 A 
ATOM     66  C   UNL A   1      49.054  29.551  27.023  1.00  0.00     0.041 A 
ATOM     67  F   UNL A   1      47.044  30.482  26.264  1.00  0.00    -0.206 F 
ATOM     68  C   UNL A   1      49.827  29.013  28.049  1.00  0.00     0.022 A 
BRANCH  65  69
ATOM     69  S   UNL A   1      50.263  28.303  30.711  1.00  0.00     0.124 S 
ATOM     70  O   UNL A   1      49.394  28.644  31.835  1.00  0.00    -0.237 OA
ATOM     71  O   UNL A   1      50.469  26.880  30.472  1.00  0.00    -0.237 OA
ATOM     72  O   UNL A   1      51.454  29.139  30.578  1.00  0.00    -0.744 OA
ENDBRANCH  65  69
ENDBRANCH  48  62
BRANCH  49  73
ATOM     73  C   UNL A   1      37.486  31.795  30.344  1.00  0.00     0.023 A 
ATOM     74  C   UNL A   1      36.596  32.257  29.361  1.00  0.00     0.031 A 
ATOM     75  C   UNL A   1      37.006  31.663  31.659  1.00  0.00     0.131 A 
ATOM     76  C   UNL A   1      35.285  32.612  29.716  1.00  0.00     0.055 A 
ATOM     77  C   UNL A   1      35.688  31.972  31.998  1.00  0.00     0.041 A 
ATOM     78  F   UNL A   1      37.814  31.217  32.635  1.00  0.00    -0.206 F 
ATOM     79  C   UNL A   1      34.822  32.463  31.024  1.00  0.00     0.022 A 
BRANCH  76  80
ATOM     80  S   UNL A   1      34.213  33.346  28.450  1.00  0.00     0.124 S 
ATOM     81  O   UNL A   1      33.622  32.161  27.837  1.00  0.00    -0.237 OA
ATOM     82  O   UNL A   1      33.315  34.169  29.253  1.00  0.00    -0.237 OA
ATOM     83  O   UNL A   1      35.145  34.087  27.603  1.00  0.00    -0.744 OA
ENDBRANCH  76  80
ENDBRANCH  49  73
BRANCH  61  84
ATOM     84  C   UNL A   1      43.420  35.406  30.938  1.00  0.00     0.023 A 
ATOM     85  C   UNL A   1      43.506  36.457  30.010  1.00  0.00     0.031 A 
ATOM     86  C   UNL A   1      43.610  35.703  32.300  1.00  0.00     0.131 A 
ATOM     87  C   UNL A   1      43.821  37.752  30.450  1.00  0.00     0.055 A 
ATOM     88  C   UNL A   1      43.870  37.003  32.737  1.00  0.00     0.041 A 
ATOM     89  F   UNL A   1      43.540  34.736  33.227  1.00  0.00    -0.206 F 
ATOM     90  C   UNL A   1      43.989  38.033  31.809  1.00  0.00     0.022 A 
BRANCH  87  91
ATOM     91  S   UNL A   1      44.085  39.053  29.214  1.00  0.00     0.124 S 
ATOM     92  O   UNL A   1      45.056  39.911  29.881  1.00  0.00    -0.237 OA
ATOM     93  O   UNL A   1      44.581  38.298  28.067  1.00  0.00    -0.237 OA
ATOM     94  O   UNL A   1      42.756  39.636  29.041  1.00  0.00    -0.744 OA
ENDBRANCH  87  91
ENDBRANCH  61  84
ENDBRANCH  35  36
ENDBRANCH  27  30
ENDBRANCH  25  26
ENDBRANCH  24  25
ENDBRANCH   1  24
TORSDOF 18
ENDMDL
MODEL 2
REMARK VINA RESULT:     -10.9      3.153      8.210
REMARK SMILES Cc1cc(C(=O)N(C)[C@H]2CCSC2)sc1/C=C/C(=O)NCCCCNC(=O)c1ccc(-c2c3nc(c(-c4cc(S(=O)(=O)[O-])ccc4F)c4ccc([nH]4)c(-c4cc(S(=O)(=O)[O-])ccc4F)c4nc(c(-c5cc(S(=O)(=O)[O-])ccc5F)c5ccc2[nH]5)C=C4)C=C3)cc1
REMARK SMILES IDX 22 1 21 2 20 3 18 4 19 5 17 7 16 8 15 9 1 10 2 11 3 12 4 13
REMARK SMILES IDX 14 14 5 15 6 16 7 17 8 18 9 19 10 20 13 21 11 22 12 23 23 24
REMARK SMILES IDX 24 25 25 26 26 27 27 29 28 30 29 31 90 32 30 33 89 34 31 35
REMARK SMILES IDX 32 36 33 37 83 38 34 39 88 40 82 41 84 42 35 43 87 44 81 45
REMARK SMILES IDX 80 46 36 48 68 49 48 50 67 51 49 52 52 53 66 54 85 55 50 56
REMARK SMILES IDX 51 57 65 59 86 60 53 61 37 62 38 63 46 64 39 65 45 66 47 67
REMARK SMILES IDX 44 68 40 69 41 70 42 71 43 72 69 73 70 74 78 75 71 76 77 77
REMARK SMILES IDX 79 78 76 79 72 80 73 81 74 82 75 83 54 84 55 85 63 86 56 87
REMARK SMILES IDX 62 88 64 89 61 90 57 91 58 92 59 93 60 94
REMARK H PARENT 20 6 25 28 84 47 52 58
REMARK Flexibility Score: inf
ROOT
ATOM      1  C   UNL A   1      36.605  19.919  25.030  1.00  0.00     0.023 C 
ENDROOT
BRANCH   1   2
ATOM      2  C   UNL A   1      36.214  21.385  25.227  1.00  0.00     0.116 C 
BRANCH   2   3
ATOM      3  N   UNL A   1      35.480  21.564  26.467  1.00  0.00    -0.353 N 
ATOM      4  C   UNL A   1      34.505  22.455  26.788  1.00  0.00     0.244 C 
ATOM      5  O   UNL A   1      33.947  22.392  27.880  1.00  0.00    -0.270 OA
ATOM      6  H   UNL A   1      35.729  20.943  27.189  1.00  0.00     0.163 HD
BRANCH   4   7
ATOM      7  C   UNL A   1      34.043  23.456  25.802  1.00  0.00     0.072 C 
ATOM      8  C   UNL A   1      32.753  23.654  25.496  1.00  0.00     0.025 C 
BRANCH   8   9
ATOM      9  C   UNL A   1      32.304  24.583  24.512  1.00  0.00     0.031 A 
ATOM     10  C   UNL A   1      32.923  23.326  22.348  1.00  0.00     0.046 C 
ATOM     11  C   UNL A   1      32.435  24.505  23.131  1.00  0.00    -0.032 A 
ATOM     12  C   UNL A   1      32.062  25.742  22.509  1.00  0.00     0.029 A 
ATOM     13  C   UNL A   1      31.627  26.715  23.396  1.00  0.00     0.093 A 
ATOM     14  S   UNL A   1      31.509  26.041  24.951  1.00  0.00    -0.130 S 
BRANCH  13  15
ATOM     15  C   UNL A   1      31.224  28.069  23.001  1.00  0.00     0.263 C 
ATOM     16  O   UNL A   1      32.106  28.903  22.760  1.00  0.00    -0.268 OA
BRANCH  15  17
ATOM     17  N   UNL A   1      29.877  28.483  22.889  1.00  0.00    -0.337 N 
ATOM     18  C   UNL A   1      28.718  27.701  23.309  1.00  0.00     0.147 C 
BRANCH  17  19
ATOM     19  C   UNL A   1      29.644  29.878  22.474  1.00  0.00     0.095 C 
ATOM     20  C   UNL A   1      28.481  30.081  21.498  1.00  0.00     0.037 C 
ATOM     21  C   UNL A   1      29.387  30.805  23.669  1.00  0.00     0.094 C 
ATOM     22  C   UNL A   1      28.346  31.585  21.320  1.00  0.00     0.072 C 
ATOM     23  S   UNL A   1      28.565  32.275  22.983  1.00  0.00    -0.160 SA
ENDBRANCH  17  19
ENDBRANCH  15  17
ENDBRANCH  13  15
ENDBRANCH   8   9
ENDBRANCH   4   7
ENDBRANCH   2   3
ENDBRANCH   1   2
BRANCH   1  24
ATOM     24  C   UNL A   1      38.099  19.694  24.779  1.00  0.00     0.023 C 
BRANCH  24  25
ATOM     25  C   UNL A   1      39.012  20.101  25.931  1.00  0.00     0.116 C 
BRANCH  25  26
ATOM     26  N   UNL A   1      40.183  19.250  26.064  1.00  0.00    -0.352 N 
ATOM     27  C   UNL A   1      41.473  19.621  26.373  1.00  0.00     0.251 C 
ATOM     28  H   UNL A   1      40.036  18.287  25.915  1.00  0.00     0.163 HD
ATOM     29  O   UNL A   1      42.375  18.796  26.342  1.00  0.00    -0.269 OA
BRANCH  27  30
ATOM     30  C   UNL A   1      41.749  21.040  26.685  1.00  0.00     0.039 A 
ATOM     31  C   UNL A   1      42.102  21.384  27.991  1.00  0.00     0.014 A 
ATOM     32  C   UNL A   1      41.713  22.008  25.679  1.00  0.00     0.014 A 
ATOM     33  C   UNL A   1      42.494  22.694  28.274  1.00  0.00     0.010 A 
ATOM     34  C   UNL A   1      42.166  23.296  25.949  1.00  0.00     0.010 A 
ATOM     35  C   UNL A   1      42.567  23.650  27.247  1.00  0.00    -0.014 A 
BRANCH  35  36
ATOM     36  C   UNL A   1      43.060  25.025  27.507  1.00  0.00     0.031 A 
ATOM     37  C   UNL A   1      42.150  26.041  28.140  1.00  0.00     0.074 A 
ATOM     38  C   UNL A   1      44.296  25.377  27.102  1.00  0.00     0.049 A 
ATOM     39  N   UNL A   1      42.354  27.313  28.361  1.00  0.00    -0.248 NA
ATOM     40  C   UNL A   1      40.819  25.564  28.545  1.00  0.00     0.031 C 
ATOM     41  C   UNL A   1      45.252  24.490  26.435  1.00  0.00     0.029 A 
ATOM     42  N   UNL A   1      44.957  26.577  27.180  1.00  0.00    -0.354 N 
ATOM     43  C   UNL A   1      41.174  27.795  28.916  1.00  0.00     0.074 A 
ATOM     44  C   UNL A   1      40.240  26.688  28.938  1.00  0.00     0.031 C 
ATOM     45  C   UNL A   1      46.381  25.172  26.180  1.00  0.00     0.029 A 
ATOM     46  C   UNL A   1      46.218  26.551  26.627  1.00  0.00     0.049 A 
ATOM     47  H   UNL A   1      44.566  27.381  27.590  1.00  0.00     0.167 HD
ATOM     48  C   UNL A   1      40.902  29.039  29.382  1.00  0.00     0.034 A 
ATOM     49  C   UNL A   1      47.131  27.531  26.489  1.00  0.00     0.034 A 
ATOM     50  C   UNL A   1      41.852  30.124  29.365  1.00  0.00     0.049 A 
ATOM     51  C   UNL A   1      46.808  28.907  27.012  1.00  0.00     0.074 A 
ATOM     52  C   UNL A   1      41.704  31.409  29.860  1.00  0.00     0.029 A 
ATOM     53  N   UNL A   1      43.128  30.055  28.821  1.00  0.00    -0.354 N 
ATOM     54  N   UNL A   1      45.704  29.335  27.579  1.00  0.00    -0.248 NA
ATOM     55  C   UNL A   1      47.859  29.927  26.890  1.00  0.00     0.031 C 
ATOM     56  C   UNL A   1      42.866  32.130  29.566  1.00  0.00     0.029 A 
ATOM     57  C   UNL A   1      43.768  31.278  28.948  1.00  0.00     0.049 A 
ATOM     58  H   UNL A   1      43.521  29.254  28.406  1.00  0.00     0.167 HD
ATOM     59  C   UNL A   1      45.941  30.666  27.911  1.00  0.00     0.074 A 
ATOM     60  C   UNL A   1      47.293  30.965  27.488  1.00  0.00     0.031 C 
ATOM     61  C   UNL A   1      45.116  31.559  28.517  1.00  0.00     0.034 A 
BRANCH  48  62
ATOM     62  C   UNL A   1      39.515  29.286  29.924  1.00  0.00     0.023 A 
ATOM     63  C   UNL A   1      38.524  29.919  29.150  1.00  0.00     0.031 A 
ATOM     64  C   UNL A   1      39.186  28.920  31.240  1.00  0.00     0.131 A 
ATOM     65  C   UNL A   1      37.286  30.244  29.726  1.00  0.00     0.055 A 
ATOM     66  C   UNL A   1      37.921  29.169  31.779  1.00  0.00     0.041 A 
ATOM     67  F   UNL A   1      40.094  28.330  32.033  1.00  0.00    -0.206 F 
ATOM     68  C   UNL A   1      36.968  29.849  31.027  1.00  0.00     0.022 A 
BRANCH  65  69
ATOM     69  S   UNL A   1      36.158  31.318  28.799  1.00  0.00     0.124 S 
ATOM     70  O   UNL A   1      36.072  30.619  27.518  1.00  0.00    -0.237 OA
ATOM     71  O   UNL A   1      34.953  31.294  29.620  1.00  0.00    -0.237 OA
ATOM     72  O   UNL A   1      36.860  32.598  28.756  1.00  0.00    -0.744 OA
ENDBRANCH  65  69
ENDBRANCH  48  62
BRANCH  49  73
ATOM     73  C   UNL A   1      48.437  27.256  25.826  1.00  0.00     0.023 A 
ATOM     74  C   UNL A   1      48.607  27.472  24.449  1.00  0.00     0.031 A 
ATOM     75  C   UNL A   1      49.525  26.740  26.552  1.00  0.00     0.131 A 
ATOM     76  C   UNL A   1      49.821  27.131  23.831  1.00  0.00     0.055 A 
ATOM     77  C   UNL A   1      50.746  26.447  25.942  1.00  0.00     0.041 A 
ATOM     78  F   UNL A   1      49.417  26.524  27.873  1.00  0.00    -0.206 F 
ATOM     79  C   UNL A   1      50.894  26.630  24.570  1.00  0.00     0.022 A 
BRANCH  76  80
ATOM     80  S   UNL A   1      49.949  27.283  22.028  1.00  0.00     0.124 S 
ATOM     81  O   UNL A   1      51.332  26.883  21.794  1.00  0.00    -0.237 OA
ATOM     82  O   UNL A   1      48.924  26.350  21.573  1.00  0.00    -0.237 OA
ATOM     83  O   UNL A   1      49.658  28.694  21.785  1.00  0.00    -0.744 OA
ENDBRANCH  76  80
ENDBRANCH  49  73
BRANCH  61  84
ATOM     84  C   UNL A   1      45.684  32.926  28.805  1.00  0.00     0.023 A 
ATOM     85  C   UNL A   1      45.563  33.987  27.893  1.00  0.00     0.031 A 
ATOM     86  C   UNL A   1      46.360  33.163  30.015  1.00  0.00     0.131 A 
ATOM     87  C   UNL A   1      46.152  35.227  28.182  1.00  0.00     0.055 A 
ATOM     88  C   UNL A   1      46.898  34.414  30.322  1.00  0.00     0.041 A 
ATOM     89  F   UNL A   1      46.505  32.183  30.921  1.00  0.00    -0.206 F 
ATOM     90  C   UNL A   1      46.806  35.451  29.398  1.00  0.00     0.022 A 
BRANCH  87  91
ATOM     91  S   UNL A   1      46.120  36.526  26.917  1.00  0.00     0.124 S 
ATOM     92  O   UNL A   1      46.467  35.782  25.711  1.00  0.00    -0.237 OA
ATOM     93  O   UNL A   1      44.744  37.005  26.997  1.00  0.00    -0.237 OA
ATOM     94  O   UNL A   1      47.133  37.475  27.373  1.00  0.00    -0.744 OA
ENDBRANCH  87  91
ENDBRANCH  61  84
ENDBRANCH  35  36
ENDBRANCH  27  30
ENDBRANCH  25  26
ENDBRANCH  24  25
ENDBRANCH   1  24
TORSDOF 18
ENDMDL
MODEL 3
REMARK VINA RESULT:     -10.9      3.200      8.239
REMARK SMILES Cc1cc(C(=O)N(C)[C@H]2CCSC2)sc1/C=C/C(=O)NCCCCNC(=O)c1ccc(-c2c3nc(c(-c4cc(S(=O)(=O)[O-])ccc4F)c4ccc([nH]4)c(-c4cc(S(=O)(=O)[O-])ccc4F)c4nc(c(-c5cc(S(=O)(=O)[O-])ccc5F)c5ccc2[nH]5)C=C4)C=C3)cc1
REMARK SMILES IDX 22 1 21 2 20 3 18 4 19 5 17 7 16 8 15 9 1 10 2 11 3 12 4 13
REMARK SMILES IDX 14 14 5 15 6 16 7 17 8 18 9 19 10 20 13 21 11 22 12 23 23 24
REMARK SMILES IDX 24 25 25 26 26 27 27 29 28 30 29 31 90 32 30 33 89 34 31 35
REMARK SMILES IDX 32 36 33 37 83 38 34 39 88 40 82 41 84 42 35 43 87 44 81 45
REMARK SMILES IDX 80 46 36 48 68 49 48 50 67 51 49 52 52 53 66 54 85 55 50 56
REMARK SMILES IDX 51 57 65 59 86 60 53 61 37 62 38 63 46 64 39 65 45 66 47 67
REMARK SMILES IDX 44 68 40 69 41 70 42 71 43 72 69 73 70 74 78 75 71 76 77 77
REMARK SMILES IDX 79 78 76 79 72 80 73 81 74 82 75 83 54 84 55 85 63 86 56 87
REMARK SMILES IDX 62 88 64 89 61 90 57 91 58 92 59 93 60 94
REMARK H PARENT 20 6 25 28 84 47 52 58
REMARK Flexibility Score: inf
ROOT
ATOM      1  C   UNL A   1      36.877  19.785  24.972  1.00  0.00     0.023 C 
ENDROOT
BRANCH   1   2
ATOM      2  C   UNL A   1      35.586  20.603  25.017  1.00  0.00     0.116 C 
BRANCH   2   3
ATOM      3  N   UNL A   1      34.430  19.739  25.176  1.00  0.00    -0.353 N 
ATOM      4  C   UNL A   1      33.115  20.051  25.328  1.00  0.00     0.244 C 
ATOM      5  O   UNL A   1      32.270  19.161  25.368  1.00  0.00    -0.270 OA
ATOM      6  H   UNL A   1      34.630  18.775  25.175  1.00  0.00     0.163 HD
BRANCH   4   7
ATOM      7  C   UNL A   1      32.674  21.463  25.360  1.00  0.00     0.072 C 
ATOM      8  C   UNL A   1      32.145  22.098  24.305  1.00  0.00     0.025 C 
BRANCH   8   9
ATOM      9  C   UNL A   1      31.762  23.472  24.316  1.00  0.00     0.031 A 
ATOM     10  C   UNL A   1      30.330  23.553  26.459  1.00  0.00     0.046 C 
ATOM     11  C   UNL A   1      30.907  24.120  25.199  1.00  0.00    -0.032 A 
ATOM     12  C   UNL A   1      30.600  25.442  24.736  1.00  0.00     0.029 A 
ATOM     13  C   UNL A   1      31.234  25.793  23.555  1.00  0.00     0.093 A 
ATOM     14  S   UNL A   1      32.336  24.572  23.129  1.00  0.00    -0.130 S 
BRANCH  13  15
ATOM     15  C   UNL A   1      31.051  27.079  22.872  1.00  0.00     0.263 C 
ATOM     16  O   UNL A   1      31.021  27.093  21.635  1.00  0.00    -0.268 OA
BRANCH  15  17
ATOM     17  N   UNL A   1      30.918  28.312  23.549  1.00  0.00    -0.337 N 
ATOM     18  C   UNL A   1      31.794  28.789  24.615  1.00  0.00     0.147 C 
BRANCH  17  19
ATOM     19  C   UNL A   1      29.918  29.256  23.016  1.00  0.00     0.095 C 
ATOM     20  C   UNL A   1      28.505  28.685  22.856  1.00  0.00     0.037 C 
ATOM     21  C   UNL A   1      29.791  30.518  23.879  1.00  0.00     0.094 C 
ATOM     22  C   UNL A   1      27.632  29.853  22.428  1.00  0.00     0.072 C 
ATOM     23  S   UNL A   1      28.183  31.248  23.448  1.00  0.00    -0.160 SA
ENDBRANCH  17  19
ENDBRANCH  15  17
ENDBRANCH  13  15
ENDBRANCH   8   9
ENDBRANCH   4   7
ENDBRANCH   2   3
ENDBRANCH   1   2
BRANCH   1  24
ATOM     24  C   UNL A   1      38.152  20.626  24.866  1.00  0.00     0.023 C 
BRANCH  24  25
ATOM     25  C   UNL A   1      39.049  20.592  26.100  1.00  0.00     0.116 C 
BRANCH  25  26
ATOM     26  N   UNL A   1      40.009  19.500  26.082  1.00  0.00    -0.352 N 
ATOM     27  C   UNL A   1      41.379  19.572  26.206  1.00  0.00     0.251 C 
ATOM     28  H   UNL A   1      39.633  18.597  25.967  1.00  0.00     0.163 HD
ATOM     29  O   UNL A   1      42.063  18.568  26.063  1.00  0.00    -0.269 OA
BRANCH  27  30
ATOM     30  C   UNL A   1      42.002  20.888  26.459  1.00  0.00     0.039 A 
ATOM     31  C   UNL A   1      42.200  21.756  25.384  1.00  0.00     0.014 A 
ATOM     32  C   UNL A   1      42.333  21.279  27.759  1.00  0.00     0.014 A 
ATOM     33  C   UNL A   1      42.664  23.052  25.623  1.00  0.00     0.010 A 
ATOM     34  C   UNL A   1      42.732  22.589  28.002  1.00  0.00     0.010 A 
ATOM     35  C   UNL A   1      42.895  23.490  26.937  1.00  0.00    -0.014 A 
BRANCH  35  36
ATOM     36  C   UNL A   1      43.308  24.887  27.223  1.00  0.00     0.031 A 
ATOM     37  C   UNL A   1      42.345  25.830  27.889  1.00  0.00     0.074 A 
ATOM     38  C   UNL A   1      44.514  25.323  26.810  1.00  0.00     0.049 A 
ATOM     39  N   UNL A   1      42.474  27.108  28.137  1.00  0.00    -0.248 NA
ATOM     40  C   UNL A   1      41.052  25.264  28.300  1.00  0.00     0.031 C 
ATOM     41  C   UNL A   1      45.513  24.511  26.111  1.00  0.00     0.029 A 
ATOM     42  N   UNL A   1      45.100  26.560  26.907  1.00  0.00    -0.354 N 
ATOM     43  C   UNL A   1      41.275  27.504  28.717  1.00  0.00     0.074 A 
ATOM     44  C   UNL A   1      40.411  26.341  28.726  1.00  0.00     0.031 C 
ATOM     45  C   UNL A   1      46.594  25.267  25.858  1.00  0.00     0.029 A 
ATOM     46  C   UNL A   1      46.353  26.624  26.338  1.00  0.00     0.049 A 
ATOM     47  H   UNL A   1      44.667  27.329  27.341  1.00  0.00     0.167 HD
ATOM     48  C   UNL A   1      40.933  28.718  29.215  1.00  0.00     0.034 A 
ATOM     49  C   UNL A   1      47.202  27.661  26.211  1.00  0.00     0.034 A 
ATOM     50  C   UNL A   1      41.814  29.860  29.211  1.00  0.00     0.049 A 
ATOM     51  C   UNL A   1      46.803  29.003  26.769  1.00  0.00     0.074 A 
ATOM     52  C   UNL A   1      41.594  31.122  29.737  1.00  0.00     0.029 A 
ATOM     53  N   UNL A   1      43.084  29.881  28.650  1.00  0.00    -0.354 N 
ATOM     54  N   UNL A   1      45.682  29.350  27.359  1.00  0.00    -0.248 NA
ATOM     55  C   UNL A   1      47.787  30.088  26.657  1.00  0.00     0.031 C 
ATOM     56  C   UNL A   1      42.706  31.920  29.444  1.00  0.00     0.029 A 
ATOM     57  C   UNL A   1      43.650  31.139  28.796  1.00  0.00     0.049 A 
ATOM     58  H   UNL A   1      43.520  29.115  28.212  1.00  0.00     0.167 HD
ATOM     59  C   UNL A   1      45.841  30.685  27.719  1.00  0.00     0.074 A 
ATOM     60  C   UNL A   1      47.167  31.076  27.286  1.00  0.00     0.031 C 
ATOM     61  C   UNL A   1      44.972  31.512  28.355  1.00  0.00     0.034 A 
BRANCH  48  62
ATOM     62  C   UNL A   1      39.541  28.867  29.779  1.00  0.00     0.023 A 
ATOM     63  C   UNL A   1      38.471  29.324  28.989  1.00  0.00     0.031 A 
ATOM     64  C   UNL A   1      39.284  28.586  31.132  1.00  0.00     0.131 A 
ATOM     65  C   UNL A   1      37.220  29.568  29.575  1.00  0.00     0.055 A 
ATOM     66  C   UNL A   1      38.014  28.750  31.690  1.00  0.00     0.041 A 
ATOM     67  F   UNL A   1      40.269  28.166  31.942  1.00  0.00    -0.206 F 
ATOM     68  C   UNL A   1      36.976  29.259  30.915  1.00  0.00     0.022 A 
BRANCH  65  69
ATOM     69  S   UNL A   1      35.961  30.434  28.598  1.00  0.00     0.124 S 
ATOM     70  O   UNL A   1      36.784  31.134  27.613  1.00  0.00    -0.237 OA
ATOM     71  O   UNL A   1      35.149  29.337  28.086  1.00  0.00    -0.237 OA
ATOM     72  O   UNL A   1      35.302  31.297  29.575  1.00  0.00    -0.744 OA
ENDBRANCH  65  69
ENDBRANCH  48  62
BRANCH  49  73
ATOM     73  C   UNL A   1      48.513  27.482  25.525  1.00  0.00     0.023 A 
ATOM     74  C   UNL A   1      48.621  27.603  24.131  1.00  0.00     0.031 A 
ATOM     75  C   UNL A   1      49.672  27.152  26.251  1.00  0.00     0.131 A 
ATOM     76  C   UNL A   1      49.849  27.352  23.499  1.00  0.00     0.055 A 
ATOM     77  C   UNL A   1      50.902  26.949  25.623  1.00  0.00     0.041 A 
ATOM     78  F   UNL A   1      49.625  27.032  27.587  1.00  0.00    -0.206 F 
ATOM     79  C   UNL A   1      50.992  27.036  24.236  1.00  0.00     0.022 A 
BRANCH  76  80
ATOM     80  S   UNL A   1      49.912  27.371  21.686  1.00  0.00     0.124 S 
ATOM     81  O   UNL A   1      48.779  26.519  21.341  1.00  0.00    -0.237 OA
ATOM     82  O   UNL A   1      49.762  28.792  21.393  1.00  0.00    -0.237 OA
ATOM     83  O   UNL A   1      51.229  26.810  21.387  1.00  0.00    -0.744 OA
ENDBRANCH  76  80
ENDBRANCH  49  73
BRANCH  61  84
ATOM     84  C   UNL A   1      45.459  32.904  28.667  1.00  0.00     0.023 A 
ATOM     85  C   UNL A   1      46.125  33.205  29.867  1.00  0.00     0.031 A 
ATOM     86  C   UNL A   1      45.245  33.945  27.746  1.00  0.00     0.131 A 
ATOM     87  C   UNL A   1      46.513  34.526  30.137  1.00  0.00     0.055 A 
ATOM     88  C   UNL A   1      45.681  35.247  27.996  1.00  0.00     0.041 A 
ATOM     89  F   UNL A   1      44.612  33.711  26.586  1.00  0.00    -0.206 F 
ATOM     90  C   UNL A   1      46.309  35.546  29.202  1.00  0.00     0.022 A 
BRANCH  87  91
ATOM     91  S   UNL A   1      47.224  34.913  31.760  1.00  0.00     0.124 S 
ATOM     92  O   UNL A   1      46.192  34.424  32.667  1.00  0.00    -0.237 OA
ATOM     93  O   UNL A   1      48.470  34.155  31.744  1.00  0.00    -0.237 OA
ATOM     94  O   UNL A   1      47.383  36.366  31.728  1.00  0.00    -0.744 OA
ENDBRANCH  87  91
ENDBRANCH  61  84
ENDBRANCH  35  36
ENDBRANCH  27  30
ENDBRANCH  25  26
ENDBRANCH  24  25
ENDBRANCH   1  24
TORSDOF 18
ENDMDL
