MODEL 1
REMARK VINA RESULT:     -11.9      0.000      0.000
REMARK SMILES CCNC(=O)c1ccc(N2C[C@@H](C)[C@H](C(=O)NCCCCNC(=O)c3ccc(-c4c5nc(c(-c6cc(S(=O)(=O)[O-])ccc6F)c6ccc([nH]6)c(-c6cc(S(=O)(=O)[O-])ccc6F)c6nc(c(-c7cc(S(=O)(=O)[O-])ccc7F)c7ccc4[nH]7)C=C6)C=C5)cc3)C2)nn1
REMARK SMILES IDX 19 1 18 2 17 3 15 4 16 5 14 7 10 8 11 9 88 10 12 11 13 12
REMARK SMILES IDX 9 13 6 14 7 15 90 16 8 17 89 18 4 19 3 20 5 22 2 23 1 24
REMARK SMILES IDX 20 25 21 26 22 27 23 28 24 30 25 31 26 32 87 33 27 34 86 35
REMARK SMILES IDX 28 36 29 37 30 38 80 39 31 40 85 41 79 42 81 43 32 44 84 45
REMARK SMILES IDX 78 46 77 47 33 49 65 50 45 51 64 52 46 53 49 54 63 55 82 56
REMARK SMILES IDX 47 57 48 58 62 60 83 61 50 62 34 63 35 64 43 65 36 66 42 67
REMARK SMILES IDX 44 68 41 69 37 70 38 71 39 72 40 73 66 74 67 75 75 76 68 77
REMARK SMILES IDX 74 78 76 79 73 80 69 81 70 82 71 83 72 84 51 85 52 86 60 87
REMARK SMILES IDX 53 88 59 89 61 90 58 91 54 92 55 93 56 94 57 95
REMARK H PARENT 17 6 3 21 22 29 81 48 49 59
REMARK Flexibility Score: inf
ROOT
ATOM      1  C   UNL A   1      36.378  23.247  23.427  1.00  0.00     0.023 C 
ENDROOT
BRANCH   1   2
ATOM      2  C   UNL A   1      34.933  23.707  23.585  1.00  0.00     0.116 C 
BRANCH   2   3
ATOM      3  N   UNL A   1      33.978  22.888  22.871  1.00  0.00    -0.356 N 
ATOM      4  C   UNL A   1      32.853  22.255  23.308  1.00  0.00     0.225 C 
ATOM      5  O   UNL A   1      32.158  21.692  22.455  1.00  0.00    -0.275 OA
ATOM      6  H   UNL A   1      34.173  22.767  21.913  1.00  0.00     0.163 HD
BRANCH   4   7
ATOM      7  C   UNL A   1      32.425  22.200  24.777  1.00  0.00     0.102 C 
ATOM      8  N   UNL A   1      32.511  24.117  26.154  1.00  0.00    -0.354 N 
ATOM      9  C   UNL A   1      33.464  23.209  26.764  1.00  0.00     0.122 C 
ATOM     10  C   UNL A   1      31.629  23.427  25.218  1.00  0.00     0.132 C 
ATOM     11  C   UNL A   1      33.588  22.039  25.770  1.00  0.00     0.019 C 
ATOM     12  C   UNL A   1      33.562  20.682  26.465  1.00  0.00     0.010 C 
BRANCH   8  13
ATOM     13  C   UNL A   1      32.486  25.490  26.191  1.00  0.00     0.151 A 
ATOM     14  C   UNL A   1      32.200  28.222  26.019  1.00  0.00     0.150 A 
ATOM     15  C   UNL A   1      33.386  27.660  25.593  1.00  0.00     0.040 A 
ATOM     16  N   UNL A   1      31.196  27.480  26.518  1.00  0.00    -0.143 NA
ATOM     17  C   UNL A   1      33.530  26.274  25.701  1.00  0.00     0.051 A 
ATOM     18  N   UNL A   1      31.350  26.110  26.592  1.00  0.00    -0.132 NA
BRANCH  14  19
ATOM     19  C   UNL A   1      31.991  29.681  25.967  1.00  0.00     0.271 C 
ATOM     20  N   UNL A   1      31.222  30.221  24.965  1.00  0.00    -0.351 N 
ATOM     21  H   UNL A   1      31.073  31.193  25.016  1.00  0.00     0.163 HD
ATOM     22  O   UNL A   1      32.534  30.400  26.801  1.00  0.00    -0.267 OA
BRANCH  20  23
ATOM     23  C   UNL A   1      30.601  29.550  23.839  1.00  0.00     0.113 C 
ATOM     24  C   UNL A   1      29.325  30.250  23.410  1.00  0.00     0.027 C 
ENDBRANCH  20  23
ENDBRANCH  14  19
ENDBRANCH   8  13
ENDBRANCH   4   7
ENDBRANCH   2   3
ENDBRANCH   1   2
BRANCH   1  25
ATOM     25  C   UNL A   1      36.711  21.928  24.118  1.00  0.00     0.023 C 
BRANCH  25  26
ATOM     26  C   UNL A   1      37.371  22.048  25.490  1.00  0.00     0.116 C 
BRANCH  26  27
ATOM     27  N   UNL A   1      38.506  21.159  25.700  1.00  0.00    -0.352 N 
ATOM     28  C   UNL A   1      39.714  21.454  26.302  1.00  0.00     0.251 C 
ATOM     29  H   UNL A   1      38.399  20.236  25.374  1.00  0.00     0.163 HD
ATOM     30  O   UNL A   1      40.589  20.605  26.375  1.00  0.00    -0.269 OA
BRANCH  28  31
ATOM     31  C   UNL A   1      39.930  22.823  26.824  1.00  0.00     0.039 A 
ATOM     32  C   UNL A   1      40.784  23.017  27.913  1.00  0.00     0.014 A 
ATOM     33  C   UNL A   1      39.360  23.918  26.171  1.00  0.00     0.014 A 
ATOM     34  C   UNL A   1      41.157  24.316  28.273  1.00  0.00     0.010 A 
ATOM     35  C   UNL A   1      39.772  25.202  26.492  1.00  0.00     0.010 A 
ATOM     36  C   UNL A   1      40.695  25.410  27.527  1.00  0.00    -0.014 A 
BRANCH  36  37
ATOM     37  C   UNL A   1      41.189  26.792  27.742  1.00  0.00     0.031 A 
ATOM     38  C   UNL A   1      42.625  27.118  27.451  1.00  0.00     0.074 A 
ATOM     39  C   UNL A   1      40.393  27.682  28.363  1.00  0.00     0.049 A 
ATOM     40  N   UNL A   1      43.311  28.184  27.762  1.00  0.00    -0.248 NA
ATOM     41  C   UNL A   1      43.397  26.078  26.757  1.00  0.00     0.031 C 
ATOM     42  C   UNL A   1      38.999  27.445  28.749  1.00  0.00     0.029 A 
ATOM     43  N   UNL A   1      40.651  28.948  28.822  1.00  0.00    -0.354 N 
ATOM     44  C   UNL A   1      44.606  27.939  27.319  1.00  0.00     0.074 A 
ATOM     45  C   UNL A   1      44.615  26.600  26.769  1.00  0.00     0.031 C 
ATOM     46  C   UNL A   1      38.531  28.524  29.395  1.00  0.00     0.029 A 
ATOM     47  C   UNL A   1      39.599  29.513  29.507  1.00  0.00     0.049 A 
ATOM     48  H   UNL A   1      41.509  29.411  28.677  1.00  0.00     0.167 HD
ATOM     49  C   UNL A   1      45.682  28.766  27.356  1.00  0.00     0.034 A 
ATOM     50  C   UNL A   1      39.514  30.681  30.172  1.00  0.00     0.034 A 
ATOM     51  C   UNL A   1      45.642  30.097  27.909  1.00  0.00     0.049 A 
ATOM     52  C   UNL A   1      40.718  31.586  30.203  1.00  0.00     0.074 A 
ATOM     53  C   UNL A   1      46.645  31.050  27.945  1.00  0.00     0.029 A 
ATOM     54  N   UNL A   1      44.539  30.662  28.539  1.00  0.00    -0.354 N 
ATOM     55  N   UNL A   1      41.920  31.371  29.722  1.00  0.00    -0.248 NA
ATOM     56  C   UNL A   1      40.552  32.892  30.853  1.00  0.00     0.031 C 
ATOM     57  C   UNL A   1      46.169  32.164  28.644  1.00  0.00     0.029 A 
ATOM     58  C   UNL A   1      44.845  31.937  28.985  1.00  0.00     0.049 A 
ATOM     59  H   UNL A   1      43.666  30.219  28.651  1.00  0.00     0.167 HD
ATOM     60  C   UNL A   1      42.644  32.533  29.975  1.00  0.00     0.074 A 
ATOM     61  C   UNL A   1      41.743  33.441  30.657  1.00  0.00     0.031 C 
ATOM     62  C   UNL A   1      43.929  32.828  29.660  1.00  0.00     0.034 A 
BRANCH  49  63
ATOM     63  C   UNL A   1      46.983  28.234  26.805  1.00  0.00     0.023 A 
ATOM     64  C   UNL A   1      47.228  28.182  25.422  1.00  0.00     0.031 A 
ATOM     65  C   UNL A   1      47.973  27.729  27.667  1.00  0.00     0.131 A 
ATOM     66  C   UNL A   1      48.386  27.555  24.938  1.00  0.00     0.055 A 
ATOM     67  C   UNL A   1      49.165  27.187  27.180  1.00  0.00     0.041 A 
ATOM     68  F   UNL A   1      47.790  27.733  28.996  1.00  0.00    -0.206 F 
ATOM     69  C   UNL A   1      49.368  27.080  25.808  1.00  0.00     0.022 A 
BRANCH  66  70
ATOM     70  S   UNL A   1      48.504  27.226  23.158  1.00  0.00     0.124 S 
ATOM     71  O   UNL A   1      47.464  28.104  22.627  1.00  0.00    -0.237 OA
ATOM     72  O   UNL A   1      49.878  27.609  22.857  1.00  0.00    -0.237 OA
ATOM     73  O   UNL A   1      48.216  25.797  23.054  1.00  0.00    -0.744 OA
ENDBRANCH  66  70
ENDBRANCH  49  63
BRANCH  50  74
ATOM     74  C   UNL A   1      38.248  31.060  30.860  1.00  0.00     0.023 A 
ATOM     75  C   UNL A   1      37.241  31.760  30.180  1.00  0.00     0.031 A 
ATOM     76  C   UNL A   1      38.029  30.730  32.210  1.00  0.00     0.131 A 
ATOM     77  C   UNL A   1      36.073  32.138  30.858  1.00  0.00     0.055 A 
ATOM     78  C   UNL A   1      36.848  31.073  32.869  1.00  0.00     0.041 A 
ATOM     79  F   UNL A   1      38.956  30.047  32.901  1.00  0.00    -0.206 F 
ATOM     80  C   UNL A   1      35.864  31.790  32.194  1.00  0.00     0.022 A 
BRANCH  77  81
ATOM     81  S   UNL A   1      34.845  33.142  29.977  1.00  0.00     0.124 S 
ATOM     82  O   UNL A   1      35.689  34.137  29.326  1.00  0.00    -0.237 OA
ATOM     83  O   UNL A   1      34.221  32.155  29.102  1.00  0.00    -0.237 OA
ATOM     84  O   UNL A   1      33.991  33.651  31.049  1.00  0.00    -0.744 OA
ENDBRANCH  77  81
ENDBRANCH  50  74
BRANCH  62  85
ATOM     85  C   UNL A   1      44.417  34.215  29.986  1.00  0.00     0.023 A 
ATOM     86  C   UNL A   1      44.189  35.304  29.130  1.00  0.00     0.031 A 
ATOM     87  C   UNL A   1      45.098  34.447  31.195  1.00  0.00     0.131 A 
ATOM     88  C   UNL A   1      44.669  36.574  29.480  1.00  0.00     0.055 A 
ATOM     89  C   UNL A   1      45.531  35.720  31.559  1.00  0.00     0.041 A 
ATOM     90  F   UNL A   1      45.340  33.437  32.047  1.00  0.00    -0.206 F 
ATOM     91  C   UNL A   1      45.324  36.793  30.697  1.00  0.00     0.022 A 
BRANCH  88  92
ATOM     92  S   UNL A   1      44.468  37.939  28.303  1.00  0.00     0.124 S 
ATOM     93  O   UNL A   1      44.380  37.231  27.030  1.00  0.00    -0.237 OA
ATOM     94  O   UNL A   1      43.238  38.574  28.766  1.00  0.00    -0.237 OA
ATOM     95  O   UNL A   1      45.681  38.735  28.488  1.00  0.00    -0.744 OA
ENDBRANCH  88  92
ENDBRANCH  62  85
ENDBRANCH  36  37
ENDBRANCH  28  31
ENDBRANCH  26  27
ENDBRANCH  25  26
ENDBRANCH   1  25
TORSDOF 17
ENDMDL
MODEL 2
REMARK VINA RESULT:     -11.6      2.544      8.141
REMARK SMILES CCNC(=O)c1ccc(N2C[C@@H](C)[C@H](C(=O)NCCCCNC(=O)c3ccc(-c4c5nc(c(-c6cc(S(=O)(=O)[O-])ccc6F)c6ccc([nH]6)c(-c6cc(S(=O)(=O)[O-])ccc6F)c6nc(c(-c7cc(S(=O)(=O)[O-])ccc7F)c7ccc4[nH]7)C=C6)C=C5)cc3)C2)nn1
REMARK SMILES IDX 19 1 18 2 17 3 15 4 16 5 14 7 10 8 11 9 88 10 12 11 13 12
REMARK SMILES IDX 9 13 6 14 7 15 90 16 8 17 89 18 4 19 3 20 5 22 2 23 1 24
REMARK SMILES IDX 20 25 21 26 22 27 23 28 24 30 25 31 26 32 87 33 27 34 86 35
REMARK SMILES IDX 28 36 29 37 30 38 80 39 31 40 85 41 79 42 81 43 32 44 84 45
REMARK SMILES IDX 78 46 77 47 33 49 65 50 45 51 64 52 46 53 49 54 63 55 82 56
REMARK SMILES IDX 47 57 48 58 62 60 83 61 50 62 34 63 35 64 43 65 36 66 42 67
REMARK SMILES IDX 44 68 41 69 37 70 38 71 39 72 40 73 66 74 67 75 75 76 68 77
REMARK SMILES IDX 74 78 76 79 73 80 69 81 70 82 71 83 72 84 51 85 52 86 60 87
REMARK SMILES IDX 53 88 59 89 61 90 58 91 54 92 55 93 56 94 57 95
REMARK H PARENT 17 6 3 21 22 29 81 48 49 59
REMARK Flexibility Score: inf
ROOT
ATOM      1  C   UNL A   1      37.434  22.581  24.695  1.00  0.00     0.023 C 
ENDROOT
BRANCH   1   2
ATOM      2  C   UNL A   1      36.850  23.633  25.631  1.00  0.00     0.116 C 
BRANCH   2   3
ATOM      3  N   UNL A   1      35.964  23.091  26.638  1.00  0.00    -0.356 N 
ATOM      4  C   UNL A   1      34.732  22.522  26.519  1.00  0.00     0.225 C 
ATOM      5  O   UNL A   1      34.229  22.050  27.545  1.00  0.00    -0.275 OA
ATOM      6  H   UNL A   1      36.306  23.143  27.561  1.00  0.00     0.163 HD
BRANCH   4   7
ATOM      7  C   UNL A   1      33.952  22.449  25.204  1.00  0.00     0.102 C 
ATOM      8  N   UNL A   1      32.426  24.142  24.585  1.00  0.00    -0.354 N 
ATOM      9  C   UNL A   1      31.593  22.963  24.736  1.00  0.00     0.122 C 
ATOM     10  C   UNL A   1      33.841  23.796  24.494  1.00  0.00     0.132 C 
ATOM     11  C   UNL A   1      32.523  21.897  25.346  1.00  0.00     0.019 C 
ATOM     12  C   UNL A   1      32.366  20.537  24.672  1.00  0.00     0.010 C 
BRANCH   8  13
ATOM     13  C   UNL A   1      32.079  25.463  24.726  1.00  0.00     0.151 A 
ATOM     14  C   UNL A   1      31.717  28.180  24.987  1.00  0.00     0.150 A 
ATOM     15  C   UNL A   1      31.453  27.376  26.077  1.00  0.00     0.040 A 
ATOM     16  N   UNL A   1      32.134  27.676  23.813  1.00  0.00    -0.143 NA
ATOM     17  C   UNL A   1      31.621  25.997  25.930  1.00  0.00     0.051 A 
ATOM     18  N   UNL A   1      32.318  26.312  23.697  1.00  0.00    -0.132 NA
BRANCH  14  19
ATOM     19  C   UNL A   1      31.528  29.641  25.059  1.00  0.00     0.271 C 
ATOM     20  N   UNL A   1      30.524  30.232  24.331  1.00  0.00    -0.351 N 
ATOM     21  H   UNL A   1      30.413  31.201  24.465  1.00  0.00     0.163 HD
ATOM     22  O   UNL A   1      32.293  30.316  25.742  1.00  0.00    -0.267 OA
BRANCH  20  23
ATOM     23  C   UNL A   1      29.605  29.618  23.392  1.00  0.00     0.113 C 
ATOM     24  C   UNL A   1      30.092  29.766  21.963  1.00  0.00     0.027 C 
ENDBRANCH  20  23
ENDBRANCH  14  19
ENDBRANCH   8  13
ENDBRANCH   4   7
ENDBRANCH   2   3
ENDBRANCH   1   2
BRANCH   1  25
ATOM     25  C   UNL A   1      37.856  21.282  25.373  1.00  0.00     0.023 C 
BRANCH  25  26
ATOM     26  C   UNL A   1      39.253  21.282  25.990  1.00  0.00     0.116 C 
BRANCH  26  27
ATOM     27  N   UNL A   1      39.971  20.019  25.872  1.00  0.00    -0.352 N 
ATOM     28  C   UNL A   1      41.327  19.799  26.012  1.00  0.00     0.251 C 
ATOM     29  H   UNL A   1      39.422  19.227  25.668  1.00  0.00     0.163 HD
ATOM     30  O   UNL A   1      41.790  18.681  25.849  1.00  0.00    -0.269 OA
BRANCH  28  31
ATOM     31  C   UNL A   1      42.203  20.950  26.331  1.00  0.00     0.039 A 
ATOM     32  C   UNL A   1      42.633  21.792  25.301  1.00  0.00     0.014 A 
ATOM     33  C   UNL A   1      42.514  21.245  27.660  1.00  0.00     0.014 A 
ATOM     34  C   UNL A   1      43.278  22.993  25.618  1.00  0.00     0.010 A 
ATOM     35  C   UNL A   1      43.104  22.459  27.976  1.00  0.00     0.010 A 
ATOM     36  C   UNL A   1      43.464  23.356  26.959  1.00  0.00    -0.014 A 
BRANCH  36  37
ATOM     37  C   UNL A   1      43.977  24.687  27.365  1.00  0.00     0.031 A 
ATOM     38  C   UNL A   1      43.022  25.719  27.889  1.00  0.00     0.074 A 
ATOM     39  C   UNL A   1      45.255  25.008  27.088  1.00  0.00     0.049 A 
ATOM     40  N   UNL A   1      43.213  26.994  28.096  1.00  0.00    -0.248 NA
ATOM     41  C   UNL A   1      41.656  25.255  28.169  1.00  0.00     0.031 C 
ATOM     42  C   UNL A   1      46.251  24.097  26.517  1.00  0.00     0.029 A 
ATOM     43  N   UNL A   1      45.925  26.200  27.204  1.00  0.00    -0.354 N 
ATOM     44  C   UNL A   1      41.985  27.494  28.516  1.00  0.00     0.074 A 
ATOM     45  C   UNL A   1      41.048  26.391  28.476  1.00  0.00     0.031 C 
ATOM     46  C   UNL A   1      47.399  24.766  26.324  1.00  0.00     0.029 A 
ATOM     47  C   UNL A   1      47.211  26.159  26.715  1.00  0.00     0.049 A 
ATOM     48  H   UNL A   1      45.524  27.008  27.599  1.00  0.00     0.167 HD
ATOM     49  C   UNL A   1      41.677  28.756  28.910  1.00  0.00     0.034 A 
ATOM     50  C   UNL A   1      48.124  27.140  26.573  1.00  0.00     0.034 A 
ATOM     51  C   UNL A   1      42.633  29.834  28.940  1.00  0.00     0.049 A 
ATOM     52  C   UNL A   1      47.765  28.533  27.016  1.00  0.00     0.074 A 
ATOM     53  C   UNL A   1      42.458  31.134  29.381  1.00  0.00     0.029 A 
ATOM     54  N   UNL A   1      43.948  29.741  28.497  1.00  0.00    -0.354 N 
ATOM     55  N   UNL A   1      46.618  28.980  27.474  1.00  0.00    -0.248 NA
ATOM     56  C   UNL A   1      48.821  29.550  26.937  1.00  0.00     0.031 C 
ATOM     57  C   UNL A   1      43.644  31.840  29.152  1.00  0.00     0.029 A 
ATOM     58  C   UNL A   1      44.584  30.965  28.633  1.00  0.00     0.049 A 
ATOM     59  H   UNL A   1      44.365  28.924  28.139  1.00  0.00     0.167 HD
ATOM     60  C   UNL A   1      46.828  30.323  27.776  1.00  0.00     0.074 A 
ATOM     61  C   UNL A   1      48.209  30.612  27.442  1.00  0.00     0.031 C 
ATOM     62  C   UNL A   1      45.964  31.229  28.296  1.00  0.00     0.034 A 
BRANCH  49  63
ATOM     63  C   UNL A   1      40.247  29.025  29.313  1.00  0.00     0.023 A 
ATOM     64  C   UNL A   1      39.847  29.007  30.660  1.00  0.00     0.031 A 
ATOM     65  C   UNL A   1      39.260  29.256  28.338  1.00  0.00     0.131 A 
ATOM     66  C   UNL A   1      38.489  29.122  30.990  1.00  0.00     0.055 A 
ATOM     67  C   UNL A   1      37.922  29.460  28.681  1.00  0.00     0.041 A 
ATOM     68  F   UNL A   1      39.575  29.266  27.034  1.00  0.00    -0.206 F 
ATOM     69  C   UNL A   1      37.526  29.374  30.012  1.00  0.00     0.022 A 
BRANCH  66  70
ATOM     70  S   UNL A   1      37.987  28.773  32.698  1.00  0.00     0.124 S 
ATOM     71  O   UNL A   1      36.634  29.323  32.725  1.00  0.00    -0.237 OA
ATOM     72  O   UNL A   1      38.086  27.320  32.765  1.00  0.00    -0.237 OA
ATOM     73  O   UNL A   1      38.966  29.505  33.499  1.00  0.00    -0.744 OA
ENDBRANCH  66  70
ENDBRANCH  49  63
BRANCH  50  74
ATOM     74  C   UNL A   1      49.460  26.838  25.987  1.00  0.00     0.023 A 
ATOM     75  C   UNL A   1      49.826  27.345  24.731  1.00  0.00     0.031 A 
ATOM     76  C   UNL A   1      50.390  26.037  26.674  1.00  0.00     0.131 A 
ATOM     77  C   UNL A   1      51.075  27.018  24.183  1.00  0.00     0.055 A 
ATOM     78  C   UNL A   1      51.648  25.749  26.142  1.00  0.00     0.041 A 
ATOM     79  F   UNL A   1      50.094  25.541  27.886  1.00  0.00    -0.206 F 
ATOM     80  C   UNL A   1      51.993  26.233  24.884  1.00  0.00     0.022 A 
BRANCH  77  81
ATOM     81  S   UNL A   1      51.464  27.596  22.508  1.00  0.00     0.124 S 
ATOM     82  O   UNL A   1      51.146  26.418  21.707  1.00  0.00    -0.237 OA
ATOM     83  O   UNL A   1      50.563  28.734  22.364  1.00  0.00    -0.237 OA
ATOM     84  O   UNL A   1      52.884  27.934  22.587  1.00  0.00    -0.744 OA
ENDBRANCH  77  81
ENDBRANCH  50  74
BRANCH  62  85
ATOM     85  C   UNL A   1      46.507  32.600  28.602  1.00  0.00     0.023 A 
ATOM     86  C   UNL A   1      46.569  33.610  27.629  1.00  0.00     0.031 A 
ATOM     87  C   UNL A   1      46.943  32.902  29.905  1.00  0.00     0.131 A 
ATOM     88  C   UNL A   1      47.088  34.868  27.966  1.00  0.00     0.055 A 
ATOM     89  C   UNL A   1      47.414  34.168  30.246  1.00  0.00     0.041 A 
ATOM     90  F   UNL A   1      46.903  31.969  30.871  1.00  0.00    -0.206 F 
ATOM     91  C   UNL A   1      47.495  35.159  29.273  1.00  0.00     0.022 A 
BRANCH  88  92
ATOM     92  S   UNL A   1      47.269  36.117  26.663  1.00  0.00     0.124 S 
ATOM     93  O   UNL A   1      45.881  36.359  26.282  1.00  0.00    -0.237 OA
ATOM     94  O   UNL A   1      47.937  37.209  27.364  1.00  0.00    -0.237 OA
ATOM     95  O   UNL A   1      48.082  35.443  25.652  1.00  0.00    -0.744 OA
ENDBRANCH  88  92
ENDBRANCH  62  85
ENDBRANCH  36  37
ENDBRANCH  28  31
ENDBRANCH  26  27
ENDBRANCH  25  26
ENDBRANCH   1  25
TORSDOF 17
ENDMDL
MODEL 3
REMARK VINA RESULT:     -11.3      1.825      2.342
REMARK SMILES CCNC(=O)c1ccc(N2C[C@@H](C)[C@H](C(=O)NCCCCNC(=O)c3ccc(-c4c5nc(c(-c6cc(S(=O)(=O)[O-])ccc6F)c6ccc([nH]6)c(-c6cc(S(=O)(=O)[O-])ccc6F)c6nc(c(-c7cc(S(=O)(=O)[O-])ccc7F)c7ccc4[nH]7)C=C6)C=C5)cc3)C2)nn1
REMARK SMILES IDX 19 1 18 2 17 3 15 4 16 5 14 7 10 8 11 9 88 10 12 11 13 12
REMARK SMILES IDX 9 13 6 14 7 15 90 16 8 17 89 18 4 19 3 20 5 22 2 23 1 24
REMARK SMILES IDX 20 25 21 26 22 27 23 28 24 30 25 31 26 32 87 33 27 34 86 35
REMARK SMILES IDX 28 36 29 37 30 38 80 39 31 40 85 41 79 42 81 43 32 44 84 45
REMARK SMILES IDX 78 46 77 47 33 49 65 50 45 51 64 52 46 53 49 54 63 55 82 56
REMARK SMILES IDX 47 57 48 58 62 60 83 61 50 62 34 63 35 64 43 65 36 66 42 67
REMARK SMILES IDX 44 68 41 69 37 70 38 71 39 72 40 73 66 74 67 75 75 76 68 77
REMARK SMILES IDX 74 78 76 79 73 80 69 81 70 82 71 83 72 84 51 85 52 86 60 87
REMARK SMILES IDX 53 88 59 89 61 90 58 91 54 92 55 93 56 94 57 95
REMARK H PARENT 17 6 3 21 22 29 81 48 49 59
REMARK Flexibility Score: inf
ROOT
ATOM      1  C   UNL A   1      37.677  20.018  24.492  1.00  0.00     0.023 C 
ENDROOT
BRANCH   1   2
ATOM      2  C   UNL A   1      36.279  20.190  25.074  1.00  0.00     0.116 C 
BRANCH   2   3
ATOM      3  N   UNL A   1      35.986  21.540  25.501  1.00  0.00    -0.356 N 
ATOM      4  C   UNL A   1      35.053  22.427  25.054  1.00  0.00     0.225 C 
ATOM      5  O   UNL A   1      34.955  23.495  25.668  1.00  0.00    -0.275 OA
ATOM      6  H   UNL A   1      36.555  21.874  26.233  1.00  0.00     0.163 HD
BRANCH   4   7
ATOM      7  C   UNL A   1      34.148  22.173  23.846  1.00  0.00     0.102 C 
ATOM      8  N   UNL A   1      32.539  23.761  23.161  1.00  0.00    -0.354 N 
ATOM      9  C   UNL A   1      31.746  22.610  23.553  1.00  0.00     0.122 C 
ATOM     10  C   UNL A   1      33.944  23.411  22.975  1.00  0.00     0.132 C 
ATOM     11  C   UNL A   1      32.750  21.641  24.204  1.00  0.00     0.019 C 
ATOM     12  C   UNL A   1      32.551  20.201  23.741  1.00  0.00     0.010 C 
BRANCH   8  13
ATOM     13  C   UNL A   1      32.185  25.087  23.155  1.00  0.00     0.151 A 
ATOM     14  C   UNL A   1      31.271  27.669  22.881  1.00  0.00     0.150 A 
ATOM     15  C   UNL A   1      32.589  27.405  22.569  1.00  0.00     0.040 A 
ATOM     16  N   UNL A   1      30.435  26.713  23.318  1.00  0.00    -0.143 NA
ATOM     17  C   UNL A   1      33.050  26.095  22.729  1.00  0.00     0.051 A 
ATOM     18  N   UNL A   1      30.904  25.420  23.444  1.00  0.00    -0.132 NA
BRANCH  14  19
ATOM     19  C   UNL A   1      30.726  29.035  22.769  1.00  0.00     0.271 C 
ATOM     20  N   UNL A   1      30.870  29.912  23.817  1.00  0.00    -0.351 N 
ATOM     21  H   UNL A   1      30.535  30.824  23.661  1.00  0.00     0.163 HD
ATOM     22  O   UNL A   1      30.120  29.362  21.752  1.00  0.00    -0.267 OA
BRANCH  20  23
ATOM     23  C   UNL A   1      31.448  29.670  25.125  1.00  0.00     0.113 C 
ATOM     24  C   UNL A   1      31.420  30.921  25.984  1.00  0.00     0.027 C 
ENDBRANCH  20  23
ENDBRANCH  14  19
ENDBRANCH   8  13
ENDBRANCH   4   7
ENDBRANCH   2   3
ENDBRANCH   1   2
BRANCH   1  25
ATOM     25  C   UNL A   1      38.634  19.197  25.351  1.00  0.00     0.023 C 
BRANCH  25  26
ATOM     26  C   UNL A   1      39.643  20.000  26.169  1.00  0.00     0.116 C 
BRANCH  26  27
ATOM     27  N   UNL A   1      41.011  19.504  26.105  1.00  0.00    -0.352 N 
ATOM     28  C   UNL A   1      42.179  20.207  26.332  1.00  0.00     0.251 C 
ATOM     29  H   UNL A   1      41.117  18.553  25.873  1.00  0.00     0.163 HD
ATOM     30  O   UNL A   1      43.262  19.658  26.205  1.00  0.00    -0.269 OA
BRANCH  28  31
ATOM     31  C   UNL A   1      42.085  21.639  26.696  1.00  0.00     0.039 A 
ATOM     32  C   UNL A   1      42.284  22.025  28.025  1.00  0.00     0.014 A 
ATOM     33  C   UNL A   1      41.895  22.602  25.703  1.00  0.00     0.014 A 
ATOM     34  C   UNL A   1      42.407  23.383  28.337  1.00  0.00     0.010 A 
ATOM     35  C   UNL A   1      42.071  23.945  26.003  1.00  0.00     0.010 A 
ATOM     36  C   UNL A   1      42.357  24.344  27.317  1.00  0.00    -0.014 A 
BRANCH  36  37
ATOM     37  C   UNL A   1      42.655  25.777  27.551  1.00  0.00     0.031 A 
ATOM     38  C   UNL A   1      44.072  26.263  27.455  1.00  0.00     0.074 A 
ATOM     39  C   UNL A   1      41.682  26.580  28.022  1.00  0.00     0.049 A 
ATOM     40  N   UNL A   1      44.581  27.407  27.824  1.00  0.00    -0.248 NA
ATOM     41  C   UNL A   1      45.049  25.308  26.914  1.00  0.00     0.031 C 
ATOM     42  C   UNL A   1      40.283  26.189  28.214  1.00  0.00     0.029 A 
ATOM     43  N   UNL A   1      41.727  27.876  28.469  1.00  0.00    -0.354 N 
ATOM     44  C   UNL A   1      45.946  27.307  27.577  1.00  0.00     0.074 A 
ATOM     45  C   UNL A   1      46.185  25.968  27.081  1.00  0.00     0.031 C 
ATOM     46  C   UNL A   1      39.607  27.218  28.749  1.00  0.00     0.029 A 
ATOM     47  C   UNL A   1      40.530  28.326  28.977  1.00  0.00     0.049 A 
ATOM     48  H   UNL A   1      42.539  28.432  28.430  1.00  0.00     0.167 HD
ATOM     49  C   UNL A   1      46.905  28.254  27.738  1.00  0.00     0.034 A 
ATOM     50  C   UNL A   1      40.219  29.488  29.583  1.00  0.00     0.034 A 
ATOM     51  C   UNL A   1      46.636  29.582  28.233  1.00  0.00     0.049 A 
ATOM     52  C   UNL A   1      41.295  30.528  29.753  1.00  0.00     0.074 A 
ATOM     53  C   UNL A   1      47.509  30.645  28.377  1.00  0.00     0.029 A 
ATOM     54  N   UNL A   1      45.396  30.025  28.680  1.00  0.00    -0.354 N 
ATOM     55  N   UNL A   1      42.571  30.445  29.455  1.00  0.00    -0.248 NA
ATOM     56  C   UNL A   1      40.891  31.817  30.326  1.00  0.00     0.031 C 
ATOM     57  C   UNL A   1      46.814  31.709  28.963  1.00  0.00     0.029 A 
ATOM     58  C   UNL A   1      45.489  31.335  29.120  1.00  0.00     0.049 A 
ATOM     59  H   UNL A   1      44.572  29.485  28.683  1.00  0.00     0.167 HD
ATOM     60  C   UNL A   1      43.114  31.688  29.767  1.00  0.00     0.074 A 
ATOM     61  C   UNL A   1      42.027  32.498  30.283  1.00  0.00     0.031 C 
ATOM     62  C   UNL A   1      44.391  32.125  29.627  1.00  0.00     0.034 A 
BRANCH  49  63
ATOM     63  C   UNL A   1      48.323  27.868  27.395  1.00  0.00     0.023 A 
ATOM     64  C   UNL A   1      48.890  28.181  26.148  1.00  0.00     0.031 A 
ATOM     65  C   UNL A   1      49.106  27.136  28.307  1.00  0.00     0.131 A 
ATOM     66  C   UNL A   1      50.158  27.687  25.809  1.00  0.00     0.055 A 
ATOM     67  C   UNL A   1      50.404  26.724  27.996  1.00  0.00     0.041 A 
ATOM     68  F   UNL A   1      48.615  26.789  29.506  1.00  0.00    -0.206 F 
ATOM     69  C   UNL A   1      50.930  26.983  26.733  1.00  0.00     0.022 A 
BRANCH  66  70
ATOM     70  S   UNL A   1      50.708  27.842  24.088  1.00  0.00     0.124 S 
ATOM     71  O   UNL A   1      51.361  29.149  24.104  1.00  0.00    -0.237 OA
ATOM     72  O   UNL A   1      51.589  26.690  23.933  1.00  0.00    -0.237 OA
ATOM     73  O   UNL A   1      49.464  27.784  23.323  1.00  0.00    -0.744 OA
ENDBRANCH  66  70
ENDBRANCH  49  63
BRANCH  50  74
ATOM     74  C   UNL A   1      38.831  29.730  30.071  1.00  0.00     0.023 A 
ATOM     75  C   UNL A   1      37.892  30.394  29.270  1.00  0.00     0.031 A 
ATOM     76  C   UNL A   1      38.427  29.301  31.348  1.00  0.00     0.131 A 
ATOM     77  C   UNL A   1      36.603  30.642  29.764  1.00  0.00     0.055 A 
ATOM     78  C   UNL A   1      37.131  29.514  31.820  1.00  0.00     0.041 A 
ATOM     79  F   UNL A   1      39.285  28.647  32.148  1.00  0.00    -0.206 F 
ATOM     80  C   UNL A   1      36.212  30.198  31.029  1.00  0.00     0.022 A 
BRANCH  77  81
ATOM     81  S   UNL A   1      35.454  31.606  28.744  1.00  0.00     0.124 S 
ATOM     82  O   UNL A   1      34.824  30.563  27.941  1.00  0.00    -0.237 OA
ATOM     83  O   UNL A   1      34.611  32.237  29.754  1.00  0.00    -0.237 OA
ATOM     84  O   UNL A   1      36.331  32.516  28.010  1.00  0.00    -0.744 OA
ENDBRANCH  77  81
ENDBRANCH  50  74
BRANCH  62  85
ATOM     85  C   UNL A   1      44.666  33.565  29.971  1.00  0.00     0.023 A 
ATOM     86  C   UNL A   1      44.507  34.598  29.033  1.00  0.00     0.031 A 
ATOM     87  C   UNL A   1      45.069  33.905  31.275  1.00  0.00     0.131 A 
ATOM     88  C   UNL A   1      44.782  35.922  29.404  1.00  0.00     0.055 A 
ATOM     89  C   UNL A   1      45.296  35.228  31.651  1.00  0.00     0.041 A 
ATOM     90  F   UNL A   1      45.236  32.952  32.208  1.00  0.00    -0.206 F 
ATOM     91  C   UNL A   1      45.159  36.245  30.712  1.00  0.00     0.022 A 
BRANCH  88  92
ATOM     92  S   UNL A   1      44.684  37.221  28.143  1.00  0.00     0.124 S 
ATOM     93  O   UNL A   1      43.395  36.941  27.519  1.00  0.00    -0.237 OA
ATOM     94  O   UNL A   1      44.754  38.441  28.942  1.00  0.00    -0.237 OA
ATOM     95  O   UNL A   1      45.851  36.969  27.298  1.00  0.00    -0.744 OA
ENDBRANCH  88  92
ENDBRANCH  62  85
ENDBRANCH  36  37
ENDBRANCH  28  31
ENDBRANCH  26  27
ENDBRANCH  25  26
ENDBRANCH   1  25
TORSDOF 17
ENDMDL
