MODEL 1
REMARK VINA RESULT:     -11.0      0.000      0.000
REMARK SMILES CCc1ccc(S(=O)(=O)CC(=O)NCCCCNC(=O)c2ccc(-c3c4nc(c(-c5cc(S(=O)(=O)[O-])ccc5F)c5ccc([nH]5)c(-c5cc(S(=O)(=O)[O-])ccc5F)c5nc(c(-c6cc(S(=O)(=O)[O-])ccc6F)c6ccc3[nH]6)C=C5)C=C4)cc2)cc1
REMARK SMILES IDX 15 1 14 2 13 3 11 4 12 5 10 7 7 8 8 9 9 10 6 11 3 12 4 13
REMARK SMILES IDX 85 14 5 15 84 16 2 17 1 18 16 19 17 20 18 21 19 22 20 24
REMARK SMILES IDX 21 25 22 26 83 27 23 28 82 29 24 30 25 31 26 32 76 33 27 34
REMARK SMILES IDX 81 35 75 36 77 37 28 38 80 39 74 40 73 41 29 43 61 44 41 45
REMARK SMILES IDX 60 46 42 47 45 48 59 49 78 50 43 51 44 52 58 54 79 55 46 56
REMARK SMILES IDX 30 57 31 58 39 59 32 60 38 61 40 62 37 63 33 64 34 65 35 66
REMARK SMILES IDX 36 67 62 68 63 69 71 70 64 71 70 72 72 73 69 74 65 75 66 76
REMARK SMILES IDX 67 77 68 78 47 79 48 80 56 81 49 82 55 83 57 84 54 85 50 86
REMARK SMILES IDX 51 87 52 88 53 89
REMARK H PARENT 13 6 18 23 77 42 45 53
REMARK Flexibility Score: inf
ROOT
ATOM      1  C   UNL A   1      36.172  23.252  23.665  1.00  0.00     0.023 C 
ENDROOT
BRANCH   1   2
ATOM      2  C   UNL A   1      34.781  23.864  23.504  1.00  0.00     0.116 C 
BRANCH   2   3
ATOM      3  N   UNL A   1      34.604  24.984  24.410  1.00  0.00    -0.355 N 
ATOM      4  C   UNL A   1      33.523  25.332  25.154  1.00  0.00     0.235 C 
ATOM      5  O   UNL A   1      33.577  26.394  25.780  1.00  0.00    -0.274 OA
ATOM      6  H   UNL A   1      35.383  25.580  24.497  1.00  0.00     0.163 HD
BRANCH   4   7
ATOM      7  C   UNL A   1      32.356  24.418  25.323  1.00  0.00     0.241 C 
BRANCH   7   8
ATOM      8  S   UNL A   1      32.624  23.045  26.381  1.00  0.00     0.187 S 
ATOM      9  O   UNL A   1      31.465  22.951  27.255  1.00  0.00    -0.223 OA
ATOM     10  O   UNL A   1      33.941  23.204  26.976  1.00  0.00    -0.223 OA
BRANCH   8  11
ATOM     11  C   UNL A   1      32.653  21.525  25.471  1.00  0.00     0.067 A 
ATOM     12  C   UNL A   1      32.791  19.207  23.897  1.00  0.00    -0.048 A 
ATOM     13  C   UNL A   1      32.223  20.380  23.382  1.00  0.00     0.005 A 
ATOM     14  C   UNL A   1      33.262  19.206  25.218  1.00  0.00     0.005 A 
ATOM     15  C   UNL A   1      32.152  21.534  24.163  1.00  0.00     0.020 A 
ATOM     16  C   UNL A   1      33.212  20.364  26.000  1.00  0.00     0.020 A 
BRANCH  12  17
ATOM     17  C   UNL A   1      32.899  17.963  23.048  1.00  0.00     0.032 C 
ATOM     18  C   UNL A   1      33.971  17.001  23.546  1.00  0.00     0.009 C 
ENDBRANCH  12  17
ENDBRANCH   8  11
ENDBRANCH   7   8
ENDBRANCH   4   7
ENDBRANCH   2   3
ENDBRANCH   1   2
BRANCH   1  19
ATOM     19  C   UNL A   1      36.182  21.834  24.244  1.00  0.00     0.023 C 
BRANCH  19  20
ATOM     20  C   UNL A   1      36.756  21.706  25.650  1.00  0.00     0.116 C 
BRANCH  20  21
ATOM     21  N   UNL A   1      37.806  20.704  25.746  1.00  0.00    -0.352 N 
ATOM     22  C   UNL A   1      39.129  20.868  26.082  1.00  0.00     0.251 C 
ATOM     23  H   UNL A   1      37.532  19.781  25.540  1.00  0.00     0.163 HD
ATOM     24  O   UNL A   1      39.905  19.922  25.980  1.00  0.00    -0.269 OA
BRANCH  22  25
ATOM     25  C   UNL A   1      39.615  22.192  26.526  1.00  0.00     0.039 A 
ATOM     26  C   UNL A   1      40.689  22.251  27.416  1.00  0.00     0.014 A 
ATOM     27  C   UNL A   1      39.032  23.370  26.048  1.00  0.00     0.014 A 
ATOM     28  C   UNL A   1      41.225  23.492  27.772  1.00  0.00     0.010 A 
ATOM     29  C   UNL A   1      39.612  24.600  26.347  1.00  0.00     0.010 A 
ATOM     30  C   UNL A   1      40.717  24.674  27.209  1.00  0.00    -0.014 A 
BRANCH  30  31
ATOM     31  C   UNL A   1      41.329  25.997  27.509  1.00  0.00     0.031 A 
ATOM     32  C   UNL A   1      42.738  26.293  27.064  1.00  0.00     0.074 A 
ATOM     33  C   UNL A   1      40.644  26.902  28.235  1.00  0.00     0.049 A 
ATOM     34  N   UNL A   1      43.477  27.345  27.304  1.00  0.00    -0.248 NA
ATOM     35  C   UNL A   1      43.411  25.254  26.270  1.00  0.00     0.031 C 
ATOM     36  C   UNL A   1      39.286  26.714  28.756  1.00  0.00     0.029 A 
ATOM     37  N   UNL A   1      40.993  28.155  28.675  1.00  0.00    -0.354 N 
ATOM     38  C   UNL A   1      44.706  27.090  26.706  1.00  0.00     0.074 A 
ATOM     39  C   UNL A   1      44.629  25.760  26.139  1.00  0.00     0.031 C 
ATOM     40  C   UNL A   1      38.914  27.818  29.423  1.00  0.00     0.029 A 
ATOM     41  C   UNL A   1      40.017  28.773  29.424  1.00  0.00     0.049 A 
ATOM     42  H   UNL A   1      41.861  28.572  28.474  1.00  0.00     0.167 HD
ATOM     43  C   UNL A   1      45.791  27.899  26.619  1.00  0.00     0.034 A 
ATOM     44  C   UNL A   1      40.016  29.967  30.052  1.00  0.00     0.034 A 
ATOM     45  C   UNL A   1      45.844  29.231  27.169  1.00  0.00     0.049 A 
ATOM     46  C   UNL A   1      41.244  30.840  29.953  1.00  0.00     0.074 A 
ATOM     47  C   UNL A   1      46.870  30.156  27.085  1.00  0.00     0.029 A 
ATOM     48  N   UNL A   1      44.833  29.828  27.911  1.00  0.00    -0.354 N 
ATOM     49  N   UNL A   1      42.379  30.604  29.335  1.00  0.00    -0.248 NA
ATOM     50  C   UNL A   1      41.187  32.144  30.626  1.00  0.00     0.031 C 
ATOM     51  C   UNL A   1      46.508  31.283  27.830  1.00  0.00     0.029 A 
ATOM     52  C   UNL A   1      45.224  31.096  28.314  1.00  0.00     0.049 A 
ATOM     53  H   UNL A   1      43.965  29.412  28.119  1.00  0.00     0.167 HD
ATOM     54  C   UNL A   1      43.153  31.748  29.515  1.00  0.00     0.074 A 
ATOM     55  C   UNL A   1      42.351  32.675  30.284  1.00  0.00     0.031 C 
ATOM     56  C   UNL A   1      44.412  32.011  29.081  1.00  0.00     0.034 A 
BRANCH  43  57
ATOM     57  C   UNL A   1      47.016  27.356  25.923  1.00  0.00     0.023 A 
ATOM     58  C   UNL A   1      48.021  26.666  26.622  1.00  0.00     0.031 A 
ATOM     59  C   UNL A   1      47.179  27.530  24.536  1.00  0.00     0.131 A 
ATOM     60  C   UNL A   1      49.171  26.230  25.947  1.00  0.00     0.055 A 
ATOM     61  C   UNL A   1      48.289  27.025  23.857  1.00  0.00     0.041 A 
ATOM     62  F   UNL A   1      46.263  28.199  23.819  1.00  0.00    -0.206 F 
ATOM     63  C   UNL A   1      49.299  26.381  24.565  1.00  0.00     0.022 A 
BRANCH  60  64
ATOM     64  S   UNL A   1      50.550  25.570  26.921  1.00  0.00     0.124 S 
ATOM     65  O   UNL A   1      50.911  26.725  27.741  1.00  0.00    -0.237 OA
ATOM     66  O   UNL A   1      49.933  24.453  27.628  1.00  0.00    -0.237 OA
ATOM     67  O   UNL A   1      51.538  25.200  25.910  1.00  0.00    -0.744 OA
ENDBRANCH  60  64
ENDBRANCH  43  57
BRANCH  44  68
ATOM     68  C   UNL A   1      38.834  30.413  30.846  1.00  0.00     0.023 A 
ATOM     69  C   UNL A   1      37.834  31.210  30.268  1.00  0.00     0.031 A 
ATOM     70  C   UNL A   1      38.722  30.107  32.215  1.00  0.00     0.131 A 
ATOM     71  C   UNL A   1      36.803  31.729  31.066  1.00  0.00     0.055 A 
ATOM     72  C   UNL A   1      37.658  30.574  32.991  1.00  0.00     0.041 A 
ATOM     73  F   UNL A   1      39.647  29.346  32.821  1.00  0.00    -0.206 F 
ATOM     74  C   UNL A   1      36.700  31.405  32.421  1.00  0.00     0.022 A 
BRANCH  71  75
ATOM     75  S   UNL A   1      35.660  32.932  30.331  1.00  0.00     0.124 S 
ATOM     76  O   UNL A   1      34.402  32.580  30.980  1.00  0.00    -0.237 OA
ATOM     77  O   UNL A   1      36.257  34.201  30.733  1.00  0.00    -0.237 OA
ATOM     78  O   UNL A   1      35.729  32.637  28.901  1.00  0.00    -0.744 OA
ENDBRANCH  71  75
ENDBRANCH  44  68
BRANCH  56  79
ATOM     79  C   UNL A   1      44.972  33.379  29.381  1.00  0.00     0.023 A 
ATOM     80  C   UNL A   1      44.816  34.457  28.493  1.00  0.00     0.031 A 
ATOM     81  C   UNL A   1      45.682  33.602  30.575  1.00  0.00     0.131 A 
ATOM     82  C   UNL A   1      45.411  35.694  28.785  1.00  0.00     0.055 A 
ATOM     83  C   UNL A   1      46.218  34.851  30.888  1.00  0.00     0.041 A 
ATOM     84  F   UNL A   1      45.864  32.608  31.458  1.00  0.00    -0.206 F 
ATOM     85  C   UNL A   1      46.096  35.903  29.985  1.00  0.00     0.022 A 
BRANCH  82  86
ATOM     86  S   UNL A   1      45.357  37.004  27.531  1.00  0.00     0.124 S 
ATOM     87  O   UNL A   1      46.050  36.380  26.410  1.00  0.00    -0.237 OA
ATOM     88  O   UNL A   1      43.923  37.211  27.358  1.00  0.00    -0.237 OA
ATOM     89  O   UNL A   1      46.070  38.113  28.163  1.00  0.00    -0.744 OA
ENDBRANCH  82  86
ENDBRANCH  56  79
ENDBRANCH  30  31
ENDBRANCH  22  25
ENDBRANCH  20  21
ENDBRANCH  19  20
ENDBRANCH   1  19
TORSDOF 17
ENDMDL
MODEL 2
REMARK VINA RESULT:     -10.9      4.743      9.407
REMARK SMILES CCc1ccc(S(=O)(=O)CC(=O)NCCCCNC(=O)c2ccc(-c3c4nc(c(-c5cc(S(=O)(=O)[O-])ccc5F)c5ccc([nH]5)c(-c5cc(S(=O)(=O)[O-])ccc5F)c5nc(c(-c6cc(S(=O)(=O)[O-])ccc6F)c6ccc3[nH]6)C=C5)C=C4)cc2)cc1
REMARK SMILES IDX 15 1 14 2 13 3 11 4 12 5 10 7 7 8 8 9 9 10 6 11 3 12 4 13
REMARK SMILES IDX 85 14 5 15 84 16 2 17 1 18 16 19 17 20 18 21 19 22 20 24
REMARK SMILES IDX 21 25 22 26 83 27 23 28 82 29 24 30 25 31 26 32 76 33 27 34
REMARK SMILES IDX 81 35 75 36 77 37 28 38 80 39 74 40 73 41 29 43 61 44 41 45
REMARK SMILES IDX 60 46 42 47 45 48 59 49 78 50 43 51 44 52 58 54 79 55 46 56
REMARK SMILES IDX 30 57 31 58 39 59 32 60 38 61 40 62 37 63 33 64 34 65 35 66
REMARK SMILES IDX 36 67 62 68 63 69 71 70 64 71 70 72 72 73 69 74 65 75 66 76
REMARK SMILES IDX 67 77 68 78 47 79 48 80 56 81 49 82 55 83 57 84 54 85 50 86
REMARK SMILES IDX 51 87 52 88 53 89
REMARK H PARENT 13 6 18 23 77 42 45 53
REMARK Flexibility Score: inf
ROOT
ATOM      1  C   UNL A   1      31.886  27.919  26.726  1.00  0.00     0.023 C 
ENDROOT
BRANCH   1   2
ATOM      2  C   UNL A   1      31.293  26.821  25.845  1.00  0.00     0.116 C 
BRANCH   2   3
ATOM      3  N   UNL A   1      31.000  25.634  26.629  1.00  0.00    -0.355 N 
ATOM      4  C   UNL A   1      31.665  24.453  26.692  1.00  0.00     0.235 C 
ATOM      5  O   UNL A   1      31.162  23.548  27.364  1.00  0.00    -0.274 OA
ATOM      6  H   UNL A   1      30.200  25.697  27.199  1.00  0.00     0.163 HD
BRANCH   4   7
ATOM      7  C   UNL A   1      33.015  24.277  26.083  1.00  0.00     0.241 C 
BRANCH   7   8
ATOM      8  S   UNL A   1      33.024  23.680  24.434  1.00  0.00     0.187 S 
ATOM      9  O   UNL A   1      34.157  24.300  23.765  1.00  0.00    -0.223 OA
ATOM     10  O   UNL A   1      31.691  23.883  23.890  1.00  0.00    -0.223 OA
BRANCH   8  11
ATOM     11  C   UNL A   1      33.340  21.937  24.380  1.00  0.00     0.067 A 
ATOM     12  C   UNL A   1      33.874  19.185  24.477  1.00  0.00    -0.048 A 
ATOM     13  C   UNL A   1      34.826  20.108  24.930  1.00  0.00     0.005 A 
ATOM     14  C   UNL A   1      32.664  19.663  23.952  1.00  0.00     0.005 A 
ATOM     15  C   UNL A   1      34.564  21.477  24.881  1.00  0.00     0.020 A 
ATOM     16  C   UNL A   1      32.387  21.033  23.919  1.00  0.00     0.020 A 
BRANCH  12  17
ATOM     17  C   UNL A   1      34.138  17.701  24.554  1.00  0.00     0.032 C 
ATOM     18  C   UNL A   1      33.088  16.956  25.370  1.00  0.00     0.009 C 
ENDBRANCH  12  17
ENDBRANCH   8  11
ENDBRANCH   7   8
ENDBRANCH   4   7
ENDBRANCH   2   3
ENDBRANCH   1   2
BRANCH   1  19
ATOM     19  C   UNL A   1      33.407  27.850  26.894  1.00  0.00     0.023 C 
BRANCH  19  20
ATOM     20  C   UNL A   1      34.191  28.971  26.220  1.00  0.00     0.116 C 
BRANCH  20  21
ATOM     21  N   UNL A   1      33.803  30.293  26.684  1.00  0.00    -0.352 N 
ATOM     22  C   UNL A   1      34.403  31.087  27.633  1.00  0.00     0.251 C 
ATOM     23  H   UNL A   1      32.999  30.673  26.261  1.00  0.00     0.163 HD
ATOM     24  O   UNL A   1      33.856  32.124  27.994  1.00  0.00    -0.269 OA
BRANCH  22  25
ATOM     25  C   UNL A   1      35.683  30.664  28.240  1.00  0.00     0.039 A 
ATOM     26  C   UNL A   1      35.655  29.801  29.338  1.00  0.00     0.014 A 
ATOM     27  C   UNL A   1      36.906  31.092  27.714  1.00  0.00     0.014 A 
ATOM     28  C   UNL A   1      36.854  29.313  29.865  1.00  0.00     0.010 A 
ATOM     29  C   UNL A   1      38.094  30.549  28.194  1.00  0.00     0.010 A 
ATOM     30  C   UNL A   1      38.082  29.650  29.272  1.00  0.00    -0.014 A 
BRANCH  30  31
ATOM     31  C   UNL A   1      39.361  29.072  29.764  1.00  0.00     0.031 A 
ATOM     32  C   UNL A   1      40.095  29.730  30.903  1.00  0.00     0.074 A 
ATOM     33  C   UNL A   1      39.893  27.999  29.144  1.00  0.00     0.049 A 
ATOM     34  N   UNL A   1      41.262  29.434  31.414  1.00  0.00    -0.248 NA
ATOM     35  C   UNL A   1      39.442  30.890  31.527  1.00  0.00     0.031 C 
ATOM     36  C   UNL A   1      39.294  27.299  28.004  1.00  0.00     0.029 A 
ATOM     37  N   UNL A   1      41.060  27.314  29.372  1.00  0.00    -0.354 N 
ATOM     38  C   UNL A   1      41.492  30.379  32.409  1.00  0.00     0.074 A 
ATOM     39  C   UNL A   1      40.366  31.290  32.389  1.00  0.00     0.031 C 
ATOM     40  C   UNL A   1      40.087  26.275  27.650  1.00  0.00     0.029 A 
ATOM     41  C   UNL A   1      41.273  26.271  28.500  1.00  0.00     0.049 A 
ATOM     42  H   UNL A   1      41.688  27.548  30.094  1.00  0.00     0.167 HD
ATOM     43  C   UNL A   1      42.534  30.467  33.272  1.00  0.00     0.034 A 
ATOM     44  C   UNL A   1      42.312  25.418  28.387  1.00  0.00     0.034 A 
ATOM     45  C   UNL A   1      43.636  29.538  33.294  1.00  0.00     0.049 A 
ATOM     46  C   UNL A   1      43.467  25.549  29.350  1.00  0.00     0.074 A 
ATOM     47  C   UNL A   1      44.712  29.500  34.165  1.00  0.00     0.029 A 
ATOM     48  N   UNL A   1      43.812  28.488  32.403  1.00  0.00    -0.354 N 
ATOM     49  N   UNL A   1      43.640  26.417  30.320  1.00  0.00    -0.248 NA
ATOM     50  C   UNL A   1      44.561  24.579  29.210  1.00  0.00     0.031 C 
ATOM     51  C   UNL A   1      45.569  28.472  33.760  1.00  0.00     0.029 A 
ATOM     52  C   UNL A   1      44.992  27.816  32.685  1.00  0.00     0.049 A 
ATOM     53  H   UNL A   1      43.190  28.254  31.676  1.00  0.00     0.167 HD
ATOM     54  C   UNL A   1      44.844  26.071  30.928  1.00  0.00     0.074 A 
ATOM     55  C   UNL A   1      45.344  24.908  30.226  1.00  0.00     0.031 C 
ATOM     56  C   UNL A   1      45.478  26.657  31.976  1.00  0.00     0.034 A 
BRANCH  43  57
ATOM     57  C   UNL A   1      42.540  31.619  34.247  1.00  0.00     0.023 A 
ATOM     58  C   UNL A   1      41.907  31.534  35.499  1.00  0.00     0.031 A 
ATOM     59  C   UNL A   1      43.194  32.821  33.921  1.00  0.00     0.131 A 
ATOM     60  C   UNL A   1      41.886  32.648  36.351  1.00  0.00     0.055 A 
ATOM     61  C   UNL A   1      43.236  33.900  34.806  1.00  0.00     0.041 A 
ATOM     62  F   UNL A   1      43.798  32.969  32.732  1.00  0.00    -0.206 F 
ATOM     63  C   UNL A   1      42.569  33.822  36.025  1.00  0.00     0.022 A 
BRANCH  60  64
ATOM     64  S   UNL A   1      40.851  32.583  37.839  1.00  0.00     0.124 S 
ATOM     65  O   UNL A   1      40.654  34.003  38.122  1.00  0.00    -0.237 OA
ATOM     66  O   UNL A   1      39.676  31.855  37.375  1.00  0.00    -0.237 OA
ATOM     67  O   UNL A   1      41.685  31.872  38.806  1.00  0.00    -0.744 OA
ENDBRANCH  60  64
ENDBRANCH  43  57
BRANCH  44  68
ATOM     68  C   UNL A   1      42.332  24.375  27.320  1.00  0.00     0.023 A 
ATOM     69  C   UNL A   1      41.641  23.163  27.481  1.00  0.00     0.031 A 
ATOM     70  C   UNL A   1      43.100  24.544  26.154  1.00  0.00     0.131 A 
ATOM     71  C   UNL A   1      41.783  22.143  26.527  1.00  0.00     0.055 A 
ATOM     72  C   UNL A   1      43.187  23.549  25.176  1.00  0.00     0.041 A 
ATOM     73  F   UNL A   1      43.780  25.683  25.945  1.00  0.00    -0.206 F 
ATOM     74  C   UNL A   1      42.540  22.333  25.369  1.00  0.00     0.022 A 
BRANCH  71  75
ATOM     75  S   UNL A   1      41.056  20.519  26.880  1.00  0.00     0.124 S 
ATOM     76  O   UNL A   1      42.114  19.618  26.435  1.00  0.00    -0.237 OA
ATOM     77  O   UNL A   1      40.839  20.592  28.321  1.00  0.00    -0.237 OA
ATOM     78  O   UNL A   1      39.842  20.506  26.068  1.00  0.00    -0.744 OA
ENDBRANCH  71  75
ENDBRANCH  44  68
BRANCH  56  79
ATOM     79  C   UNL A   1      46.754  26.010  32.457  1.00  0.00     0.023 A 
ATOM     80  C   UNL A   1      46.756  25.025  33.458  1.00  0.00     0.031 A 
ATOM     81  C   UNL A   1      47.990  26.398  31.908  1.00  0.00     0.131 A 
ATOM     82  C   UNL A   1      47.972  24.500  33.921  1.00  0.00     0.055 A 
ATOM     83  C   UNL A   1      49.191  25.828  32.328  1.00  0.00     0.041 A 
ATOM     84  F   UNL A   1      48.047  27.338  30.951  1.00  0.00    -0.206 F 
ATOM     85  C   UNL A   1      49.189  24.883  33.349  1.00  0.00     0.022 A 
BRANCH  82  86
ATOM     86  S   UNL A   1      47.952  23.376  35.343  1.00  0.00     0.124 S 
ATOM     87  O   UNL A   1      49.350  23.386  35.759  1.00  0.00    -0.237 OA
ATOM     88  O   UNL A   1      47.013  24.033  36.247  1.00  0.00    -0.237 OA
ATOM     89  O   UNL A   1      47.482  22.113  34.776  1.00  0.00    -0.744 OA
ENDBRANCH  82  86
ENDBRANCH  56  79
ENDBRANCH  30  31
ENDBRANCH  22  25
ENDBRANCH  20  21
ENDBRANCH  19  20
ENDBRANCH   1  19
TORSDOF 17
ENDMDL
MODEL 3
REMARK VINA RESULT:     -10.8      4.144      9.224
REMARK SMILES CCc1ccc(S(=O)(=O)CC(=O)NCCCCNC(=O)c2ccc(-c3c4nc(c(-c5cc(S(=O)(=O)[O-])ccc5F)c5ccc([nH]5)c(-c5cc(S(=O)(=O)[O-])ccc5F)c5nc(c(-c6cc(S(=O)(=O)[O-])ccc6F)c6ccc3[nH]6)C=C5)C=C4)cc2)cc1
REMARK SMILES IDX 15 1 14 2 13 3 11 4 12 5 10 7 7 8 8 9 9 10 6 11 3 12 4 13
REMARK SMILES IDX 85 14 5 15 84 16 2 17 1 18 16 19 17 20 18 21 19 22 20 24
REMARK SMILES IDX 21 25 22 26 83 27 23 28 82 29 24 30 25 31 26 32 76 33 27 34
REMARK SMILES IDX 81 35 75 36 77 37 28 38 80 39 74 40 73 41 29 43 61 44 41 45
REMARK SMILES IDX 60 46 42 47 45 48 59 49 78 50 43 51 44 52 58 54 79 55 46 56
REMARK SMILES IDX 30 57 31 58 39 59 32 60 38 61 40 62 37 63 33 64 34 65 35 66
REMARK SMILES IDX 36 67 62 68 63 69 71 70 64 71 70 72 72 73 69 74 65 75 66 76
REMARK SMILES IDX 67 77 68 78 47 79 48 80 56 81 49 82 55 83 57 84 54 85 50 86
REMARK SMILES IDX 51 87 52 88 53 89
REMARK H PARENT 13 6 18 23 77 42 45 53
REMARK Flexibility Score: inf
ROOT
ATOM      1  C   UNL A   1      31.794  28.237  26.722  1.00  0.00     0.023 C 
ENDROOT
BRANCH   1   2
ATOM      2  C   UNL A   1      31.250  27.179  25.764  1.00  0.00     0.116 C 
BRANCH   2   3
ATOM      3  N   UNL A   1      30.785  26.014  26.494  1.00  0.00    -0.355 N 
ATOM      4  C   UNL A   1      30.713  24.716  26.100  1.00  0.00     0.235 C 
ATOM      5  O   UNL A   1      30.185  23.912  26.871  1.00  0.00    -0.274 OA
ATOM      6  H   UNL A   1      30.476  26.191  27.412  1.00  0.00     0.163 HD
BRANCH   4   7
ATOM      7  C   UNL A   1      31.356  24.241  24.840  1.00  0.00     0.241 C 
BRANCH   7   8
ATOM      8  S   UNL A   1      33.077  23.919  24.950  1.00  0.00     0.187 S 
ATOM      9  O   UNL A   1      33.471  24.191  26.324  1.00  0.00    -0.223 OA
ATOM     10  O   UNL A   1      33.727  24.651  23.876  1.00  0.00    -0.223 OA
BRANCH   8  11
ATOM     11  C   UNL A   1      33.429  22.202  24.689  1.00  0.00     0.067 A 
ATOM     12  C   UNL A   1      34.039  19.474  24.454  1.00  0.00    -0.048 A 
ATOM     13  C   UNL A   1      35.009  20.380  24.901  1.00  0.00     0.005 A 
ATOM     14  C   UNL A   1      32.770  19.959  24.103  1.00  0.00     0.005 A 
ATOM     15  C   UNL A   1      34.709  21.738  25.018  1.00  0.00     0.020 A 
ATOM     16  C   UNL A   1      32.457  21.315  24.236  1.00  0.00     0.020 A 
BRANCH  12  17
ATOM     17  C   UNL A   1      34.347  18.000  24.354  1.00  0.00     0.032 C 
ATOM     18  C   UNL A   1      33.499  17.290  23.305  1.00  0.00     0.009 C 
ENDBRANCH  12  17
ENDBRANCH   8  11
ENDBRANCH   7   8
ENDBRANCH   4   7
ENDBRANCH   2   3
ENDBRANCH   1   2
BRANCH   1  19
ATOM     19  C   UNL A   1      33.291  28.119  27.020  1.00  0.00     0.023 C 
BRANCH  19  20
ATOM     20  C   UNL A   1      34.174  29.178  26.368  1.00  0.00     0.116 C 
BRANCH  20  21
ATOM     21  N   UNL A   1      33.854  30.528  26.803  1.00  0.00    -0.352 N 
ATOM     22  C   UNL A   1      34.480  31.301  27.753  1.00  0.00     0.251 C 
ATOM     23  H   UNL A   1      33.084  30.947  26.356  1.00  0.00     0.163 HD
ATOM     24  O   UNL A   1      33.988  32.375  28.085  1.00  0.00    -0.269 OA
BRANCH  22  25
ATOM     25  C   UNL A   1      35.720  30.814  28.394  1.00  0.00     0.039 A 
ATOM     26  C   UNL A   1      35.626  29.827  29.379  1.00  0.00     0.014 A 
ATOM     27  C   UNL A   1      36.971  31.306  28.010  1.00  0.00     0.014 A 
ATOM     28  C   UNL A   1      36.791  29.285  29.928  1.00  0.00     0.010 A 
ATOM     29  C   UNL A   1      38.129  30.714  28.506  1.00  0.00     0.010 A 
ATOM     30  C   UNL A   1      38.052  29.694  29.467  1.00  0.00    -0.014 A 
BRANCH  30  31
ATOM     31  C   UNL A   1      39.301  29.067  29.977  1.00  0.00     0.031 A 
ATOM     32  C   UNL A   1      39.989  29.637  31.190  1.00  0.00     0.074 A 
ATOM     33  C   UNL A   1      39.849  28.031  29.311  1.00  0.00     0.049 A 
ATOM     34  N   UNL A   1      41.127  29.292  31.734  1.00  0.00    -0.248 NA
ATOM     35  C   UNL A   1      39.319  30.762  31.861  1.00  0.00     0.031 C 
ATOM     36  C   UNL A   1      39.297  27.417  28.100  1.00  0.00     0.029 A 
ATOM     37  N   UNL A   1      40.998  27.316  29.546  1.00  0.00    -0.354 N 
ATOM     38  C   UNL A   1      41.320  30.164  32.799  1.00  0.00     0.074 A 
ATOM     39  C   UNL A   1      40.206  31.090  32.789  1.00  0.00     0.031 C 
ATOM     40  C   UNL A   1      40.094  26.408  27.715  1.00  0.00     0.029 A 
ATOM     41  C   UNL A   1      41.240  26.331  28.615  1.00  0.00     0.049 A 
ATOM     42  H   UNL A   1      41.594  27.492  30.309  1.00  0.00     0.167 HD
ATOM     43  C   UNL A   1      42.321  30.180  33.713  1.00  0.00     0.034 A 
ATOM     44  C   UNL A   1      42.274  25.473  28.493  1.00  0.00     0.034 A 
ATOM     45  C   UNL A   1      43.412  29.236  33.723  1.00  0.00     0.049 A 
ATOM     46  C   UNL A   1      43.384  25.524  29.514  1.00  0.00     0.074 A 
ATOM     47  C   UNL A   1      44.445  29.125  34.637  1.00  0.00     0.029 A 
ATOM     48  N   UNL A   1      43.618  28.246  32.771  1.00  0.00    -0.354 N 
ATOM     49  N   UNL A   1      43.520  26.322  30.548  1.00  0.00    -0.248 NA
ATOM     50  C   UNL A   1      44.473  24.550  29.359  1.00  0.00     0.031 C 
ATOM     51  C   UNL A   1      45.309  28.115  34.203  1.00  0.00     0.029 A 
ATOM     52  C   UNL A   1      44.776  27.540  33.061  1.00  0.00     0.049 A 
ATOM     53  H   UNL A   1      43.027  28.070  32.003  1.00  0.00     0.167 HD
ATOM     54  C   UNL A   1      44.691  25.919  31.186  1.00  0.00     0.074 A 
ATOM     55  C   UNL A   1      45.211  24.799  30.430  1.00  0.00     0.031 C 
ATOM     56  C   UNL A   1      45.282  26.424  32.298  1.00  0.00     0.034 A 
BRANCH  43  57
ATOM     57  C   UNL A   1      42.295  31.264  34.763  1.00  0.00     0.023 A 
ATOM     58  C   UNL A   1      42.735  32.571  34.491  1.00  0.00     0.031 A 
ATOM     59  C   UNL A   1      41.820  30.985  36.058  1.00  0.00     0.131 A 
ATOM     60  C   UNL A   1      42.749  33.532  35.512  1.00  0.00     0.055 A 
ATOM     61  C   UNL A   1      41.764  31.968  37.048  1.00  0.00     0.041 A 
ATOM     62  F   UNL A   1      41.406  29.750  36.383  1.00  0.00    -0.206 F 
ATOM     63  C   UNL A   1      42.241  33.247  36.782  1.00  0.00     0.022 A 
BRANCH  60  64
ATOM     64  S   UNL A   1      43.552  35.126  35.192  1.00  0.00     0.124 S 
ATOM     65  O   UNL A   1      43.587  35.712  36.530  1.00  0.00    -0.237 OA
ATOM     66  O   UNL A   1      44.840  34.725  34.637  1.00  0.00    -0.237 OA
ATOM     67  O   UNL A   1      42.646  35.784  34.254  1.00  0.00    -0.744 OA
ENDBRANCH  60  64
ENDBRANCH  43  57
BRANCH  44  68
ATOM     68  C   UNL A   1      42.332  24.503  27.360  1.00  0.00     0.023 A 
ATOM     69  C   UNL A   1      41.539  23.344  27.358  1.00  0.00     0.031 A 
ATOM     70  C   UNL A   1      43.233  24.684  26.295  1.00  0.00     0.131 A 
ATOM     71  C   UNL A   1      41.709  22.381  26.352  1.00  0.00     0.055 A 
ATOM     72  C   UNL A   1      43.352  23.752  25.261  1.00  0.00     0.041 A 
ATOM     73  F   UNL A   1      44.015  25.775  26.242  1.00  0.00    -0.206 F 
ATOM     74  C   UNL A   1      42.600  22.583  25.296  1.00  0.00     0.022 A 
BRANCH  71  75
ATOM     75  S   UNL A   1      40.829  20.802  26.508  1.00  0.00     0.124 S 
ATOM     76  O   UNL A   1      40.857  20.588  27.950  1.00  0.00    -0.237 OA
ATOM     77  O   UNL A   1      39.527  21.123  25.931  1.00  0.00    -0.237 OA
ATOM     78  O   UNL A   1      41.646  19.879  25.723  1.00  0.00    -0.744 OA
ENDBRANCH  71  75
ENDBRANCH  44  68
BRANCH  56  79
ATOM     79  C   UNL A   1      46.527  25.730  32.793  1.00  0.00     0.023 A 
ATOM     80  C   UNL A   1      47.774  25.908  32.171  1.00  0.00     0.031 A 
ATOM     81  C   UNL A   1      46.458  24.865  33.900  1.00  0.00     0.131 A 
ATOM     82  C   UNL A   1      48.891  25.190  32.625  1.00  0.00     0.055 A 
ATOM     83  C   UNL A   1      47.584  24.202  34.387  1.00  0.00     0.041 A 
ATOM     84  F   UNL A   1      45.291  24.655  34.531  1.00  0.00    -0.206 F 
ATOM     85  C   UNL A   1      48.807  24.351  33.740  1.00  0.00     0.022 A 
BRANCH  82  86
ATOM     86  S   UNL A   1      50.437  25.295  31.683  1.00  0.00     0.124 S 
ATOM     87  O   UNL A   1      50.867  23.902  31.648  1.00  0.00    -0.237 OA
ATOM     88  O   UNL A   1      49.990  25.856  30.412  1.00  0.00    -0.237 OA
ATOM     89  O   UNL A   1      51.271  26.183  32.491  1.00  0.00    -0.744 OA
ENDBRANCH  82  86
ENDBRANCH  56  79
ENDBRANCH  30  31
ENDBRANCH  22  25
ENDBRANCH  20  21
ENDBRANCH  19  20
ENDBRANCH   1  19
TORSDOF 17
ENDMDL
