MODEL 1
REMARK VINA RESULT:     -12.3      0.000      0.000
REMARK SMILES CCCc1cc2c(cc1Cl)C=C(C(=O)NCCCCNC(=O)c1ccc(-c3c4nc(c(-c5cc(S(=O)(=O)[O-])ccc5F)c5ccc([nH]5)c(-c5cc(S(=O)(=O)[O-])ccc5F)c5nc(c(-c6cc(S(=O)(=O)[O-])ccc6F)c6ccc3[nH]6)C=C5)C=C4)cc1)[C@@H](C(F)(F)F)O2
REMARK SMILES IDX 18 1 17 2 16 3 15 4 13 5 14 6 12 8 4 9 5 10 9 11 6 12 8 13
REMARK SMILES IDX 10 14 7 15 91 16 11 17 86 18 3 19 2 20 1 21 87 22 88 23
REMARK SMILES IDX 89 24 90 25 19 26 20 27 21 28 22 30 23 31 24 32 85 33 25 34
REMARK SMILES IDX 84 35 26 36 27 37 28 38 78 39 29 40 83 41 77 42 79 43 30 44
REMARK SMILES IDX 82 45 76 46 75 47 31 49 63 50 43 51 62 52 44 53 47 54 61 55
REMARK SMILES IDX 80 56 45 57 46 58 60 60 81 61 48 62 32 63 33 64 41 65 34 66
REMARK SMILES IDX 40 67 42 68 39 69 35 70 36 71 37 72 38 73 64 74 65 75 73 76
REMARK SMILES IDX 66 77 72 78 74 79 71 80 67 81 68 82 69 83 70 84 49 85 50 86
REMARK SMILES IDX 58 87 51 88 57 89 59 90 56 91 52 92 53 93 54 94 55 95
REMARK H PARENT 15 7 20 29 79 48 47 59
REMARK Flexibility Score: inf
ROOT
ATOM      1  C   UNL A   1      31.368  29.940  26.547  1.00  0.00     0.023 C 
ENDROOT
BRANCH   1   2
ATOM      2  C   UNL A   1      31.823  28.826  27.494  1.00  0.00     0.023 C 
BRANCH   2   3
ATOM      3  C   UNL A   1      31.901  27.445  26.849  1.00  0.00     0.116 C 
BRANCH   3   4
ATOM      4  N   UNL A   1      32.781  27.428  25.694  1.00  0.00    -0.352 N 
ATOM      5  C   UNL A   1      33.264  26.498  24.838  1.00  0.00     0.251 C 
ATOM      6  O   UNL A   1      34.020  26.927  23.960  1.00  0.00    -0.270 OA
ATOM      7  H   UNL A   1      33.114  28.329  25.478  1.00  0.00     0.163 HD
BRANCH   5   8
ATOM      8  C   UNL A   1      32.953  25.039  24.886  1.00  0.00     0.067 C 
ATOM      9  C   UNL A   1      33.262  19.999  25.100  1.00  0.00    -0.026 A 
ATOM     10  C   UNL A   1      32.223  20.934  25.245  1.00  0.00     0.052 A 
ATOM     11  C   UNL A   1      34.577  20.489  24.988  1.00  0.00     0.045 A 
ATOM     12  C   UNL A   1      32.482  22.302  25.201  1.00  0.00     0.128 A 
ATOM     13  C   UNL A   1      34.834  21.867  24.980  1.00  0.00     0.032 A 
ATOM     14  Cl  UNL A   1      35.944  19.439  24.856  1.00  0.00    -0.084 Cl
ATOM     15  C   UNL A   1      33.783  22.780  25.073  1.00  0.00     0.019 A 
ATOM     16  O   UNL A   1      31.406  23.138  25.313  1.00  0.00    -0.475 OA
ATOM     17  C   UNL A   1      34.009  24.220  25.061  1.00  0.00     0.025 C 
ATOM     18  C   UNL A   1      31.580  24.452  24.707  1.00  0.00     0.314 C 
BRANCH   9  19
ATOM     19  C   UNL A   1      32.919  18.524  25.092  1.00  0.00     0.037 C 
BRANCH  19  20
ATOM     20  C   UNL A   1      32.603  17.938  23.706  1.00  0.00     0.001 C 
ATOM     21  C   UNL A   1      33.787  17.220  23.071  1.00  0.00     0.004 C 
ENDBRANCH  19  20
ENDBRANCH   9  19
BRANCH  18  22
ATOM     22  C   UNL A   1      31.146  24.397  23.228  1.00  0.00     0.429 C 
ATOM     23  F   UNL A   1      30.410  23.283  22.992  1.00  0.00    -0.167 F 
ATOM     24  F   UNL A   1      30.375  25.452  22.874  1.00  0.00    -0.167 F 
ATOM     25  F   UNL A   1      32.194  24.374  22.375  1.00  0.00    -0.167 F 
ENDBRANCH  18  22
ENDBRANCH   5   8
ENDBRANCH   3   4
ENDBRANCH   2   3
ENDBRANCH   1   2
BRANCH   1  26
ATOM     26  C   UNL A   1      32.428  30.988  26.212  1.00  0.00     0.116 C 
BRANCH  26  27
ATOM     27  N   UNL A   1      32.185  32.299  26.799  1.00  0.00    -0.352 N 
ATOM     28  C   UNL A   1      33.027  33.017  27.620  1.00  0.00     0.251 C 
ATOM     29  H   UNL A   1      31.320  32.720  26.585  1.00  0.00     0.163 HD
ATOM     30  O   UNL A   1      32.669  34.084  28.105  1.00  0.00    -0.269 OA
BRANCH  28  31
ATOM     31  C   UNL A   1      34.344  32.434  27.948  1.00  0.00     0.039 A 
ATOM     32  C   UNL A   1      34.432  31.095  28.331  1.00  0.00     0.014 A 
ATOM     33  C   UNL A   1      35.463  33.267  28.000  1.00  0.00     0.014 A 
ATOM     34  C   UNL A   1      35.594  30.639  28.939  1.00  0.00     0.010 A 
ATOM     35  C   UNL A   1      36.656  32.780  28.539  1.00  0.00     0.010 A 
ATOM     36  C   UNL A   1      36.711  31.482  29.069  1.00  0.00    -0.014 A 
BRANCH  36  37
ATOM     37  C   UNL A   1      37.915  30.982  29.782  1.00  0.00     0.031 A 
ATOM     38  C   UNL A   1      38.187  31.377  31.209  1.00  0.00     0.074 A 
ATOM     39  C   UNL A   1      38.723  30.105  29.156  1.00  0.00     0.049 A 
ATOM     40  N   UNL A   1      39.151  30.981  31.999  1.00  0.00    -0.248 NA
ATOM     41  C   UNL A   1      37.262  32.338  31.830  1.00  0.00     0.031 C 
ATOM     42  C   UNL A   1      38.543  29.649  27.779  1.00  0.00     0.029 A 
ATOM     43  N   UNL A   1      39.825  29.418  29.596  1.00  0.00    -0.354 N 
ATOM     44  C   UNL A   1      38.961  31.654  33.201  1.00  0.00     0.074 A 
ATOM     45  C   UNL A   1      37.807  32.508  33.028  1.00  0.00     0.031 C 
ATOM     46  C   UNL A   1      39.457  28.709  27.507  1.00  0.00     0.029 A 
ATOM     47  C   UNL A   1      40.333  28.544  28.664  1.00  0.00     0.049 A 
ATOM     48  H   UNL A   1      40.214  29.538  30.493  1.00  0.00     0.167 HD
ATOM     49  C   UNL A   1      39.678  31.556  34.347  1.00  0.00     0.034 A 
ATOM     50  C   UNL A   1      41.387  27.705  28.727  1.00  0.00     0.034 A 
ATOM     51  C   UNL A   1      40.813  30.685  34.512  1.00  0.00     0.049 A 
ATOM     52  C   UNL A   1      42.178  27.629  30.005  1.00  0.00     0.074 A 
ATOM     53  C   UNL A   1      41.592  30.501  35.642  1.00  0.00     0.029 A 
ATOM     54  N   UNL A   1      41.329  29.849  33.532  1.00  0.00    -0.354 N 
ATOM     55  N   UNL A   1      41.966  28.252  31.142  1.00  0.00    -0.248 NA
ATOM     56  C   UNL A   1      43.350  26.744  30.016  1.00  0.00     0.031 C 
ATOM     57  C   UNL A   1      42.605  29.591  35.331  1.00  0.00     0.029 A 
ATOM     58  C   UNL A   1      42.427  29.163  34.024  1.00  0.00     0.049 A 
ATOM     59  H   UNL A   1      40.966  29.757  32.621  1.00  0.00     0.167 HD
ATOM     60  C   UNL A   1      42.974  27.830  32.003  1.00  0.00     0.074 A 
ATOM     61  C   UNL A   1      43.775  26.874  31.266  1.00  0.00     0.031 C 
ATOM     62  C   UNL A   1      43.217  28.209  33.282  1.00  0.00     0.034 A 
BRANCH  49  63
ATOM     63  C   UNL A   1      39.265  32.397  35.529  1.00  0.00     0.023 A 
ATOM     64  C   UNL A   1      39.748  33.712  35.663  1.00  0.00     0.031 A 
ATOM     65  C   UNL A   1      38.495  31.860  36.576  1.00  0.00     0.131 A 
ATOM     66  C   UNL A   1      39.478  34.438  36.831  1.00  0.00     0.055 A 
ATOM     67  C   UNL A   1      38.203  32.599  37.724  1.00  0.00     0.041 A 
ATOM     68  F   UNL A   1      38.009  30.611  36.493  1.00  0.00    -0.206 F 
ATOM     69  C   UNL A   1      38.704  33.890  37.859  1.00  0.00     0.022 A 
BRANCH  66  70
ATOM     70  S   UNL A   1      40.160  36.100  37.085  1.00  0.00     0.124 S 
ATOM     71  O   UNL A   1      41.568  35.806  37.348  1.00  0.00    -0.237 OA
ATOM     72  O   UNL A   1      39.886  36.742  35.802  1.00  0.00    -0.237 OA
ATOM     73  O   UNL A   1      39.411  36.617  38.223  1.00  0.00    -0.744 OA
ENDBRANCH  66  70
ENDBRANCH  49  63
BRANCH  50  74
ATOM     74  C   UNL A   1      41.696  26.846  27.547  1.00  0.00     0.023 A 
ATOM     75  C   UNL A   1      41.307  25.494  27.519  1.00  0.00     0.031 A 
ATOM     76  C   UNL A   1      42.502  27.326  26.503  1.00  0.00     0.131 A 
ATOM     77  C   UNL A   1      41.797  24.649  26.516  1.00  0.00     0.055 A 
ATOM     78  C   UNL A   1      42.927  26.496  25.463  1.00  0.00     0.041 A 
ATOM     79  F   UNL A   1      42.907  28.604  26.493  1.00  0.00    -0.206 F 
ATOM     80  C   UNL A   1      42.593  25.145  25.479  1.00  0.00     0.022 A 
BRANCH  77  81
ATOM     81  S   UNL A   1      41.555  22.854  26.617  1.00  0.00     0.124 S 
ATOM     82  O   UNL A   1      42.210  22.530  27.880  1.00  0.00    -0.237 OA
ATOM     83  O   UNL A   1      40.097  22.747  26.615  1.00  0.00    -0.237 OA
ATOM     84  O   UNL A   1      42.213  22.349  25.417  1.00  0.00    -0.744 OA
ENDBRANCH  77  81
ENDBRANCH  50  74
BRANCH  62  85
ATOM     85  C   UNL A   1      44.407  27.614  33.991  1.00  0.00     0.023 A 
ATOM     86  C   UNL A   1      44.255  26.460  34.784  1.00  0.00     0.031 A 
ATOM     87  C   UNL A   1      45.650  28.269  33.997  1.00  0.00     0.131 A 
ATOM     88  C   UNL A   1      45.320  26.018  35.578  1.00  0.00     0.055 A 
ATOM     89  C   UNL A   1      46.719  27.802  34.761  1.00  0.00     0.041 A 
ATOM     90  F   UNL A   1      45.838  29.377  33.263  1.00  0.00    -0.206 F 
ATOM     91  C   UNL A   1      46.553  26.679  35.566  1.00  0.00     0.022 A 
BRANCH  88  92
ATOM     92  S   UNL A   1      45.121  24.620  36.717  1.00  0.00     0.124 S 
ATOM     93  O   UNL A   1      46.498  24.378  37.140  1.00  0.00    -0.237 OA
ATOM     94  O   UNL A   1      44.242  25.179  37.741  1.00  0.00    -0.237 OA
ATOM     95  O   UNL A   1      44.531  23.572  35.890  1.00  0.00    -0.744 OA
ENDBRANCH  88  92
ENDBRANCH  62  85
ENDBRANCH  36  37
ENDBRANCH  28  31
ENDBRANCH  26  27
ENDBRANCH   1  26
TORSDOF 17
ENDMDL
MODEL 2
REMARK VINA RESULT:     -12.1      5.038     10.152
REMARK SMILES CCCc1cc2c(cc1Cl)C=C(C(=O)NCCCCNC(=O)c1ccc(-c3c4nc(c(-c5cc(S(=O)(=O)[O-])ccc5F)c5ccc([nH]5)c(-c5cc(S(=O)(=O)[O-])ccc5F)c5nc(c(-c6cc(S(=O)(=O)[O-])ccc6F)c6ccc3[nH]6)C=C5)C=C4)cc1)[C@@H](C(F)(F)F)O2
REMARK SMILES IDX 18 1 17 2 16 3 15 4 13 5 14 6 12 8 4 9 5 10 9 11 6 12 8 13
REMARK SMILES IDX 10 14 7 15 91 16 11 17 86 18 3 19 2 20 1 21 87 22 88 23
REMARK SMILES IDX 89 24 90 25 19 26 20 27 21 28 22 30 23 31 24 32 85 33 25 34
REMARK SMILES IDX 84 35 26 36 27 37 28 38 78 39 29 40 83 41 77 42 79 43 30 44
REMARK SMILES IDX 82 45 76 46 75 47 31 49 63 50 43 51 62 52 44 53 47 54 61 55
REMARK SMILES IDX 80 56 45 57 46 58 60 60 81 61 48 62 32 63 33 64 41 65 34 66
REMARK SMILES IDX 40 67 42 68 39 69 35 70 36 71 37 72 38 73 64 74 65 75 73 76
REMARK SMILES IDX 66 77 72 78 74 79 71 80 67 81 68 82 69 83 70 84 49 85 50 86
REMARK SMILES IDX 58 87 51 88 57 89 59 90 56 91 52 92 53 93 54 94 55 95
REMARK H PARENT 15 7 20 29 79 48 47 59
REMARK Flexibility Score: inf
ROOT
ATOM      1  C   UNL A   1      35.698  21.822  25.706  1.00  0.00     0.023 C 
ENDROOT
BRANCH   1   2
ATOM      2  C   UNL A   1      35.079  20.484  25.292  1.00  0.00     0.023 C 
BRANCH   2   3
ATOM      3  C   UNL A   1      33.571  20.395  25.510  1.00  0.00     0.116 C 
BRANCH   3   4
ATOM      4  N   UNL A   1      32.824  20.672  24.296  1.00  0.00    -0.352 N 
ATOM      5  C   UNL A   1      32.479  21.768  23.581  1.00  0.00     0.251 C 
ATOM      6  O   UNL A   1      31.806  21.550  22.568  1.00  0.00    -0.270 OA
ATOM      7  H   UNL A   1      32.476  19.847  23.887  1.00  0.00     0.163 HD
BRANCH   5   8
ATOM      8  C   UNL A   1      32.849  23.173  23.924  1.00  0.00     0.067 C 
ATOM      9  C   UNL A   1      33.173  27.735  26.072  1.00  0.00    -0.026 A 
ATOM     10  C   UNL A   1      33.942  27.026  25.134  1.00  0.00     0.052 A 
ATOM     11  C   UNL A   1      32.118  27.054  26.708  1.00  0.00     0.045 A 
ATOM     12  C   UNL A   1      33.619  25.715  24.790  1.00  0.00     0.128 A 
ATOM     13  C   UNL A   1      31.821  25.723  26.383  1.00  0.00     0.032 A 
ATOM     14  Cl  UNL A   1      31.132  27.801  27.916  1.00  0.00    -0.084 Cl
ATOM     15  C   UNL A   1      32.564  25.053  25.410  1.00  0.00     0.019 A 
ATOM     16  O   UNL A   1      34.400  25.116  23.841  1.00  0.00    -0.475 OA
ATOM     17  C   UNL A   1      32.281  23.671  25.040  1.00  0.00     0.025 C 
ATOM     18  C   UNL A   1      33.751  24.045  23.095  1.00  0.00     0.314 C 
BRANCH   9  19
ATOM     19  C   UNL A   1      33.528  29.178  26.364  1.00  0.00     0.037 C 
BRANCH  19  20
ATOM     20  C   UNL A   1      32.579  30.218  25.746  1.00  0.00     0.001 C 
ATOM     21  C   UNL A   1      31.961  31.156  26.774  1.00  0.00     0.004 C 
ENDBRANCH  19  20
ENDBRANCH   9  19
BRANCH  18  22
ATOM     22  C   UNL A   1      33.036  24.638  21.864  1.00  0.00     0.429 C 
ATOM     23  F   UNL A   1      33.168  23.810  20.797  1.00  0.00    -0.167 F 
ATOM     24  F   UNL A   1      31.707  24.802  22.063  1.00  0.00    -0.167 F 
ATOM     25  F   UNL A   1      33.530  25.843  21.500  1.00  0.00    -0.167 F 
ENDBRANCH  18  22
ENDBRANCH   5   8
ENDBRANCH   3   4
ENDBRANCH   2   3
ENDBRANCH   1   2
BRANCH   1  26
ATOM     26  C   UNL A   1      37.069  22.123  25.105  1.00  0.00     0.116 C 
BRANCH  26  27
ATOM     27  N   UNL A   1      38.036  21.042  25.240  1.00  0.00    -0.352 N 
ATOM     28  C   UNL A   1      39.234  21.071  25.922  1.00  0.00     0.251 C 
ATOM     29  H   UNL A   1      37.809  20.194  24.794  1.00  0.00     0.163 HD
ATOM     30  O   UNL A   1      39.992  20.109  25.898  1.00  0.00    -0.269 OA
BRANCH  28  31
ATOM     31  C   UNL A   1      39.604  22.316  26.626  1.00  0.00     0.039 A 
ATOM     32  C   UNL A   1      39.082  23.537  26.195  1.00  0.00     0.014 A 
ATOM     33  C   UNL A   1      40.577  22.268  27.626  1.00  0.00     0.014 A 
ATOM     34  C   UNL A   1      39.665  24.717  26.636  1.00  0.00     0.010 A 
ATOM     35  C   UNL A   1      41.105  23.461  28.126  1.00  0.00     0.010 A 
ATOM     36  C   UNL A   1      40.698  24.692  27.589  1.00  0.00    -0.014 A 
BRANCH  36  37
ATOM     37  C   UNL A   1      41.343  25.969  27.990  1.00  0.00     0.031 A 
ATOM     38  C   UNL A   1      42.739  26.303  27.541  1.00  0.00     0.074 A 
ATOM     39  C   UNL A   1      40.628  26.861  28.702  1.00  0.00     0.049 A 
ATOM     40  N   UNL A   1      43.426  27.398  27.743  1.00  0.00    -0.248 NA
ATOM     41  C   UNL A   1      43.460  25.280  26.767  1.00  0.00     0.031 C 
ATOM     42  C   UNL A   1      39.263  26.641  29.178  1.00  0.00     0.029 A 
ATOM     43  N   UNL A   1      40.927  28.134  29.116  1.00  0.00    -0.354 N 
ATOM     44  C   UNL A   1      44.661  27.192  27.139  1.00  0.00     0.074 A 
ATOM     45  C   UNL A   1      44.643  25.855  26.588  1.00  0.00     0.031 C 
ATOM     46  C   UNL A   1      38.817  27.762  29.759  1.00  0.00     0.029 A 
ATOM     47  C   UNL A   1      39.885  28.758  29.762  1.00  0.00     0.049 A 
ATOM     48  H   UNL A   1      41.802  28.560  28.966  1.00  0.00     0.167 HD
ATOM     49  C   UNL A   1      45.708  28.047  27.044  1.00  0.00     0.034 A 
ATOM     50  C   UNL A   1      39.796  29.991  30.300  1.00  0.00     0.034 A 
ATOM     51  C   UNL A   1      45.704  29.384  27.579  1.00  0.00     0.049 A 
ATOM     52  C   UNL A   1      40.979  30.916  30.196  1.00  0.00     0.074 A 
ATOM     53  C   UNL A   1      46.710  30.334  27.515  1.00  0.00     0.029 A 
ATOM     54  N   UNL A   1      44.650  29.967  28.268  1.00  0.00    -0.354 N 
ATOM     55  N   UNL A   1      42.130  30.715  29.595  1.00  0.00    -0.248 NA
ATOM     56  C   UNL A   1      40.862  32.229  30.841  1.00  0.00     0.031 C 
ATOM     57  C   UNL A   1      46.282  31.471  28.204  1.00  0.00     0.029 A 
ATOM     58  C   UNL A   1      44.988  31.254  28.652  1.00  0.00     0.049 A 
ATOM     59  H   UNL A   1      43.788  29.529  28.455  1.00  0.00     0.167 HD
ATOM     60  C   UNL A   1      42.869  31.877  29.785  1.00  0.00     0.074 A 
ATOM     61  C   UNL A   1      42.024  32.789  30.528  1.00  0.00     0.031 C 
ATOM     62  C   UNL A   1      44.136  32.157  29.389  1.00  0.00     0.034 A 
BRANCH  49  63
ATOM     63  C   UNL A   1      46.952  27.586  26.326  1.00  0.00     0.023 A 
ATOM     64  C   UNL A   1      47.119  27.857  24.956  1.00  0.00     0.031 A 
ATOM     65  C   UNL A   1      47.910  26.780  26.968  1.00  0.00     0.131 A 
ATOM     66  C   UNL A   1      48.205  27.305  24.263  1.00  0.00     0.055 A 
ATOM     67  C   UNL A   1      49.007  26.259  26.280  1.00  0.00     0.041 A 
ATOM     68  F   UNL A   1      47.797  26.497  28.275  1.00  0.00    -0.206 F 
ATOM     69  C   UNL A   1      49.152  26.511  24.919  1.00  0.00     0.022 A 
BRANCH  66  70
ATOM     70  S   UNL A   1      48.404  27.550  22.477  1.00  0.00     0.124 S 
ATOM     71  O   UNL A   1      47.210  28.327  22.148  1.00  0.00    -0.237 OA
ATOM     72  O   UNL A   1      49.665  28.285  22.408  1.00  0.00    -0.237 OA
ATOM     73  O   UNL A   1      48.433  26.196  21.937  1.00  0.00    -0.744 OA
ENDBRANCH  66  70
ENDBRANCH  49  63
BRANCH  50  74
ATOM     74  C   UNL A   1      38.511  30.412  30.929  1.00  0.00     0.023 A 
ATOM     75  C   UNL A   1      37.489  30.998  30.159  1.00  0.00     0.031 A 
ATOM     76  C   UNL A   1      38.345  30.363  32.323  1.00  0.00     0.131 A 
ATOM     77  C   UNL A   1      36.390  31.590  30.794  1.00  0.00     0.055 A 
ATOM     78  C   UNL A   1      37.211  30.887  32.946  1.00  0.00     0.041 A 
ATOM     79  F   UNL A   1      39.297  29.825  33.099  1.00  0.00    -0.206 F 
ATOM     80  C   UNL A   1      36.238  31.525  32.182  1.00  0.00     0.022 A 
BRANCH  77  81
ATOM     81  S   UNL A   1      35.213  32.603  29.855  1.00  0.00     0.124 S 
ATOM     82  O   UNL A   1      34.762  31.670  28.828  1.00  0.00    -0.237 OA
ATOM     83  O   UNL A   1      34.227  32.943  30.879  1.00  0.00    -0.237 OA
ATOM     84  O   UNL A   1      36.023  33.721  29.382  1.00  0.00    -0.744 OA
ENDBRANCH  77  81
ENDBRANCH  50  74
BRANCH  62  85
ATOM     85  C   UNL A   1      44.719  33.498  29.753  1.00  0.00     0.023 A 
ATOM     86  C   UNL A   1      44.682  34.561  28.830  1.00  0.00     0.031 A 
ATOM     87  C   UNL A   1      45.436  33.677  30.949  1.00  0.00     0.131 A 
ATOM     88  C   UNL A   1      45.380  35.744  29.104  1.00  0.00     0.055 A 
ATOM     89  C   UNL A   1      46.097  34.872  31.233  1.00  0.00     0.041 A 
ATOM     90  F   UNL A   1      45.506  32.689  31.854  1.00  0.00    -0.206 F 
ATOM     91  C   UNL A   1      46.082  35.907  30.303  1.00  0.00     0.022 A 
BRANCH  88  92
ATOM     92  S   UNL A   1      45.470  37.081  27.882  1.00  0.00     0.124 S 
ATOM     93  O   UNL A   1      46.766  37.682  28.189  1.00  0.00    -0.237 OA
ATOM     94  O   UNL A   1      45.406  36.349  26.619  1.00  0.00    -0.237 OA
ATOM     95  O   UNL A   1      44.311  37.914  28.183  1.00  0.00    -0.744 OA
ENDBRANCH  88  92
ENDBRANCH  62  85
ENDBRANCH  36  37
ENDBRANCH  28  31
ENDBRANCH  26  27
ENDBRANCH   1  26
TORSDOF 17
ENDMDL
MODEL 3
REMARK VINA RESULT:     -12.0      1.830      2.395
REMARK SMILES CCCc1cc2c(cc1Cl)C=C(C(=O)NCCCCNC(=O)c1ccc(-c3c4nc(c(-c5cc(S(=O)(=O)[O-])ccc5F)c5ccc([nH]5)c(-c5cc(S(=O)(=O)[O-])ccc5F)c5nc(c(-c6cc(S(=O)(=O)[O-])ccc6F)c6ccc3[nH]6)C=C5)C=C4)cc1)[C@@H](C(F)(F)F)O2
REMARK SMILES IDX 18 1 17 2 16 3 15 4 13 5 14 6 12 8 4 9 5 10 9 11 6 12 8 13
REMARK SMILES IDX 10 14 7 15 91 16 11 17 86 18 3 19 2 20 1 21 87 22 88 23
REMARK SMILES IDX 89 24 90 25 19 26 20 27 21 28 22 30 23 31 24 32 85 33 25 34
REMARK SMILES IDX 84 35 26 36 27 37 28 38 78 39 29 40 83 41 77 42 79 43 30 44
REMARK SMILES IDX 82 45 76 46 75 47 31 49 63 50 43 51 62 52 44 53 47 54 61 55
REMARK SMILES IDX 80 56 45 57 46 58 60 60 81 61 48 62 32 63 33 64 41 65 34 66
REMARK SMILES IDX 40 67 42 68 39 69 35 70 36 71 37 72 38 73 64 74 65 75 73 76
REMARK SMILES IDX 66 77 72 78 74 79 71 80 67 81 68 82 69 83 70 84 49 85 50 86
REMARK SMILES IDX 58 87 51 88 57 89 59 90 56 91 52 92 53 93 54 94 55 95
REMARK H PARENT 15 7 20 29 79 48 47 59
REMARK Flexibility Score: inf
ROOT
ATOM      1  C   UNL A   1      31.453  31.994  27.070  1.00  0.00     0.023 C 
ENDROOT
BRANCH   1   2
ATOM      2  C   UNL A   1      31.002  31.310  25.777  1.00  0.00     0.023 C 
BRANCH   2   3
ATOM      3  C   UNL A   1      31.843  30.100  25.380  1.00  0.00     0.116 C 
BRANCH   3   4
ATOM      4  N   UNL A   1      31.339  29.451  24.183  1.00  0.00    -0.352 N 
ATOM      5  C   UNL A   1      31.365  28.206  23.652  1.00  0.00     0.251 C 
ATOM      6  O   UNL A   1      30.791  28.081  22.566  1.00  0.00    -0.270 OA
ATOM      7  H   UNL A   1      30.851  30.082  23.606  1.00  0.00     0.163 HD
BRANCH   5   8
ATOM      8  C   UNL A   1      32.020  27.018  24.275  1.00  0.00     0.067 C 
ATOM      9  C   UNL A   1      35.039  23.093  25.281  1.00  0.00    -0.026 A 
ATOM     10  C   UNL A   1      34.086  23.822  26.012  1.00  0.00     0.052 A 
ATOM     11  C   UNL A   1      35.392  23.568  24.004  1.00  0.00     0.045 A 
ATOM     12  C   UNL A   1      33.455  24.932  25.457  1.00  0.00     0.128 A 
ATOM     13  C   UNL A   1      34.779  24.708  23.465  1.00  0.00     0.032 A 
ATOM     14  Cl  UNL A   1      36.589  22.790  23.028  1.00  0.00    -0.084 Cl
ATOM     15  C   UNL A   1      33.796  25.387  24.186  1.00  0.00     0.019 A 
ATOM     16  O   UNL A   1      32.514  25.557  26.226  1.00  0.00    -0.475 OA
ATOM     17  C   UNL A   1      33.130  26.571  23.657  1.00  0.00     0.025 C 
ATOM     18  C   UNL A   1      31.498  26.290  25.483  1.00  0.00     0.314 C 
BRANCH   9  19
ATOM     19  C   UNL A   1      35.650  21.856  25.907  1.00  0.00     0.037 C 
BRANCH  19  20
ATOM     20  C   UNL A   1      35.357  20.542  25.166  1.00  0.00     0.001 C 
ATOM     21  C   UNL A   1      33.874  20.308  24.916  1.00  0.00     0.004 C 
ENDBRANCH  19  20
ENDBRANCH   9  19
BRANCH  18  22
ATOM     22  C   UNL A   1      30.325  25.347  25.147  1.00  0.00     0.429 C 
ATOM     23  F   UNL A   1      29.140  25.974  25.351  1.00  0.00    -0.167 F 
ATOM     24  F   UNL A   1      30.333  24.948  23.853  1.00  0.00    -0.167 F 
ATOM     25  F   UNL A   1      30.322  24.226  25.903  1.00  0.00    -0.167 F 
ENDBRANCH  18  22
ENDBRANCH   5   8
ENDBRANCH   3   4
ENDBRANCH   2   3
ENDBRANCH   1   2
BRANCH   1  26
ATOM     26  C   UNL A   1      32.594  32.998  26.917  1.00  0.00     0.116 C 
BRANCH  26  27
ATOM     27  N   UNL A   1      32.493  34.161  27.789  1.00  0.00    -0.352 N 
ATOM     28  C   UNL A   1      33.353  34.523  28.804  1.00  0.00     0.251 C 
ATOM     29  H   UNL A   1      31.724  34.757  27.636  1.00  0.00     0.163 HD
ATOM     30  O   UNL A   1      33.113  35.494  29.512  1.00  0.00    -0.269 OA
BRANCH  28  31
ATOM     31  C   UNL A   1      34.533  33.671  29.053  1.00  0.00     0.039 A 
ATOM     32  C   UNL A   1      34.396  32.495  29.793  1.00  0.00     0.014 A 
ATOM     33  C   UNL A   1      35.794  34.123  28.659  1.00  0.00     0.014 A 
ATOM     34  C   UNL A   1      35.530  31.873  30.295  1.00  0.00     0.010 A 
ATOM     35  C   UNL A   1      36.934  33.446  29.100  1.00  0.00     0.010 A 
ATOM     36  C   UNL A   1      36.811  32.354  29.972  1.00  0.00    -0.014 A 
BRANCH  36  37
ATOM     37  C   UNL A   1      38.002  31.703  30.578  1.00  0.00     0.031 A 
ATOM     38  C   UNL A   1      38.403  31.996  31.998  1.00  0.00     0.074 A 
ATOM     39  C   UNL A   1      38.676  30.785  29.859  1.00  0.00     0.049 A 
ATOM     40  N   UNL A   1      39.370  31.469  32.702  1.00  0.00    -0.248 NA
ATOM     41  C   UNL A   1      37.622  33.011  32.723  1.00  0.00     0.031 C 
ATOM     42  C   UNL A   1      38.363  30.419  28.478  1.00  0.00     0.029 A 
ATOM     43  N   UNL A   1      39.729  29.972  30.192  1.00  0.00    -0.354 N 
ATOM     44  C   UNL A   1      39.327  32.096  33.943  1.00  0.00     0.074 A 
ATOM     45  C   UNL A   1      38.256  33.065  33.887  1.00  0.00     0.031 C 
ATOM     46  C   UNL A   1      39.158  29.409  28.103  1.00  0.00     0.029 A 
ATOM     47  C   UNL A   1      40.086  29.101  29.189  1.00  0.00     0.049 A 
ATOM     48  H   UNL A   1      40.185  30.007  31.064  1.00  0.00     0.167 HD
ATOM     49  C   UNL A   1      40.103  31.870  35.031  1.00  0.00     0.034 A 
ATOM     50  C   UNL A   1      41.052  28.161  29.142  1.00  0.00     0.034 A 
ATOM     51  C   UNL A   1      41.152  30.885  35.079  1.00  0.00     0.049 A 
ATOM     52  C   UNL A   1      41.911  27.943  30.358  1.00  0.00     0.074 A 
ATOM     53  C   UNL A   1      41.979  30.569  36.143  1.00  0.00     0.029 A 
ATOM     54  N   UNL A   1      41.517  30.054  34.030  1.00  0.00    -0.354 N 
ATOM     55  N   UNL A   1      41.836  28.525  31.533  1.00  0.00    -0.248 NA
ATOM     56  C   UNL A   1      42.986  26.949  30.249  1.00  0.00     0.031 C 
ATOM     57  C   UNL A   1      42.873  29.581  35.724  1.00  0.00     0.029 A 
ATOM     58  C   UNL A   1      42.570  29.240  34.414  1.00  0.00     0.049 A 
ATOM     59  H   UNL A   1      41.090  30.044  33.143  1.00  0.00     0.167 HD
ATOM     60  C   UNL A   1      42.849  27.964  32.304  1.00  0.00     0.074 A 
ATOM     61  C   UNL A   1      43.501  26.973  31.472  1.00  0.00     0.031 C 
ATOM     62  C   UNL A   1      43.211  28.252  33.579  1.00  0.00     0.034 A 
BRANCH  49  63
ATOM     63  C   UNL A   1      39.853  32.686  36.275  1.00  0.00     0.023 A 
ATOM     64  C   UNL A   1      38.902  32.261  37.220  1.00  0.00     0.031 A 
ATOM     65  C   UNL A   1      40.467  33.938  36.464  1.00  0.00     0.131 A 
ATOM     66  C   UNL A   1      38.571  33.091  38.299  1.00  0.00     0.055 A 
ATOM     67  C   UNL A   1      40.157  34.748  37.558  1.00  0.00     0.041 A 
ATOM     68  F   UNL A   1      41.384  34.386  35.591  1.00  0.00    -0.206 F 
ATOM     69  C   UNL A   1      39.198  34.330  38.475  1.00  0.00     0.022 A 
BRANCH  66  70
ATOM     70  S   UNL A   1      37.283  32.623  39.487  1.00  0.00     0.124 S 
ATOM     71  O   UNL A   1      37.720  31.287  39.889  1.00  0.00    -0.237 OA
ATOM     72  O   UNL A   1      37.418  33.658  40.508  1.00  0.00    -0.237 OA
ATOM     73  O   UNL A   1      36.053  32.664  38.705  1.00  0.00    -0.744 OA
ENDBRANCH  66  70
ENDBRANCH  49  63
BRANCH  50  74
ATOM     74  C   UNL A   1      41.196  27.337  27.907  1.00  0.00     0.023 A 
ATOM     75  C   UNL A   1      40.786  25.991  27.887  1.00  0.00     0.031 A 
ATOM     76  C   UNL A   1      41.872  27.841  26.784  1.00  0.00     0.131 A 
ATOM     77  C   UNL A   1      41.133  25.174  26.804  1.00  0.00     0.055 A 
ATOM     78  C   UNL A   1      42.149  27.041  25.674  1.00  0.00     0.041 A 
ATOM     79  F   UNL A   1      42.292  29.114  26.762  1.00  0.00    -0.206 F 
ATOM     80  C   UNL A   1      41.799  25.694  25.691  1.00  0.00     0.022 A 
BRANCH  77  81
ATOM     81  S   UNL A   1      40.877  23.378  26.881  1.00  0.00     0.124 S 
ATOM     82  O   UNL A   1      39.450  23.263  26.603  1.00  0.00    -0.237 OA
ATOM     83  O   UNL A   1      41.769  22.903  25.825  1.00  0.00    -0.237 OA
ATOM     84  O   UNL A   1      41.287  23.031  28.238  1.00  0.00    -0.744 OA
ENDBRANCH  77  81
ENDBRANCH  50  74
BRANCH  62  85
ATOM     85  C   UNL A   1      44.378  27.508  34.177  1.00  0.00     0.023 A 
ATOM     86  C   UNL A   1      44.161  26.336  34.927  1.00  0.00     0.031 A 
ATOM     87  C   UNL A   1      45.678  28.038  34.126  1.00  0.00     0.131 A 
ATOM     88  C   UNL A   1      45.225  25.752  35.626  1.00  0.00     0.055 A 
ATOM     89  C   UNL A   1      46.742  27.430  34.793  1.00  0.00     0.041 A 
ATOM     90  F   UNL A   1      45.930  29.158  33.431  1.00  0.00    -0.206 F 
ATOM     91  C   UNL A   1      46.515  26.290  35.558  1.00  0.00     0.022 A 
BRANCH  88  92
ATOM     92  S   UNL A   1      44.959  24.324  36.712  1.00  0.00     0.124 S 
ATOM     93  O   UNL A   1      44.175  24.912  37.795  1.00  0.00    -0.237 OA
ATOM     94  O   UNL A   1      44.229  23.406  35.841  1.00  0.00    -0.237 OA
ATOM     95  O   UNL A   1      46.307  23.902  37.077  1.00  0.00    -0.744 OA
ENDBRANCH  88  92
ENDBRANCH  62  85
ENDBRANCH  36  37
ENDBRANCH  28  31
ENDBRANCH  26  27
ENDBRANCH   1  26
TORSDOF 17
ENDMDL
