MODEL 1
REMARK VINA RESULT:     -13.3      0.000      0.000
REMARK SMILES CC1=Nc2nc(NC(=O)CCC(=O)NCCCCNC(=O)c3ccc(-c4c5nc(c(-c6cc(S(=O)(=O)[O-])ccc6F)c6ccc([nH]6)c(-c6cc(S(=O)(=O)[O-])ccc6F)c6nc(c(-c7cc(S(=O)(=O)[O-])ccc7F)c7ccc4[nH]7)C=C6)C=C5)cc3)nn2[C@@H](c2ccc(Cl)cc2)C1
REMARK SMILES IDX 16 1 15 2 14 3 12 4 13 5 11 7 10 8 8 9 7 10 9 12 6 13 1 14
REMARK SMILES IDX 2 15 3 16 95 17 4 18 87 19 5 20 86 21 85 22 88 23 89 24
REMARK SMILES IDX 94 25 90 26 93 27 91 28 92 29 17 30 18 31 19 32 20 33 21 35
REMARK SMILES IDX 22 36 23 37 84 38 24 39 83 40 25 41 26 42 27 43 77 44 28 45
REMARK SMILES IDX 82 46 76 47 78 48 29 49 81 50 75 51 74 52 30 54 62 55 42 56
REMARK SMILES IDX 61 57 43 58 46 59 60 60 79 61 44 62 45 63 59 65 80 66 47 67
REMARK SMILES IDX 31 68 32 69 40 70 33 71 39 72 41 73 38 74 34 75 35 76 36 77
REMARK SMILES IDX 37 78 63 79 64 80 72 81 65 82 71 83 73 84 70 85 66 86 67 87
REMARK SMILES IDX 68 88 69 89 48 90 49 91 57 92 50 93 56 94 58 95 55 96 51 97
REMARK SMILES IDX 52 98 53 99 54 100
REMARK H PARENT 14 6 7 11 19 34 78 53 46 64
REMARK Flexibility Score: inf
ROOT
ATOM      1  C   UNL A   1      32.941  30.121  27.242  1.00  0.00     0.023 C 
ENDROOT
BRANCH   1   2
ATOM      2  C   UNL A   1      32.001  30.349  26.052  1.00  0.00     0.116 C 
BRANCH   2   3
ATOM      3  N   UNL A   1      32.457  29.823  24.778  1.00  0.00    -0.356 N 
ATOM      4  C   UNL A   1      31.797  29.009  23.904  1.00  0.00     0.220 C 
ATOM      5  O   UNL A   1      32.124  29.023  22.719  1.00  0.00    -0.275 OA
ATOM      6  H   UNL A   1      33.366  30.089  24.509  1.00  0.00     0.163 HD
BRANCH   4   7
ATOM      7  C   UNL A   1      30.721  28.062  24.375  1.00  0.00     0.110 C 
BRANCH   7   8
ATOM      8  C   UNL A   1      31.276  26.683  24.722  1.00  0.00     0.110 C 
BRANCH   8   9
ATOM      9  C   UNL A   1      31.150  26.368  26.190  1.00  0.00     0.227 C 
ATOM     10  N   UNL A   1      31.561  25.191  26.718  1.00  0.00    -0.293 N 
ATOM     11  H   UNL A   1      31.399  25.102  27.685  1.00  0.00     0.173 HD
ATOM     12  O   UNL A   1      30.736  27.241  26.965  1.00  0.00    -0.275 OA
BRANCH  10  13
ATOM     13  C   UNL A   1      32.161  24.108  26.150  1.00  0.00     0.250 A 
ATOM     14  C   UNL A   1      32.725  18.514  24.935  1.00  0.00     0.062 C 
ATOM     15  C   UNL A   1      32.902  20.010  24.975  1.00  0.00     0.021 C 
ATOM     16  N   UNL A   1      32.126  20.689  25.758  1.00  0.00    -0.221 NA
ATOM     17  C   UNL A   1      33.924  20.627  24.046  1.00  0.00     0.083 C 
ATOM     18  C   UNL A   1      32.288  22.030  25.789  1.00  0.00     0.250 A 
ATOM     19  C   UNL A   1      34.396  22.021  24.481  1.00  0.00     0.147 C 
ATOM     20  N   UNL A   1      31.447  22.949  26.200  1.00  0.00    -0.174 NA
ATOM     21  N   UNL A   1      33.427  22.664  25.361  1.00  0.00    -0.220 N 
ATOM     22  N   UNL A   1      33.354  24.002  25.563  1.00  0.00    -0.130 NA
BRANCH  19  23
ATOM     23  C   UNL A   1      35.833  21.989  24.975  1.00  0.00    -0.023 A 
ATOM     24  C   UNL A   1      36.503  23.102  25.490  1.00  0.00     0.007 A 
ATOM     25  C   UNL A   1      36.526  20.762  24.934  1.00  0.00     0.007 A 
ATOM     26  C   UNL A   1      37.860  23.028  25.834  1.00  0.00     0.021 A 
ATOM     27  C   UNL A   1      37.868  20.677  25.313  1.00  0.00     0.021 A 
ATOM     28  C   UNL A   1      38.540  21.819  25.732  1.00  0.00     0.041 A 
ATOM     29  Cl  UNL A   1      40.215  21.731  26.105  1.00  0.00    -0.084 Cl
ENDBRANCH  19  23
ENDBRANCH  10  13
ENDBRANCH   8   9
ENDBRANCH   7   8
ENDBRANCH   4   7
ENDBRANCH   2   3
ENDBRANCH   1   2
BRANCH   1  30
ATOM     30  C   UNL A   1      33.907  28.934  27.162  1.00  0.00     0.023 C 
BRANCH  30  31
ATOM     31  C   UNL A   1      35.340  29.306  27.481  1.00  0.00     0.116 C 
BRANCH  31  32
ATOM     32  N   UNL A   1      35.546  29.697  28.886  1.00  0.00    -0.352 N 
ATOM     33  C   UNL A   1      36.596  29.335  29.717  1.00  0.00     0.251 C 
ATOM     34  H   UNL A   1      34.860  30.284  29.279  1.00  0.00     0.163 HD
ATOM     35  O   UNL A   1      36.523  29.455  30.938  1.00  0.00    -0.269 OA
BRANCH  33  36
ATOM     36  C   UNL A   1      37.808  28.815  29.070  1.00  0.00     0.039 A 
ATOM     37  C   UNL A   1      38.446  29.446  28.000  1.00  0.00     0.014 A 
ATOM     38  C   UNL A   1      38.397  27.750  29.731  1.00  0.00     0.014 A 
ATOM     39  C   UNL A   1      39.745  29.044  27.683  1.00  0.00     0.010 A 
ATOM     40  C   UNL A   1      39.743  27.598  29.622  1.00  0.00     0.010 A 
ATOM     41  C   UNL A   1      40.400  28.134  28.528  1.00  0.00    -0.014 A 
BRANCH  41  42
ATOM     42  C   UNL A   1      41.800  27.757  28.376  1.00  0.00     0.031 A 
ATOM     43  C   UNL A   1      42.029  26.515  27.598  1.00  0.00     0.074 A 
ATOM     44  C   UNL A   1      42.811  28.587  28.731  1.00  0.00     0.049 A 
ATOM     45  N   UNL A   1      42.381  25.365  28.066  1.00  0.00    -0.248 NA
ATOM     46  C   UNL A   1      41.666  26.482  26.173  1.00  0.00     0.031 C 
ATOM     47  C   UNL A   1      42.749  29.955  29.271  1.00  0.00     0.029 A 
ATOM     48  N   UNL A   1      44.148  28.406  28.584  1.00  0.00    -0.354 N 
ATOM     49  C   UNL A   1      42.545  24.533  26.966  1.00  0.00     0.074 A 
ATOM     50  C   UNL A   1      41.886  25.198  25.873  1.00  0.00     0.031 C 
ATOM     51  C   UNL A   1      43.955  30.555  29.161  1.00  0.00     0.029 A 
ATOM     52  C   UNL A   1      44.919  29.554  28.752  1.00  0.00     0.049 A 
ATOM     53  H   UNL A   1      44.543  27.530  28.374  1.00  0.00     0.167 HD
ATOM     54  C   UNL A   1      43.427  23.494  27.007  1.00  0.00     0.034 A 
ATOM     55  C   UNL A   1      46.265  29.679  28.600  1.00  0.00     0.034 A 
ATOM     56  C   UNL A   1      43.851  23.235  28.367  1.00  0.00     0.049 A 
ATOM     57  C   UNL A   1      46.816  28.312  28.776  1.00  0.00     0.074 A 
ATOM     58  C   UNL A   1      43.196  22.891  29.534  1.00  0.00     0.029 A 
ATOM     59  N   UNL A   1      45.065  23.752  28.770  1.00  0.00    -0.354 N 
ATOM     60  N   UNL A   1      46.726  27.659  29.905  1.00  0.00    -0.248 NA
ATOM     61  C   UNL A   1      46.957  27.474  27.593  1.00  0.00     0.031 C 
ATOM     62  C   UNL A   1      43.806  23.698  30.543  1.00  0.00     0.029 A 
ATOM     63  C   UNL A   1      44.861  24.408  29.963  1.00  0.00     0.049 A 
ATOM     64  H   UNL A   1      45.921  23.669  28.290  1.00  0.00     0.167 HD
ATOM     65  C   UNL A   1      46.350  26.370  29.551  1.00  0.00     0.074 A 
ATOM     66  C   UNL A   1      46.600  26.291  28.110  1.00  0.00     0.031 C 
ATOM     67  C   UNL A   1      45.598  25.588  30.386  1.00  0.00     0.034 A 
BRANCH  54  68
ATOM     68  C   UNL A   1      44.193  22.951  25.823  1.00  0.00     0.023 A 
ATOM     69  C   UNL A   1      44.155  21.558  25.616  1.00  0.00     0.031 A 
ATOM     70  C   UNL A   1      45.166  23.658  25.084  1.00  0.00     0.131 A 
ATOM     71  C   UNL A   1      45.108  20.923  24.801  1.00  0.00     0.055 A 
ATOM     72  C   UNL A   1      46.070  23.029  24.223  1.00  0.00     0.041 A 
ATOM     73  F   UNL A   1      45.368  24.972  25.223  1.00  0.00    -0.206 F 
ATOM     74  C   UNL A   1      46.068  21.650  24.103  1.00  0.00     0.022 A 
BRANCH  71  75
ATOM     75  S   UNL A   1      45.187  19.113  24.818  1.00  0.00     0.124 S 
ATOM     76  O   UNL A   1      46.519  18.881  25.367  1.00  0.00    -0.237 OA
ATOM     77  O   UNL A   1      44.064  18.773  25.684  1.00  0.00    -0.237 OA
ATOM     78  O   UNL A   1      45.022  18.755  23.411  1.00  0.00    -0.744 OA
ENDBRANCH  71  75
ENDBRANCH  54  68
BRANCH  55  79
ATOM     79  C   UNL A   1      46.963  30.803  27.908  1.00  0.00     0.023 A 
ATOM     80  C   UNL A   1      46.300  31.814  27.178  1.00  0.00     0.031 A 
ATOM     81  C   UNL A   1      48.342  31.008  28.159  1.00  0.00     0.131 A 
ATOM     82  C   UNL A   1      47.011  32.959  26.736  1.00  0.00     0.055 A 
ATOM     83  C   UNL A   1      49.036  32.139  27.722  1.00  0.00     0.041 A 
ATOM     84  F   UNL A   1      49.044  30.146  28.912  1.00  0.00    -0.206 F 
ATOM     85  C   UNL A   1      48.370  33.125  27.013  1.00  0.00     0.022 A 
BRANCH  82  86
ATOM     86  S   UNL A   1      46.160  34.299  25.833  1.00  0.00     0.124 S 
ATOM     87  O   UNL A   1      45.162  33.570  25.058  1.00  0.00    -0.237 OA
ATOM     88  O   UNL A   1      45.656  35.134  26.918  1.00  0.00    -0.237 OA
ATOM     89  O   UNL A   1      47.226  34.910  25.038  1.00  0.00    -0.744 OA
ENDBRANCH  82  86
ENDBRANCH  55  79
BRANCH  67  90
ATOM     90  C   UNL A   1      45.356  26.077  31.807  1.00  0.00     0.023 A 
ATOM     91  C   UNL A   1      44.176  26.716  32.261  1.00  0.00     0.031 A 
ATOM     92  C   UNL A   1      46.329  25.763  32.771  1.00  0.00     0.131 A 
ATOM     93  C   UNL A   1      44.017  27.028  33.629  1.00  0.00     0.055 A 
ATOM     94  C   UNL A   1      46.159  26.052  34.126  1.00  0.00     0.041 A 
ATOM     95  F   UNL A   1      47.460  25.131  32.413  1.00  0.00    -0.206 F 
ATOM     96  C   UNL A   1      45.005  26.692  34.560  1.00  0.00     0.022 A 
BRANCH  93  97
ATOM     97  S   UNL A   1      42.527  27.899  34.227  1.00  0.00     0.124 S 
ATOM     98  O   UNL A   1      41.647  26.818  34.652  1.00  0.00    -0.237 OA
ATOM     99  O   UNL A   1      43.059  28.746  35.292  1.00  0.00    -0.237 OA
ATOM    100  O   UNL A   1      42.064  28.631  33.045  1.00  0.00    -0.744 OA
ENDBRANCH  93  97
ENDBRANCH  67  90
ENDBRANCH  41  42
ENDBRANCH  33  36
ENDBRANCH  31  32
ENDBRANCH  30  31
ENDBRANCH   1  30
TORSDOF 18
ENDMDL
MODEL 2
REMARK VINA RESULT:     -12.8      4.201      6.886
REMARK SMILES CC1=Nc2nc(NC(=O)CCC(=O)NCCCCNC(=O)c3ccc(-c4c5nc(c(-c6cc(S(=O)(=O)[O-])ccc6F)c6ccc([nH]6)c(-c6cc(S(=O)(=O)[O-])ccc6F)c6nc(c(-c7cc(S(=O)(=O)[O-])ccc7F)c7ccc4[nH]7)C=C6)C=C5)cc3)nn2[C@@H](c2ccc(Cl)cc2)C1
REMARK SMILES IDX 16 1 15 2 14 3 12 4 13 5 11 7 10 8 8 9 7 10 9 12 6 13 1 14
REMARK SMILES IDX 2 15 3 16 95 17 4 18 87 19 5 20 86 21 85 22 88 23 89 24
REMARK SMILES IDX 94 25 90 26 93 27 91 28 92 29 17 30 18 31 19 32 20 33 21 35
REMARK SMILES IDX 22 36 23 37 84 38 24 39 83 40 25 41 26 42 27 43 77 44 28 45
REMARK SMILES IDX 82 46 76 47 78 48 29 49 81 50 75 51 74 52 30 54 62 55 42 56
REMARK SMILES IDX 61 57 43 58 46 59 60 60 79 61 44 62 45 63 59 65 80 66 47 67
REMARK SMILES IDX 31 68 32 69 40 70 33 71 39 72 41 73 38 74 34 75 35 76 36 77
REMARK SMILES IDX 37 78 63 79 64 80 72 81 65 82 71 83 73 84 70 85 66 86 67 87
REMARK SMILES IDX 68 88 69 89 48 90 49 91 57 92 50 93 56 94 58 95 55 96 51 97
REMARK SMILES IDX 52 98 53 99 54 100
REMARK H PARENT 14 6 7 11 19 34 78 53 46 64
REMARK Flexibility Score: inf
ROOT
ATOM      1  C   UNL A   1      35.339  32.555  28.615  1.00  0.00     0.023 C 
ENDROOT
BRANCH   1   2
ATOM      2  C   UNL A   1      34.060  33.388  28.470  1.00  0.00     0.116 C 
BRANCH   2   3
ATOM      3  N   UNL A   1      34.228  34.706  27.885  1.00  0.00    -0.356 N 
ATOM      4  C   UNL A   1      33.848  35.917  28.385  1.00  0.00     0.220 C 
ATOM      5  O   UNL A   1      34.438  36.926  28.004  1.00  0.00    -0.275 OA
ATOM      6  H   UNL A   1      34.675  34.728  27.009  1.00  0.00     0.163 HD
BRANCH   4   7
ATOM      7  C   UNL A   1      32.689  36.041  29.344  1.00  0.00     0.110 C 
BRANCH   7   8
ATOM      8  C   UNL A   1      33.031  35.516  30.735  1.00  0.00     0.110 C 
BRANCH   8   9
ATOM      9  C   UNL A   1      33.400  36.622  31.690  1.00  0.00     0.227 C 
ATOM     10  N   UNL A   1      34.352  36.472  32.641  1.00  0.00    -0.293 N 
ATOM     11  H   UNL A   1      34.479  37.262  33.215  1.00  0.00     0.173 HD
ATOM     12  O   UNL A   1      32.882  37.738  31.555  1.00  0.00    -0.275 OA
BRANCH  10  13
ATOM     13  C   UNL A   1      35.167  35.423  32.944  1.00  0.00     0.250 A 
ATOM     14  C   UNL A   1      37.996  31.890  36.494  1.00  0.00     0.062 C 
ATOM     15  C   UNL A   1      37.396  32.536  35.272  1.00  0.00     0.021 C 
ATOM     16  N   UNL A   1      36.722  33.629  35.435  1.00  0.00    -0.221 NA
ATOM     17  C   UNL A   1      37.558  31.827  33.945  1.00  0.00     0.083 C 
ATOM     18  C   UNL A   1      36.185  34.203  34.337  1.00  0.00     0.250 A 
ATOM     19  C   UNL A   1      37.382  32.743  32.727  1.00  0.00     0.147 C 
ATOM     20  N   UNL A   1      35.207  35.074  34.261  1.00  0.00    -0.174 NA
ATOM     21  N   UNL A   1      36.610  33.935  33.060  1.00  0.00    -0.220 N 
ATOM     22  N   UNL A   1      35.950  34.692  32.150  1.00  0.00    -0.130 NA
BRANCH  19  23
ATOM     23  C   UNL A   1      38.705  32.978  32.016  1.00  0.00    -0.023 A 
ATOM     24  C   UNL A   1      39.173  32.189  30.962  1.00  0.00     0.007 A 
ATOM     25  C   UNL A   1      39.497  34.070  32.425  1.00  0.00     0.007 A 
ATOM     26  C   UNL A   1      40.447  32.400  30.418  1.00  0.00     0.021 A 
ATOM     27  C   UNL A   1      40.751  34.306  31.857  1.00  0.00     0.021 A 
ATOM     28  C   UNL A   1      41.236  33.449  30.877  1.00  0.00     0.041 A 
ATOM     29  Cl  UNL A   1      42.818  33.683  30.248  1.00  0.00    -0.084 Cl
ENDBRANCH  19  23
ENDBRANCH  10  13
ENDBRANCH   8   9
ENDBRANCH   7   8
ENDBRANCH   4   7
ENDBRANCH   2   3
ENDBRANCH   1   2
BRANCH   1  30
ATOM     30  C   UNL A   1      35.566  31.426  27.603  1.00  0.00     0.023 C 
BRANCH  30  31
ATOM     31  C   UNL A   1      35.626  30.054  28.240  1.00  0.00     0.116 C 
BRANCH  31  32
ATOM     32  N   UNL A   1      35.840  30.093  29.697  1.00  0.00    -0.352 N 
ATOM     33  C   UNL A   1      36.803  29.411  30.426  1.00  0.00     0.251 C 
ATOM     34  H   UNL A   1      35.230  30.669  30.211  1.00  0.00     0.163 HD
ATOM     35  O   UNL A   1      36.710  29.268  31.644  1.00  0.00    -0.269 OA
BRANCH  33  36
ATOM     36  C   UNL A   1      37.952  28.879  29.679  1.00  0.00     0.039 A 
ATOM     37  C   UNL A   1      38.505  29.506  28.561  1.00  0.00     0.014 A 
ATOM     38  C   UNL A   1      38.581  27.806  30.286  1.00  0.00     0.014 A 
ATOM     39  C   UNL A   1      39.768  29.091  28.135  1.00  0.00     0.010 A 
ATOM     40  C   UNL A   1      39.912  27.640  30.065  1.00  0.00     0.010 A 
ATOM     41  C   UNL A   1      40.482  28.173  28.921  1.00  0.00    -0.014 A 
BRANCH  41  42
ATOM     42  C   UNL A   1      41.859  27.780  28.651  1.00  0.00     0.031 A 
ATOM     43  C   UNL A   1      42.009  26.541  27.851  1.00  0.00     0.074 A 
ATOM     44  C   UNL A   1      42.906  28.597  28.926  1.00  0.00     0.049 A 
ATOM     45  N   UNL A   1      42.385  25.384  28.282  1.00  0.00    -0.248 NA
ATOM     46  C   UNL A   1      41.529  26.520  26.461  1.00  0.00     0.031 C 
ATOM     47  C   UNL A   1      42.904  29.962  29.476  1.00  0.00     0.029 A 
ATOM     48  N   UNL A   1      44.224  28.402  28.668  1.00  0.00    -0.354 N 
ATOM     49  C   UNL A   1      42.448  24.557  27.168  1.00  0.00     0.074 A 
ATOM     50  C   UNL A   1      41.708  25.236  26.137  1.00  0.00     0.031 C 
ATOM     51  C   UNL A   1      44.104  30.549  29.270  1.00  0.00     0.029 A 
ATOM     52  C   UNL A   1      45.019  29.540  28.777  1.00  0.00     0.049 A 
ATOM     53  H   UNL A   1      44.590  27.523  28.422  1.00  0.00     0.167 HD
ATOM     54  C   UNL A   1      43.317  23.508  27.131  1.00  0.00     0.034 A 
ATOM     55  C   UNL A   1      46.349  29.651  28.514  1.00  0.00     0.034 A 
ATOM     56  C   UNL A   1      43.850  23.236  28.450  1.00  0.00     0.049 A 
ATOM     57  C   UNL A   1      46.898  28.277  28.637  1.00  0.00     0.074 A 
ATOM     58  C   UNL A   1      43.289  22.892  29.665  1.00  0.00     0.029 A 
ATOM     59  N   UNL A   1      45.098  23.737  28.753  1.00  0.00    -0.354 N 
ATOM     60  N   UNL A   1      46.894  27.617  29.767  1.00  0.00    -0.248 NA
ATOM     61  C   UNL A   1      46.930  27.444  27.443  1.00  0.00     0.031 C 
ATOM     62  C   UNL A   1      43.990  23.686  30.624  1.00  0.00     0.029 A 
ATOM     63  C   UNL A   1      45.002  24.387  29.962  1.00  0.00     0.049 A 
ATOM     64  H   UNL A   1      45.911  23.647  28.204  1.00  0.00     0.167 HD
ATOM     65  C   UNL A   1      46.474  26.336  29.439  1.00  0.00     0.074 A 
ATOM     66  C   UNL A   1      46.604  26.263  27.981  1.00  0.00     0.031 C 
ATOM     67  C   UNL A   1      45.785  25.557  30.330  1.00  0.00     0.034 A 
BRANCH  54  68
ATOM     68  C   UNL A   1      43.977  22.963  25.885  1.00  0.00     0.023 A 
ATOM     69  C   UNL A   1      43.979  21.565  25.716  1.00  0.00     0.031 A 
ATOM     70  C   UNL A   1      44.834  23.689  25.029  1.00  0.00     0.131 A 
ATOM     71  C   UNL A   1      44.867  20.947  24.819  1.00  0.00     0.055 A 
ATOM     72  C   UNL A   1      45.668  23.074  24.091  1.00  0.00     0.041 A 
ATOM     73  F   UNL A   1      44.991  25.014  25.114  1.00  0.00    -0.206 F 
ATOM     74  C   UNL A   1      45.714  21.693  24.005  1.00  0.00     0.022 A 
BRANCH  71  75
ATOM     75  S   UNL A   1      45.027  19.143  24.871  1.00  0.00     0.124 S 
ATOM     76  O   UNL A   1      46.351  18.981  25.462  1.00  0.00    -0.237 OA
ATOM     77  O   UNL A   1      43.895  18.766  25.709  1.00  0.00    -0.237 OA
ATOM     78  O   UNL A   1      44.921  18.754  23.466  1.00  0.00    -0.744 OA
ENDBRANCH  71  75
ENDBRANCH  54  68
BRANCH  55  79
ATOM     79  C   UNL A   1      47.002  30.771  27.773  1.00  0.00     0.023 A 
ATOM     80  C   UNL A   1      46.291  31.788  27.097  1.00  0.00     0.031 A 
ATOM     81  C   UNL A   1      48.396  30.966  27.920  1.00  0.00     0.131 A 
ATOM     82  C   UNL A   1      46.976  32.928  26.603  1.00  0.00     0.055 A 
ATOM     83  C   UNL A   1      49.063  32.094  27.433  1.00  0.00     0.041 A 
ATOM     84  F   UNL A   1      49.147  30.098  28.616  1.00  0.00    -0.206 F 
ATOM     85  C   UNL A   1      48.353  33.085  26.777  1.00  0.00     0.022 A 
BRANCH  82  86
ATOM     86  S   UNL A   1      46.068  34.276  25.768  1.00  0.00     0.124 S 
ATOM     87  O   UNL A   1      45.552  35.049  26.892  1.00  0.00    -0.237 OA
ATOM     88  O   UNL A   1      47.113  34.908  24.971  1.00  0.00    -0.237 OA
ATOM     89  O   UNL A   1      45.048  33.573  24.989  1.00  0.00    -0.744 OA
ENDBRANCH  82  86
ENDBRANCH  55  79
BRANCH  67  90
ATOM     90  C   UNL A   1      45.667  26.040  31.768  1.00  0.00     0.023 A 
ATOM     91  C   UNL A   1      44.541  26.702  32.318  1.00  0.00     0.031 A 
ATOM     92  C   UNL A   1      46.706  25.697  32.649  1.00  0.00     0.131 A 
ATOM     93  C   UNL A   1      44.498  27.006  33.696  1.00  0.00     0.055 A 
ATOM     94  C   UNL A   1      46.650  25.979  34.015  1.00  0.00     0.041 A 
ATOM     95  F   UNL A   1      47.790  25.043  32.200  1.00  0.00    -0.206 F 
ATOM     96  C   UNL A   1      45.548  26.640  34.543  1.00  0.00     0.022 A 
BRANCH  93  97
ATOM     97  S   UNL A   1      43.080  27.905  34.415  1.00  0.00     0.124 S 
ATOM     98  O   UNL A   1      42.903  27.277  35.719  1.00  0.00    -0.237 OA
ATOM     99  O   UNL A   1      43.554  29.287  34.431  1.00  0.00    -0.237 OA
ATOM    100  O   UNL A   1      41.996  27.647  33.464  1.00  0.00    -0.744 OA
ENDBRANCH  93  97
ENDBRANCH  67  90
ENDBRANCH  41  42
ENDBRANCH  33  36
ENDBRANCH  31  32
ENDBRANCH  30  31
ENDBRANCH   1  30
TORSDOF 18
ENDMDL
MODEL 3
REMARK VINA RESULT:     -12.8      1.391      2.403
REMARK SMILES CC1=Nc2nc(NC(=O)CCC(=O)NCCCCNC(=O)c3ccc(-c4c5nc(c(-c6cc(S(=O)(=O)[O-])ccc6F)c6ccc([nH]6)c(-c6cc(S(=O)(=O)[O-])ccc6F)c6nc(c(-c7cc(S(=O)(=O)[O-])ccc7F)c7ccc4[nH]7)C=C6)C=C5)cc3)nn2[C@@H](c2ccc(Cl)cc2)C1
REMARK SMILES IDX 16 1 15 2 14 3 12 4 13 5 11 7 10 8 8 9 7 10 9 12 6 13 1 14
REMARK SMILES IDX 2 15 3 16 95 17 4 18 87 19 5 20 86 21 85 22 88 23 89 24
REMARK SMILES IDX 94 25 90 26 93 27 91 28 92 29 17 30 18 31 19 32 20 33 21 35
REMARK SMILES IDX 22 36 23 37 84 38 24 39 83 40 25 41 26 42 27 43 77 44 28 45
REMARK SMILES IDX 82 46 76 47 78 48 29 49 81 50 75 51 74 52 30 54 62 55 42 56
REMARK SMILES IDX 61 57 43 58 46 59 60 60 79 61 44 62 45 63 59 65 80 66 47 67
REMARK SMILES IDX 31 68 32 69 40 70 33 71 39 72 41 73 38 74 34 75 35 76 36 77
REMARK SMILES IDX 37 78 63 79 64 80 72 81 65 82 71 83 73 84 70 85 66 86 67 87
REMARK SMILES IDX 68 88 69 89 48 90 49 91 57 92 50 93 56 94 58 95 55 96 51 97
REMARK SMILES IDX 52 98 53 99 54 100
REMARK H PARENT 14 6 7 11 19 34 78 53 46 64
REMARK Flexibility Score: inf
ROOT
ATOM      1  C   UNL A   1      33.377  28.603  27.206  1.00  0.00     0.023 C 
ENDROOT
BRANCH   1   2
ATOM      2  C   UNL A   1      31.876  28.616  27.518  1.00  0.00     0.116 C 
BRANCH   2   3
ATOM      3  N   UNL A   1      31.199  27.336  27.412  1.00  0.00    -0.356 N 
ATOM      4  C   UNL A   1      30.979  26.574  26.302  1.00  0.00     0.220 C 
ATOM      5  O   UNL A   1      30.804  25.366  26.438  1.00  0.00    -0.275 OA
ATOM      6  H   UNL A   1      30.848  26.970  28.256  1.00  0.00     0.163 HD
BRANCH   4   7
ATOM      7  C   UNL A   1      30.894  27.196  24.929  1.00  0.00     0.110 C 
BRANCH   7   8
ATOM      8  C   UNL A   1      30.403  26.206  23.876  1.00  0.00     0.110 C 
BRANCH   8   9
ATOM      9  C   UNL A   1      31.211  26.275  22.606  1.00  0.00     0.227 C 
ATOM     10  N   UNL A   1      32.384  25.614  22.455  1.00  0.00    -0.293 N 
ATOM     11  H   UNL A   1      32.824  25.763  21.587  1.00  0.00     0.173 HD
ATOM     12  O   UNL A   1      30.756  26.884  21.629  1.00  0.00    -0.275 OA
BRANCH  10  13
ATOM     13  C   UNL A   1      33.062  24.779  23.290  1.00  0.00     0.250 A 
ATOM     14  C   UNL A   1      37.696  22.911  26.143  1.00  0.00     0.062 C 
ATOM     15  C   UNL A   1      36.291  23.095  25.627  1.00  0.00     0.021 C 
ATOM     16  N   UNL A   1      36.092  24.003  24.726  1.00  0.00    -0.221 NA
ATOM     17  C   UNL A   1      35.194  22.257  26.248  1.00  0.00     0.083 C 
ATOM     18  C   UNL A   1      34.832  24.165  24.269  1.00  0.00     0.250 A 
ATOM     19  C   UNL A   1      33.943  22.127  25.370  1.00  0.00     0.147 C 
ATOM     20  N   UNL A   1      34.309  25.197  23.651  1.00  0.00    -0.174 NA
ATOM     21  N   UNL A   1      33.852  23.213  24.401  1.00  0.00    -0.220 N 
ATOM     22  N   UNL A   1      32.701  23.600  23.799  1.00  0.00    -0.130 NA
BRANCH  19  23
ATOM     23  C   UNL A   1      33.800  20.719  24.815  1.00  0.00    -0.023 A 
ATOM     24  C   UNL A   1      32.640  20.238  24.201  1.00  0.00     0.007 A 
ATOM     25  C   UNL A   1      34.909  19.852  24.901  1.00  0.00     0.007 A 
ATOM     26  C   UNL A   1      32.542  18.899  23.801  1.00  0.00     0.021 A 
ATOM     27  C   UNL A   1      34.826  18.527  24.468  1.00  0.00     0.021 A 
ATOM     28  C   UNL A   1      33.630  18.045  23.948  1.00  0.00     0.041 A 
ATOM     29  Cl  UNL A   1      33.501  16.390  23.506  1.00  0.00    -0.084 Cl
ENDBRANCH  19  23
ENDBRANCH  10  13
ENDBRANCH   8   9
ENDBRANCH   7   8
ENDBRANCH   4   7
ENDBRANCH   2   3
ENDBRANCH   1   2
BRANCH   1  30
ATOM     30  C   UNL A   1      34.141  29.924  27.353  1.00  0.00     0.023 C 
BRANCH  30  31
ATOM     31  C   UNL A   1      35.576  29.739  27.799  1.00  0.00     0.116 C 
BRANCH  31  32
ATOM     32  N   UNL A   1      35.765  29.904  29.250  1.00  0.00    -0.352 N 
ATOM     33  C   UNL A   1      36.756  29.341  30.041  1.00  0.00     0.251 C 
ATOM     34  H   UNL A   1      35.115  30.482  29.710  1.00  0.00     0.163 HD
ATOM     35  O   UNL A   1      36.653  29.290  31.265  1.00  0.00    -0.269 OA
BRANCH  33  36
ATOM     36  C   UNL A   1      37.946  28.823  29.350  1.00  0.00     0.039 A 
ATOM     37  C   UNL A   1      38.559  29.469  28.275  1.00  0.00     0.014 A 
ATOM     38  C   UNL A   1      38.543  27.742  29.976  1.00  0.00     0.014 A 
ATOM     39  C   UNL A   1      39.844  29.063  27.913  1.00  0.00     0.010 A 
ATOM     40  C   UNL A   1      39.885  27.581  29.826  1.00  0.00     0.010 A 
ATOM     41  C   UNL A   1      40.515  28.133  28.723  1.00  0.00    -0.014 A 
BRANCH  41  42
ATOM     42  C   UNL A   1      41.907  27.747  28.524  1.00  0.00     0.031 A 
ATOM     43  C   UNL A   1      42.104  26.524  27.710  1.00  0.00     0.074 A 
ATOM     44  C   UNL A   1      42.935  28.558  28.875  1.00  0.00     0.049 A 
ATOM     45  N   UNL A   1      42.457  25.359  28.139  1.00  0.00    -0.248 NA
ATOM     46  C   UNL A   1      41.703  26.530  26.294  1.00  0.00     0.031 C 
ATOM     47  C   UNL A   1      42.900  29.912  29.451  1.00  0.00     0.029 A 
ATOM     48  N   UNL A   1      44.265  28.370  28.688  1.00  0.00    -0.354 N 
ATOM     49  C   UNL A   1      42.584  24.554  27.014  1.00  0.00     0.074 A 
ATOM     50  C   UNL A   1      41.903  25.253  25.956  1.00  0.00     0.031 C 
ATOM     51  C   UNL A   1      44.108  30.504  29.325  1.00  0.00     0.029 A 
ATOM     52  C   UNL A   1      45.052  29.506  28.865  1.00  0.00     0.049 A 
ATOM     53  H   UNL A   1      44.647  27.496  28.445  1.00  0.00     0.167 HD
ATOM     54  C   UNL A   1      43.456  23.507  27.004  1.00  0.00     0.034 A 
ATOM     55  C   UNL A   1      46.394  29.623  28.681  1.00  0.00     0.034 A 
ATOM     56  C   UNL A   1      43.914  23.208  28.346  1.00  0.00     0.049 A 
ATOM     57  C   UNL A   1      46.937  28.247  28.807  1.00  0.00     0.074 A 
ATOM     58  C   UNL A   1      43.286  22.840  29.521  1.00  0.00     0.029 A 
ATOM     59  N   UNL A   1      45.142  23.704  28.730  1.00  0.00    -0.354 N 
ATOM     60  N   UNL A   1      46.870  27.565  29.921  1.00  0.00    -0.248 NA
ATOM     61  C   UNL A   1      47.039  27.438  27.600  1.00  0.00     0.031 C 
ATOM     62  C   UNL A   1      43.929  23.615  30.534  1.00  0.00     0.029 A 
ATOM     63  C   UNL A   1      44.976  24.330  29.944  1.00  0.00     0.049 A 
ATOM     64  H   UNL A   1      45.985  23.625  28.226  1.00  0.00     0.167 HD
ATOM     65  C   UNL A   1      46.472  26.289  29.544  1.00  0.00     0.074 A 
ATOM     66  C   UNL A   1      46.685  26.246  28.095  1.00  0.00     0.031 C 
ATOM     67  C   UNL A   1      45.735  25.493  30.379  1.00  0.00     0.034 A 
BRANCH  54  68
ATOM     68  C   UNL A   1      44.186  22.987  25.787  1.00  0.00     0.023 A 
ATOM     69  C   UNL A   1      43.990  21.634  25.447  1.00  0.00     0.031 A 
ATOM     70  C   UNL A   1      45.257  23.638  25.136  1.00  0.00     0.131 A 
ATOM     71  C   UNL A   1      44.884  20.968  24.592  1.00  0.00     0.055 A 
ATOM     72  C   UNL A   1      46.104  22.988  24.235  1.00  0.00     0.041 A 
ATOM     73  F   UNL A   1      45.609  24.900  25.404  1.00  0.00    -0.206 F 
ATOM     74  C   UNL A   1      45.942  21.636  23.983  1.00  0.00     0.022 A 
BRANCH  71  75
ATOM     75  S   UNL A   1      44.748  19.168  24.437  1.00  0.00     0.124 S 
ATOM     76  O   UNL A   1      43.513  18.901  25.165  1.00  0.00    -0.237 OA
ATOM     77  O   UNL A   1      44.694  18.996  22.989  1.00  0.00    -0.237 OA
ATOM     78  O   UNL A   1      45.968  18.681  25.078  1.00  0.00    -0.744 OA
ENDBRANCH  71  75
ENDBRANCH  54  68
BRANCH  55  79
ATOM     79  C   UNL A   1      47.085  30.758  28.000  1.00  0.00     0.023 A 
ATOM     80  C   UNL A   1      46.411  31.814  27.348  1.00  0.00     0.031 A 
ATOM     81  C   UNL A   1      48.479  30.919  28.187  1.00  0.00     0.131 A 
ATOM     82  C   UNL A   1      47.129  32.959  26.916  1.00  0.00     0.055 A 
ATOM     83  C   UNL A   1      49.179  32.051  27.761  1.00  0.00     0.041 A 
ATOM     84  F   UNL A   1      49.197  30.010  28.866  1.00  0.00    -0.206 F 
ATOM     85  C   UNL A   1      48.504  33.081  27.129  1.00  0.00     0.022 A 
BRANCH  82  86
ATOM     86  S   UNL A   1      46.267  34.356  26.114  1.00  0.00     0.124 S 
ATOM     87  O   UNL A   1      46.240  35.358  27.174  1.00  0.00    -0.237 OA
ATOM     88  O   UNL A   1      47.132  34.642  24.974  1.00  0.00    -0.237 OA
ATOM     89  O   UNL A   1      44.960  33.799  25.764  1.00  0.00    -0.744 OA
ENDBRANCH  82  86
ENDBRANCH  55  79
BRANCH  67  90
ATOM     90  C   UNL A   1      45.534  25.947  31.817  1.00  0.00     0.023 A 
ATOM     91  C   UNL A   1      44.372  26.583  32.319  1.00  0.00     0.031 A 
ATOM     92  C   UNL A   1      46.531  25.601  32.746  1.00  0.00     0.131 A 
ATOM     93  C   UNL A   1      44.252  26.860  33.698  1.00  0.00     0.055 A 
ATOM     94  C   UNL A   1      46.399  25.855  34.112  1.00  0.00     0.041 A 
ATOM     95  F   UNL A   1      47.646  24.969  32.343  1.00  0.00    -0.206 F 
ATOM     96  C   UNL A   1      45.262  26.493  34.593  1.00  0.00     0.022 A 
BRANCH  93  97
ATOM     97  S   UNL A   1      42.786  27.727  34.357  1.00  0.00     0.124 S 
ATOM     98  O   UNL A   1      42.325  26.852  35.428  1.00  0.00    -0.237 OA
ATOM     99  O   UNL A   1      43.338  29.013  34.777  1.00  0.00    -0.237 OA
ATOM    100  O   UNL A   1      41.887  27.802  33.203  1.00  0.00    -0.744 OA
ENDBRANCH  93  97
ENDBRANCH  67  90
ENDBRANCH  41  42
ENDBRANCH  33  36
ENDBRANCH  31  32
ENDBRANCH  30  31
ENDBRANCH   1  30
TORSDOF 18
ENDMDL
