MODEL 1
REMARK VINA RESULT:     -12.7      0.000      0.000
REMARK SMILES Cc1c(Cl)ccc2c1C=C(C(=O)NCCCCNC(=O)c1ccc(-c3c4nc(c(-c5cc(S(=O)(=O)[O-])ccc5F)c5ccc([nH]5)c(-c5cc(S(=O)(=O)[O-])ccc5F)c5nc(c(-c6cc(S(=O)(=O)[O-])ccc6F)c6ccc3[nH]6)C=C5)C=C4)cc1)[C@@H](C(F)(F)F)O2
REMARK SMILES IDX 16 1 15 2 14 3 13 4 11 5 12 6 10 8 1 9 2 10 3 11 8 12 4 13
REMARK SMILES IDX 5 14 7 15 9 16 6 17 89 18 84 19 85 20 86 21 87 22 88 23
REMARK SMILES IDX 17 24 18 25 19 26 20 28 21 29 22 30 83 31 23 32 82 33 24 34
REMARK SMILES IDX 25 35 26 36 76 37 27 38 81 39 75 40 77 41 28 42 80 43 74 44
REMARK SMILES IDX 73 45 29 47 61 48 41 49 60 50 42 51 45 52 59 53 78 54 43 55
REMARK SMILES IDX 44 56 58 58 79 59 46 60 30 61 31 62 39 63 32 64 38 65 40 66
REMARK SMILES IDX 37 67 33 68 34 69 35 70 36 71 62 72 63 73 71 74 64 75 70 76
REMARK SMILES IDX 72 77 69 78 65 79 66 80 67 81 68 82 47 83 48 84 56 85 49 86
REMARK SMILES IDX 55 87 57 88 54 89 50 90 51 91 52 92 53 93
REMARK H PARENT 13 7 18 27 77 46 45 57
REMARK Flexibility Score: inf
ROOT
ATOM      1  C   UNL A   1      35.673  21.796  26.086  1.00  0.00     0.023 C 
ENDROOT
BRANCH   1   2
ATOM      2  C   UNL A   1      35.020  23.061  26.650  1.00  0.00     0.023 C 
BRANCH   2   3
ATOM      3  C   UNL A   1      33.699  22.815  27.372  1.00  0.00     0.116 C 
BRANCH   3   4
ATOM      4  N   UNL A   1      32.600  23.532  26.750  1.00  0.00    -0.352 N 
ATOM      5  C   UNL A   1      31.850  23.415  25.630  1.00  0.00     0.251 C 
ATOM      6  O   UNL A   1      30.978  24.279  25.488  1.00  0.00    -0.270 OA
ATOM      7  H   UNL A   1      32.327  24.311  27.287  1.00  0.00     0.163 HD
BRANCH   5   8
ATOM      8  C   UNL A   1      31.996  22.347  24.595  1.00  0.00     0.067 C 
ATOM      9  C   UNL A   1      33.060  18.438  26.034  1.00  0.00     0.047 C 
ATOM     10  C   UNL A   1      32.765  18.690  24.576  1.00  0.00    -0.021 A 
ATOM     11  C   UNL A   1      32.874  17.670  23.609  1.00  0.00     0.044 A 
ATOM     12  C   UNL A   1      32.360  19.979  24.150  1.00  0.00     0.022 A 
ATOM     13  Cl  UNL A   1      33.344  16.054  24.008  1.00  0.00    -0.084 Cl
ATOM     14  C   UNL A   1      32.594  17.921  22.261  1.00  0.00     0.024 A 
ATOM     15  C   UNL A   1      32.098  20.212  22.792  1.00  0.00     0.128 A 
ATOM     16  C   UNL A   1      32.158  21.099  25.074  1.00  0.00     0.026 C 
ATOM     17  C   UNL A   1      32.202  19.191  21.854  1.00  0.00     0.048 A 
ATOM     18  O   UNL A   1      31.685  21.422  22.309  1.00  0.00    -0.475 OA
ATOM     19  C   UNL A   1      32.013  22.586  23.116  1.00  0.00     0.314 C 
BRANCH  19  20
ATOM     20  C   UNL A   1      33.344  23.188  22.626  1.00  0.00     0.429 C 
ATOM     21  F   UNL A   1      33.445  24.486  23.008  1.00  0.00    -0.167 F 
ATOM     22  F   UNL A   1      34.424  22.551  23.136  1.00  0.00    -0.167 F 
ATOM     23  F   UNL A   1      33.465  23.154  21.279  1.00  0.00    -0.167 F 
ENDBRANCH  19  20
ENDBRANCH   5   8
ENDBRANCH   3   4
ENDBRANCH   2   3
ENDBRANCH   1   2
BRANCH   1  24
ATOM     24  C   UNL A   1      36.964  22.017  25.299  1.00  0.00     0.116 C 
BRANCH  24  25
ATOM     25  N   UNL A   1      37.941  20.949  25.474  1.00  0.00    -0.352 N 
ATOM     26  C   UNL A   1      39.190  21.041  26.037  1.00  0.00     0.251 C 
ATOM     27  H   UNL A   1      37.674  20.058  25.151  1.00  0.00     0.163 HD
ATOM     28  O   UNL A   1      39.944  20.075  26.068  1.00  0.00    -0.269 OA
BRANCH  26  29
ATOM     29  C   UNL A   1      39.614  22.346  26.571  1.00  0.00     0.039 A 
ATOM     30  C   UNL A   1      40.623  22.383  27.534  1.00  0.00     0.014 A 
ATOM     31  C   UNL A   1      39.082  23.522  26.033  1.00  0.00     0.014 A 
ATOM     32  C   UNL A   1      41.150  23.615  27.919  1.00  0.00     0.010 A 
ATOM     33  C   UNL A   1      39.638  24.746  26.389  1.00  0.00     0.010 A 
ATOM     34  C   UNL A   1      40.681  24.799  27.327  1.00  0.00    -0.014 A 
BRANCH  34  35
ATOM     35  C   UNL A   1      41.281  26.107  27.673  1.00  0.00     0.031 A 
ATOM     36  C   UNL A   1      42.684  26.419  27.247  1.00  0.00     0.074 A 
ATOM     37  C   UNL A   1      40.580  26.981  28.421  1.00  0.00     0.049 A 
ATOM     38  N   UNL A   1      43.386  27.500  27.465  1.00  0.00    -0.248 NA
ATOM     39  C   UNL A   1      43.398  25.374  26.495  1.00  0.00     0.031 C 
ATOM     40  C   UNL A   1      39.229  26.752  28.937  1.00  0.00     0.029 A 
ATOM     41  N   UNL A   1      40.909  28.228  28.887  1.00  0.00    -0.354 N 
ATOM     42  C   UNL A   1      44.624  27.266  26.880  1.00  0.00     0.074 A 
ATOM     43  C   UNL A   1      44.595  25.923  26.344  1.00  0.00     0.031 C 
ATOM     44  C   UNL A   1      38.841  27.829  29.638  1.00  0.00     0.029 A 
ATOM     45  C   UNL A   1      39.918  28.816  29.637  1.00  0.00     0.049 A 
ATOM     46  H   UNL A   1      41.773  28.661  28.701  1.00  0.00     0.167 HD
ATOM     47  C   UNL A   1      45.678  28.107  26.778  1.00  0.00     0.034 A 
ATOM     48  C   UNL A   1      39.880  30.018  30.248  1.00  0.00     0.034 A 
ATOM     49  C   UNL A   1      45.688  29.446  27.302  1.00  0.00     0.049 A 
ATOM     50  C   UNL A   1      41.057  30.948  30.098  1.00  0.00     0.074 A 
ATOM     51  C   UNL A   1      46.691  30.394  27.209  1.00  0.00     0.029 A 
ATOM     52  N   UNL A   1      44.648  30.028  28.010  1.00  0.00    -0.354 N 
ATOM     53  N   UNL A   1      42.184  30.752  29.453  1.00  0.00    -0.248 NA
ATOM     54  C   UNL A   1      40.956  32.268  30.737  1.00  0.00     0.031 C 
ATOM     55  C   UNL A   1      46.268  31.541  27.884  1.00  0.00     0.029 A 
ATOM     56  C   UNL A   1      44.987  31.322  28.367  1.00  0.00     0.049 A 
ATOM     57  H   UNL A   1      43.795  29.587  28.227  1.00  0.00     0.167 HD
ATOM     58  C   UNL A   1      42.910  31.929  29.584  1.00  0.00     0.074 A 
ATOM     59  C   UNL A   1      42.091  32.841  30.357  1.00  0.00     0.031 C 
ATOM     60  C   UNL A   1      44.146  32.228  29.110  1.00  0.00     0.034 A 
BRANCH  47  61
ATOM     61  C   UNL A   1      46.898  27.623  26.044  1.00  0.00     0.023 A 
ATOM     62  C   UNL A   1      47.052  27.883  24.671  1.00  0.00     0.031 A 
ATOM     63  C   UNL A   1      47.866  26.835  26.692  1.00  0.00     0.131 A 
ATOM     64  C   UNL A   1      48.148  27.345  23.986  1.00  0.00     0.055 A 
ATOM     65  C   UNL A   1      48.970  26.325  26.010  1.00  0.00     0.041 A 
ATOM     66  F   UNL A   1      47.761  26.569  28.004  1.00  0.00    -0.206 F 
ATOM     67  C   UNL A   1      49.110  26.574  24.649  1.00  0.00     0.022 A 
BRANCH  64  68
ATOM     68  S   UNL A   1      48.363  27.614  22.206  1.00  0.00     0.124 S 
ATOM     69  O   UNL A   1      48.607  26.256  21.722  1.00  0.00    -0.237 OA
ATOM     70  O   UNL A   1      47.076  28.190  21.827  1.00  0.00    -0.237 OA
ATOM     71  O   UNL A   1      49.509  28.513  22.124  1.00  0.00    -0.744 OA
ENDBRANCH  64  68
ENDBRANCH  47  61
BRANCH  48  72
ATOM     72  C   UNL A   1      38.649  30.427  30.979  1.00  0.00     0.023 A 
ATOM     73  C   UNL A   1      37.605  31.105  30.326  1.00  0.00     0.031 A 
ATOM     74  C   UNL A   1      38.542  30.221  32.365  1.00  0.00     0.131 A 
ATOM     75  C   UNL A   1      36.518  31.588  31.068  1.00  0.00     0.055 A 
ATOM     76  C   UNL A   1      37.433  30.657  33.091  1.00  0.00     0.041 A 
ATOM     77  F   UNL A   1      39.523  29.592  33.031  1.00  0.00    -0.206 F 
ATOM     78  C   UNL A   1      36.418  31.354  32.443  1.00  0.00     0.022 A 
BRANCH  75  79
ATOM     79  S   UNL A   1      35.237  32.609  30.289  1.00  0.00     0.124 S 
ATOM     80  O   UNL A   1      34.782  31.752  29.199  1.00  0.00    -0.237 OA
ATOM     81  O   UNL A   1      34.291  32.786  31.389  1.00  0.00    -0.237 OA
ATOM     82  O   UNL A   1      35.955  33.813  29.887  1.00  0.00    -0.744 OA
ENDBRANCH  75  79
ENDBRANCH  48  72
BRANCH  60  83
ATOM     83  C   UNL A   1      44.707  33.598  29.379  1.00  0.00     0.023 A 
ATOM     84  C   UNL A   1      44.490  34.638  28.455  1.00  0.00     0.031 A 
ATOM     85  C   UNL A   1      45.577  33.830  30.456  1.00  0.00     0.131 A 
ATOM     86  C   UNL A   1      45.165  35.854  28.608  1.00  0.00     0.055 A 
ATOM     87  C   UNL A   1      46.221  35.056  30.624  1.00  0.00     0.041 A 
ATOM     88  F   UNL A   1      45.820  32.862  31.355  1.00  0.00    -0.206 F 
ATOM     89  C   UNL A   1      46.026  36.070  29.690  1.00  0.00     0.022 A 
BRANCH  86  90
ATOM     90  S   UNL A   1      45.005  37.175  27.376  1.00  0.00     0.124 S 
ATOM     91  O   UNL A   1      43.658  36.944  26.858  1.00  0.00    -0.237 OA
ATOM     92  O   UNL A   1      45.162  38.376  28.192  1.00  0.00    -0.237 OA
ATOM     93  O   UNL A   1      46.085  36.910  26.432  1.00  0.00    -0.744 OA
ENDBRANCH  86  90
ENDBRANCH  60  83
ENDBRANCH  34  35
ENDBRANCH  26  29
ENDBRANCH  24  25
ENDBRANCH   1  24
TORSDOF 15
ENDMDL
MODEL 2
REMARK VINA RESULT:     -12.6      5.772     10.647
REMARK SMILES Cc1c(Cl)ccc2c1C=C(C(=O)NCCCCNC(=O)c1ccc(-c3c4nc(c(-c5cc(S(=O)(=O)[O-])ccc5F)c5ccc([nH]5)c(-c5cc(S(=O)(=O)[O-])ccc5F)c5nc(c(-c6cc(S(=O)(=O)[O-])ccc6F)c6ccc3[nH]6)C=C5)C=C4)cc1)[C@@H](C(F)(F)F)O2
REMARK SMILES IDX 16 1 15 2 14 3 13 4 11 5 12 6 10 8 1 9 2 10 3 11 8 12 4 13
REMARK SMILES IDX 5 14 7 15 9 16 6 17 89 18 84 19 85 20 86 21 87 22 88 23
REMARK SMILES IDX 17 24 18 25 19 26 20 28 21 29 22 30 83 31 23 32 82 33 24 34
REMARK SMILES IDX 25 35 26 36 76 37 27 38 81 39 75 40 77 41 28 42 80 43 74 44
REMARK SMILES IDX 73 45 29 47 61 48 41 49 60 50 42 51 45 52 59 53 78 54 43 55
REMARK SMILES IDX 44 56 58 58 79 59 46 60 30 61 31 62 39 63 32 64 38 65 40 66
REMARK SMILES IDX 37 67 33 68 34 69 35 70 36 71 62 72 63 73 71 74 64 75 70 76
REMARK SMILES IDX 72 77 69 78 65 79 66 80 67 81 68 82 47 83 48 84 56 85 49 86
REMARK SMILES IDX 55 87 57 88 54 89 50 90 51 91 52 92 53 93
REMARK H PARENT 13 7 18 27 77 46 45 57
REMARK Flexibility Score: inf
ROOT
ATOM      1  C   UNL A   1      32.746  29.476  25.039  1.00  0.00     0.023 C 
ENDROOT
BRANCH   1   2
ATOM      2  C   UNL A   1      33.960  28.601  24.714  1.00  0.00     0.023 C 
BRANCH   2   3
ATOM      3  C   UNL A   1      33.860  27.172  25.236  1.00  0.00     0.116 C 
BRANCH   3   4
ATOM      4  N   UNL A   1      33.646  26.216  24.164  1.00  0.00    -0.352 N 
ATOM      5  C   UNL A   1      32.602  25.774  23.425  1.00  0.00     0.251 C 
ATOM      6  O   UNL A   1      32.881  24.919  22.578  1.00  0.00    -0.270 OA
ATOM      7  H   UNL A   1      34.485  25.771  23.904  1.00  0.00     0.163 HD
BRANCH   5   8
ATOM      8  C   UNL A   1      31.188  26.239  23.557  1.00  0.00     0.067 C 
ATOM      9  C   UNL A   1      30.315  30.147  21.993  1.00  0.00     0.047 C 
ATOM     10  C   UNL A   1      29.233  29.263  22.560  1.00  0.00    -0.021 A 
ATOM     11  C   UNL A   1      27.894  29.695  22.653  1.00  0.00     0.044 A 
ATOM     12  C   UNL A   1      29.550  27.958  23.013  1.00  0.00     0.022 A 
ATOM     13  Cl  UNL A   1      27.380  31.259  22.121  1.00  0.00    -0.084 Cl
ATOM     14  C   UNL A   1      26.902  28.861  23.180  1.00  0.00     0.024 A 
ATOM     15  C   UNL A   1      28.543  27.145  23.550  1.00  0.00     0.128 A 
ATOM     16  C   UNL A   1      30.895  27.384  22.912  1.00  0.00     0.026 C 
ATOM     17  C   UNL A   1      27.225  27.585  23.625  1.00  0.00     0.048 A 
ATOM     18  O   UNL A   1      28.768  25.870  23.988  1.00  0.00    -0.475 OA
ATOM     19  C   UNL A   1      30.134  25.549  24.369  1.00  0.00     0.314 C 
BRANCH  19  20
ATOM     20  C   UNL A   1      30.307  25.775  25.884  1.00  0.00     0.429 C 
ATOM     21  F   UNL A   1      31.277  24.962  26.374  1.00  0.00    -0.167 F 
ATOM     22  F   UNL A   1      30.676  27.041  26.184  1.00  0.00    -0.167 F 
ATOM     23  F   UNL A   1      29.176  25.517  26.580  1.00  0.00    -0.167 F 
ENDBRANCH  19  20
ENDBRANCH   5   8
ENDBRANCH   3   4
ENDBRANCH   2   3
ENDBRANCH   1   2
BRANCH   1  24
ATOM     24  C   UNL A   1      32.566  29.830  26.515  1.00  0.00     0.116 C 
BRANCH  24  25
ATOM     25  N   UNL A   1      32.387  31.257  26.752  1.00  0.00    -0.352 N 
ATOM     26  C   UNL A   1      33.252  32.114  27.387  1.00  0.00     0.251 C 
ATOM     27  H   UNL A   1      31.550  31.652  26.419  1.00  0.00     0.163 HD
ATOM     28  O   UNL A   1      32.953  33.288  27.579  1.00  0.00    -0.269 OA
BRANCH  26  29
ATOM     29  C   UNL A   1      34.535  31.574  27.866  1.00  0.00     0.039 A 
ATOM     30  C   UNL A   1      35.619  32.443  28.009  1.00  0.00     0.014 A 
ATOM     31  C   UNL A   1      34.620  30.238  28.268  1.00  0.00     0.014 A 
ATOM     32  C   UNL A   1      36.783  31.981  28.621  1.00  0.00     0.010 A 
ATOM     33  C   UNL A   1      35.767  29.793  28.915  1.00  0.00     0.010 A 
ATOM     34  C   UNL A   1      36.852  30.663  29.104  1.00  0.00    -0.014 A 
BRANCH  34  35
ATOM     35  C   UNL A   1      38.055  30.182  29.819  1.00  0.00     0.031 A 
ATOM     36  C   UNL A   1      38.319  30.637  31.223  1.00  0.00     0.074 A 
ATOM     37  C   UNL A   1      38.933  29.386  29.179  1.00  0.00     0.049 A 
ATOM     38  N   UNL A   1      39.319  30.338  32.008  1.00  0.00    -0.248 NA
ATOM     39  C   UNL A   1      37.341  31.565  31.815  1.00  0.00     0.031 C 
ATOM     40  C   UNL A   1      38.801  28.931  27.794  1.00  0.00     0.029 A 
ATOM     41  N   UNL A   1      40.112  28.829  29.603  1.00  0.00    -0.354 N 
ATOM     42  C   UNL A   1      39.095  31.040  33.185  1.00  0.00     0.074 A 
ATOM     43  C   UNL A   1      37.892  31.820  32.993  1.00  0.00     0.031 C 
ATOM     44  C   UNL A   1      39.853  28.155  27.486  1.00  0.00     0.029 A 
ATOM     45  C   UNL A   1      40.741  28.071  28.643  1.00  0.00     0.049 A 
ATOM     46  H   UNL A   1      40.474  28.960  30.509  1.00  0.00     0.167 HD
ATOM     47  C   UNL A   1      39.814  31.015  34.330  1.00  0.00     0.034 A 
ATOM     48  C   UNL A   1      41.898  27.381  28.694  1.00  0.00     0.034 A 
ATOM     49  C   UNL A   1      41.001  30.223  34.513  1.00  0.00     0.049 A 
ATOM     50  C   UNL A   1      42.669  27.346  29.990  1.00  0.00     0.074 A 
ATOM     51  C   UNL A   1      41.775  30.092  35.651  1.00  0.00     0.029 A 
ATOM     52  N   UNL A   1      41.580  29.426  33.538  1.00  0.00    -0.354 N 
ATOM     53  N   UNL A   1      42.389  27.934  31.129  1.00  0.00    -0.248 NA
ATOM     54  C   UNL A   1      43.899  26.541  30.018  1.00  0.00     0.031 C 
ATOM     55  C   UNL A   1      42.838  29.235  35.356  1.00  0.00     0.029 A 
ATOM     56  C   UNL A   1      42.707  28.803  34.046  1.00  0.00     0.049 A 
ATOM     57  H   UNL A   1      41.240  29.318  32.620  1.00  0.00     0.167 HD
ATOM     58  C   UNL A   1      43.389  27.549  32.015  1.00  0.00     0.074 A 
ATOM     59  C   UNL A   1      44.274  26.664  31.285  1.00  0.00     0.031 C 
ATOM     60  C   UNL A   1      43.560  27.899  33.314  1.00  0.00     0.034 A 
BRANCH  47  61
ATOM     61  C   UNL A   1      39.325  31.838  35.489  1.00  0.00     0.023 A 
ATOM     62  C   UNL A   1      38.552  31.248  36.504  1.00  0.00     0.031 A 
ATOM     63  C   UNL A   1      39.561  33.223  35.542  1.00  0.00     0.131 A 
ATOM     64  C   UNL A   1      38.027  32.049  37.525  1.00  0.00     0.055 A 
ATOM     65  C   UNL A   1      39.058  34.012  36.577  1.00  0.00     0.041 A 
ATOM     66  F   UNL A   1      40.301  33.825  34.597  1.00  0.00    -0.206 F 
ATOM     67  C   UNL A   1      38.282  33.425  37.571  1.00  0.00     0.022 A 
BRANCH  64  68
ATOM     68  S   UNL A   1      36.985  31.341  38.829  1.00  0.00     0.124 S 
ATOM     69  O   UNL A   1      35.816  32.218  38.792  1.00  0.00    -0.237 OA
ATOM     70  O   UNL A   1      36.763  29.984  38.339  1.00  0.00    -0.237 OA
ATOM     71  O   UNL A   1      37.803  31.456  40.031  1.00  0.00    -0.744 OA
ENDBRANCH  64  68
ENDBRANCH  47  61
BRANCH  48  72
ATOM     72  C   UNL A   1      42.338  26.604  27.502  1.00  0.00     0.023 A 
ATOM     73  C   UNL A   1      42.019  25.242  27.360  1.00  0.00     0.031 A 
ATOM     74  C   UNL A   1      43.161  27.197  26.530  1.00  0.00     0.131 A 
ATOM     75  C   UNL A   1      42.554  24.510  26.292  1.00  0.00     0.055 A 
ATOM     76  C   UNL A   1      43.650  26.477  25.439  1.00  0.00     0.041 A 
ATOM     77  F   UNL A   1      43.504  28.491  26.635  1.00  0.00    -0.206 F 
ATOM     78  C   UNL A   1      43.355  25.123  25.322  1.00  0.00     0.022 A 
BRANCH  75  79
ATOM     79  S   UNL A   1      42.301  22.718  26.169  1.00  0.00     0.124 S 
ATOM     80  O   UNL A   1      42.804  22.428  24.830  1.00  0.00    -0.237 OA
ATOM     81  O   UNL A   1      43.125  22.228  27.272  1.00  0.00    -0.237 OA
ATOM     82  O   UNL A   1      40.863  22.560  26.350  1.00  0.00    -0.744 OA
ENDBRANCH  75  79
ENDBRANCH  48  72
BRANCH  60  83
ATOM     83  C   UNL A   1      44.730  27.322  34.065  1.00  0.00     0.023 A 
ATOM     84  C   UNL A   1      44.558  26.163  34.847  1.00  0.00     0.031 A 
ATOM     85  C   UNL A   1      45.958  28.001  34.133  1.00  0.00     0.131 A 
ATOM     86  C   UNL A   1      45.591  25.738  35.691  1.00  0.00     0.055 A 
ATOM     87  C   UNL A   1      46.995  27.552  34.950  1.00  0.00     0.041 A 
ATOM     88  F   UNL A   1      46.159  29.116  33.412  1.00  0.00    -0.206 F 
ATOM     89  C   UNL A   1      46.810  26.423  35.743  1.00  0.00     0.022 A 
BRANCH  86  90
ATOM     90  S   UNL A   1      45.366  24.321  36.800  1.00  0.00     0.124 S 
ATOM     91  O   UNL A   1      44.526  23.437  35.997  1.00  0.00    -0.237 OA
ATOM     92  O   UNL A   1      46.740  23.866  36.997  1.00  0.00    -0.237 OA
ATOM     93  O   UNL A   1      44.719  24.892  37.976  1.00  0.00    -0.744 OA
ENDBRANCH  86  90
ENDBRANCH  60  83
ENDBRANCH  34  35
ENDBRANCH  26  29
ENDBRANCH  24  25
ENDBRANCH   1  24
TORSDOF 15
ENDMDL
MODEL 3
REMARK VINA RESULT:     -12.6      5.267     10.168
REMARK SMILES Cc1c(Cl)ccc2c1C=C(C(=O)NCCCCNC(=O)c1ccc(-c3c4nc(c(-c5cc(S(=O)(=O)[O-])ccc5F)c5ccc([nH]5)c(-c5cc(S(=O)(=O)[O-])ccc5F)c5nc(c(-c6cc(S(=O)(=O)[O-])ccc6F)c6ccc3[nH]6)C=C5)C=C4)cc1)[C@@H](C(F)(F)F)O2
REMARK SMILES IDX 16 1 15 2 14 3 13 4 11 5 12 6 10 8 1 9 2 10 3 11 8 12 4 13
REMARK SMILES IDX 5 14 7 15 9 16 6 17 89 18 84 19 85 20 86 21 87 22 88 23
REMARK SMILES IDX 17 24 18 25 19 26 20 28 21 29 22 30 83 31 23 32 82 33 24 34
REMARK SMILES IDX 25 35 26 36 76 37 27 38 81 39 75 40 77 41 28 42 80 43 74 44
REMARK SMILES IDX 73 45 29 47 61 48 41 49 60 50 42 51 45 52 59 53 78 54 43 55
REMARK SMILES IDX 44 56 58 58 79 59 46 60 30 61 31 62 39 63 32 64 38 65 40 66
REMARK SMILES IDX 37 67 33 68 34 69 35 70 36 71 62 72 63 73 71 74 64 75 70 76
REMARK SMILES IDX 72 77 69 78 65 79 66 80 67 81 68 82 47 83 48 84 56 85 49 86
REMARK SMILES IDX 55 87 57 88 54 89 50 90 51 91 52 92 53 93
REMARK H PARENT 13 7 18 27 77 46 45 57
REMARK Flexibility Score: inf
ROOT
ATOM      1  C   UNL A   1      32.896  29.216  24.452  1.00  0.00     0.023 C 
ENDROOT
BRANCH   1   2
ATOM      2  C   UNL A   1      31.475  29.238  23.881  1.00  0.00     0.023 C 
BRANCH   2   3
ATOM      3  C   UNL A   1      31.026  27.914  23.269  1.00  0.00     0.116 C 
BRANCH   3   4
ATOM      4  N   UNL A   1      32.010  27.385  22.341  1.00  0.00    -0.352 N 
ATOM      5  C   UNL A   1      32.895  26.362  22.314  1.00  0.00     0.251 C 
ATOM      6  O   UNL A   1      33.561  26.269  21.278  1.00  0.00    -0.270 OA
ATOM      7  H   UNL A   1      32.040  27.910  21.509  1.00  0.00     0.163 HD
BRANCH   5   8
ATOM      8  C   UNL A   1      33.109  25.370  23.412  1.00  0.00     0.067 C 
ATOM      9  C   UNL A   1      36.653  22.953  23.126  1.00  0.00     0.047 C 
ATOM     10  C   UNL A   1      35.728  22.862  24.315  1.00  0.00    -0.021 A 
ATOM     11  C   UNL A   1      35.952  21.946  25.363  1.00  0.00     0.044 A 
ATOM     12  C   UNL A   1      34.601  23.717  24.401  1.00  0.00     0.022 A 
ATOM     13  Cl  UNL A   1      37.300  20.861  25.379  1.00  0.00    -0.084 Cl
ATOM     14  C   UNL A   1      35.085  21.877  26.459  1.00  0.00     0.024 A 
ATOM     15  C   UNL A   1      33.738  23.622  25.501  1.00  0.00     0.128 A 
ATOM     16  C   UNL A   1      34.302  24.746  23.400  1.00  0.00     0.026 C 
ATOM     17  C   UNL A   1      33.981  22.718  26.530  1.00  0.00     0.048 A 
ATOM     18  O   UNL A   1      32.644  24.425  25.663  1.00  0.00    -0.475 OA
ATOM     19  C   UNL A   1      32.093  25.017  24.455  1.00  0.00     0.314 C 
BRANCH  19  20
ATOM     20  C   UNL A   1      30.970  24.113  23.911  1.00  0.00     0.429 C 
ATOM     21  F   UNL A   1      29.914  24.864  23.504  1.00  0.00    -0.167 F 
ATOM     22  F   UNL A   1      31.359  23.384  22.840  1.00  0.00    -0.167 F 
ATOM     23  F   UNL A   1      30.509  23.241  24.837  1.00  0.00    -0.167 F 
ENDBRANCH  19  20
ENDBRANCH   5   8
ENDBRANCH   3   4
ENDBRANCH   2   3
ENDBRANCH   1   2
BRANCH   1  24
ATOM     24  C   UNL A   1      33.001  29.414  25.963  1.00  0.00     0.116 C 
BRANCH  24  25
ATOM     25  N   UNL A   1      32.632  30.755  26.400  1.00  0.00    -0.352 N 
ATOM     26  C   UNL A   1      33.325  31.576  27.256  1.00  0.00     0.251 C 
ATOM     27  H   UNL A   1      31.789  31.113  26.041  1.00  0.00     0.163 HD
ATOM     28  O   UNL A   1      32.873  32.664  27.594  1.00  0.00    -0.269 OA
BRANCH  26  29
ATOM     29  C   UNL A   1      34.613  31.096  27.785  1.00  0.00     0.039 A 
ATOM     30  C   UNL A   1      35.639  32.017  27.997  1.00  0.00     0.014 A 
ATOM     31  C   UNL A   1      34.751  29.757  28.166  1.00  0.00     0.014 A 
ATOM     32  C   UNL A   1      36.796  31.606  28.655  1.00  0.00     0.010 A 
ATOM     33  C   UNL A   1      35.890  29.361  28.858  1.00  0.00     0.010 A 
ATOM     34  C   UNL A   1      36.915  30.284  29.115  1.00  0.00    -0.014 A 
BRANCH  34  35
ATOM     35  C   UNL A   1      38.107  29.853  29.878  1.00  0.00     0.031 A 
ATOM     36  C   UNL A   1      38.339  30.384  31.261  1.00  0.00     0.074 A 
ATOM     37  C   UNL A   1      39.005  29.033  29.298  1.00  0.00     0.049 A 
ATOM     38  N   UNL A   1      39.327  30.136  32.080  1.00  0.00    -0.248 NA
ATOM     39  C   UNL A   1      37.341  31.331  31.784  1.00  0.00     0.031 C 
ATOM     40  C   UNL A   1      38.905  28.505  27.937  1.00  0.00     0.029 A 
ATOM     41  N   UNL A   1      40.181  28.512  29.774  1.00  0.00    -0.354 N 
ATOM     42  C   UNL A   1      39.072  30.897  33.214  1.00  0.00     0.074 A 
ATOM     43  C   UNL A   1      37.867  31.653  32.958  1.00  0.00     0.031 C 
ATOM     44  C   UNL A   1      39.970  27.725  27.691  1.00  0.00     0.029 A 
ATOM     45  C   UNL A   1      40.835  27.711  28.868  1.00  0.00     0.049 A 
ATOM     46  H   UNL A   1      40.524  28.693  30.678  1.00  0.00     0.167 HD
ATOM     47  C   UNL A   1      39.769  30.938  34.373  1.00  0.00     0.034 A 
ATOM     48  C   UNL A   1      41.998  27.035  28.977  1.00  0.00     0.034 A 
ATOM     49  C   UNL A   1      40.958  30.169  34.620  1.00  0.00     0.049 A 
ATOM     50  C   UNL A   1      42.743  27.076  30.288  1.00  0.00     0.074 A 
ATOM     51  C   UNL A   1      41.711  30.106  35.778  1.00  0.00     0.029 A 
ATOM     52  N   UNL A   1      41.565  29.328  33.700  1.00  0.00    -0.354 N 
ATOM     53  N   UNL A   1      42.435  27.721  31.389  1.00  0.00    -0.248 NA
ATOM     54  C   UNL A   1      43.979  26.287  30.382  1.00  0.00     0.031 C 
ATOM     55  C   UNL A   1      42.787  29.245  35.550  1.00  0.00     0.029 A 
ATOM     56  C   UNL A   1      42.687  28.744  34.262  1.00  0.00     0.049 A 
ATOM     57  H   UNL A   1      41.243  29.168  32.782  1.00  0.00     0.167 HD
ATOM     58  C   UNL A   1      43.420  27.392  32.313  1.00  0.00     0.074 A 
ATOM     59  C   UNL A   1      44.328  26.480  31.648  1.00  0.00     0.031 C 
ATOM     60  C   UNL A   1      43.562  27.811  33.595  1.00  0.00     0.034 A 
BRANCH  47  61
ATOM     61  C   UNL A   1      39.249  31.816  35.477  1.00  0.00     0.023 A 
ATOM     62  C   UNL A   1      38.519  31.262  36.543  1.00  0.00     0.031 A 
ATOM     63  C   UNL A   1      39.411  33.212  35.427  1.00  0.00     0.131 A 
ATOM     64  C   UNL A   1      37.964  32.105  37.512  1.00  0.00     0.055 A 
ATOM     65  C   UNL A   1      38.879  34.045  36.411  1.00  0.00     0.041 A 
ATOM     66  F   UNL A   1      40.108  33.782  34.431  1.00  0.00    -0.206 F 
ATOM     67  C   UNL A   1      38.146  33.492  37.456  1.00  0.00     0.022 A 
BRANCH  64  68
ATOM     68  S   UNL A   1      36.975  31.439  38.877  1.00  0.00     0.124 S 
ATOM     69  O   UNL A   1      37.882  31.594  40.013  1.00  0.00    -0.237 OA
ATOM     70  O   UNL A   1      35.817  32.328  38.877  1.00  0.00    -0.237 OA
ATOM     71  O   UNL A   1      36.715  30.060  38.480  1.00  0.00    -0.744 OA
ENDBRANCH  64  68
ENDBRANCH  47  61
BRANCH  48  72
ATOM     72  C   UNL A   1      42.469  26.202  27.836  1.00  0.00     0.023 A 
ATOM     73  C   UNL A   1      41.984  24.897  27.638  1.00  0.00     0.031 A 
ATOM     74  C   UNL A   1      43.478  26.672  26.980  1.00  0.00     0.131 A 
ATOM     75  C   UNL A   1      42.540  24.095  26.632  1.00  0.00     0.055 A 
ATOM     76  C   UNL A   1      43.992  25.889  25.946  1.00  0.00     0.041 A 
ATOM     77  F   UNL A   1      43.981  27.907  27.144  1.00  0.00    -0.206 F 
ATOM     78  C   UNL A   1      43.529  24.588  25.775  1.00  0.00     0.022 A 
BRANCH  75  79
ATOM     79  S   UNL A   1      42.058  22.355  26.454  1.00  0.00     0.124 S 
ATOM     80  O   UNL A   1      42.655  21.749  27.641  1.00  0.00    -0.237 OA
ATOM     81  O   UNL A   1      40.601  22.450  26.460  1.00  0.00    -0.237 OA
ATOM     82  O   UNL A   1      42.651  21.962  25.181  1.00  0.00    -0.744 OA
ENDBRANCH  75  79
ENDBRANCH  48  72
BRANCH  60  83
ATOM     83  C   UNL A   1      44.722  27.286  34.398  1.00  0.00     0.023 A 
ATOM     84  C   UNL A   1      44.587  26.086  35.121  1.00  0.00     0.031 A 
ATOM     85  C   UNL A   1      45.890  28.046  34.573  1.00  0.00     0.131 A 
ATOM     86  C   UNL A   1      45.593  25.697  36.014  1.00  0.00     0.055 A 
ATOM     87  C   UNL A   1      46.905  27.637  35.437  1.00  0.00     0.041 A 
ATOM     88  F   UNL A   1      46.054  29.203  33.910  1.00  0.00    -0.206 F 
ATOM     89  C   UNL A   1      46.753  26.464  36.173  1.00  0.00     0.022 A 
BRANCH  86  90
ATOM     90  S   UNL A   1      45.404  24.221  37.050  1.00  0.00     0.124 S 
ATOM     91  O   UNL A   1      44.790  24.774  38.256  1.00  0.00    -0.237 OA
ATOM     92  O   UNL A   1      44.530  23.384  36.234  1.00  0.00    -0.237 OA
ATOM     93  O   UNL A   1      46.767  23.731  37.218  1.00  0.00    -0.744 OA
ENDBRANCH  86  90
ENDBRANCH  60  83
ENDBRANCH  34  35
ENDBRANCH  26  29
ENDBRANCH  24  25
ENDBRANCH   1  24
TORSDOF 15
ENDMDL
