MODEL 1
REMARK VINA RESULT:     -12.2      0.000      0.000
REMARK SMILES O=C(Cc1cccn1-c1ccc2c(c1)OCCO2)NCCCCNC(=O)c1ccc(-c2c3nc(c(-c4cc(S(=O)(=O)[O-])ccc4F)c4ccc([nH]4)c(-c4cc(S(=O)(=O)[O-])ccc4F)c4nc(c(-c5cc(S(=O)(=O)[O-])ccc5F)c5ccc2[nH]5)C=C4)C=C3)cc1
REMARK SMILES IDX 22 1 21 2 20 3 19 4 1 5 2 6 3 8 4 9 5 10 8 11 6 12 7 13 9 14
REMARK SMILES IDX 10 15 14 16 11 17 13 18 12 19 15 20 18 21 16 22 17 23 23 24
REMARK SMILES IDX 24 25 25 26 26 28 27 29 28 30 89 31 29 32 88 33 30 34 31 35
REMARK SMILES IDX 32 36 82 37 33 38 87 39 81 40 83 41 34 42 86 43 80 44 79 45
REMARK SMILES IDX 35 47 67 48 47 49 66 50 48 51 51 52 65 53 84 54 49 55 50 56
REMARK SMILES IDX 64 58 85 59 52 60 36 61 37 62 45 63 38 64 44 65 46 66 43 67
REMARK SMILES IDX 39 68 40 69 41 70 42 71 68 72 69 73 77 74 70 75 76 76 78 77
REMARK SMILES IDX 75 78 71 79 72 80 73 81 74 82 53 83 54 84 62 85 55 86 61 87
REMARK SMILES IDX 63 88 60 89 56 90 57 91 58 92 59 93
REMARK H PARENT 19 7 24 27 83 46 51 57
REMARK Flexibility Score: inf
ROOT
ATOM      1  C   UNL A   1      33.400  28.777  26.463  1.00  0.00     0.023 C 
ENDROOT
BRANCH   1   2
ATOM      2  C   UNL A   1      32.577  28.518  27.735  1.00  0.00     0.023 C 
BRANCH   2   3
ATOM      3  C   UNL A   1      31.238  27.810  27.519  1.00  0.00     0.116 C 
BRANCH   3   4
ATOM      4  N   UNL A   1      31.026  27.446  26.132  1.00  0.00    -0.356 N 
ATOM      5  O   UNL A   1      30.759  25.191  26.481  1.00  0.00    -0.275 OA
ATOM      6  C   UNL A   1      30.766  26.155  25.719  1.00  0.00     0.225 C 
ATOM      7  H   UNL A   1      31.071  28.154  25.450  1.00  0.00     0.163 HD
BRANCH   6   8
ATOM      8  C   UNL A   1      30.537  26.005  24.217  1.00  0.00     0.154 C 
BRANCH   8   9
ATOM      9  C   UNL A   1      31.514  26.831  23.429  1.00  0.00     0.032 A 
ATOM     10  C   UNL A   1      31.284  28.090  22.892  1.00  0.00     0.024 A 
ATOM     11  N   UNL A   1      32.855  26.523  23.203  1.00  0.00    -0.320 N 
ATOM     12  C   UNL A   1      32.505  28.592  22.403  1.00  0.00     0.020 A 
ATOM     13  C   UNL A   1      33.458  27.634  22.647  1.00  0.00     0.091 A 
BRANCH  11  14
ATOM     14  C   UNL A   1      33.549  25.325  23.520  1.00  0.00     0.049 A 
ATOM     15  C   UNL A   1      33.342  24.187  22.729  1.00  0.00     0.031 A 
ATOM     16  C   UNL A   1      34.446  25.280  24.593  1.00  0.00     0.077 A 
ATOM     17  C   UNL A   1      34.083  23.030  22.975  1.00  0.00     0.052 A 
ATOM     18  C   UNL A   1      35.188  24.122  24.826  1.00  0.00     0.163 A 
ATOM     19  C   UNL A   1      35.005  22.998  24.018  1.00  0.00     0.161 A 
ATOM     20  O   UNL A   1      36.089  24.165  25.858  1.00  0.00    -0.486 OA
ATOM     21  O   UNL A   1      35.723  21.841  24.163  1.00  0.00    -0.486 OA
ATOM     22  C   UNL A   1      37.034  23.092  25.779  1.00  0.00     0.271 C 
ATOM     23  C   UNL A   1      36.350  21.776  25.448  1.00  0.00     0.271 C 
ENDBRANCH  11  14
ENDBRANCH   8   9
ENDBRANCH   6   8
ENDBRANCH   3   4
ENDBRANCH   2   3
ENDBRANCH   1   2
BRANCH   1  24
ATOM     24  C   UNL A   1      34.900  28.975  26.694  1.00  0.00     0.116 C 
BRANCH  24  25
ATOM     25  N   UNL A   1      35.207  30.325  27.126  1.00  0.00    -0.352 N 
ATOM     26  C   UNL A   1      36.156  30.745  28.026  1.00  0.00     0.251 C 
ATOM     27  H   UNL A   1      34.662  31.036  26.719  1.00  0.00     0.163 HD
ATOM     28  O   UNL A   1      36.012  31.845  28.556  1.00  0.00    -0.269 OA
BRANCH  26  29
ATOM     29  C   UNL A   1      37.323  29.904  28.393  1.00  0.00     0.039 A 
ATOM     30  C   UNL A   1      38.475  30.008  27.604  1.00  0.00     0.014 A 
ATOM     31  C   UNL A   1      37.270  28.949  29.416  1.00  0.00     0.014 A 
ATOM     32  C   UNL A   1      39.584  29.202  27.867  1.00  0.00     0.010 A 
ATOM     33  C   UNL A   1      38.385  28.144  29.687  1.00  0.00     0.010 A 
ATOM     34  C   UNL A   1      39.554  28.279  28.922  1.00  0.00    -0.014 A 
BRANCH  34  35
ATOM     35  C   UNL A   1      40.832  27.612  29.310  1.00  0.00     0.031 A 
ATOM     36  C   UNL A   1      41.202  26.466  28.343  1.00  0.00     0.074 A 
ATOM     37  C   UNL A   1      41.474  28.025  30.445  1.00  0.00     0.049 A 
ATOM     38  N   UNL A   1      41.798  25.331  28.554  1.00  0.00    -0.248 NA
ATOM     39  C   UNL A   1      40.728  26.563  26.938  1.00  0.00     0.031 C 
ATOM     40  C   UNL A   1      41.048  29.157  31.297  1.00  0.00     0.029 A 
ATOM     41  N   UNL A   1      42.602  27.588  31.118  1.00  0.00    -0.354 N 
ATOM     42  C   UNL A   1      41.959  24.691  27.299  1.00  0.00     0.074 A 
ATOM     43  C   UNL A   1      41.150  25.430  26.376  1.00  0.00     0.031 C 
ATOM     44  C   UNL A   1      41.851  29.279  32.380  1.00  0.00     0.029 A 
ATOM     45  C   UNL A   1      42.875  28.251  32.347  1.00  0.00     0.049 A 
ATOM     46  H   UNL A   1      43.176  26.869  30.768  1.00  0.00     0.167 HD
ATOM     47  C   UNL A   1      42.854  23.683  27.063  1.00  0.00     0.034 A 
ATOM     48  C   UNL A   1      43.825  27.970  33.296  1.00  0.00     0.034 A 
ATOM     49  C   UNL A   1      43.536  23.346  28.266  1.00  0.00     0.049 A 
ATOM     50  C   UNL A   1      44.605  26.850  32.746  1.00  0.00     0.074 A 
ATOM     51  C   UNL A   1      43.180  22.713  29.427  1.00  0.00     0.029 A 
ATOM     52  N   UNL A   1      44.784  23.897  28.435  1.00  0.00    -0.354 N 
ATOM     53  N   UNL A   1      45.517  26.949  31.829  1.00  0.00    -0.248 NA
ATOM     54  C   UNL A   1      44.326  25.498  33.251  1.00  0.00     0.031 C 
ATOM     55  C   UNL A   1      44.035  23.277  30.399  1.00  0.00     0.029 A 
ATOM     56  C   UNL A   1      44.923  24.159  29.772  1.00  0.00     0.049 A 
ATOM     57  H   UNL A   1      45.449  24.071  27.731  1.00  0.00     0.167 HD
ATOM     58  C   UNL A   1      45.712  25.641  31.458  1.00  0.00     0.074 A 
ATOM     59  C   UNL A   1      45.229  24.824  32.545  1.00  0.00     0.031 C 
ATOM     60  C   UNL A   1      45.719  25.310  30.145  1.00  0.00     0.034 A 
BRANCH  47  61
ATOM     61  C   UNL A   1      43.411  23.068  25.790  1.00  0.00     0.023 A 
ATOM     62  C   UNL A   1      43.436  21.646  25.731  1.00  0.00     0.031 A 
ATOM     63  C   UNL A   1      44.157  23.728  24.805  1.00  0.00     0.131 A 
ATOM     64  C   UNL A   1      44.269  20.952  24.842  1.00  0.00     0.055 A 
ATOM     65  C   UNL A   1      44.934  23.029  23.866  1.00  0.00     0.041 A 
ATOM     66  F   UNL A   1      44.236  25.063  24.753  1.00  0.00    -0.206 F 
ATOM     67  C   UNL A   1      45.025  21.639  23.904  1.00  0.00     0.022 A 
BRANCH  64  68
ATOM     68  S   UNL A   1      44.474  19.160  25.069  1.00  0.00     0.124 S 
ATOM     69  O   UNL A   1      43.455  18.855  26.066  1.00  0.00    -0.237 OA
ATOM     70  O   UNL A   1      44.222  18.653  23.723  1.00  0.00    -0.237 OA
ATOM     71  O   UNL A   1      45.855  19.034  25.531  1.00  0.00    -0.744 OA
ENDBRANCH  64  68
ENDBRANCH  47  61
BRANCH  48  72
ATOM     72  C   UNL A   1      44.234  28.410  34.700  1.00  0.00     0.023 A 
ATOM     73  C   UNL A   1      44.308  27.597  35.843  1.00  0.00     0.031 A 
ATOM     74  C   UNL A   1      44.606  29.778  34.929  1.00  0.00     0.131 A 
ATOM     75  C   UNL A   1      44.783  28.129  37.077  1.00  0.00     0.055 A 
ATOM     76  C   UNL A   1      45.138  30.275  36.118  1.00  0.00     0.041 A 
ATOM     77  F   UNL A   1      44.469  30.727  33.994  1.00  0.00    -0.206 F 
ATOM     78  C   UNL A   1      45.241  29.443  37.204  1.00  0.00     0.022 A 
BRANCH  75  79
ATOM     79  S   UNL A   1      44.839  27.129  38.594  1.00  0.00     0.124 S 
ATOM     80  O   UNL A   1      46.076  26.376  38.412  1.00  0.00    -0.237 OA
ATOM     81  O   UNL A   1      44.848  28.132  39.653  1.00  0.00    -0.237 OA
ATOM     82  O   UNL A   1      43.611  26.337  38.508  1.00  0.00    -0.744 OA
ENDBRANCH  75  79
ENDBRANCH  48  72
BRANCH  60  83
ATOM     83  C   UNL A   1      46.137  26.442  29.221  1.00  0.00     0.023 A 
ATOM     84  C   UNL A   1      45.165  27.254  28.612  1.00  0.00     0.031 A 
ATOM     85  C   UNL A   1      47.471  26.660  28.832  1.00  0.00     0.131 A 
ATOM     86  C   UNL A   1      45.539  28.227  27.663  1.00  0.00     0.055 A 
ATOM     87  C   UNL A   1      47.847  27.643  27.911  1.00  0.00     0.041 A 
ATOM     88  F   UNL A   1      48.454  25.900  29.315  1.00  0.00    -0.206 F 
ATOM     89  C   UNL A   1      46.876  28.434  27.318  1.00  0.00     0.022 A 
BRANCH  86  90
ATOM     90  S   UNL A   1      44.254  29.245  26.885  1.00  0.00     0.124 S 
ATOM     91  O   UNL A   1      43.438  29.650  28.031  1.00  0.00    -0.237 OA
ATOM     92  O   UNL A   1      45.018  30.296  26.243  1.00  0.00    -0.237 OA
ATOM     93  O   UNL A   1      43.594  28.311  25.965  1.00  0.00    -0.744 OA
ENDBRANCH  86  90
ENDBRANCH  60  83
ENDBRANCH  34  35
ENDBRANCH  26  29
ENDBRANCH  24  25
ENDBRANCH   1  24
TORSDOF 16
ENDMDL
MODEL 2
REMARK VINA RESULT:     -12.2      4.528     10.201
REMARK SMILES O=C(Cc1cccn1-c1ccc2c(c1)OCCO2)NCCCCNC(=O)c1ccc(-c2c3nc(c(-c4cc(S(=O)(=O)[O-])ccc4F)c4ccc([nH]4)c(-c4cc(S(=O)(=O)[O-])ccc4F)c4nc(c(-c5cc(S(=O)(=O)[O-])ccc5F)c5ccc2[nH]5)C=C4)C=C3)cc1
REMARK SMILES IDX 22 1 21 2 20 3 19 4 1 5 2 6 3 8 4 9 5 10 8 11 6 12 7 13 9 14
REMARK SMILES IDX 10 15 14 16 11 17 13 18 12 19 15 20 18 21 16 22 17 23 23 24
REMARK SMILES IDX 24 25 25 26 26 28 27 29 28 30 89 31 29 32 88 33 30 34 31 35
REMARK SMILES IDX 32 36 82 37 33 38 87 39 81 40 83 41 34 42 86 43 80 44 79 45
REMARK SMILES IDX 35 47 67 48 47 49 66 50 48 51 51 52 65 53 84 54 49 55 50 56
REMARK SMILES IDX 64 58 85 59 52 60 36 61 37 62 45 63 38 64 44 65 46 66 43 67
REMARK SMILES IDX 39 68 40 69 41 70 42 71 68 72 69 73 77 74 70 75 76 76 78 77
REMARK SMILES IDX 75 78 71 79 72 80 73 81 74 82 53 83 54 84 62 85 55 86 61 87
REMARK SMILES IDX 63 88 60 89 56 90 57 91 58 92 59 93
REMARK H PARENT 19 7 24 27 83 46 51 57
REMARK Flexibility Score: inf
ROOT
ATOM      1  C   UNL A   1      36.804  23.146  25.454  1.00  0.00     0.023 C 
ENDROOT
BRANCH   1   2
ATOM      2  C   UNL A   1      35.780  23.881  24.574  1.00  0.00     0.023 C 
BRANCH   2   3
ATOM      3  C   UNL A   1      35.111  23.030  23.493  1.00  0.00     0.116 C 
BRANCH   3   4
ATOM      4  N   UNL A   1      33.666  23.033  23.608  1.00  0.00    -0.356 N 
ATOM      5  O   UNL A   1      33.235  24.036  21.587  1.00  0.00    -0.275 OA
ATOM      6  C   UNL A   1      32.828  23.510  22.620  1.00  0.00     0.225 C 
ATOM      7  H   UNL A   1      33.261  22.678  24.433  1.00  0.00     0.163 HD
BRANCH   6   8
ATOM      8  C   UNL A   1      31.340  23.380  22.936  1.00  0.00     0.154 C 
BRANCH   8   9
ATOM      9  C   UNL A   1      31.049  23.746  24.364  1.00  0.00     0.032 A 
ATOM     10  C   UNL A   1      31.064  22.887  25.454  1.00  0.00     0.024 A 
ATOM     11  N   UNL A   1      30.829  25.033  24.854  1.00  0.00    -0.320 N 
ATOM     12  C   UNL A   1      30.931  23.656  26.625  1.00  0.00     0.020 A 
ATOM     13  C   UNL A   1      30.836  24.969  26.233  1.00  0.00     0.091 A 
BRANCH  11  14
ATOM     14  C   UNL A   1      30.678  26.240  24.122  1.00  0.00     0.049 A 
ATOM     15  C   UNL A   1      31.798  26.803  23.494  1.00  0.00     0.031 A 
ATOM     16  C   UNL A   1      29.426  26.854  24.004  1.00  0.00     0.077 A 
ATOM     17  C   UNL A   1      31.647  27.939  22.699  1.00  0.00     0.052 A 
ATOM     18  C   UNL A   1      29.282  27.985  23.200  1.00  0.00     0.163 A 
ATOM     19  C   UNL A   1      30.393  28.527  22.550  1.00  0.00     0.161 A 
ATOM     20  O   UNL A   1      28.019  28.502  23.084  1.00  0.00    -0.486 OA
ATOM     21  O   UNL A   1      30.322  29.611  21.716  1.00  0.00    -0.486 OA
ATOM     22  C   UNL A   1      27.917  29.405  21.977  1.00  0.00     0.271 C 
ATOM     23  C   UNL A   1      29.110  30.345  21.919  1.00  0.00     0.271 C 
ENDBRANCH  11  14
ENDBRANCH   8   9
ENDBRANCH   6   8
ENDBRANCH   3   4
ENDBRANCH   2   3
ENDBRANCH   1   2
BRANCH   1  24
ATOM     24  C   UNL A   1      37.593  24.042  26.411  1.00  0.00     0.116 C 
BRANCH  24  25
ATOM     25  N   UNL A   1      38.822  23.411  26.853  1.00  0.00    -0.352 N 
ATOM     26  C   UNL A   1      40.007  24.000  27.222  1.00  0.00     0.251 C 
ATOM     27  H   UNL A   1      38.804  22.428  26.894  1.00  0.00     0.163 HD
ATOM     28  O   UNL A   1      41.034  23.323  27.182  1.00  0.00    -0.269 OA
BRANCH  26  29
ATOM     29  C   UNL A   1      40.086  25.423  27.636  1.00  0.00     0.039 A 
ATOM     30  C   UNL A   1      39.857  25.723  28.984  1.00  0.00     0.014 A 
ATOM     31  C   UNL A   1      40.270  26.465  26.718  1.00  0.00     0.014 A 
ATOM     32  C   UNL A   1      39.864  27.048  29.422  1.00  0.00     0.010 A 
ATOM     33  C   UNL A   1      40.284  27.796  27.156  1.00  0.00     0.010 A 
ATOM     34  C   UNL A   1      40.097  28.092  28.515  1.00  0.00    -0.014 A 
BRANCH  34  35
ATOM     35  C   UNL A   1      40.325  29.462  29.063  1.00  0.00     0.031 A 
ATOM     36  C   UNL A   1      39.002  30.158  29.449  1.00  0.00     0.074 A 
ATOM     37  C   UNL A   1      41.603  29.950  29.110  1.00  0.00     0.049 A 
ATOM     38  N   UNL A   1      38.648  31.407  29.395  1.00  0.00    -0.248 NA
ATOM     39  C   UNL A   1      37.859  29.300  29.854  1.00  0.00     0.031 C 
ATOM     40  C   UNL A   1      42.816  29.189  28.736  1.00  0.00     0.029 A 
ATOM     41  N   UNL A   1      42.148  31.168  29.474  1.00  0.00    -0.354 N 
ATOM     42  C   UNL A   1      37.347  31.508  29.952  1.00  0.00     0.074 A 
ATOM     43  C   UNL A   1      36.867  30.165  30.073  1.00  0.00     0.031 C 
ATOM     44  C   UNL A   1      43.923  29.962  28.832  1.00  0.00     0.029 A 
ATOM     45  C   UNL A   1      43.552  31.293  29.276  1.00  0.00     0.049 A 
ATOM     46  H   UNL A   1      41.601  31.898  29.846  1.00  0.00     0.167 HD
ATOM     47  C   UNL A   1      36.799  32.676  30.408  1.00  0.00     0.034 A 
ATOM     48  C   UNL A   1      44.356  32.396  29.413  1.00  0.00     0.034 A 
ATOM     49  C   UNL A   1      37.698  33.756  30.185  1.00  0.00     0.049 A 
ATOM     50  C   UNL A   1      43.472  33.464  29.906  1.00  0.00     0.074 A 
ATOM     51  C   UNL A   1      38.130  34.432  29.075  1.00  0.00     0.029 A 
ATOM     52  N   UNL A   1      38.466  34.143  31.257  1.00  0.00    -0.354 N 
ATOM     53  N   UNL A   1      43.054  33.588  31.128  1.00  0.00    -0.248 NA
ATOM     54  C   UNL A   1      42.995  34.468  28.945  1.00  0.00     0.031 C 
ATOM     55  C   UNL A   1      39.424  34.874  29.427  1.00  0.00     0.029 A 
ATOM     56  C   UNL A   1      39.684  34.521  30.756  1.00  0.00     0.049 A 
ATOM     57  H   UNL A   1      38.195  34.147  32.203  1.00  0.00     0.167 HD
ATOM     58  C   UNL A   1      42.050  34.517  31.008  1.00  0.00     0.074 A 
ATOM     59  C   UNL A   1      42.284  35.227  29.773  1.00  0.00     0.031 C 
ATOM     60  C   UNL A   1      40.847  34.284  31.585  1.00  0.00     0.034 A 
BRANCH  47  61
ATOM     61  C   UNL A   1      35.599  32.982  31.289  1.00  0.00     0.023 A 
ATOM     62  C   UNL A   1      34.798  34.094  30.903  1.00  0.00     0.031 A 
ATOM     63  C   UNL A   1      35.363  32.484  32.576  1.00  0.00     0.131 A 
ATOM     64  C   UNL A   1      33.937  34.740  31.802  1.00  0.00     0.055 A 
ATOM     65  C   UNL A   1      34.445  33.087  33.452  1.00  0.00     0.041 A 
ATOM     66  F   UNL A   1      36.057  31.453  33.075  1.00  0.00    -0.206 F 
ATOM     67  C   UNL A   1      33.756  34.241  33.084  1.00  0.00     0.022 A 
BRANCH  64  68
ATOM     68  S   UNL A   1      33.215  36.335  31.315  1.00  0.00     0.124 S 
ATOM     69  O   UNL A   1      34.102  37.289  31.972  1.00  0.00    -0.237 OA
ATOM     70  O   UNL A   1      33.306  36.277  29.859  1.00  0.00    -0.237 OA
ATOM     71  O   UNL A   1      31.858  36.271  31.855  1.00  0.00    -0.744 OA
ENDBRANCH  64  68
ENDBRANCH  47  61
BRANCH  48  72
ATOM     72  C   UNL A   1      45.797  32.826  29.148  1.00  0.00     0.023 A 
ATOM     73  C   UNL A   1      46.328  33.262  27.923  1.00  0.00     0.031 A 
ATOM     74  C   UNL A   1      46.743  32.818  30.227  1.00  0.00     0.131 A 
ATOM     75  C   UNL A   1      47.679  33.709  27.841  1.00  0.00     0.055 A 
ATOM     76  C   UNL A   1      48.041  33.324  30.159  1.00  0.00     0.041 A 
ATOM     77  F   UNL A   1      46.457  32.308  31.432  1.00  0.00    -0.206 F 
ATOM     78  C   UNL A   1      48.516  33.786  28.957  1.00  0.00     0.022 A 
BRANCH  75  79
ATOM     79  S   UNL A   1      48.424  34.225  26.265  1.00  0.00     0.124 S 
ATOM     80  O   UNL A   1      49.418  33.180  26.046  1.00  0.00    -0.237 OA
ATOM     81  O   UNL A   1      47.288  34.233  25.348  1.00  0.00    -0.237 OA
ATOM     82  O   UNL A   1      48.969  35.546  26.579  1.00  0.00    -0.744 OA
ENDBRANCH  75  79
ENDBRANCH  48  72
BRANCH  60  83
ATOM     83  C   UNL A   1      40.906  33.366  32.796  1.00  0.00     0.023 A 
ATOM     84  C   UNL A   1      40.657  31.991  32.655  1.00  0.00     0.031 A 
ATOM     85  C   UNL A   1      41.085  33.841  34.108  1.00  0.00     0.131 A 
ATOM     86  C   UNL A   1      40.593  31.156  33.789  1.00  0.00     0.055 A 
ATOM     87  C   UNL A   1      41.049  33.010  35.232  1.00  0.00     0.041 A 
ATOM     88  F   UNL A   1      41.271  35.140  34.343  1.00  0.00    -0.206 F 
ATOM     89  C   UNL A   1      40.799  31.656  35.076  1.00  0.00     0.022 A 
BRANCH  86  90
ATOM     90  S   UNL A   1      40.251  29.388  33.569  1.00  0.00     0.124 S 
ATOM     91  O   UNL A   1      40.721  28.817  34.832  1.00  0.00    -0.237 OA
ATOM     92  O   UNL A   1      38.819  29.359  33.350  1.00  0.00    -0.237 OA
ATOM     93  O   UNL A   1      41.062  29.030  32.399  1.00  0.00    -0.744 OA
ENDBRANCH  86  90
ENDBRANCH  60  83
ENDBRANCH  34  35
ENDBRANCH  26  29
ENDBRANCH  24  25
ENDBRANCH   1  24
TORSDOF 16
ENDMDL
MODEL 3
REMARK VINA RESULT:     -12.0      4.283      9.639
REMARK SMILES O=C(Cc1cccn1-c1ccc2c(c1)OCCO2)NCCCCNC(=O)c1ccc(-c2c3nc(c(-c4cc(S(=O)(=O)[O-])ccc4F)c4ccc([nH]4)c(-c4cc(S(=O)(=O)[O-])ccc4F)c4nc(c(-c5cc(S(=O)(=O)[O-])ccc5F)c5ccc2[nH]5)C=C4)C=C3)cc1
REMARK SMILES IDX 22 1 21 2 20 3 19 4 1 5 2 6 3 8 4 9 5 10 8 11 6 12 7 13 9 14
REMARK SMILES IDX 10 15 14 16 11 17 13 18 12 19 15 20 18 21 16 22 17 23 23 24
REMARK SMILES IDX 24 25 25 26 26 28 27 29 28 30 89 31 29 32 88 33 30 34 31 35
REMARK SMILES IDX 32 36 82 37 33 38 87 39 81 40 83 41 34 42 86 43 80 44 79 45
REMARK SMILES IDX 35 47 67 48 47 49 66 50 48 51 51 52 65 53 84 54 49 55 50 56
REMARK SMILES IDX 64 58 85 59 52 60 36 61 37 62 45 63 38 64 44 65 46 66 43 67
REMARK SMILES IDX 39 68 40 69 41 70 42 71 68 72 69 73 77 74 70 75 76 76 78 77
REMARK SMILES IDX 75 78 71 79 72 80 73 81 74 82 53 83 54 84 62 85 55 86 61 87
REMARK SMILES IDX 63 88 60 89 56 90 57 91 58 92 59 93
REMARK H PARENT 19 7 24 27 83 46 51 57
REMARK Flexibility Score: inf
ROOT
ATOM      1  C   UNL A   1      31.358  31.921  26.779  1.00  0.00     0.023 C 
ENDROOT
BRANCH   1   2
ATOM      2  C   UNL A   1      31.534  30.516  26.183  1.00  0.00     0.023 C 
BRANCH   2   3
ATOM      3  C   UNL A   1      32.960  29.963  26.211  1.00  0.00     0.116 C 
BRANCH   3   4
ATOM      4  N   UNL A   1      33.299  29.253  24.994  1.00  0.00    -0.356 N 
ATOM      5  O   UNL A   1      33.756  27.229  25.979  1.00  0.00    -0.275 OA
ATOM      6  C   UNL A   1      33.641  27.916  24.967  1.00  0.00     0.225 C 
ATOM      7  H   UNL A   1      33.285  29.749  24.143  1.00  0.00     0.163 HD
BRANCH   6   8
ATOM      8  C   UNL A   1      33.922  27.363  23.571  1.00  0.00     0.154 C 
BRANCH   8   9
ATOM      9  C   UNL A   1      33.364  25.978  23.409  1.00  0.00     0.032 A 
ATOM     10  C   UNL A   1      34.081  24.790  23.460  1.00  0.00     0.024 A 
ATOM     11  N   UNL A   1      32.015  25.643  23.295  1.00  0.00    -0.320 N 
ATOM     12  C   UNL A   1      33.166  23.721  23.456  1.00  0.00     0.020 A 
ATOM     13  C   UNL A   1      31.909  24.270  23.402  1.00  0.00     0.091 A 
BRANCH  11  14
ATOM     14  C   UNL A   1      30.902  26.512  23.155  1.00  0.00     0.049 A 
ATOM     15  C   UNL A   1      29.711  26.212  23.832  1.00  0.00     0.031 A 
ATOM     16  C   UNL A   1      30.990  27.667  22.370  1.00  0.00     0.077 A 
ATOM     17  C   UNL A   1      28.639  27.102  23.772  1.00  0.00     0.052 A 
ATOM     18  C   UNL A   1      29.916  28.556  22.324  1.00  0.00     0.163 A 
ATOM     19  C   UNL A   1      28.741  28.272  23.023  1.00  0.00     0.161 A 
ATOM     20  O   UNL A   1      30.090  29.695  21.581  1.00  0.00    -0.486 OA
ATOM     21  O   UNL A   1      27.661  29.114  23.055  1.00  0.00    -0.486 OA
ATOM     22  C   UNL A   1      29.103  30.685  21.893  1.00  0.00     0.271 C 
ATOM     23  C   UNL A   1      27.716  30.070  21.992  1.00  0.00     0.271 C 
ENDBRANCH  11  14
ENDBRANCH   8   9
ENDBRANCH   6   8
ENDBRANCH   3   4
ENDBRANCH   2   3
ENDBRANCH   1   2
BRANCH   1  24
ATOM     24  C   UNL A   1      32.612  32.798  26.747  1.00  0.00     0.116 C 
BRANCH  24  25
ATOM     25  N   UNL A   1      32.516  33.913  27.669  1.00  0.00    -0.352 N 
ATOM     26  C   UNL A   1      33.219  34.132  28.829  1.00  0.00     0.251 C 
ATOM     27  H   UNL A   1      31.859  34.606  27.433  1.00  0.00     0.163 HD
ATOM     28  O   UNL A   1      32.742  34.897  29.666  1.00  0.00    -0.269 OA
BRANCH  26  29
ATOM     29  C   UNL A   1      34.511  33.457  29.109  1.00  0.00     0.039 A 
ATOM     30  C   UNL A   1      35.570  33.682  28.220  1.00  0.00     0.014 A 
ATOM     31  C   UNL A   1      34.668  32.534  30.150  1.00  0.00     0.014 A 
ATOM     32  C   UNL A   1      36.791  33.031  28.400  1.00  0.00     0.010 A 
ATOM     33  C   UNL A   1      35.896  31.884  30.337  1.00  0.00     0.010 A 
ATOM     34  C   UNL A   1      36.969  32.144  29.471  1.00  0.00    -0.014 A 
BRANCH  34  35
ATOM     35  C   UNL A   1      38.351  31.655  29.759  1.00  0.00     0.031 A 
ATOM     36  C   UNL A   1      39.230  32.753  30.395  1.00  0.00     0.074 A 
ATOM     37  C   UNL A   1      38.688  30.380  29.398  1.00  0.00     0.049 A 
ATOM     38  N   UNL A   1      40.501  33.002  30.281  1.00  0.00    -0.248 NA
ATOM     39  C   UNL A   1      38.555  33.805  31.199  1.00  0.00     0.031 C 
ATOM     40  C   UNL A   1      37.759  29.389  28.811  1.00  0.00     0.029 A 
ATOM     41  N   UNL A   1      39.865  29.653  29.444  1.00  0.00    -0.354 N 
ATOM     42  C   UNL A   1      40.806  34.080  31.150  1.00  0.00     0.074 A 
ATOM     43  C   UNL A   1      39.546  34.618  31.565  1.00  0.00     0.031 C 
ATOM     44  C   UNL A   1      38.403  28.239  28.506  1.00  0.00     0.029 A 
ATOM     45  C   UNL A   1      39.806  28.357  28.861  1.00  0.00     0.049 A 
ATOM     46  H   UNL A   1      40.687  30.010  29.854  1.00  0.00     0.167 HD
ATOM     47  C   UNL A   1      42.069  34.377  31.585  1.00  0.00     0.034 A 
ATOM     48  C   UNL A   1      40.816  27.456  28.636  1.00  0.00     0.034 A 
ATOM     49  C   UNL A   1      43.011  33.489  30.993  1.00  0.00     0.049 A 
ATOM     50  C   UNL A   1      42.022  28.073  29.209  1.00  0.00     0.074 A 
ATOM     51  C   UNL A   1      43.519  33.331  29.732  1.00  0.00     0.029 A 
ATOM     52  N   UNL A   1      43.409  32.421  31.761  1.00  0.00    -0.354 N 
ATOM     53  N   UNL A   1      42.314  28.118  30.472  1.00  0.00    -0.248 NA
ATOM     54  C   UNL A   1      42.976  28.713  28.292  1.00  0.00     0.031 C 
ATOM     55  C   UNL A   1      43.840  31.958  29.663  1.00  0.00     0.029 A 
ATOM     56  C   UNL A   1      43.592  31.365  30.907  1.00  0.00     0.049 A 
ATOM     57  H   UNL A   1      43.538  32.414  32.737  1.00  0.00     0.167 HD
ATOM     58  C   UNL A   1      43.337  29.033  30.511  1.00  0.00     0.074 A 
ATOM     59  C   UNL A   1      43.890  29.096  29.179  1.00  0.00     0.031 C 
ATOM     60  C   UNL A   1      43.303  30.041  31.415  1.00  0.00     0.034 A 
BRANCH  47  61
ATOM     61  C   UNL A   1      42.598  35.251  32.710  1.00  0.00     0.023 A 
ATOM     62  C   UNL A   1      41.948  35.125  33.970  1.00  0.00     0.031 A 
ATOM     63  C   UNL A   1      43.447  36.357  32.575  1.00  0.00     0.131 A 
ATOM     64  C   UNL A   1      42.033  36.118  34.956  1.00  0.00     0.055 A 
ATOM     65  C   UNL A   1      43.589  37.315  33.594  1.00  0.00     0.041 A 
ATOM     66  F   UNL A   1      44.107  36.609  31.439  1.00  0.00    -0.206 F 
ATOM     67  C   UNL A   1      42.854  37.221  34.773  1.00  0.00     0.022 A 
BRANCH  64  68
ATOM     68  S   UNL A   1      40.912  36.020  36.382  1.00  0.00     0.124 S 
ATOM     69  O   UNL A   1      41.686  36.676  37.430  1.00  0.00    -0.237 OA
ATOM     70  O   UNL A   1      39.743  36.751  35.901  1.00  0.00    -0.237 OA
ATOM     71  O   UNL A   1      40.714  34.583  36.560  1.00  0.00    -0.744 OA
ENDBRANCH  64  68
ENDBRANCH  47  61
BRANCH  48  72
ATOM     72  C   UNL A   1      41.047  26.116  27.940  1.00  0.00     0.023 A 
ATOM     73  C   UNL A   1      42.135  25.777  27.119  1.00  0.00     0.031 A 
ATOM     74  C   UNL A   1      40.097  25.056  28.123  1.00  0.00     0.131 A 
ATOM     75  C   UNL A   1      42.260  24.455  26.598  1.00  0.00     0.055 A 
ATOM     76  C   UNL A   1      40.261  23.746  27.672  1.00  0.00     0.041 A 
ATOM     77  F   UNL A   1      38.933  25.234  28.761  1.00  0.00    -0.206 F 
ATOM     78  C   UNL A   1      41.359  23.434  26.910  1.00  0.00     0.022 A 
BRANCH  75  79
ATOM     79  S   UNL A   1      43.619  23.990  25.484  1.00  0.00     0.124 S 
ATOM     80  O   UNL A   1      44.633  23.527  26.425  1.00  0.00    -0.237 OA
ATOM     81  O   UNL A   1      43.017  22.967  24.635  1.00  0.00    -0.237 OA
ATOM     82  O   UNL A   1      43.930  25.248  24.805  1.00  0.00    -0.744 OA
ENDBRANCH  75  79
ENDBRANCH  48  72
BRANCH  60  83
ATOM     83  C   UNL A   1      42.509  29.722  32.671  1.00  0.00     0.023 A 
ATOM     84  C   UNL A   1      41.216  30.244  32.844  1.00  0.00     0.031 A 
ATOM     85  C   UNL A   1      43.049  29.010  33.758  1.00  0.00     0.131 A 
ATOM     86  C   UNL A   1      40.523  30.051  34.055  1.00  0.00     0.055 A 
ATOM     87  C   UNL A   1      42.352  28.793  34.951  1.00  0.00     0.041 A 
ATOM     88  F   UNL A   1      44.290  28.525  33.706  1.00  0.00    -0.206 F 
ATOM     89  C   UNL A   1      41.079  29.318  35.105  1.00  0.00     0.022 A 
BRANCH  86  90
ATOM     90  S   UNL A   1      38.862  30.757  34.247  1.00  0.00     0.124 S 
ATOM     91  O   UNL A   1      39.132  32.196  34.265  1.00  0.00    -0.237 OA
ATOM     92  O   UNL A   1      38.159  30.254  33.084  1.00  0.00    -0.237 OA
ATOM     93  O   UNL A   1      38.407  30.206  35.529  1.00  0.00    -0.744 OA
ENDBRANCH  86  90
ENDBRANCH  60  83
ENDBRANCH  34  35
ENDBRANCH  26  29
ENDBRANCH  24  25
ENDBRANCH   1  24
TORSDOF 16
ENDMDL
