MODEL 1
REMARK VINA RESULT:     -11.2      0.000      0.000
REMARK SMILES N#CCC1(C[N@@H+]2CCO[C@H](CC(=O)NCCCCNC(=O)c3ccc(-c4c5nc(c(-c6cc(S(=O)(=O)[O-])ccc6F)c6ccc([nH]6)c(-c6cc(S(=O)(=O)[O-])ccc6F)c6nc(c(-c7cc(S(=O)(=O)[O-])ccc7F)c7ccc4[nH]7)C=C6)C=C5)cc3)C2)CC1
REMARK SMILES IDX 15 1 14 2 12 3 13 4 11 6 10 7 6 8 7 9 85 10 8 12 9 13 5 14
REMARK SMILES IDX 4 15 86 16 87 17 3 18 2 19 1 20 16 21 17 22 18 23 19 24
REMARK SMILES IDX 20 25 21 27 22 28 23 29 84 30 24 31 83 32 25 33 26 34 27 35
REMARK SMILES IDX 77 36 28 37 82 38 76 39 78 40 29 41 81 42 75 43 74 44 30 46
REMARK SMILES IDX 62 47 42 48 61 49 43 50 46 51 60 52 79 53 44 54 45 55 59 57
REMARK SMILES IDX 80 58 47 59 31 60 32 61 40 62 33 63 39 64 41 65 38 66 34 67
REMARK SMILES IDX 35 68 36 69 37 70 63 71 64 72 72 73 65 74 71 75 73 76 70 77
REMARK SMILES IDX 66 78 67 79 68 80 69 81 48 82 49 83 57 84 50 85 56 86 58 87
REMARK SMILES IDX 55 88 51 89 52 90 53 91 54 92
REMARK H PARENT 14 5 6 11 19 26 78 45 46 56
REMARK Flexibility Score: inf
ROOT
ATOM      1  C   UNL A   1      34.743  29.176  27.586  1.00  0.00     0.116 C 
ENDROOT
BRANCH   1   2
ATOM      2  N   UNL A   1      33.607  28.534  26.661  1.00  0.00    -0.356 N 
ATOM      3  C   UNL A   1      32.477  27.692  26.931  1.00  0.00     0.222 C 
ATOM      4  O   UNL A   1      31.786  28.016  27.910  1.00  0.00    -0.275 OA
ATOM      5  H   UNL A   1      33.701  28.766  25.708  1.00  0.00     0.163 HD
BRANCH   3   6
ATOM      6  C   UNL A   1      31.820  26.339  25.911  1.00  0.00     0.138 C 
BRANCH   6   7
ATOM      7  C   UNL A   1      31.719  25.654  24.242  1.00  0.00     0.182 C 
ATOM      8  N   UNL A   1      32.591  23.224  23.583  1.00  0.00    -0.330 N 
ATOM      9  C   UNL A   1      33.605  23.850  22.718  1.00  0.00     0.291 C 
ATOM     10  C   UNL A   1      31.426  24.153  23.667  1.00  0.00     0.295 C 
ATOM     11  H   UNL A   1      32.265  22.351  23.168  1.00  0.00     0.348 HD
ATOM     12  C   UNL A   1      33.253  25.325  22.314  1.00  0.00     0.222 C 
ATOM     13  O   UNL A   1      32.795  26.200  23.399  1.00  0.00    -0.366 OA
BRANCH   8  14
ATOM     14  C   UNL A   1      33.125  22.740  24.875  1.00  0.00     0.270 C 
BRANCH  14  15
ATOM     15  C   UNL A   1      33.490  21.261  24.708  1.00  0.00     0.032 C 
ATOM     16  C   UNL A   1      32.597  20.323  23.720  1.00  0.00     0.015 C 
ATOM     17  C   UNL A   1      32.072  20.480  25.025  1.00  0.00     0.015 C 
BRANCH  15  18
ATOM     18  C   UNL A   1      35.202  21.230  25.336  1.00  0.00     0.133 C 
BRANCH  18  19
ATOM     19  C   UNL A   1      36.685  21.501  25.142  1.00  0.00     0.063 C 
ATOM     20  N   UNL A   1      37.915  21.726  24.980  1.00  0.00    -0.198 NA
ENDBRANCH  18  19
ENDBRANCH  15  18
ENDBRANCH  14  15
ENDBRANCH   8  14
ENDBRANCH   6   7
ENDBRANCH   3   6
ENDBRANCH   1   2
BRANCH   1  21
ATOM     21  C   UNL A   1      34.672  30.734  27.897  1.00  0.00     0.023 C 
BRANCH  21  22
ATOM     22  C   UNL A   1      33.458  31.656  28.127  1.00  0.00     0.023 C 
BRANCH  22  23
ATOM     23  C   UNL A   1      33.184  32.811  27.149  1.00  0.00     0.116 C 
BRANCH  23  24
ATOM     24  N   UNL A   1      32.667  34.068  27.698  1.00  0.00    -0.352 N 
ATOM     25  C   UNL A   1      33.168  34.865  28.720  1.00  0.00     0.251 C 
ATOM     26  H   UNL A   1      31.840  34.397  27.278  1.00  0.00     0.163 HD
ATOM     27  O   UNL A   1      32.582  35.921  28.987  1.00  0.00    -0.269 OA
BRANCH  25  28
ATOM     28  C   UNL A   1      34.344  34.459  29.544  1.00  0.00     0.039 A 
ATOM     29  C   UNL A   1      34.147  33.971  30.846  1.00  0.00     0.014 A 
ATOM     30  C   UNL A   1      35.645  34.525  29.049  1.00  0.00     0.014 A 
ATOM     31  C   UNL A   1      35.224  33.447  31.579  1.00  0.00     0.010 A 
ATOM     32  C   UNL A   1      36.693  33.910  29.730  1.00  0.00     0.010 A 
ATOM     33  C   UNL A   1      36.499  33.355  31.000  1.00  0.00    -0.014 A 
BRANCH  33  34
ATOM     34  C   UNL A   1      37.641  32.677  31.680  1.00  0.00     0.031 A 
ATOM     35  C   UNL A   1      38.368  31.547  30.996  1.00  0.00     0.074 A 
ATOM     36  C   UNL A   1      37.948  33.000  32.953  1.00  0.00     0.049 A 
ATOM     37  N   UNL A   1      39.304  30.758  31.461  1.00  0.00    -0.248 NA
ATOM     38  C   UNL A   1      37.948  31.229  29.624  1.00  0.00     0.031 C 
ATOM     39  C   UNL A   1      37.264  34.017  33.757  1.00  0.00     0.029 A 
ATOM     40  N   UNL A   1      38.901  32.498  33.804  1.00  0.00    -0.354 N 
ATOM     41  C   UNL A   1      39.563  29.837  30.449  1.00  0.00     0.074 A 
ATOM     42  C   UNL A   1      38.633  30.124  29.378  1.00  0.00     0.031 C 
ATOM     43  C   UNL A   1      37.841  34.086  34.968  1.00  0.00     0.029 A 
ATOM     44  C   UNL A   1      38.911  33.096  35.044  1.00  0.00     0.049 A 
ATOM     45  H   UNL A   1      39.522  31.777  33.551  1.00  0.00     0.167 HD
ATOM     46  C   UNL A   1      40.507  28.861  30.403  1.00  0.00     0.034 A 
ATOM     47  C   UNL A   1      39.695  32.877  36.118  1.00  0.00     0.034 A 
ATOM     48  C   UNL A   1      41.447  28.608  31.468  1.00  0.00     0.049 A 
ATOM     49  C   UNL A   1      40.776  31.831  36.024  1.00  0.00     0.074 A 
ATOM     50  C   UNL A   1      42.482  27.688  31.511  1.00  0.00     0.029 A 
ATOM     51  N   UNL A   1      41.471  29.285  32.682  1.00  0.00    -0.354 N 
ATOM     52  N   UNL A   1      41.047  31.009  35.037  1.00  0.00    -0.248 NA
ATOM     53  C   UNL A   1      41.671  31.702  37.181  1.00  0.00     0.031 C 
ATOM     54  C   UNL A   1      43.099  27.777  32.765  1.00  0.00     0.029 A 
ATOM     55  C   UNL A   1      42.493  28.797  33.482  1.00  0.00     0.049 A 
ATOM     56  H   UNL A   1      40.852  30.007  32.937  1.00  0.00     0.167 HD
ATOM     57  C   UNL A   1      42.165  30.286  35.442  1.00  0.00     0.074 A 
ATOM     58  C   UNL A   1      42.526  30.785  36.754  1.00  0.00     0.031 C 
ATOM     59  C   UNL A   1      42.835  29.301  34.791  1.00  0.00     0.034 A 
BRANCH  46  60
ATOM     60  C   UNL A   1      40.549  27.998  29.162  1.00  0.00     0.023 A 
ATOM     61  C   UNL A   1      41.485  28.230  28.136  1.00  0.00     0.031 A 
ATOM     62  C   UNL A   1      39.617  26.963  28.974  1.00  0.00     0.131 A 
ATOM     63  C   UNL A   1      41.406  27.507  26.937  1.00  0.00     0.055 A 
ATOM     64  C   UNL A   1      39.602  26.186  27.814  1.00  0.00     0.041 A 
ATOM     65  F   UNL A   1      38.688  26.702  29.907  1.00  0.00    -0.206 F 
ATOM     66  C   UNL A   1      40.488  26.468  26.778  1.00  0.00     0.022 A 
BRANCH  63  67
ATOM     67  S   UNL A   1      42.414  28.054  25.531  1.00  0.00     0.124 S 
ATOM     68  O   UNL A   1      43.692  28.338  26.181  1.00  0.00    -0.237 OA
ATOM     69  O   UNL A   1      42.389  26.891  24.653  1.00  0.00    -0.237 OA
ATOM     70  O   UNL A   1      41.701  29.229  25.035  1.00  0.00    -0.744 OA
ENDBRANCH  63  67
ENDBRANCH  46  60
BRANCH  47  71
ATOM     71  C   UNL A   1      39.515  33.677  37.363  1.00  0.00     0.023 A 
ATOM     72  C   UNL A   1      40.274  34.837  37.588  1.00  0.00     0.031 A 
ATOM     73  C   UNL A   1      38.608  33.278  38.360  1.00  0.00     0.131 A 
ATOM     74  C   UNL A   1      40.147  35.534  38.800  1.00  0.00     0.055 A 
ATOM     75  C   UNL A   1      38.452  34.001  39.545  1.00  0.00     0.041 A 
ATOM     76  F   UNL A   1      37.850  32.185  38.190  1.00  0.00    -0.206 F 
ATOM     77  C   UNL A   1      39.233  35.130  39.775  1.00  0.00     0.022 A 
BRANCH  74  78
ATOM     78  S   UNL A   1      41.250  36.940  39.113  1.00  0.00     0.124 S 
ATOM     79  O   UNL A   1      41.967  37.045  37.847  1.00  0.00    -0.237 OA
ATOM     80  O   UNL A   1      40.300  38.009  39.403  1.00  0.00    -0.237 OA
ATOM     81  O   UNL A   1      42.052  36.496  40.251  1.00  0.00    -0.744 OA
ENDBRANCH  74  78
ENDBRANCH  47  71
BRANCH  59  82
ATOM     82  C   UNL A   1      44.054  28.740  35.480  1.00  0.00     0.023 A 
ATOM     83  C   UNL A   1      43.966  27.663  36.379  1.00  0.00     0.031 A 
ATOM     84  C   UNL A   1      45.317  29.319  35.261  1.00  0.00     0.131 A 
ATOM     85  C   UNL A   1      45.106  27.242  37.079  1.00  0.00     0.055 A 
ATOM     86  C   UNL A   1      46.459  28.856  35.915  1.00  0.00     0.041 A 
ATOM     87  F   UNL A   1      45.458  30.350  34.413  1.00  0.00    -0.206 F 
ATOM     88  C   UNL A   1      46.354  27.824  36.843  1.00  0.00     0.022 A 
BRANCH  85  89
ATOM     89  S   UNL A   1      44.912  26.003  38.389  1.00  0.00     0.124 S 
ATOM     90  O   UNL A   1      46.267  25.907  38.921  1.00  0.00    -0.237 OA
ATOM     91  O   UNL A   1      43.926  26.628  39.264  1.00  0.00    -0.237 OA
ATOM     92  O   UNL A   1      44.442  24.818  37.673  1.00  0.00    -0.744 OA
ENDBRANCH  85  89
ENDBRANCH  59  82
ENDBRANCH  33  34
ENDBRANCH  25  28
ENDBRANCH  23  24
ENDBRANCH  22  23
ENDBRANCH  21  22
ENDBRANCH   1  21
TORSDOF 19
ENDMDL
MODEL 2
REMARK VINA RESULT:     -11.2      3.545      9.001
REMARK SMILES N#CCC1(C[N@@H+]2CCO[C@H](CC(=O)NCCCCNC(=O)c3ccc(-c4c5nc(c(-c6cc(S(=O)(=O)[O-])ccc6F)c6ccc([nH]6)c(-c6cc(S(=O)(=O)[O-])ccc6F)c6nc(c(-c7cc(S(=O)(=O)[O-])ccc7F)c7ccc4[nH]7)C=C6)C=C5)cc3)C2)CC1
REMARK SMILES IDX 15 1 14 2 12 3 13 4 11 6 10 7 6 8 7 9 85 10 8 12 9 13 5 14
REMARK SMILES IDX 4 15 86 16 87 17 3 18 2 19 1 20 16 21 17 22 18 23 19 24
REMARK SMILES IDX 20 25 21 27 22 28 23 29 84 30 24 31 83 32 25 33 26 34 27 35
REMARK SMILES IDX 77 36 28 37 82 38 76 39 78 40 29 41 81 42 75 43 74 44 30 46
REMARK SMILES IDX 62 47 42 48 61 49 43 50 46 51 60 52 79 53 44 54 45 55 59 57
REMARK SMILES IDX 80 58 47 59 31 60 32 61 40 62 33 63 39 64 41 65 38 66 34 67
REMARK SMILES IDX 35 68 36 69 37 70 63 71 64 72 72 73 65 74 71 75 73 76 70 77
REMARK SMILES IDX 66 78 67 79 68 80 69 81 48 82 49 83 57 84 50 85 56 86 58 87
REMARK SMILES IDX 55 88 51 89 52 90 53 91 54 92
REMARK H PARENT 14 5 6 11 19 26 78 45 46 56
REMARK Flexibility Score: inf
ROOT
ATOM      1  C   UNL A   1      30.709  26.525  26.285  1.00  0.00     0.116 C 
ENDROOT
BRANCH   1   2
ATOM      2  N   UNL A   1      31.471  25.168  25.916  1.00  0.00    -0.356 N 
ATOM      3  C   UNL A   1      31.215  24.122  24.969  1.00  0.00     0.222 C 
ATOM      4  O   UNL A   1      30.894  24.494  23.829  1.00  0.00    -0.275 OA
ATOM      5  H   UNL A   1      32.287  25.021  26.448  1.00  0.00     0.163 HD
BRANCH   3   6
ATOM      6  C   UNL A   1      31.491  22.337  25.170  1.00  0.00     0.138 C 
BRANCH   6   7
ATOM      7  C   UNL A   1      32.671  21.067  25.683  1.00  0.00     0.182 C 
ATOM      8  N   UNL A   1      35.115  21.600  26.601  1.00  0.00    -0.330 N 
ATOM      9  C   UNL A   1      35.679  20.927  25.418  1.00  0.00     0.291 C 
ATOM     10  C   UNL A   1      33.780  20.992  26.879  1.00  0.00     0.295 C 
ATOM     11  H   UNL A   1      35.708  21.437  27.414  1.00  0.00     0.348 HD
ATOM     12  C   UNL A   1      34.670  19.947  24.721  1.00  0.00     0.222 C 
ATOM     13  O   UNL A   1      33.314  20.461  24.505  1.00  0.00    -0.366 OA
BRANCH   8  14
ATOM     14  C   UNL A   1      35.146  23.077  26.519  1.00  0.00     0.270 C 
BRANCH  14  15
ATOM     15  C   UNL A   1      36.194  23.467  25.472  1.00  0.00     0.032 C 
ATOM     16  C   UNL A   1      37.735  22.975  25.659  1.00  0.00     0.015 C 
ATOM     17  C   UNL A   1      37.396  24.151  26.371  1.00  0.00     0.015 C 
BRANCH  15  18
ATOM     18  C   UNL A   1      35.144  23.948  24.061  1.00  0.00     0.133 C 
BRANCH  18  19
ATOM     19  C   UNL A   1      34.266  23.570  22.879  1.00  0.00     0.063 C 
ATOM     20  N   UNL A   1      33.538  23.257  21.898  1.00  0.00    -0.198 NA
ENDBRANCH  18  19
ENDBRANCH  15  18
ENDBRANCH  14  15
ENDBRANCH   8  14
ENDBRANCH   6   7
ENDBRANCH   3   6
ENDBRANCH   1   2
BRANCH   1  21
ATOM     21  C   UNL A   1      31.387  27.906  25.882  1.00  0.00     0.023 C 
BRANCH  21  22
ATOM     22  C   UNL A   1      31.807  29.107  26.751  1.00  0.00     0.023 C 
BRANCH  22  23
ATOM     23  C   UNL A   1      33.291  29.504  26.835  1.00  0.00     0.116 C 
BRANCH  23  24
ATOM     24  N   UNL A   1      33.613  30.882  27.213  1.00  0.00    -0.352 N 
ATOM     25  C   UNL A   1      34.776  31.404  27.766  1.00  0.00     0.251 C 
ATOM     26  H   UNL A   1      32.897  31.538  27.050  1.00  0.00     0.163 HD
ATOM     27  O   UNL A   1      34.842  32.624  27.963  1.00  0.00    -0.269 OA
BRANCH  25  28
ATOM     28  C   UNL A   1      35.916  30.538  28.189  1.00  0.00     0.039 A 
ATOM     29  C   UNL A   1      37.070  30.469  27.393  1.00  0.00     0.014 A 
ATOM     30  C   UNL A   1      35.881  29.807  29.375  1.00  0.00     0.014 A 
ATOM     31  C   UNL A   1      38.207  29.779  27.847  1.00  0.00     0.010 A 
ATOM     32  C   UNL A   1      37.038  29.214  29.874  1.00  0.00     0.010 A 
ATOM     33  C   UNL A   1      38.220  29.197  29.124  1.00  0.00    -0.014 A 
BRANCH  33  34
ATOM     34  C   UNL A   1      39.445  28.580  29.710  1.00  0.00     0.031 A 
ATOM     35  C   UNL A   1      40.095  29.191  30.926  1.00  0.00     0.074 A 
ATOM     36  C   UNL A   1      40.037  27.543  29.083  1.00  0.00     0.049 A 
ATOM     37  N   UNL A   1      41.221  28.875  31.515  1.00  0.00    -0.248 NA
ATOM     38  C   UNL A   1      39.409  30.343  31.529  1.00  0.00     0.031 C 
ATOM     39  C   UNL A   1      39.556  26.914  27.848  1.00  0.00     0.029 A 
ATOM     40  N   UNL A   1      41.179  26.842  29.383  1.00  0.00    -0.354 N 
ATOM     41  C   UNL A   1      41.391  29.806  32.536  1.00  0.00     0.074 A 
ATOM     42  C   UNL A   1      40.288  30.738  32.437  1.00  0.00     0.031 C 
ATOM     43  C   UNL A   1      40.377  25.903  27.519  1.00  0.00     0.029 A 
ATOM     44  C   UNL A   1      41.461  25.831  28.492  1.00  0.00     0.049 A 
ATOM     45  H   UNL A   1      41.744  27.044  30.163  1.00  0.00     0.167 HD
ATOM     46  C   UNL A   1      42.359  29.864  33.487  1.00  0.00     0.034 A 
ATOM     47  C   UNL A   1      42.475  24.943  28.465  1.00  0.00     0.034 A 
ATOM     48  C   UNL A   1      43.436  28.908  33.590  1.00  0.00     0.049 A 
ATOM     49  C   UNL A   1      43.506  24.987  29.564  1.00  0.00     0.074 A 
ATOM     50  C   UNL A   1      44.439  28.832  34.542  1.00  0.00     0.029 A 
ATOM     51  N   UNL A   1      43.647  27.854  32.710  1.00  0.00    -0.354 N 
ATOM     52  N   UNL A   1      43.618  25.838  30.558  1.00  0.00    -0.248 NA
ATOM     53  C   UNL A   1      44.530  23.935  29.550  1.00  0.00     0.031 C 
ATOM     54  C   UNL A   1      45.281  27.763  34.211  1.00  0.00     0.029 A 
ATOM     55  C   UNL A   1      44.767  27.131  33.090  1.00  0.00     0.049 A 
ATOM     56  H   UNL A   1      43.083  27.651  31.929  1.00  0.00     0.167 HD
ATOM     57  C   UNL A   1      44.708  25.403  31.306  1.00  0.00     0.074 A 
ATOM     58  C   UNL A   1      45.204  24.206  30.657  1.00  0.00     0.031 C 
ATOM     59  C   UNL A   1      45.252  25.943  32.427  1.00  0.00     0.034 A 
BRANCH  46  60
ATOM     60  C   UNL A   1      42.291  31.007  34.474  1.00  0.00     0.023 A 
ATOM     61  C   UNL A   1      42.901  32.248  34.207  1.00  0.00     0.031 A 
ATOM     62  C   UNL A   1      41.656  30.847  35.718  1.00  0.00     0.131 A 
ATOM     63  C   UNL A   1      42.946  33.237  35.200  1.00  0.00     0.055 A 
ATOM     64  C   UNL A   1      41.627  31.869  36.669  1.00  0.00     0.041 A 
ATOM     65  F   UNL A   1      41.071  29.682  36.041  1.00  0.00    -0.206 F 
ATOM     66  C   UNL A   1      42.290  33.068  36.420  1.00  0.00     0.022 A 
BRANCH  63  67
ATOM     67  S   UNL A   1      44.011  34.681  34.932  1.00  0.00     0.124 S 
ATOM     68  O   UNL A   1      45.334  34.063  34.882  1.00  0.00    -0.237 OA
ATOM     69  O   UNL A   1      43.508  35.215  33.673  1.00  0.00    -0.237 OA
ATOM     70  O   UNL A   1      43.764  35.513  36.108  1.00  0.00    -0.744 OA
ENDBRANCH  63  67
ENDBRANCH  46  60
BRANCH  47  71
ATOM     71  C   UNL A   1      42.556  23.919  27.385  1.00  0.00     0.023 A 
ATOM     72  C   UNL A   1      41.994  22.644  27.559  1.00  0.00     0.031 A 
ATOM     73  C   UNL A   1      43.224  24.186  26.177  1.00  0.00     0.131 A 
ATOM     74  C   UNL A   1      42.148  21.667  26.563  1.00  0.00     0.055 A 
ATOM     75  C   UNL A   1      43.335  23.226  25.169  1.00  0.00     0.041 A 
ATOM     76  F   UNL A   1      43.768  25.392  25.955  1.00  0.00    -0.206 F 
ATOM     77  C   UNL A   1      42.805  21.953  25.364  1.00  0.00     0.022 A 
BRANCH  74  78
ATOM     78  S   UNL A   1      41.537  19.990  26.888  1.00  0.00     0.124 S 
ATOM     79  O   UNL A   1      40.772  19.712  25.678  1.00  0.00    -0.237 OA
ATOM     80  O   UNL A   1      42.780  19.242  27.047  1.00  0.00    -0.237 OA
ATOM     81  O   UNL A   1      40.746  20.147  28.107  1.00  0.00    -0.744 OA
ENDBRANCH  74  78
ENDBRANCH  47  71
BRANCH  59  82
ATOM     82  C   UNL A   1      46.414  25.202  33.041  1.00  0.00     0.023 A 
ATOM     83  C   UNL A   1      46.222  24.155  33.959  1.00  0.00     0.031 A 
ATOM     84  C   UNL A   1      47.733  25.577  32.729  1.00  0.00     0.131 A 
ATOM     85  C   UNL A   1      47.328  23.565  34.587  1.00  0.00     0.055 A 
ATOM     86  C   UNL A   1      48.832  24.945  33.312  1.00  0.00     0.041 A 
ATOM     87  F   UNL A   1      47.974  26.571  31.860  1.00  0.00    -0.206 F 
ATOM     88  C   UNL A   1      48.633  23.945  34.259  1.00  0.00     0.022 A 
BRANCH  85  89
ATOM     89  S   UNL A   1      47.036  22.375  35.924  1.00  0.00     0.124 S 
ATOM     90  O   UNL A   1      46.223  23.154  36.852  1.00  0.00    -0.237 OA
ATOM     91  O   UNL A   1      46.349  21.291  35.229  1.00  0.00    -0.237 OA
ATOM     92  O   UNL A   1      48.381  22.053  36.397  1.00  0.00    -0.744 OA
ENDBRANCH  85  89
ENDBRANCH  59  82
ENDBRANCH  33  34
ENDBRANCH  25  28
ENDBRANCH  23  24
ENDBRANCH  22  23
ENDBRANCH  21  22
ENDBRANCH   1  21
TORSDOF 19
ENDMDL
MODEL 3
REMARK VINA RESULT:     -11.0      1.776      7.877
REMARK SMILES N#CCC1(C[N@@H+]2CCO[C@H](CC(=O)NCCCCNC(=O)c3ccc(-c4c5nc(c(-c6cc(S(=O)(=O)[O-])ccc6F)c6ccc([nH]6)c(-c6cc(S(=O)(=O)[O-])ccc6F)c6nc(c(-c7cc(S(=O)(=O)[O-])ccc7F)c7ccc4[nH]7)C=C6)C=C5)cc3)C2)CC1
REMARK SMILES IDX 15 1 14 2 12 3 13 4 11 6 10 7 6 8 7 9 85 10 8 12 9 13 5 14
REMARK SMILES IDX 4 15 86 16 87 17 3 18 2 19 1 20 16 21 17 22 18 23 19 24
REMARK SMILES IDX 20 25 21 27 22 28 23 29 84 30 24 31 83 32 25 33 26 34 27 35
REMARK SMILES IDX 77 36 28 37 82 38 76 39 78 40 29 41 81 42 75 43 74 44 30 46
REMARK SMILES IDX 62 47 42 48 61 49 43 50 46 51 60 52 79 53 44 54 45 55 59 57
REMARK SMILES IDX 80 58 47 59 31 60 32 61 40 62 33 63 39 64 41 65 38 66 34 67
REMARK SMILES IDX 35 68 36 69 37 70 63 71 64 72 72 73 65 74 71 75 73 76 70 77
REMARK SMILES IDX 66 78 67 79 68 80 69 81 48 82 49 83 57 84 50 85 56 86 58 87
REMARK SMILES IDX 55 88 51 89 52 90 53 91 54 92
REMARK H PARENT 14 5 6 11 19 26 78 45 46 56
REMARK Flexibility Score: inf
ROOT
ATOM      1  C   UNL A   1      35.233  30.697  28.154  1.00  0.00     0.116 C 
ENDROOT
BRANCH   1   2
ATOM      2  N   UNL A   1      34.981  29.829  26.834  1.00  0.00    -0.356 N 
ATOM      3  C   UNL A   1      33.799  29.319  26.202  1.00  0.00     0.222 C 
ATOM      4  O   UNL A   1      32.854  30.118  26.105  1.00  0.00    -0.275 OA
ATOM      5  H   UNL A   1      35.810  29.597  26.356  1.00  0.00     0.163 HD
BRANCH   3   6
ATOM      6  C   UNL A   1      33.581  27.728  25.352  1.00  0.00     0.138 C 
BRANCH   6   7
ATOM      7  C   UNL A   1      32.682  26.851  24.052  1.00  0.00     0.182 C 
ATOM      8  N   UNL A   1      32.337  24.209  24.013  1.00  0.00    -0.330 N 
ATOM      9  C   UNL A   1      33.153  24.146  22.789  1.00  0.00     0.291 C 
ATOM     10  C   UNL A   1      31.690  25.554  24.061  1.00  0.00     0.295 C 
ATOM     11  H   UNL A   1      31.597  23.508  23.979  1.00  0.00     0.348 HD
ATOM     12  C   UNL A   1      33.246  25.518  22.031  1.00  0.00     0.222 C 
ATOM     13  O   UNL A   1      33.531  26.694  22.859  1.00  0.00    -0.366 OA
BRANCH   8  14
ATOM     14  C   UNL A   1      33.061  23.798  25.236  1.00  0.00     0.270 C 
BRANCH  14  15
ATOM     15  C   UNL A   1      32.373  22.545  25.790  1.00  0.00     0.032 C 
ATOM     16  C   UNL A   1      30.749  22.504  25.893  1.00  0.00     0.015 C 
ATOM     17  C   UNL A   1      31.397  23.141  26.979  1.00  0.00     0.015 C 
BRANCH  15  18
ATOM     18  C   UNL A   1      33.700  21.303  25.648  1.00  0.00     0.133 C 
BRANCH  18  19
ATOM     19  C   UNL A   1      35.128  20.932  25.283  1.00  0.00     0.063 C 
ATOM     20  N   UNL A   1      36.313  20.624  24.981  1.00  0.00    -0.198 NA
ENDBRANCH  18  19
ENDBRANCH  15  18
ENDBRANCH  14  15
ENDBRANCH   8  14
ENDBRANCH   6   7
ENDBRANCH   3   6
ENDBRANCH   1   2
BRANCH   1  21
ATOM     21  C   UNL A   1      35.791  32.177  27.989  1.00  0.00     0.023 C 
BRANCH  21  22
ATOM     22  C   UNL A   1      35.066  33.536  28.060  1.00  0.00     0.023 C 
BRANCH  22  23
ATOM     23  C   UNL A   1      33.554  33.577  28.337  1.00  0.00     0.116 C 
BRANCH  23  24
ATOM     24  N   UNL A   1      33.053  34.597  29.263  1.00  0.00    -0.352 N 
ATOM     25  C   UNL A   1      33.533  34.979  30.509  1.00  0.00     0.251 C 
ATOM     26  H   UNL A   1      32.256  35.085  28.954  1.00  0.00     0.163 HD
ATOM     27  O   UNL A   1      32.969  35.908  31.100  1.00  0.00    -0.269 OA
BRANCH  25  28
ATOM     28  C   UNL A   1      34.658  34.267  31.183  1.00  0.00     0.039 A 
ATOM     29  C   UNL A   1      34.457  32.977  31.699  1.00  0.00     0.014 A 
ATOM     30  C   UNL A   1      35.924  34.838  31.297  1.00  0.00     0.014 A 
ATOM     31  C   UNL A   1      35.538  32.235  32.201  1.00  0.00     0.010 A 
ATOM     32  C   UNL A   1      37.014  34.068  31.696  1.00  0.00     0.010 A 
ATOM     33  C   UNL A   1      36.841  32.753  32.146  1.00  0.00    -0.014 A 
BRANCH  33  34
ATOM     34  C   UNL A   1      38.039  31.954  32.533  1.00  0.00     0.031 A 
ATOM     35  C   UNL A   1      38.768  32.253  33.818  1.00  0.00     0.074 A 
ATOM     36  C   UNL A   1      38.537  31.039  31.676  1.00  0.00     0.049 A 
ATOM     37  N   UNL A   1      39.890  31.753  34.275  1.00  0.00    -0.248 NA
ATOM     38  C   UNL A   1      38.184  33.291  34.679  1.00  0.00     0.031 C 
ATOM     39  C   UNL A   1      37.975  30.716  30.361  1.00  0.00     0.029 A 
ATOM     40  N   UNL A   1      39.638  30.224  31.769  1.00  0.00    -0.354 N 
ATOM     41  C   UNL A   1      40.156  32.435  35.459  1.00  0.00     0.074 A 
ATOM     42  C   UNL A   1      39.116  33.431  35.608  1.00  0.00     0.031 C 
ATOM     43  C   UNL A   1      38.713  29.750  29.789  1.00  0.00     0.029 A 
ATOM     44  C   UNL A   1      39.821  29.409  30.675  1.00  0.00     0.049 A 
ATOM     45  H   UNL A   1      40.241  30.221  32.548  1.00  0.00     0.167 HD
ATOM     46  C   UNL A   1      41.156  32.232  36.355  1.00  0.00     0.034 A 
ATOM     47  C   UNL A   1      40.771  28.488  30.416  1.00  0.00     0.034 A 
ATOM     48  C   UNL A   1      42.168  31.213  36.206  1.00  0.00     0.049 A 
ATOM     49  C   UNL A   1      41.837  28.236  31.450  1.00  0.00     0.074 A 
ATOM     50  C   UNL A   1      43.193  30.877  37.074  1.00  0.00     0.029 A 
ATOM     51  N   UNL A   1      42.277  30.359  35.116  1.00  0.00    -0.354 N 
ATOM     52  N   UNL A   1      42.040  28.849  32.594  1.00  0.00    -0.248 NA
ATOM     53  C   UNL A   1      42.786  27.151  31.169  1.00  0.00     0.031 C 
ATOM     54  C   UNL A   1      43.949  29.854  36.488  1.00  0.00     0.029 A 
ATOM     55  C   UNL A   1      43.357  29.505  35.284  1.00  0.00     0.049 A 
ATOM     56  H   UNL A   1      41.675  30.359  34.337  1.00  0.00     0.167 HD
ATOM     57  C   UNL A   1      43.122  28.201  33.183  1.00  0.00     0.074 A 
ATOM     58  C   UNL A   1      43.513  27.141  32.276  1.00  0.00     0.031 C 
ATOM     59  C   UNL A   1      43.737  28.457  34.366  1.00  0.00     0.034 A 
BRANCH  46  60
ATOM     60  C   UNL A   1      41.199  33.142  37.562  1.00  0.00     0.023 A 
ATOM     61  C   UNL A   1      40.549  32.802  38.763  1.00  0.00     0.031 A 
ATOM     62  C   UNL A   1      41.853  34.385  37.502  1.00  0.00     0.131 A 
ATOM     63  C   UNL A   1      40.485  33.730  39.813  1.00  0.00     0.055 A 
ATOM     64  C   UNL A   1      41.862  35.267  38.585  1.00  0.00     0.041 A 
ATOM     65  F   UNL A   1      42.478  34.776  36.380  1.00  0.00    -0.206 F 
ATOM     66  C   UNL A   1      41.159  34.950  39.744  1.00  0.00     0.022 A 
BRANCH  63  67
ATOM     67  S   UNL A   1      39.373  33.383  41.204  1.00  0.00     0.124 S 
ATOM     68  O   UNL A   1      38.208  34.195  40.858  1.00  0.00    -0.237 OA
ATOM     69  O   UNL A   1      39.193  31.939  41.113  1.00  0.00    -0.237 OA
ATOM     70  O   UNL A   1      40.123  33.848  42.369  1.00  0.00    -0.744 OA
ENDBRANCH  63  67
ENDBRANCH  46  60
BRANCH  47  71
ATOM     71  C   UNL A   1      40.746  27.712  29.143  1.00  0.00     0.023 A 
ATOM     72  C   UNL A   1      41.648  28.002  28.107  1.00  0.00     0.031 A 
ATOM     73  C   UNL A   1      39.801  26.693  28.929  1.00  0.00     0.131 A 
ATOM     74  C   UNL A   1      41.560  27.315  26.886  1.00  0.00     0.055 A 
ATOM     75  C   UNL A   1      39.747  25.980  27.729  1.00  0.00     0.041 A 
ATOM     76  F   UNL A   1      38.924  26.368  29.890  1.00  0.00    -0.206 F 
ATOM     77  C   UNL A   1      40.622  26.298  26.695  1.00  0.00     0.022 A 
BRANCH  74  78
ATOM     78  S   UNL A   1      42.646  27.820  25.523  1.00  0.00     0.124 S 
ATOM     79  O   UNL A   1      41.947  28.989  25.003  1.00  0.00    -0.237 OA
ATOM     80  O   UNL A   1      43.902  28.080  26.219  1.00  0.00    -0.237 OA
ATOM     81  O   UNL A   1      42.653  26.653  24.644  1.00  0.00    -0.744 OA
ENDBRANCH  74  78
ENDBRANCH  47  71
BRANCH  59  82
ATOM     82  C   UNL A   1      44.866  27.535  34.757  1.00  0.00     0.023 A 
ATOM     83  C   UNL A   1      44.626  26.282  35.347  1.00  0.00     0.031 A 
ATOM     84  C   UNL A   1      46.200  27.934  34.568  1.00  0.00     0.131 A 
ATOM     85  C   UNL A   1      45.703  25.503  35.793  1.00  0.00     0.055 A 
ATOM     86  C   UNL A   1      47.269  27.127  34.958  1.00  0.00     0.041 A 
ATOM     87  F   UNL A   1      46.486  29.121  34.008  1.00  0.00    -0.206 F 
ATOM     88  C   UNL A   1      47.024  25.912  35.590  1.00  0.00     0.022 A 
BRANCH  85  89
ATOM     89  S   UNL A   1      45.352  24.001  36.747  1.00  0.00     0.124 S 
ATOM     90  O   UNL A   1      44.349  23.341  35.919  1.00  0.00    -0.237 OA
ATOM     91  O   UNL A   1      46.659  23.355  36.802  1.00  0.00    -0.237 OA
ATOM     92  O   UNL A   1      44.861  24.514  38.026  1.00  0.00    -0.744 OA
ENDBRANCH  85  89
ENDBRANCH  59  82
ENDBRANCH  33  34
ENDBRANCH  25  28
ENDBRANCH  23  24
ENDBRANCH  22  23
ENDBRANCH  21  22
ENDBRANCH   1  21
TORSDOF 19
ENDMDL
