MODEL 1
REMARK VINA RESULT:     -12.2      0.000      0.000
REMARK SMILES CC1(C)CCN(c2ncccc2C(=O)NCCCCNC(=O)c2ccc(-c3c4nc(c(-c5cc(S(=O)(=O)[O-])ccc5F)c5ccc([nH]5)c(-c5cc(S(=O)(=O)[O-])ccc5F)c5nc(c(-c6cc(S(=O)(=O)[O-])ccc6F)c6ccc3[nH]6)C=C5)C=C4)cc2)C1
REMARK SMILES IDX 18 1 17 2 16 3 15 4 13 5 14 6 12 8 7 9 8 10 9 11 11 12 10 13
REMARK SMILES IDX 6 14 1 15 2 16 3 17 4 18 86 19 5 20 19 21 20 22 21 23 22 25
REMARK SMILES IDX 23 26 24 27 85 28 25 29 84 30 26 31 27 32 28 33 78 34 29 35
REMARK SMILES IDX 83 36 77 37 79 38 30 39 82 40 76 41 75 42 31 44 63 45 43 46
REMARK SMILES IDX 62 47 44 48 47 49 61 50 80 51 45 52 46 53 60 55 81 56 48 57
REMARK SMILES IDX 32 58 33 59 41 60 34 61 40 62 42 63 39 64 35 65 36 66 37 67
REMARK SMILES IDX 38 68 64 69 65 70 73 71 66 72 72 73 74 74 71 75 67 76 68 77
REMARK SMILES IDX 69 78 70 79 49 80 50 81 58 82 51 83 57 84 59 85 56 86 52 87
REMARK SMILES IDX 53 88 54 89 55 90
REMARK H PARENT 15 7 20 24 79 43 47 54
REMARK Flexibility Score: inf
ROOT
ATOM      1  C   UNL A   1      31.717  31.610  26.763  1.00  0.00     0.023 C 
ENDROOT
BRANCH   1   2
ATOM      2  C   UNL A   1      32.094  30.407  25.886  1.00  0.00     0.023 C 
BRANCH   2   3
ATOM      3  C   UNL A   1      32.707  29.237  26.656  1.00  0.00     0.116 C 
BRANCH   3   4
ATOM      4  N   UNL A   1      31.768  28.140  26.740  1.00  0.00    -0.352 N 
ATOM      5  C   UNL A   1      31.245  27.218  25.867  1.00  0.00     0.255 C 
ATOM      6  O   UNL A   1      30.446  26.455  26.409  1.00  0.00    -0.269 OA
ATOM      7  H   UNL A   1      31.414  28.026  27.651  1.00  0.00     0.163 HD
BRANCH   5   8
ATOM      8  C   UNL A   1      31.625  27.088  24.412  1.00  0.00     0.082 A 
ATOM      9  C   UNL A   1      30.711  27.434  23.389  1.00  0.00     0.141 A 
ATOM     10  N   UNL A   1      30.943  27.107  22.085  1.00  0.00    -0.238 NA
ATOM     11  C   UNL A   1      32.107  26.522  21.752  1.00  0.00     0.113 A 
ATOM     12  C   UNL A   1      32.860  26.566  24.000  1.00  0.00     0.019 A 
ATOM     13  C   UNL A   1      33.104  26.264  22.663  1.00  0.00     0.021 A 
BRANCH   9  14
ATOM     14  N   UNL A   1      29.591  28.206  23.597  1.00  0.00    -0.355 N 
ATOM     15  C   UNL A   1      28.358  30.248  21.397  1.00  0.00     0.013 C 
ATOM     16  C   UNL A   1      28.340  30.125  22.929  1.00  0.00    -0.016 C 
ATOM     17  C   UNL A   1      27.929  31.468  23.540  1.00  0.00     0.013 C 
ATOM     18  C   UNL A   1      27.411  28.988  23.386  1.00  0.00     0.030 C 
ATOM     19  C   UNL A   1      29.717  29.660  23.459  1.00  0.00     0.124 C 
ATOM     20  C   UNL A   1      28.271  27.737  23.217  1.00  0.00     0.119 C 
ENDBRANCH   9  14
ENDBRANCH   5   8
ENDBRANCH   3   4
ENDBRANCH   2   3
ENDBRANCH   1   2
BRANCH   1  21
ATOM     21  C   UNL A   1      32.893  32.391  27.344  1.00  0.00     0.116 C 
BRANCH  21  22
ATOM     22  N   UNL A   1      32.574  33.783  27.617  1.00  0.00    -0.352 N 
ATOM     23  C   UNL A   1      33.148  34.636  28.530  1.00  0.00     0.251 C 
ATOM     24  H   UNL A   1      31.846  34.166  27.076  1.00  0.00     0.163 HD
ATOM     25  O   UNL A   1      32.674  35.750  28.703  1.00  0.00    -0.269 OA
BRANCH  23  26
ATOM     26  C   UNL A   1      34.308  34.176  29.323  1.00  0.00     0.039 A 
ATOM     27  C   UNL A   1      34.075  33.417  30.471  1.00  0.00     0.014 A 
ATOM     28  C   UNL A   1      35.614  34.471  28.922  1.00  0.00     0.014 A 
ATOM     29  C   UNL A   1      35.157  32.895  31.183  1.00  0.00     0.010 A 
ATOM     30  C   UNL A   1      36.689  33.901  29.599  1.00  0.00     0.010 A 
ATOM     31  C   UNL A   1      36.470  33.104  30.732  1.00  0.00    -0.014 A 
BRANCH  31  32
ATOM     32  C   UNL A   1      37.628  32.491  31.434  1.00  0.00     0.031 A 
ATOM     33  C   UNL A   1      38.363  31.340  30.807  1.00  0.00     0.074 A 
ATOM     34  C   UNL A   1      37.972  32.932  32.659  1.00  0.00     0.049 A 
ATOM     35  N   UNL A   1      39.347  30.625  31.289  1.00  0.00    -0.248 NA
ATOM     36  C   UNL A   1      37.909  30.920  29.474  1.00  0.00     0.031 C 
ATOM     37  C   UNL A   1      37.306  34.016  33.384  1.00  0.00     0.029 A 
ATOM     38  N   UNL A   1      38.961  32.520  33.515  1.00  0.00    -0.354 N 
ATOM     39  C   UNL A   1      39.625  29.663  30.322  1.00  0.00     0.074 A 
ATOM     40  C   UNL A   1      38.659  29.849  29.259  1.00  0.00     0.031 C 
ATOM     41  C   UNL A   1      37.920  34.198  34.564  1.00  0.00     0.029 A 
ATOM     42  C   UNL A   1      38.995  33.219  34.700  1.00  0.00     0.049 A 
ATOM     43  H   UNL A   1      39.588  31.791  33.303  1.00  0.00     0.167 HD
ATOM     44  C   UNL A   1      40.609  28.728  30.312  1.00  0.00     0.034 A 
ATOM     45  C   UNL A   1      39.795  33.081  35.774  1.00  0.00     0.034 A 
ATOM     46  C   UNL A   1      41.565  28.560  31.381  1.00  0.00     0.049 A 
ATOM     47  C   UNL A   1      40.864  32.020  35.753  1.00  0.00     0.074 A 
ATOM     48  C   UNL A   1      42.628  27.678  31.459  1.00  0.00     0.029 A 
ATOM     49  N   UNL A   1      41.568  29.288  32.565  1.00  0.00    -0.354 N 
ATOM     50  N   UNL A   1      41.143  31.146  34.814  1.00  0.00    -0.248 NA
ATOM     51  C   UNL A   1      41.732  31.934  36.934  1.00  0.00     0.031 C 
ATOM     52  C   UNL A   1      43.236  27.829  32.710  1.00  0.00     0.029 A 
ATOM     53  C   UNL A   1      42.598  28.856  33.388  1.00  0.00     0.049 A 
ATOM     54  H   UNL A   1      40.933  30.006  32.788  1.00  0.00     0.167 HD
ATOM     55  C   UNL A   1      42.240  30.427  35.279  1.00  0.00     0.074 A 
ATOM     56  C   UNL A   1      42.578  30.978  36.576  1.00  0.00     0.031 C 
ATOM     57  C   UNL A   1      42.912  29.407  34.686  1.00  0.00     0.034 A 
BRANCH  44  58
ATOM     58  C   UNL A   1      40.670  27.807  29.117  1.00  0.00     0.023 A 
ATOM     59  C   UNL A   1      41.616  27.993  28.093  1.00  0.00     0.031 A 
ATOM     60  C   UNL A   1      39.745  26.759  28.972  1.00  0.00     0.131 A 
ATOM     61  C   UNL A   1      41.559  27.208  26.932  1.00  0.00     0.055 A 
ATOM     62  C   UNL A   1      39.750  25.921  27.852  1.00  0.00     0.041 A 
ATOM     63  F   UNL A   1      38.805  26.541  29.905  1.00  0.00    -0.206 F 
ATOM     64  C   UNL A   1      40.648  26.156  26.815  1.00  0.00     0.022 A 
BRANCH  61  65
ATOM     65  S   UNL A   1      42.584  27.686  25.514  1.00  0.00     0.124 S 
ATOM     66  O   UNL A   1      43.875  27.930  26.153  1.00  0.00    -0.237 OA
ATOM     67  O   UNL A   1      42.507  26.509  24.658  1.00  0.00    -0.237 OA
ATOM     68  O   UNL A   1      41.918  28.880  24.997  1.00  0.00    -0.744 OA
ENDBRANCH  61  65
ENDBRANCH  44  58
BRANCH  45  69
ATOM     69  C   UNL A   1      39.623  33.966  36.960  1.00  0.00     0.023 A 
ATOM     70  C   UNL A   1      39.033  33.484  38.140  1.00  0.00     0.031 A 
ATOM     71  C   UNL A   1      40.016  35.316  36.922  1.00  0.00     0.131 A 
ATOM     72  C   UNL A   1      38.811  34.354  39.218  1.00  0.00     0.055 A 
ATOM     73  C   UNL A   1      39.837  36.166  38.015  1.00  0.00     0.041 A 
ATOM     74  F   UNL A   1      40.592  35.824  35.822  1.00  0.00    -0.206 F 
ATOM     75  C   UNL A   1      39.220  35.689  39.168  1.00  0.00     0.022 A 
BRANCH  72  76
ATOM     76  S   UNL A   1      37.913  33.732  40.665  1.00  0.00     0.124 S 
ATOM     77  O   UNL A   1      37.675  34.957  41.418  1.00  0.00    -0.237 OA
ATOM     78  O   UNL A   1      36.741  33.116  40.052  1.00  0.00    -0.237 OA
ATOM     79  O   UNL A   1      38.857  32.797  41.274  1.00  0.00    -0.744 OA
ENDBRANCH  72  76
ENDBRANCH  45  69
BRANCH  57  80
ATOM     80  C   UNL A   1      44.109  28.860  35.424  1.00  0.00     0.023 A 
ATOM     81  C   UNL A   1      43.997  27.782  36.320  1.00  0.00     0.031 A 
ATOM     82  C   UNL A   1      45.377  29.439  35.240  1.00  0.00     0.131 A 
ATOM     83  C   UNL A   1      45.121  27.353  37.040  1.00  0.00     0.055 A 
ATOM     84  C   UNL A   1      46.504  28.970  35.916  1.00  0.00     0.041 A 
ATOM     85  F   UNL A   1      45.540  30.472  34.399  1.00  0.00    -0.206 F 
ATOM     86  C   UNL A   1      46.377  27.929  36.832  1.00  0.00     0.022 A 
BRANCH  83  87
ATOM     87  S   UNL A   1      44.904  26.086  38.321  1.00  0.00     0.124 S 
ATOM     88  O   UNL A   1      44.758  24.871  37.526  1.00  0.00    -0.237 OA
ATOM     89  O   UNL A   1      46.140  26.202  39.088  1.00  0.00    -0.237 OA
ATOM     90  O   UNL A   1      43.697  26.515  39.026  1.00  0.00    -0.744 OA
ENDBRANCH  83  87
ENDBRANCH  57  80
ENDBRANCH  31  32
ENDBRANCH  23  26
ENDBRANCH  21  22
ENDBRANCH   1  21
TORSDOF 15
ENDMDL
MODEL 2
REMARK VINA RESULT:     -11.9      4.221      9.259
REMARK SMILES CC1(C)CCN(c2ncccc2C(=O)NCCCCNC(=O)c2ccc(-c3c4nc(c(-c5cc(S(=O)(=O)[O-])ccc5F)c5ccc([nH]5)c(-c5cc(S(=O)(=O)[O-])ccc5F)c5nc(c(-c6cc(S(=O)(=O)[O-])ccc6F)c6ccc3[nH]6)C=C5)C=C4)cc2)C1
REMARK SMILES IDX 18 1 17 2 16 3 15 4 13 5 14 6 12 8 7 9 8 10 9 11 11 12 10 13
REMARK SMILES IDX 6 14 1 15 2 16 3 17 4 18 86 19 5 20 19 21 20 22 21 23 22 25
REMARK SMILES IDX 23 26 24 27 85 28 25 29 84 30 26 31 27 32 28 33 78 34 29 35
REMARK SMILES IDX 83 36 77 37 79 38 30 39 82 40 76 41 75 42 31 44 63 45 43 46
REMARK SMILES IDX 62 47 44 48 47 49 61 50 80 51 45 52 46 53 60 55 81 56 48 57
REMARK SMILES IDX 32 58 33 59 41 60 34 61 40 62 42 63 39 64 35 65 36 66 37 67
REMARK SMILES IDX 38 68 64 69 65 70 73 71 66 72 72 73 74 74 71 75 67 76 68 77
REMARK SMILES IDX 69 78 70 79 49 80 50 81 58 82 51 83 57 84 59 85 56 86 52 87
REMARK SMILES IDX 53 88 54 89 55 90
REMARK H PARENT 15 7 20 24 79 43 47 54
REMARK Flexibility Score: inf
ROOT
ATOM      1  C   UNL A   1      33.471  28.284  25.009  1.00  0.00     0.023 C 
ENDROOT
BRANCH   1   2
ATOM      2  C   UNL A   1      34.174  28.499  23.660  1.00  0.00     0.023 C 
BRANCH   2   3
ATOM      3  C   UNL A   1      33.227  28.552  22.461  1.00  0.00     0.116 C 
BRANCH   3   4
ATOM      4  N   UNL A   1      33.346  27.348  21.669  1.00  0.00    -0.352 N 
ATOM      5  C   UNL A   1      33.011  26.025  21.826  1.00  0.00     0.255 C 
ATOM      6  O   UNL A   1      33.324  25.341  20.852  1.00  0.00    -0.269 OA
ATOM      7  H   UNL A   1      33.775  27.519  20.800  1.00  0.00     0.163 HD
BRANCH   5   8
ATOM      8  C   UNL A   1      32.290  25.448  23.019  1.00  0.00     0.082 A 
ATOM      9  C   UNL A   1      32.900  24.460  23.827  1.00  0.00     0.141 A 
ATOM     10  N   UNL A   1      32.187  23.762  24.760  1.00  0.00    -0.238 NA
ATOM     11  C   UNL A   1      30.899  24.082  24.975  1.00  0.00     0.113 A 
ATOM     12  C   UNL A   1      30.974  25.806  23.349  1.00  0.00     0.019 A 
ATOM     13  C   UNL A   1      30.262  25.112  24.324  1.00  0.00     0.021 A 
BRANCH   9  14
ATOM     14  N   UNL A   1      34.250  24.198  23.824  1.00  0.00    -0.355 N 
ATOM     15  C   UNL A   1      35.697  22.085  25.815  1.00  0.00     0.013 C 
ATOM     16  C   UNL A   1      36.118  23.340  25.035  1.00  0.00    -0.016 C 
ATOM     17  C   UNL A   1      37.427  23.883  25.617  1.00  0.00     0.013 C 
ATOM     18  C   UNL A   1      36.248  23.044  23.532  1.00  0.00     0.030 C 
ATOM     19  C   UNL A   1      35.000  24.408  25.067  1.00  0.00     0.124 C 
ATOM     20  C   UNL A   1      34.807  23.120  23.029  1.00  0.00     0.119 C 
ENDBRANCH   9  14
ENDBRANCH   5   8
ENDBRANCH   3   4
ENDBRANCH   2   3
ENDBRANCH   1   2
BRANCH   1  21
ATOM     21  C   UNL A   1      34.247  28.760  26.235  1.00  0.00     0.116 C 
BRANCH  21  22
ATOM     22  N   UNL A   1      33.879  30.103  26.655  1.00  0.00    -0.352 N 
ATOM     23  C   UNL A   1      34.504  30.921  27.566  1.00  0.00     0.251 C 
ATOM     24  H   UNL A   1      33.073  30.475  26.230  1.00  0.00     0.163 HD
ATOM     25  O   UNL A   1      33.988  31.985  27.881  1.00  0.00    -0.269 OA
BRANCH  23  26
ATOM     26  C   UNL A   1      35.772  30.483  28.186  1.00  0.00     0.039 A 
ATOM     27  C   UNL A   1      35.720  29.782  29.392  1.00  0.00     0.014 A 
ATOM     28  C   UNL A   1      37.000  30.741  27.569  1.00  0.00     0.014 A 
ATOM     29  C   UNL A   1      36.898  29.279  29.948  1.00  0.00     0.010 A 
ATOM     30  C   UNL A   1      38.165  30.188  28.095  1.00  0.00     0.010 A 
ATOM     31  C   UNL A   1      38.124  29.448  29.285  1.00  0.00    -0.014 A 
BRANCH  31  32
ATOM     32  C   UNL A   1      39.375  28.852  29.823  1.00  0.00     0.031 A 
ATOM     33  C   UNL A   1      40.030  29.447  31.037  1.00  0.00     0.074 A 
ATOM     34  C   UNL A   1      39.950  27.819  29.177  1.00  0.00     0.049 A 
ATOM     35  N   UNL A   1      41.157  29.121  31.614  1.00  0.00    -0.248 NA
ATOM     36  C   UNL A   1      39.336  30.579  31.667  1.00  0.00     0.031 C 
ATOM     37  C   UNL A   1      39.427  27.185  27.965  1.00  0.00     0.029 A 
ATOM     38  N   UNL A   1      41.102  27.125  29.443  1.00  0.00    -0.354 N 
ATOM     39  C   UNL A   1      41.315  30.013  32.670  1.00  0.00     0.074 A 
ATOM     40  C   UNL A   1      40.198  30.933  32.608  1.00  0.00     0.031 C 
ATOM     41  C   UNL A   1      40.243  26.181  27.607  1.00  0.00     0.029 A 
ATOM     42  C   UNL A   1      41.368  26.125  28.536  1.00  0.00     0.049 A 
ATOM     43  H   UNL A   1      41.686  27.325  30.211  1.00  0.00     0.167 HD
ATOM     44  C   UNL A   1      42.287  30.046  33.616  1.00  0.00     0.034 A 
ATOM     45  C   UNL A   1      42.404  25.268  28.459  1.00  0.00     0.034 A 
ATOM     46  C   UNL A   1      43.391  29.117  33.663  1.00  0.00     0.049 A 
ATOM     47  C   UNL A   1      43.487  25.339  29.505  1.00  0.00     0.074 A 
ATOM     48  C   UNL A   1      44.408  29.029  34.598  1.00  0.00     0.029 A 
ATOM     49  N   UNL A   1      43.627  28.116  32.728  1.00  0.00    -0.354 N 
ATOM     50  N   UNL A   1      43.600  26.160  30.523  1.00  0.00    -0.248 NA
ATOM     51  C   UNL A   1      44.575  24.360  29.395  1.00  0.00     0.031 C 
ATOM     52  C   UNL A   1      45.289  28.018  34.197  1.00  0.00     0.029 A 
ATOM     53  C   UNL A   1      44.786  27.425  33.049  1.00  0.00     0.049 A 
ATOM     54  H   UNL A   1      43.056  27.925  31.950  1.00  0.00     0.167 HD
ATOM     55  C   UNL A   1      44.757  25.775  31.193  1.00  0.00     0.074 A 
ATOM     56  C   UNL A   1      45.297  24.641  30.470  1.00  0.00     0.031 C 
ATOM     57  C   UNL A   1      45.320  26.306  32.309  1.00  0.00     0.034 A 
BRANCH  44  58
ATOM     58  C   UNL A   1      42.202  31.142  34.653  1.00  0.00     0.023 A 
ATOM     59  C   UNL A   1      42.820  32.390  34.456  1.00  0.00     0.031 A 
ATOM     60  C   UNL A   1      41.537  30.924  35.872  1.00  0.00     0.131 A 
ATOM     61  C   UNL A   1      42.839  33.335  35.492  1.00  0.00     0.055 A 
ATOM     62  C   UNL A   1      41.484  31.904  36.868  1.00  0.00     0.041 A 
ATOM     63  F   UNL A   1      40.944  29.747  36.128  1.00  0.00    -0.206 F 
ATOM     64  C   UNL A   1      42.155  33.111  36.688  1.00  0.00     0.022 A 
BRANCH  61  65
ATOM     65  S   UNL A   1      43.909  34.790  35.315  1.00  0.00     0.124 S 
ATOM     66  O   UNL A   1      45.181  34.175  34.944  1.00  0.00    -0.237 OA
ATOM     67  O   UNL A   1      43.237  35.550  34.268  1.00  0.00    -0.237 OA
ATOM     68  O   UNL A   1      43.884  35.397  36.643  1.00  0.00    -0.744 OA
ENDBRANCH  61  65
ENDBRANCH  44  58
BRANCH  45  69
ATOM     69  C   UNL A   1      42.474  24.267  27.357  1.00  0.00     0.023 A 
ATOM     70  C   UNL A   1      41.660  23.123  27.371  1.00  0.00     0.031 A 
ATOM     71  C   UNL A   1      43.378  24.423  26.292  1.00  0.00     0.131 A 
ATOM     72  C   UNL A   1      41.797  22.155  26.363  1.00  0.00     0.055 A 
ATOM     73  C   UNL A   1      43.476  23.481  25.266  1.00  0.00     0.041 A 
ATOM     74  F   UNL A   1      44.172  25.502  26.228  1.00  0.00    -0.206 F 
ATOM     75  C   UNL A   1      42.691  22.332  25.305  1.00  0.00     0.022 A 
BRANCH  72  76
ATOM     76  S   UNL A   1      40.836  20.623  26.496  1.00  0.00     0.124 S 
ATOM     77  O   UNL A   1      41.586  19.724  25.627  1.00  0.00    -0.237 OA
ATOM     78  O   UNL A   1      40.909  20.343  27.926  1.00  0.00    -0.237 OA
ATOM     79  O   UNL A   1      39.513  21.008  26.007  1.00  0.00    -0.744 OA
ENDBRANCH  72  76
ENDBRANCH  45  69
BRANCH  57  80
ATOM     80  C   UNL A   1      46.561  25.627  32.835  1.00  0.00     0.023 A 
ATOM     81  C   UNL A   1      47.836  25.908  32.312  1.00  0.00     0.031 A 
ATOM     82  C   UNL A   1      46.461  24.672  33.862  1.00  0.00     0.131 A 
ATOM     83  C   UNL A   1      48.953  25.201  32.780  1.00  0.00     0.055 A 
ATOM     84  C   UNL A   1      47.585  24.014  34.364  1.00  0.00     0.041 A 
ATOM     85  F   UNL A   1      45.269  24.364  34.395  1.00  0.00    -0.206 F 
ATOM     86  C   UNL A   1      48.838  24.267  33.813  1.00  0.00     0.022 A 
BRANCH  83  87
ATOM     87  S   UNL A   1      50.550  25.452  31.957  1.00  0.00     0.124 S 
ATOM     88  O   UNL A   1      51.494  25.191  33.039  1.00  0.00    -0.237 OA
ATOM     89  O   UNL A   1      50.513  24.458  30.890  1.00  0.00    -0.237 OA
ATOM     90  O   UNL A   1      50.490  26.843  31.509  1.00  0.00    -0.744 OA
ENDBRANCH  83  87
ENDBRANCH  57  80
ENDBRANCH  31  32
ENDBRANCH  23  26
ENDBRANCH  21  22
ENDBRANCH   1  21
TORSDOF 15
ENDMDL
MODEL 3
REMARK VINA RESULT:     -11.8      2.890      8.603
REMARK SMILES CC1(C)CCN(c2ncccc2C(=O)NCCCCNC(=O)c2ccc(-c3c4nc(c(-c5cc(S(=O)(=O)[O-])ccc5F)c5ccc([nH]5)c(-c5cc(S(=O)(=O)[O-])ccc5F)c5nc(c(-c6cc(S(=O)(=O)[O-])ccc6F)c6ccc3[nH]6)C=C5)C=C4)cc2)C1
REMARK SMILES IDX 18 1 17 2 16 3 15 4 13 5 14 6 12 8 7 9 8 10 9 11 11 12 10 13
REMARK SMILES IDX 6 14 1 15 2 16 3 17 4 18 86 19 5 20 19 21 20 22 21 23 22 25
REMARK SMILES IDX 23 26 24 27 85 28 25 29 84 30 26 31 27 32 28 33 78 34 29 35
REMARK SMILES IDX 83 36 77 37 79 38 30 39 82 40 76 41 75 42 31 44 63 45 43 46
REMARK SMILES IDX 62 47 44 48 47 49 61 50 80 51 45 52 46 53 60 55 81 56 48 57
REMARK SMILES IDX 32 58 33 59 41 60 34 61 40 62 42 63 39 64 35 65 36 66 37 67
REMARK SMILES IDX 38 68 64 69 65 70 73 71 66 72 72 73 74 74 71 75 67 76 68 77
REMARK SMILES IDX 69 78 70 79 49 80 50 81 58 82 51 83 57 84 59 85 56 86 52 87
REMARK SMILES IDX 53 88 54 89 55 90
REMARK H PARENT 15 7 20 24 79 43 47 54
REMARK Flexibility Score: inf
ROOT
ATOM      1  C   UNL A   1      31.926  29.090  24.696  1.00  0.00     0.023 C 
ENDROOT
BRANCH   1   2
ATOM      2  C   UNL A   1      32.351  29.064  23.221  1.00  0.00     0.023 C 
BRANCH   2   3
ATOM      3  C   UNL A   1      33.724  28.437  22.974  1.00  0.00     0.116 C 
BRANCH   3   4
ATOM      4  N   UNL A   1      33.635  27.405  21.965  1.00  0.00    -0.352 N 
ATOM      5  C   UNL A   1      33.125  26.132  21.896  1.00  0.00     0.255 C 
ATOM      6  O   UNL A   1      33.291  25.617  20.791  1.00  0.00    -0.269 OA
ATOM      7  H   UNL A   1      34.040  27.687  21.113  1.00  0.00     0.163 HD
BRANCH   5   8
ATOM      8  C   UNL A   1      32.389  25.430  23.011  1.00  0.00     0.082 A 
ATOM      9  C   UNL A   1      33.006  24.390  23.745  1.00  0.00     0.141 A 
ATOM     10  N   UNL A   1      32.290  23.591  24.590  1.00  0.00    -0.238 NA
ATOM     11  C   UNL A   1      30.988  23.856  24.795  1.00  0.00     0.113 A 
ATOM     12  C   UNL A   1      31.056  25.722  23.334  1.00  0.00     0.019 A 
ATOM     13  C   UNL A   1      30.339  24.923  24.221  1.00  0.00     0.021 A 
BRANCH   9  14
ATOM     14  N   UNL A   1      34.363  24.165  23.757  1.00  0.00    -0.355 N 
ATOM     15  C   UNL A   1      35.833  22.022  25.699  1.00  0.00     0.013 C 
ATOM     16  C   UNL A   1      36.233  23.316  24.972  1.00  0.00    -0.016 C 
ATOM     17  C   UNL A   1      37.515  23.872  25.597  1.00  0.00     0.013 C 
ATOM     18  C   UNL A   1      36.398  23.077  23.462  1.00  0.00     0.030 C 
ATOM     19  C   UNL A   1      35.084  24.350  25.021  1.00  0.00     0.124 C 
ATOM     20  C   UNL A   1      34.964  23.131  22.935  1.00  0.00     0.119 C 
ENDBRANCH   9  14
ENDBRANCH   5   8
ENDBRANCH   3   4
ENDBRANCH   2   3
ENDBRANCH   1   2
BRANCH   1  21
ATOM     21  C   UNL A   1      32.957  29.668  25.664  1.00  0.00     0.116 C 
BRANCH  21  22
ATOM     22  N   UNL A   1      32.584  30.975  26.180  1.00  0.00    -0.352 N 
ATOM     23  C   UNL A   1      33.215  31.737  27.134  1.00  0.00     0.251 C 
ATOM     24  H   UNL A   1      31.767  31.366  25.794  1.00  0.00     0.163 HD
ATOM     25  O   UNL A   1      32.694  32.771  27.529  1.00  0.00    -0.269 OA
BRANCH  23  26
ATOM     26  C   UNL A   1      34.498  31.271  27.703  1.00  0.00     0.039 A 
ATOM     27  C   UNL A   1      35.540  32.189  27.841  1.00  0.00     0.014 A 
ATOM     28  C   UNL A   1      34.660  29.947  28.119  1.00  0.00     0.014 A 
ATOM     29  C   UNL A   1      36.728  31.795  28.460  1.00  0.00     0.010 A 
ATOM     30  C   UNL A   1      35.823  29.572  28.788  1.00  0.00     0.010 A 
ATOM     31  C   UNL A   1      36.864  30.494  28.970  1.00  0.00    -0.014 A 
BRANCH  31  32
ATOM     32  C   UNL A   1      38.091  30.080  29.700  1.00  0.00     0.031 A 
ATOM     33  C   UNL A   1      38.343  30.584  31.093  1.00  0.00     0.074 A 
ATOM     34  C   UNL A   1      39.002  29.304  29.081  1.00  0.00     0.049 A 
ATOM     35  N   UNL A   1      39.382  30.399  31.865  1.00  0.00    -0.248 NA
ATOM     36  C   UNL A   1      37.299  31.435  31.681  1.00  0.00     0.031 C 
ATOM     37  C   UNL A   1      38.885  28.787  27.716  1.00  0.00     0.029 A 
ATOM     38  N   UNL A   1      40.210  28.821  29.516  1.00  0.00    -0.354 N 
ATOM     39  C   UNL A   1      39.123  31.118  33.028  1.00  0.00     0.074 A 
ATOM     40  C   UNL A   1      37.857  31.794  32.826  1.00  0.00     0.031 C 
ATOM     41  C   UNL A   1      39.964  28.040  27.435  1.00  0.00     0.029 A 
ATOM     42  C   UNL A   1      40.870  28.058  28.580  1.00  0.00     0.049 A 
ATOM     43  H   UNL A   1      40.572  29.003  30.413  1.00  0.00     0.167 HD
ATOM     44  C   UNL A   1      39.859  31.188  34.165  1.00  0.00     0.034 A 
ATOM     45  C   UNL A   1      42.070  27.450  28.635  1.00  0.00     0.034 A 
ATOM     46  C   UNL A   1      41.117  30.504  34.349  1.00  0.00     0.049 A 
ATOM     47  C   UNL A   1      42.884  27.562  29.899  1.00  0.00     0.074 A 
ATOM     48  C   UNL A   1      41.926  30.467  35.471  1.00  0.00     0.029 A 
ATOM     49  N   UNL A   1      41.754  29.739  33.378  1.00  0.00    -0.354 N 
ATOM     50  N   UNL A   1      42.605  28.210  31.007  1.00  0.00    -0.248 NA
ATOM     51  C   UNL A   1      44.169  26.853  29.921  1.00  0.00     0.031 C 
ATOM     52  C   UNL A   1      43.077  29.734  35.161  1.00  0.00     0.029 A 
ATOM     53  C   UNL A   1      42.956  29.251  33.867  1.00  0.00     0.049 A 
ATOM     54  H   UNL A   1      41.403  29.569  32.475  1.00  0.00     0.167 HD
ATOM     55  C   UNL A   1      43.668  27.958  31.870  1.00  0.00     0.074 A 
ATOM     56  C   UNL A   1      44.585  27.091  31.157  1.00  0.00     0.031 C 
ATOM     57  C   UNL A   1      43.866  28.398  33.138  1.00  0.00     0.034 A 
BRANCH  44  58
ATOM     58  C   UNL A   1      39.324  32.057  35.279  1.00  0.00     0.023 A 
ATOM     59  C   UNL A   1      39.718  33.400  35.417  1.00  0.00     0.031 A 
ATOM     60  C   UNL A   1      38.449  31.529  36.243  1.00  0.00     0.131 A 
ATOM     61  C   UNL A   1      39.312  34.140  36.538  1.00  0.00     0.055 A 
ATOM     62  C   UNL A   1      37.978  32.297  37.312  1.00  0.00     0.041 A 
ATOM     63  F   UNL A   1      38.052  30.248  36.179  1.00  0.00    -0.206 F 
ATOM     64  C   UNL A   1      38.425  33.606  37.474  1.00  0.00     0.022 A 
BRANCH  61  65
ATOM     65  S   UNL A   1      40.092  35.750  36.838  1.00  0.00     0.124 S 
ATOM     66  O   UNL A   1      39.647  36.514  35.675  1.00  0.00    -0.237 OA
ATOM     67  O   UNL A   1      39.517  36.145  38.119  1.00  0.00    -0.237 OA
ATOM     68  O   UNL A   1      41.520  35.441  36.862  1.00  0.00    -0.744 OA
ENDBRANCH  61  65
ENDBRANCH  44  58
BRANCH  45  69
ATOM     69  C   UNL A   1      42.580  26.680  27.466  1.00  0.00     0.023 A 
ATOM     70  C   UNL A   1      42.254  25.325  27.299  1.00  0.00     0.031 A 
ATOM     71  C   UNL A   1      43.429  27.278  26.518  1.00  0.00     0.131 A 
ATOM     72  C   UNL A   1      42.808  24.598  26.233  1.00  0.00     0.055 A 
ATOM     73  C   UNL A   1      43.939  26.564  25.432  1.00  0.00     0.041 A 
ATOM     74  F   UNL A   1      43.765  28.572  26.628  1.00  0.00    -0.206 F 
ATOM     75  C   UNL A   1      43.638  25.212  25.293  1.00  0.00     0.022 A 
BRANCH  72  76
ATOM     76  S   UNL A   1      42.483  22.817  26.135  1.00  0.00     0.124 S 
ATOM     77  O   UNL A   1      43.308  22.303  27.221  1.00  0.00    -0.237 OA
ATOM     78  O   UNL A   1      41.039  22.761  26.344  1.00  0.00    -0.237 OA
ATOM     79  O   UNL A   1      42.929  22.464  24.789  1.00  0.00    -0.744 OA
ENDBRANCH  72  76
ENDBRANCH  45  69
BRANCH  57  80
ATOM     80  C   UNL A   1      45.105  27.905  33.845  1.00  0.00     0.023 A 
ATOM     81  C   UNL A   1      45.101  26.724  34.608  1.00  0.00     0.031 A 
ATOM     82  C   UNL A   1      46.302  28.639  33.767  1.00  0.00     0.131 A 
ATOM     83  C   UNL A   1      46.254  26.341  35.308  1.00  0.00     0.055 A 
ATOM     84  C   UNL A   1      47.464  28.222  34.418  1.00  0.00     0.041 A 
ATOM     85  F   UNL A   1      46.361  29.774  33.053  1.00  0.00    -0.206 F 
ATOM     86  C   UNL A   1      47.440  27.074  35.206  1.00  0.00     0.022 A 
BRANCH  83  87
ATOM     87  S   UNL A   1      46.161  24.918  36.430  1.00  0.00     0.124 S 
ATOM     88  O   UNL A   1      45.394  23.959  35.641  1.00  0.00    -0.237 OA
ATOM     89  O   UNL A   1      47.568  24.592  36.639  1.00  0.00    -0.237 OA
ATOM     90  O   UNL A   1      45.468  25.451  37.603  1.00  0.00    -0.744 OA
ENDBRANCH  83  87
ENDBRANCH  57  80
ENDBRANCH  31  32
ENDBRANCH  23  26
ENDBRANCH  21  22
ENDBRANCH   1  21
TORSDOF 15
ENDMDL
