MODEL 1
REMARK VINA RESULT:     -11.2      0.000      0.000
REMARK SMILES CCN(C(=O)Nc1cc(OC)ccc1F)[C@H](C)CC(=O)NCCCCNC(=O)c1ccc(-c2c3nc(c(-c4cc(S(=O)(=O)[O-])ccc4F)c4ccc([nH]4)c(-c4cc(S(=O)(=O)[O-])ccc4F)c4nc(c(-c5cc(S(=O)(=O)[O-])ccc5F)c5ccc2[nH]5)C=C4)C=C3)cc1
REMARK SMILES IDX 22 1 21 2 19 3 20 4 18 6 16 7 17 8 3 9 2 10 1 11 4 12 5 13
REMARK SMILES IDX 6 14 7 16 8 17 14 18 9 19 13 20 15 21 12 22 10 23 11 24
REMARK SMILES IDX 23 25 24 26 25 27 26 28 27 29 28 31 29 32 30 33 91 34 31 35
REMARK SMILES IDX 90 36 32 37 33 38 34 39 84 40 35 41 89 42 83 43 85 44 36 45
REMARK SMILES IDX 88 46 82 47 81 48 37 50 69 51 49 52 68 53 50 54 53 55 67 56
REMARK SMILES IDX 86 57 51 58 52 59 66 61 87 62 54 63 38 64 39 65 47 66 40 67
REMARK SMILES IDX 46 68 48 69 45 70 41 71 42 72 43 73 44 74 70 75 71 76 79 77
REMARK SMILES IDX 72 78 78 79 80 80 77 81 73 82 74 83 75 84 76 85 55 86 56 87
REMARK SMILES IDX 64 88 57 89 63 90 65 91 62 92 58 93 59 94 60 95 61 96
REMARK H PARENT 21 5 6 15 26 30 85 49 53 60
REMARK Flexibility Score: inf
ROOT
ATOM      1  C   UNL A   1      32.782  29.395  24.954  1.00  0.00     0.116 C 
ENDROOT
BRANCH   1   2
ATOM      2  N   UNL A   1      31.558  29.759  24.263  1.00  0.00    -0.356 N 
ATOM      3  C   UNL A   1      30.662  28.980  23.585  1.00  0.00     0.222 C 
ATOM      4  O   UNL A   1      29.706  29.534  23.041  1.00  0.00    -0.275 OA
ATOM      5  H   UNL A   1      31.338  30.719  24.286  1.00  0.00     0.163 HD
BRANCH   3   6
ATOM      6  C   UNL A   1      30.872  27.478  23.462  1.00  0.00     0.124 C 
BRANCH   6   7
ATOM      7  C   UNL A   1      29.959  26.670  24.425  1.00  0.00     0.093 C 
ATOM      8  C   UNL A   1      28.557  26.604  23.810  1.00  0.00     0.031 C 
BRANCH   7   9
ATOM      9  N   UNL A   1      30.491  25.301  24.759  1.00  0.00    -0.322 N 
BRANCH   9  10
ATOM     10  C   UNL A   1      30.611  24.343  23.638  1.00  0.00     0.118 C 
ATOM     11  C   UNL A   1      31.870  24.504  22.794  1.00  0.00     0.027 C 
ENDBRANCH   9  10
BRANCH   9  12
ATOM     12  C   UNL A   1      30.462  24.922  26.095  1.00  0.00     0.322 C 
ATOM     13  O   UNL A   1      29.469  25.097  26.807  1.00  0.00    -0.248 OA
ATOM     14  N   UNL A   1      31.474  24.219  26.671  1.00  0.00    -0.305 N 
ATOM     15  H   UNL A   1      31.212  23.746  27.494  1.00  0.00     0.171 HD
BRANCH  14  16
ATOM     16  C   UNL A   1      32.815  24.041  26.319  1.00  0.00     0.082 A 
ATOM     17  C   UNL A   1      33.231  22.721  26.131  1.00  0.00     0.075 A 
ATOM     18  C   UNL A   1      33.682  25.091  25.995  1.00  0.00     0.147 A 
ATOM     19  C   UNL A   1      34.419  22.456  25.447  1.00  0.00     0.121 A 
ATOM     20  C   UNL A   1      34.909  24.827  25.390  1.00  0.00     0.045 A 
ATOM     21  F   UNL A   1      33.328  26.366  26.208  1.00  0.00    -0.205 F 
ATOM     22  C   UNL A   1      35.264  23.509  25.084  1.00  0.00     0.049 A 
BRANCH  19  23
ATOM     23  O   UNL A   1      34.638  21.137  25.160  1.00  0.00    -0.497 OA
ATOM     24  C   UNL A   1      33.529  20.449  24.588  1.00  0.00     0.278 C 
ENDBRANCH  19  23
ENDBRANCH  14  16
ENDBRANCH   9  12
ENDBRANCH   7   9
ENDBRANCH   6   7
ENDBRANCH   3   6
ENDBRANCH   1   2
BRANCH   1  25
ATOM     25  C   UNL A   1      32.724  29.676  26.459  1.00  0.00     0.023 C 
BRANCH  25  26
ATOM     26  C   UNL A   1      32.191  31.044  26.850  1.00  0.00     0.023 C 
BRANCH  26  27
ATOM     27  C   UNL A   1      33.251  31.984  27.384  1.00  0.00     0.116 C 
BRANCH  27  28
ATOM     28  N   UNL A   1      32.773  33.356  27.523  1.00  0.00    -0.352 N 
ATOM     29  C   UNL A   1      33.162  34.307  28.434  1.00  0.00     0.251 C 
ATOM     30  H   UNL A   1      32.081  33.636  26.880  1.00  0.00     0.163 HD
ATOM     31  O   UNL A   1      32.563  35.375  28.519  1.00  0.00    -0.269 OA
BRANCH  29  32
ATOM     32  C   UNL A   1      34.291  33.994  29.329  1.00  0.00     0.039 A 
ATOM     33  C   UNL A   1      34.075  33.192  30.449  1.00  0.00     0.014 A 
ATOM     34  C   UNL A   1      35.579  34.403  28.977  1.00  0.00     0.014 A 
ATOM     35  C   UNL A   1      35.173  32.720  31.168  1.00  0.00     0.010 A 
ATOM     36  C   UNL A   1      36.669  33.849  29.629  1.00  0.00     0.010 A 
ATOM     37  C   UNL A   1      36.477  33.002  30.732  1.00  0.00    -0.014 A 
BRANCH  37  38
ATOM     38  C   UNL A   1      37.673  32.453  31.415  1.00  0.00     0.031 A 
ATOM     39  C   UNL A   1      38.425  31.321  30.772  1.00  0.00     0.074 A 
ATOM     40  C   UNL A   1      38.027  32.907  32.635  1.00  0.00     0.049 A 
ATOM     41  N   UNL A   1      39.365  30.564  31.270  1.00  0.00    -0.248 NA
ATOM     42  C   UNL A   1      38.032  30.965  29.396  1.00  0.00     0.031 C 
ATOM     43  C   UNL A   1      37.360  33.983  33.371  1.00  0.00     0.029 A 
ATOM     44  N   UNL A   1      39.037  32.512  33.475  1.00  0.00    -0.354 N 
ATOM     45  C   UNL A   1      39.657  29.629  30.284  1.00  0.00     0.074 A 
ATOM     46  C   UNL A   1      38.757  29.879  29.180  1.00  0.00     0.031 C 
ATOM     47  C   UNL A   1      38.002  34.187  34.533  1.00  0.00     0.029 A 
ATOM     48  C   UNL A   1      39.091  33.223  34.651  1.00  0.00     0.049 A 
ATOM     49  H   UNL A   1      39.665  31.786  33.256  1.00  0.00     0.167 HD
ATOM     50  C   UNL A   1      40.608  28.666  30.289  1.00  0.00     0.034 A 
ATOM     51  C   UNL A   1      39.917  33.101  35.709  1.00  0.00     0.034 A 
ATOM     52  C   UNL A   1      41.530  28.460  31.372  1.00  0.00     0.049 A 
ATOM     53  C   UNL A   1      40.969  32.024  35.686  1.00  0.00     0.074 A 
ATOM     54  C   UNL A   1      42.552  27.532  31.468  1.00  0.00     0.029 A 
ATOM     55  N   UNL A   1      41.559  29.209  32.540  1.00  0.00    -0.354 N 
ATOM     56  N   UNL A   1      41.210  31.126  34.758  1.00  0.00    -0.248 NA
ATOM     57  C   UNL A   1      41.859  31.941  36.850  1.00  0.00     0.031 C 
ATOM     58  C   UNL A   1      43.176  27.696  32.709  1.00  0.00     0.029 A 
ATOM     59  C   UNL A   1      42.579  28.763  33.362  1.00  0.00     0.049 A 
ATOM     60  H   UNL A   1      40.946  29.948  32.752  1.00  0.00     0.167 HD
ATOM     61  C   UNL A   1      42.294  30.387  35.220  1.00  0.00     0.074 A 
ATOM     62  C   UNL A   1      42.666  30.949  36.502  1.00  0.00     0.031 C 
ATOM     63  C   UNL A   1      42.928  29.338  34.637  1.00  0.00     0.034 A 
BRANCH  50  64
ATOM     64  C   UNL A   1      40.694  27.769  29.085  1.00  0.00     0.023 A 
ATOM     65  C   UNL A   1      41.625  28.009  28.061  1.00  0.00     0.031 A 
ATOM     66  C   UNL A   1      39.842  26.659  28.962  1.00  0.00     0.131 A 
ATOM     67  C   UNL A   1      41.654  27.174  26.935  1.00  0.00     0.055 A 
ATOM     68  C   UNL A   1      39.918  25.794  27.868  1.00  0.00     0.041 A 
ATOM     69  F   UNL A   1      38.919  26.398  29.902  1.00  0.00    -0.206 F 
ATOM     70  C   UNL A   1      40.825  26.053  26.844  1.00  0.00     0.022 A 
BRANCH  67  71
ATOM     71  S   UNL A   1      42.745  27.610  25.555  1.00  0.00     0.124 S 
ATOM     72  O   UNL A   1      42.067  28.781  25.006  1.00  0.00    -0.237 OA
ATOM     73  O   UNL A   1      44.017  27.866  26.221  1.00  0.00    -0.237 OA
ATOM     74  O   UNL A   1      42.714  26.421  24.707  1.00  0.00    -0.744 OA
ENDBRANCH  67  71
ENDBRANCH  50  64
BRANCH  51  75
ATOM     75  C   UNL A   1      39.789  34.013  36.879  1.00  0.00     0.023 A 
ATOM     76  C   UNL A   1      39.242  33.552  38.087  1.00  0.00     0.031 A 
ATOM     77  C   UNL A   1      40.182  35.360  36.799  1.00  0.00     0.131 A 
ATOM     78  C   UNL A   1      39.066  34.442  39.158  1.00  0.00     0.055 A 
ATOM     79  C   UNL A   1      40.043  36.231  37.882  1.00  0.00     0.041 A 
ATOM     80  F   UNL A   1      40.720  35.844  35.670  1.00  0.00    -0.206 F 
ATOM     81  C   UNL A   1      39.474  35.775  39.067  1.00  0.00     0.022 A 
BRANCH  78  82
ATOM     82  S   UNL A   1      38.251  33.840  40.662  1.00  0.00     0.124 S 
ATOM     83  O   UNL A   1      38.211  35.046  41.480  1.00  0.00    -0.237 OA
ATOM     84  O   UNL A   1      36.970  33.370  40.146  1.00  0.00    -0.237 OA
ATOM     85  O   UNL A   1      39.149  32.791  41.139  1.00  0.00    -0.744 OA
ENDBRANCH  78  82
ENDBRANCH  51  75
BRANCH  63  86
ATOM     86  C   UNL A   1      44.111  28.763  35.364  1.00  0.00     0.023 A 
ATOM     87  C   UNL A   1      43.963  27.743  36.317  1.00  0.00     0.031 A 
ATOM     88  C   UNL A   1      45.407  29.228  35.078  1.00  0.00     0.131 A 
ATOM     89  C   UNL A   1      45.091  27.245  36.983  1.00  0.00     0.055 A 
ATOM     90  C   UNL A   1      46.530  28.696  35.709  1.00  0.00     0.041 A 
ATOM     91  F   UNL A   1      45.599  30.200  34.172  1.00  0.00    -0.206 F 
ATOM     92  C   UNL A   1      46.375  27.704  36.673  1.00  0.00     0.022 A 
BRANCH  89  93
ATOM     93  S   UNL A   1      44.855  26.022  38.299  1.00  0.00     0.124 S 
ATOM     94  O   UNL A   1      44.359  24.869  37.554  1.00  0.00    -0.237 OA
ATOM     95  O   UNL A   1      46.199  25.892  38.853  1.00  0.00    -0.237 OA
ATOM     96  O   UNL A   1      43.881  26.655  39.186  1.00  0.00    -0.744 OA
ENDBRANCH  89  93
ENDBRANCH  63  86
ENDBRANCH  37  38
ENDBRANCH  29  32
ENDBRANCH  27  28
ENDBRANCH  26  27
ENDBRANCH  25  26
ENDBRANCH   1  25
TORSDOF 20
ENDMDL
MODEL 2
REMARK VINA RESULT:     -11.2      5.584      9.042
REMARK SMILES CCN(C(=O)Nc1cc(OC)ccc1F)[C@H](C)CC(=O)NCCCCNC(=O)c1ccc(-c2c3nc(c(-c4cc(S(=O)(=O)[O-])ccc4F)c4ccc([nH]4)c(-c4cc(S(=O)(=O)[O-])ccc4F)c4nc(c(-c5cc(S(=O)(=O)[O-])ccc5F)c5ccc2[nH]5)C=C4)C=C3)cc1
REMARK SMILES IDX 22 1 21 2 19 3 20 4 18 6 16 7 17 8 3 9 2 10 1 11 4 12 5 13
REMARK SMILES IDX 6 14 7 16 8 17 14 18 9 19 13 20 15 21 12 22 10 23 11 24
REMARK SMILES IDX 23 25 24 26 25 27 26 28 27 29 28 31 29 32 30 33 91 34 31 35
REMARK SMILES IDX 90 36 32 37 33 38 34 39 84 40 35 41 89 42 83 43 85 44 36 45
REMARK SMILES IDX 88 46 82 47 81 48 37 50 69 51 49 52 68 53 50 54 53 55 67 56
REMARK SMILES IDX 86 57 51 58 52 59 66 61 87 62 54 63 38 64 39 65 47 66 40 67
REMARK SMILES IDX 46 68 48 69 45 70 41 71 42 72 43 73 44 74 70 75 71 76 79 77
REMARK SMILES IDX 72 78 78 79 80 80 77 81 73 82 74 83 75 84 76 85 55 86 56 87
REMARK SMILES IDX 64 88 57 89 63 90 65 91 62 92 58 93 59 94 60 95 61 96
REMARK H PARENT 21 5 6 15 26 30 85 49 53 60
REMARK Flexibility Score: inf
ROOT
ATOM      1  C   UNL A   1      34.720  20.441  25.000  1.00  0.00     0.116 C 
ENDROOT
BRANCH   1   2
ATOM      2  N   UNL A   1      34.284  20.876  26.315  1.00  0.00    -0.356 N 
ATOM      3  C   UNL A   1      34.257  22.127  26.865  1.00  0.00     0.222 C 
ATOM      4  O   UNL A   1      33.875  22.241  28.031  1.00  0.00    -0.275 OA
ATOM      5  H   UNL A   1      33.957  20.158  26.904  1.00  0.00     0.163 HD
BRANCH   3   6
ATOM      6  C   UNL A   1      34.735  23.337  26.076  1.00  0.00     0.124 C 
BRANCH   6   7
ATOM      7  C   UNL A   1      33.605  24.375  25.834  1.00  0.00     0.093 C 
ATOM      8  C   UNL A   1      34.008  25.252  24.643  1.00  0.00     0.031 C 
BRANCH   7   9
ATOM      9  N   UNL A   1      32.245  23.757  25.643  1.00  0.00    -0.322 N 
BRANCH   9  10
ATOM     10  C   UNL A   1      32.002  23.074  24.353  1.00  0.00     0.118 C 
ATOM     11  C   UNL A   1      30.872  23.668  23.520  1.00  0.00     0.027 C 
ENDBRANCH   9  10
BRANCH   9  12
ATOM     12  C   UNL A   1      31.230  24.191  26.486  1.00  0.00     0.322 C 
ATOM     13  O   UNL A   1      30.643  23.425  27.257  1.00  0.00    -0.248 OA
ATOM     14  N   UNL A   1      30.904  25.504  26.613  1.00  0.00    -0.305 N 
ATOM     15  H   UNL A   1      30.415  25.715  27.441  1.00  0.00     0.171 HD
BRANCH  14  16
ATOM     16  C   UNL A   1      31.129  26.613  25.791  1.00  0.00     0.082 A 
ATOM     17  C   UNL A   1      30.336  26.699  24.644  1.00  0.00     0.075 A 
ATOM     18  C   UNL A   1      31.962  27.683  26.136  1.00  0.00     0.147 A 
ATOM     19  C   UNL A   1      30.229  27.912  23.962  1.00  0.00     0.121 A 
ATOM     20  C   UNL A   1      31.922  28.868  25.404  1.00  0.00     0.045 A 
ATOM     21  F   UNL A   1      32.768  27.610  27.204  1.00  0.00    -0.205 F 
ATOM     22  C   UNL A   1      31.029  28.996  24.335  1.00  0.00     0.049 A 
BRANCH  19  23
ATOM     23  O   UNL A   1      29.289  27.934  22.967  1.00  0.00    -0.497 OA
ATOM     24  C   UNL A   1      28.759  29.220  22.663  1.00  0.00     0.278 C 
ENDBRANCH  19  23
ENDBRANCH  14  16
ENDBRANCH   9  12
ENDBRANCH   7   9
ENDBRANCH   6   7
ENDBRANCH   3   6
ENDBRANCH   1   2
BRANCH   1  25
ATOM     25  C   UNL A   1      36.089  21.003  24.609  1.00  0.00     0.023 C 
BRANCH  25  26
ATOM     26  C   UNL A   1      37.282  20.134  24.968  1.00  0.00     0.023 C 
BRANCH  26  27
ATOM     27  C   UNL A   1      38.469  20.913  25.495  1.00  0.00     0.116 C 
BRANCH  27  28
ATOM     28  N   UNL A   1      39.520  20.051  26.028  1.00  0.00    -0.352 N 
ATOM     29  C   UNL A   1      40.634  20.409  26.748  1.00  0.00     0.251 C 
ATOM     30  H   UNL A   1      39.418  19.089  25.847  1.00  0.00     0.163 HD
ATOM     31  O   UNL A   1      41.505  19.584  27.004  1.00  0.00    -0.269 OA
BRANCH  29  32
ATOM     32  C   UNL A   1      40.768  21.815  27.169  1.00  0.00     0.039 A 
ATOM     33  C   UNL A   1      41.565  22.127  28.271  1.00  0.00     0.014 A 
ATOM     34  C   UNL A   1      40.197  22.823  26.389  1.00  0.00     0.014 A 
ATOM     35  C   UNL A   1      41.865  23.463  28.536  1.00  0.00     0.010 A 
ATOM     36  C   UNL A   1      40.581  24.138  26.592  1.00  0.00     0.010 A 
ATOM     37  C   UNL A   1      41.418  24.472  27.668  1.00  0.00    -0.014 A 
BRANCH  37  38
ATOM     38  C   UNL A   1      41.782  25.897  27.862  1.00  0.00     0.031 A 
ATOM     39  C   UNL A   1      43.137  26.371  27.413  1.00  0.00     0.074 A 
ATOM     40  C   UNL A   1      40.943  26.731  28.509  1.00  0.00     0.049 A 
ATOM     41  N   UNL A   1      43.738  27.505  27.655  1.00  0.00    -0.248 NA
ATOM     42  C   UNL A   1      43.940  25.420  26.623  1.00  0.00     0.031 C 
ATOM     43  C   UNL A   1      39.613  26.379  29.014  1.00  0.00     0.029 A 
ATOM     44  N   UNL A   1      41.089  28.049  28.859  1.00  0.00    -0.354 N 
ATOM     45  C   UNL A   1      44.994  27.396  27.072  1.00  0.00     0.074 A 
ATOM     46  C   UNL A   1      45.091  26.065  26.513  1.00  0.00     0.031 C 
ATOM     47  C   UNL A   1      39.052  27.465  29.572  1.00  0.00     0.029 A 
ATOM     48  C   UNL A   1      39.999  28.573  29.516  1.00  0.00     0.049 A 
ATOM     49  H   UNL A   1      41.899  28.572  28.658  1.00  0.00     0.167 HD
ATOM     50  C   UNL A   1      45.970  28.330  26.989  1.00  0.00     0.034 A 
ATOM     51  C   UNL A   1      39.796  29.803  30.026  1.00  0.00     0.034 A 
ATOM     52  C   UNL A   1      45.844  29.665  27.505  1.00  0.00     0.049 A 
ATOM     53  C   UNL A   1      40.897  30.825  29.915  1.00  0.00     0.074 A 
ATOM     54  C   UNL A   1      46.760  30.701  27.449  1.00  0.00     0.029 A 
ATOM     55  N   UNL A   1      44.720  30.160  28.153  1.00  0.00    -0.354 N 
ATOM     56  N   UNL A   1      42.093  30.694  29.389  1.00  0.00    -0.248 NA
ATOM     57  C   UNL A   1      40.623  32.158  30.466  1.00  0.00     0.031 C 
ATOM     58  C   UNL A   1      46.205  31.810  28.094  1.00  0.00     0.029 A 
ATOM     59  C   UNL A   1      44.922  31.484  28.503  1.00  0.00     0.049 A 
ATOM     60  H   UNL A   1      43.902  29.646  28.336  1.00  0.00     0.167 HD
ATOM     61  C   UNL A   1      42.705  31.936  29.528  1.00  0.00     0.074 A 
ATOM     62  C   UNL A   1      41.743  32.804  30.177  1.00  0.00     0.031 C 
ATOM     63  C   UNL A   1      43.949  32.327  29.152  1.00  0.00     0.034 A 
BRANCH  50  64
ATOM     64  C   UNL A   1      47.254  27.934  26.313  1.00  0.00     0.023 A 
ATOM     65  C   UNL A   1      47.393  27.993  24.916  1.00  0.00     0.031 A 
ATOM     66  C   UNL A   1      48.354  27.500  27.072  1.00  0.00     0.131 A 
ATOM     67  C   UNL A   1      48.591  27.582  24.316  1.00  0.00     0.055 A 
ATOM     68  C   UNL A   1      49.567  27.153  26.473  1.00  0.00     0.041 A 
ATOM     69  F   UNL A   1      48.267  27.405  28.409  1.00  0.00    -0.206 F 
ATOM     70  C   UNL A   1      49.688  27.188  25.086  1.00  0.00     0.022 A 
BRANCH  67  71
ATOM     71  S   UNL A   1      48.678  27.506  22.507  1.00  0.00     0.124 S 
ATOM     72  O   UNL A   1      49.950  28.177  22.249  1.00  0.00    -0.237 OA
ATOM     73  O   UNL A   1      48.650  26.072  22.244  1.00  0.00    -0.237 OA
ATOM     74  O   UNL A   1      47.491  28.242  22.078  1.00  0.00    -0.744 OA
ENDBRANCH  67  71
ENDBRANCH  50  64
BRANCH  51  75
ATOM     75  C   UNL A   1      38.507  30.145  30.688  1.00  0.00     0.023 A 
ATOM     76  C   UNL A   1      37.538  30.905  30.015  1.00  0.00     0.031 A 
ATOM     77  C   UNL A   1      38.238  29.747  32.009  1.00  0.00     0.131 A 
ATOM     78  C   UNL A   1      36.357  31.276  30.677  1.00  0.00     0.055 A 
ATOM     79  C   UNL A   1      37.043  30.084  32.649  1.00  0.00     0.041 A 
ATOM     80  F   UNL A   1      39.129  29.010  32.690  1.00  0.00    -0.206 F 
ATOM     81  C   UNL A   1      36.099  30.861  31.985  1.00  0.00     0.022 A 
BRANCH  78  82
ATOM     82  S   UNL A   1      35.180  32.354  29.815  1.00  0.00     0.124 S 
ATOM     83  O   UNL A   1      34.598  31.438  28.842  1.00  0.00    -0.237 OA
ATOM     84  O   UNL A   1      34.304  32.778  30.903  1.00  0.00    -0.237 OA
ATOM     85  O   UNL A   1      36.027  33.406  29.257  1.00  0.00    -0.744 OA
ENDBRANCH  78  82
ENDBRANCH  51  75
BRANCH  63  86
ATOM     86  C   UNL A   1      44.319  33.762  29.396  1.00  0.00     0.023 A 
ATOM     87  C   UNL A   1      43.909  34.784  28.524  1.00  0.00     0.031 A 
ATOM     88  C   UNL A   1      45.071  34.113  30.531  1.00  0.00     0.131 A 
ATOM     89  C   UNL A   1      44.289  36.109  28.780  1.00  0.00     0.055 A 
ATOM     90  C   UNL A   1      45.404  35.438  30.806  1.00  0.00     0.041 A 
ATOM     91  F   UNL A   1      45.482  33.171  31.395  1.00  0.00    -0.206 F 
ATOM     92  C   UNL A   1      45.020  36.444  29.924  1.00  0.00     0.022 A 
BRANCH  89  93
ATOM     93  S   UNL A   1      43.856  37.387  27.570  1.00  0.00     0.124 S 
ATOM     94  O   UNL A   1      43.042  36.638  26.618  1.00  0.00    -0.237 OA
ATOM     95  O   UNL A   1      43.143  38.365  28.387  1.00  0.00    -0.237 OA
ATOM     96  O   UNL A   1      45.152  37.834  27.064  1.00  0.00    -0.744 OA
ENDBRANCH  89  93
ENDBRANCH  63  86
ENDBRANCH  37  38
ENDBRANCH  29  32
ENDBRANCH  27  28
ENDBRANCH  26  27
ENDBRANCH  25  26
ENDBRANCH   1  25
TORSDOF 20
ENDMDL
MODEL 3
REMARK VINA RESULT:     -11.0      5.944      9.978
REMARK SMILES CCN(C(=O)Nc1cc(OC)ccc1F)[C@H](C)CC(=O)NCCCCNC(=O)c1ccc(-c2c3nc(c(-c4cc(S(=O)(=O)[O-])ccc4F)c4ccc([nH]4)c(-c4cc(S(=O)(=O)[O-])ccc4F)c4nc(c(-c5cc(S(=O)(=O)[O-])ccc5F)c5ccc2[nH]5)C=C4)C=C3)cc1
REMARK SMILES IDX 22 1 21 2 19 3 20 4 18 6 16 7 17 8 3 9 2 10 1 11 4 12 5 13
REMARK SMILES IDX 6 14 7 16 8 17 14 18 9 19 13 20 15 21 12 22 10 23 11 24
REMARK SMILES IDX 23 25 24 26 25 27 26 28 27 29 28 31 29 32 30 33 91 34 31 35
REMARK SMILES IDX 90 36 32 37 33 38 34 39 84 40 35 41 89 42 83 43 85 44 36 45
REMARK SMILES IDX 88 46 82 47 81 48 37 50 69 51 49 52 68 53 50 54 53 55 67 56
REMARK SMILES IDX 86 57 51 58 52 59 66 61 87 62 54 63 38 64 39 65 47 66 40 67
REMARK SMILES IDX 46 68 48 69 45 70 41 71 42 72 43 73 44 74 70 75 71 76 79 77
REMARK SMILES IDX 72 78 78 79 80 80 77 81 73 82 74 83 75 84 76 85 55 86 56 87
REMARK SMILES IDX 64 88 57 89 63 90 65 91 62 92 58 93 59 94 60 95 61 96
REMARK H PARENT 21 5 6 15 26 30 85 49 53 60
REMARK Flexibility Score: inf
ROOT
ATOM      1  C   UNL A   1      38.535  22.283  25.871  1.00  0.00     0.116 C 
ENDROOT
BRANCH   1   2
ATOM      2  N   UNL A   1      37.661  21.359  25.170  1.00  0.00    -0.356 N 
ATOM      3  C   UNL A   1      36.330  21.099  25.344  1.00  0.00     0.222 C 
ATOM      4  O   UNL A   1      35.811  20.230  24.642  1.00  0.00    -0.275 OA
ATOM      5  H   UNL A   1      38.095  20.837  24.457  1.00  0.00     0.163 HD
BRANCH   3   6
ATOM      6  C   UNL A   1      35.527  21.827  26.412  1.00  0.00     0.124 C 
BRANCH   6   7
ATOM      7  C   UNL A   1      34.607  22.929  25.817  1.00  0.00     0.093 C 
ATOM      8  C   UNL A   1      35.482  23.897  25.012  1.00  0.00     0.031 C 
BRANCH   7   9
ATOM      9  N   UNL A   1      33.465  22.389  24.998  1.00  0.00    -0.322 N 
BRANCH   9  10
ATOM     10  C   UNL A   1      33.347  22.891  23.611  1.00  0.00     0.118 C 
ATOM     11  C   UNL A   1      32.052  23.636  23.311  1.00  0.00     0.027 C 
ENDBRANCH   9  10
BRANCH   9  12
ATOM     12  C   UNL A   1      32.421  21.788  25.689  1.00  0.00     0.322 C 
ATOM     13  O   UNL A   1      31.804  22.371  26.586  1.00  0.00    -0.248 OA
ATOM     14  N   UNL A   1      31.926  20.571  25.341  1.00  0.00    -0.305 N 
ATOM     15  H   UNL A   1      31.018  20.398  25.679  1.00  0.00     0.171 HD
BRANCH  14  16
ATOM     16  C   UNL A   1      32.461  19.517  24.594  1.00  0.00     0.082 A 
ATOM     17  C   UNL A   1      33.066  18.491  25.324  1.00  0.00     0.075 A 
ATOM     18  C   UNL A   1      32.280  19.368  23.214  1.00  0.00     0.147 A 
ATOM     19  C   UNL A   1      33.305  17.255  24.721  1.00  0.00     0.121 A 
ATOM     20  C   UNL A   1      32.598  18.163  22.590  1.00  0.00     0.045 A 
ATOM     21  F   UNL A   1      31.745  20.354  22.481  1.00  0.00    -0.205 F 
ATOM     22  C   UNL A   1      33.080  17.093  23.350  1.00  0.00     0.049 A 
BRANCH  19  23
ATOM     23  O   UNL A   1      33.728  16.270  25.571  1.00  0.00    -0.497 OA
ATOM     24  C   UNL A   1      35.070  15.835  25.375  1.00  0.00     0.278 C 
ENDBRANCH  19  23
ENDBRANCH  14  16
ENDBRANCH   9  12
ENDBRANCH   7   9
ENDBRANCH   6   7
ENDBRANCH   3   6
ENDBRANCH   1   2
BRANCH   1  25
ATOM     25  C   UNL A   1      39.728  21.589  26.534  1.00  0.00     0.023 C 
BRANCH  25  26
ATOM     26  C   UNL A   1      40.046  20.195  26.018  1.00  0.00     0.023 C 
BRANCH  26  27
ATOM     27  C   UNL A   1      41.170  19.509  26.765  1.00  0.00     0.116 C 
BRANCH  27  28
ATOM     28  N   UNL A   1      42.313  19.201  25.909  1.00  0.00    -0.352 N 
ATOM     29  C   UNL A   1      43.249  20.064  25.394  1.00  0.00     0.251 C 
ATOM     30  H   UNL A   1      42.426  18.253  25.671  1.00  0.00     0.163 HD
ATOM     31  O   UNL A   1      44.071  19.675  24.570  1.00  0.00    -0.269 OA
BRANCH  29  32
ATOM     32  C   UNL A   1      43.213  21.472  25.829  1.00  0.00     0.039 A 
ATOM     33  C   UNL A   1      43.501  21.786  27.157  1.00  0.00     0.014 A 
ATOM     34  C   UNL A   1      43.012  22.478  24.881  1.00  0.00     0.014 A 
ATOM     35  C   UNL A   1      43.679  23.122  27.516  1.00  0.00     0.010 A 
ATOM     36  C   UNL A   1      43.292  23.793  25.217  1.00  0.00     0.010 A 
ATOM     37  C   UNL A   1      43.628  24.129  26.538  1.00  0.00    -0.014 A 
BRANCH  37  38
ATOM     38  C   UNL A   1      43.893  25.552  26.858  1.00  0.00     0.031 A 
ATOM     39  C   UNL A   1      45.270  26.108  26.618  1.00  0.00     0.074 A 
ATOM     40  C   UNL A   1      42.938  26.309  27.435  1.00  0.00     0.049 A 
ATOM     41  N   UNL A   1      45.779  27.249  27.000  1.00  0.00    -0.248 NA
ATOM     42  C   UNL A   1      46.214  25.242  25.889  1.00  0.00     0.031 C 
ATOM     43  C   UNL A   1      41.573  25.873  27.740  1.00  0.00     0.029 A 
ATOM     44  N   UNL A   1      42.973  27.608  27.874  1.00  0.00    -0.354 N 
ATOM     45  C   UNL A   1      47.104  27.228  26.582  1.00  0.00     0.074 A 
ATOM     46  C   UNL A   1      47.336  25.940  25.967  1.00  0.00     0.031 C 
ATOM     47  C   UNL A   1      40.893  26.898  28.279  1.00  0.00     0.029 A 
ATOM     48  C   UNL A   1      41.784  28.045  28.411  1.00  0.00     0.049 A 
ATOM     49  H   UNL A   1      43.776  28.175  27.811  1.00  0.00     0.167 HD
ATOM     50  C   UNL A   1      48.036  28.204  26.680  1.00  0.00     0.034 A 
ATOM     51  C   UNL A   1      41.457  29.232  28.957  1.00  0.00     0.034 A 
ATOM     52  C   UNL A   1      47.779  29.499  27.249  1.00  0.00     0.049 A 
ATOM     53  C   UNL A   1      42.512  30.304  29.049  1.00  0.00     0.074 A 
ATOM     54  C   UNL A   1      48.643  30.573  27.372  1.00  0.00     0.029 A 
ATOM     55  N   UNL A   1      46.558  29.906  27.770  1.00  0.00    -0.354 N 
ATOM     56  N   UNL A   1      43.771  30.255  28.679  1.00  0.00    -0.248 NA
ATOM     57  C   UNL A   1      42.105  31.587  29.633  1.00  0.00     0.031 C 
ATOM     58  C   UNL A   1      47.955  31.617  27.999  1.00  0.00     0.029 A 
ATOM     59  C   UNL A   1      46.648  31.213  28.217  1.00  0.00     0.049 A 
ATOM     60  H   UNL A   1      45.749  29.348  27.816  1.00  0.00     0.167 HD
ATOM     61  C   UNL A   1      44.298  31.509  28.965  1.00  0.00     0.074 A 
ATOM     62  C   UNL A   1      43.220  32.296  29.530  1.00  0.00     0.031 C 
ATOM     63  C   UNL A   1      45.560  31.973  28.779  1.00  0.00     0.034 A 
BRANCH  50  64
ATOM     64  C   UNL A   1      49.414  27.904  26.158  1.00  0.00     0.023 A 
ATOM     65  C   UNL A   1      49.755  28.145  24.816  1.00  0.00     0.031 A 
ATOM     66  C   UNL A   1      50.400  27.379  27.010  1.00  0.00     0.131 A 
ATOM     67  C   UNL A   1      51.038  27.820  24.354  1.00  0.00     0.055 A 
ATOM     68  C   UNL A   1      51.695  27.117  26.559  1.00  0.00     0.041 A 
ATOM     69  F   UNL A   1      50.119  27.111  28.296  1.00  0.00    -0.206 F 
ATOM     70  C   UNL A   1      52.018  27.332  25.222  1.00  0.00     0.022 A 
BRANCH  67  71
ATOM     71  S   UNL A   1      51.391  27.980  22.584  1.00  0.00     0.124 S 
ATOM     72  O   UNL A   1      51.075  29.387  22.350  1.00  0.00    -0.237 OA
ATOM     73  O   UNL A   1      52.803  27.624  22.505  1.00  0.00    -0.237 OA
ATOM     74  O   UNL A   1      50.473  27.027  21.965  1.00  0.00    -0.744 OA
ENDBRANCH  67  71
ENDBRANCH  50  64
BRANCH  51  75
ATOM     75  C   UNL A   1      40.079  29.479  29.462  1.00  0.00     0.023 A 
ATOM     76  C   UNL A   1      39.813  29.481  30.841  1.00  0.00     0.031 A 
ATOM     77  C   UNL A   1      39.005  29.686  28.579  1.00  0.00     0.131 A 
ATOM     78  C   UNL A   1      38.496  29.648  31.298  1.00  0.00     0.055 A 
ATOM     79  C   UNL A   1      37.703  29.893  29.041  1.00  0.00     0.041 A 
ATOM     80  F   UNL A   1      39.210  29.704  27.254  1.00  0.00    -0.206 F 
ATOM     81  C   UNL A   1      37.442  29.865  30.408  1.00  0.00     0.022 A 
BRANCH  78  82
ATOM     82  S   UNL A   1      38.174  29.530  33.079  1.00  0.00     0.124 S 
ATOM     83  O   UNL A   1      37.455  30.772  33.332  1.00  0.00    -0.237 OA
ATOM     84  O   UNL A   1      37.388  28.303  33.165  1.00  0.00    -0.237 OA
ATOM     85  O   UNL A   1      39.511  29.450  33.662  1.00  0.00    -0.744 OA
ENDBRANCH  78  82
ENDBRANCH  51  75
BRANCH  63  86
ATOM     86  C   UNL A   1      45.825  33.405  29.149  1.00  0.00     0.023 A 
ATOM     87  C   UNL A   1      45.673  34.445  28.217  1.00  0.00     0.031 A 
ATOM     88  C   UNL A   1      46.210  33.734  30.461  1.00  0.00     0.131 A 
ATOM     89  C   UNL A   1      45.945  35.766  28.600  1.00  0.00     0.055 A 
ATOM     90  C   UNL A   1      46.433  35.055  30.848  1.00  0.00     0.041 A 
ATOM     91  F   UNL A   1      46.365  32.775  31.387  1.00  0.00    -0.206 F 
ATOM     92  C   UNL A   1      46.308  36.078  29.913  1.00  0.00     0.022 A 
BRANCH  89  93
ATOM     93  S   UNL A   1      45.865  37.069  27.343  1.00  0.00     0.124 S 
ATOM     94  O   UNL A   1      46.957  37.948  27.750  1.00  0.00    -0.237 OA
ATOM     95  O   UNL A   1      46.074  36.325  26.104  1.00  0.00    -0.237 OA
ATOM     96  O   UNL A   1      44.524  37.625  27.509  1.00  0.00    -0.744 OA
ENDBRANCH  89  93
ENDBRANCH  63  86
ENDBRANCH  37  38
ENDBRANCH  29  32
ENDBRANCH  27  28
ENDBRANCH  26  27
ENDBRANCH  25  26
ENDBRANCH   1  25
TORSDOF 20
ENDMDL
