MODEL 1
REMARK VINA RESULT:     -10.2      0.000      0.000
REMARK SMILES CCCC[C@@H](Sc1nc(OCCC2CCCCC2)cc(OCCC2CCCCC2)n1)C(=O)NCCCCNC(=O)c1ccc(-c2c3nc(c(-c4cc(S(=O)(=O)[O-])ccc4F)c4ccc([nH]4)c(-c4cc(S(=O)(=O)[O-])ccc4F)c4nc(c(-c5cc(S(=O)(=O)[O-])ccc5F)c5ccc2[nH]5)C=C4)C=C3)cc1
REMARK SMILES IDX 34 1 33 2 31 3 32 4 5 6 4 7 3 8 2 9 1 10 6 11 7 12 8 13
REMARK SMILES IDX 30 14 9 15 20 16 19 17 10 18 11 19 12 20 13 21 14 22 18 23
REMARK SMILES IDX 15 24 17 25 16 26 21 27 22 28 23 29 24 30 25 31 29 32 26 33
REMARK SMILES IDX 28 34 27 35 35 36 36 37 37 38 38 39 39 40 40 42 41 43 42 44
REMARK SMILES IDX 103 45 43 46 102 47 44 48 45 49 46 50 96 51 47 52 101 53
REMARK SMILES IDX 95 54 97 55 48 56 100 57 94 58 93 59 49 61 81 62 61 63 80 64
REMARK SMILES IDX 62 65 65 66 79 67 98 68 63 69 64 70 78 72 99 73 66 74 50 75
REMARK SMILES IDX 51 76 59 77 52 78 58 79 60 80 57 81 53 82 54 83 55 84 56 85
REMARK SMILES IDX 82 86 83 87 91 88 84 89 90 90 92 91 89 92 85 93 86 94 87 95
REMARK SMILES IDX 88 96 67 97 68 98 76 99 69 100 75 101 77 102 74 103 70 104
REMARK SMILES IDX 71 105 72 106 73 107
REMARK H PARENT 33 5 38 41 97 60 65 71
REMARK Flexibility Score: inf
ROOT
ATOM      1  C   UNL A   1      46.800  40.304  24.202  1.00  0.00     0.116 C 
ENDROOT
BRANCH   1   2
ATOM      2  N   UNL A   1      47.344  40.467  22.859  1.00  0.00    -0.355 N 
ATOM      3  C   UNL A   1      47.283  41.532  21.995  1.00  0.00     0.233 C 
ATOM      4  O   UNL A   1      47.853  41.427  20.904  1.00  0.00    -0.274 OA
ATOM      5  H   UNL A   1      47.835  39.687  22.516  1.00  0.00     0.163 HD
BRANCH   3   6
ATOM      6  C   UNL A   1      46.515  42.822  22.366  1.00  0.00     0.144 C 
BRANCH   6   7
ATOM      7  C   UNL A   1      47.294  43.458  23.552  1.00  0.00     0.025 C 
BRANCH   7   8
ATOM      8  C   UNL A   1      47.030  44.880  24.033  1.00  0.00     0.001 C 
BRANCH   8   9
ATOM      9  C   UNL A   1      46.785  45.077  25.527  1.00  0.00    -0.003 C 
ATOM     10  C   UNL A   1      45.646  44.230  26.068  1.00  0.00     0.004 C 
ENDBRANCH   8   9
ENDBRANCH   7   8
ENDBRANCH   6   7
BRANCH   6  11
ATOM     11  S   UNL A   1      46.239  43.620  20.693  1.00  0.00    -0.073 SA
BRANCH  11  12
ATOM     12  C   UNL A   1      44.642  43.081  20.174  1.00  0.00     0.195 A 
ATOM     13  N   UNL A   1      44.054  43.849  19.229  1.00  0.00    -0.187 NA
ATOM     14  N   UNL A   1      43.998  42.237  20.981  1.00  0.00    -0.187 NA
ATOM     15  C   UNL A   1      42.735  44.003  19.335  1.00  0.00     0.221 A 
ATOM     16  C   UNL A   1      42.692  42.446  21.071  1.00  0.00     0.221 A 
ATOM     17  C   UNL A   1      42.083  43.462  20.396  1.00  0.00     0.136 A 
BRANCH  15  18
ATOM     18  O   UNL A   1      42.118  44.730  18.344  1.00  0.00    -0.477 OA
BRANCH  18  19
ATOM     19  C   UNL A   1      42.914  45.338  17.313  1.00  0.00     0.231 C 
BRANCH  19  20
ATOM     20  C   UNL A   1      42.584  46.814  16.970  1.00  0.00     0.045 C 
BRANCH  20  21
ATOM     21  C   UNL A   1      43.170  47.872  17.921  1.00  0.00    -0.008 C 
ATOM     22  C   UNL A   1      44.402  47.400  18.712  1.00  0.00     0.004 C 
ATOM     23  C   UNL A   1      43.527  49.166  17.188  1.00  0.00     0.004 C 
ATOM     24  C   UNL A   1      44.835  48.456  19.738  1.00  0.00     0.000 C 
ATOM     25  C   UNL A   1      43.823  50.262  18.206  1.00  0.00     0.000 C 
ATOM     26  C   UNL A   1      44.943  49.873  19.170  1.00  0.00     0.000 C 
ENDBRANCH  20  21
ENDBRANCH  19  20
ENDBRANCH  18  19
ENDBRANCH  15  18
BRANCH  16  27
ATOM     27  O   UNL A   1      42.037  41.822  22.106  1.00  0.00    -0.477 OA
BRANCH  27  28
ATOM     28  C   UNL A   1      41.743  42.683  23.208  1.00  0.00     0.231 C 
BRANCH  28  29
ATOM     29  C   UNL A   1      42.807  42.527  24.328  1.00  0.00     0.045 C 
BRANCH  29  30
ATOM     30  C   UNL A   1      42.617  41.278  25.209  1.00  0.00    -0.008 C 
ATOM     31  C   UNL A   1      43.486  41.287  26.462  1.00  0.00     0.004 C 
ATOM     32  C   UNL A   1      41.200  41.023  25.738  1.00  0.00     0.004 C 
ATOM     33  C   UNL A   1      43.649  39.834  26.890  1.00  0.00     0.000 C 
ATOM     34  C   UNL A   1      41.130  39.682  26.509  1.00  0.00     0.000 C 
ATOM     35  C   UNL A   1      42.313  39.370  27.444  1.00  0.00     0.000 C 
ENDBRANCH  29  30
ENDBRANCH  28  29
ENDBRANCH  27  28
ENDBRANCH  16  27
ENDBRANCH  11  12
ENDBRANCH   6  11
ENDBRANCH   3   6
ENDBRANCH   1   2
BRANCH   1  36
ATOM     36  C   UNL A   1      47.153  38.934  24.784  1.00  0.00     0.023 C 
BRANCH  36  37
ATOM     37  C   UNL A   1      46.889  38.816  26.283  1.00  0.00     0.023 C 
BRANCH  37  38
ATOM     38  C   UNL A   1      46.824  37.386  26.803  1.00  0.00     0.116 C 
BRANCH  38  39
ATOM     39  N   UNL A   1      46.536  36.413  25.757  1.00  0.00    -0.352 N 
ATOM     40  C   UNL A   1      45.693  35.329  25.823  1.00  0.00     0.251 C 
ATOM     41  H   UNL A   1      47.002  36.547  24.900  1.00  0.00     0.163 HD
ATOM     42  O   UNL A   1      45.658  34.509  24.911  1.00  0.00    -0.269 OA
BRANCH  40  43
ATOM     43  C   UNL A   1      44.868  35.156  27.035  1.00  0.00     0.039 A 
ATOM     44  C   UNL A   1      45.045  34.018  27.821  1.00  0.00     0.014 A 
ATOM     45  C   UNL A   1      43.997  36.174  27.435  1.00  0.00     0.014 A 
ATOM     46  C   UNL A   1      44.403  33.936  29.058  1.00  0.00     0.010 A 
ATOM     47  C   UNL A   1      43.427  36.127  28.701  1.00  0.00     0.010 A 
ATOM     48  C   UNL A   1      43.628  35.011  29.528  1.00  0.00    -0.014 A 
BRANCH  48  49
ATOM     49  C   UNL A   1      43.021  34.991  30.884  1.00  0.00     0.031 A 
ATOM     50  C   UNL A   1      43.883  35.234  32.091  1.00  0.00     0.074 A 
ATOM     51  C   UNL A   1      41.716  34.689  31.030  1.00  0.00     0.049 A 
ATOM     52  N   UNL A   1      43.569  35.175  33.360  1.00  0.00    -0.248 NA
ATOM     53  C   UNL A   1      45.296  35.555  31.836  1.00  0.00     0.031 C 
ATOM     54  C   UNL A   1      40.786  34.400  29.935  1.00  0.00     0.029 A 
ATOM     55  N   UNL A   1      40.944  34.567  32.158  1.00  0.00    -0.354 N 
ATOM     56  C   UNL A   1      44.743  35.445  34.052  1.00  0.00     0.074 A 
ATOM     57  C   UNL A   1      45.789  35.592  33.063  1.00  0.00     0.031 C 
ATOM     58  C   UNL A   1      39.566  34.167  30.444  1.00  0.00     0.029 A 
ATOM     59  C   UNL A   1      39.634  34.235  31.900  1.00  0.00     0.049 A 
ATOM     60  H   UNL A   1      41.295  34.704  33.068  1.00  0.00     0.167 HD
ATOM     61  C   UNL A   1      44.927  35.585  35.389  1.00  0.00     0.034 A 
ATOM     62  C   UNL A   1      38.607  33.998  32.742  1.00  0.00     0.034 A 
ATOM     63  C   UNL A   1      43.871  35.434  36.361  1.00  0.00     0.049 A 
ATOM     64  C   UNL A   1      38.848  34.100  34.227  1.00  0.00     0.074 A 
ATOM     65  C   UNL A   1      43.935  35.594  37.733  1.00  0.00     0.029 A 
ATOM     66  N   UNL A   1      42.561  35.076  36.063  1.00  0.00    -0.354 N 
ATOM     67  N   UNL A   1      39.955  34.402  34.867  1.00  0.00    -0.248 NA
ATOM     68  C   UNL A   1      37.699  33.837  35.104  1.00  0.00     0.031 C 
ATOM     69  C   UNL A   1      42.687  35.259  38.272  1.00  0.00     0.029 A 
ATOM     70  C   UNL A   1      41.818  34.975  37.230  1.00  0.00     0.049 A 
ATOM     71  H   UNL A   1      42.212  34.918  35.157  1.00  0.00     0.167 HD
ATOM     72  C   UNL A   1      39.625  34.398  36.220  1.00  0.00     0.074 A 
ATOM     73  C   UNL A   1      38.215  34.078  36.301  1.00  0.00     0.031 C 
ATOM     74  C   UNL A   1      40.414  34.644  37.297  1.00  0.00     0.034 A 
BRANCH  61  75
ATOM     75  C   UNL A   1      46.327  35.892  35.866  1.00  0.00     0.023 A 
ATOM     76  C   UNL A   1      46.712  37.196  36.228  1.00  0.00     0.031 A 
ATOM     77  C   UNL A   1      47.303  34.882  35.923  1.00  0.00     0.131 A 
ATOM     78  C   UNL A   1      48.050  37.471  36.543  1.00  0.00     0.055 A 
ATOM     79  C   UNL A   1      48.614  35.145  36.325  1.00  0.00     0.041 A 
ATOM     80  F   UNL A   1      47.004  33.622  35.568  1.00  0.00    -0.206 F 
ATOM     81  C   UNL A   1      48.998  36.449  36.621  1.00  0.00     0.022 A 
BRANCH  78  82
ATOM     82  S   UNL A   1      48.566  39.204  36.686  1.00  0.00     0.124 S 
ATOM     83  O   UNL A   1      49.922  39.154  36.144  1.00  0.00    -0.237 OA
ATOM     84  O   UNL A   1      47.576  39.896  35.869  1.00  0.00    -0.237 OA
ATOM     85  O   UNL A   1      48.486  39.469  38.121  1.00  0.00    -0.744 OA
ENDBRANCH  78  82
ENDBRANCH  61  75
BRANCH  62  86
ATOM     86  C   UNL A   1      37.261  33.634  32.212  1.00  0.00     0.023 A 
ATOM     87  C   UNL A   1      36.255  34.603  32.071  1.00  0.00     0.031 A 
ATOM     88  C   UNL A   1      36.944  32.304  31.884  1.00  0.00     0.131 A 
ATOM     89  C   UNL A   1      34.968  34.222  31.662  1.00  0.00     0.055 A 
ATOM     90  C   UNL A   1      35.677  31.939  31.421  1.00  0.00     0.041 A 
ATOM     91  F   UNL A   1      37.868  31.336  31.998  1.00  0.00    -0.206 F 
ATOM     92  C   UNL A   1      34.676  32.900  31.321  1.00  0.00     0.022 A 
BRANCH  89  93
ATOM     93  S   UNL A   1      33.651  35.470  31.667  1.00  0.00     0.124 S 
ATOM     94  O   UNL A   1      33.466  35.709  30.240  1.00  0.00    -0.237 OA
ATOM     95  O   UNL A   1      32.570  34.767  32.347  1.00  0.00    -0.237 OA
ATOM     96  O   UNL A   1      34.238  36.580  32.415  1.00  0.00    -0.744 OA
ENDBRANCH  89  93
ENDBRANCH  62  86
BRANCH  74  97
ATOM     97  C   UNL A   1      39.752  34.623  38.655  1.00  0.00     0.023 A 
ATOM     98  C   UNL A   1      39.495  33.423  39.338  1.00  0.00     0.031 A 
ATOM     99  C   UNL A   1      39.370  35.829  39.270  1.00  0.00     0.131 A 
ATOM    100  C   UNL A   1      38.828  33.450  40.573  1.00  0.00     0.055 A 
ATOM    101  C   UNL A   1      38.766  35.854  40.527  1.00  0.00     0.041 A 
ATOM    102  F   UNL A   1      39.586  37.007  38.661  1.00  0.00    -0.206 F 
ATOM    103  C   UNL A   1      38.480  34.660  41.181  1.00  0.00     0.022 A 
BRANCH 100 104
ATOM    104  S   UNL A   1      38.340  31.879  41.336  1.00  0.00     0.124 S 
ATOM    105  O   UNL A   1      37.388  32.318  42.352  1.00  0.00    -0.237 OA
ATOM    106  O   UNL A   1      37.774  31.146  40.209  1.00  0.00    -0.237 OA
ATOM    107  O   UNL A   1      39.597  31.343  41.855  1.00  0.00    -0.744 OA
ENDBRANCH 100 104
ENDBRANCH  74  97
ENDBRANCH  48  49
ENDBRANCH  40  43
ENDBRANCH  38  39
ENDBRANCH  37  38
ENDBRANCH  36  37
ENDBRANCH   1  36
TORSDOF 27
ENDMDL
MODEL 2
REMARK VINA RESULT:      -9.7      2.754      3.133
REMARK SMILES CCCC[C@@H](Sc1nc(OCCC2CCCCC2)cc(OCCC2CCCCC2)n1)C(=O)NCCCCNC(=O)c1ccc(-c2c3nc(c(-c4cc(S(=O)(=O)[O-])ccc4F)c4ccc([nH]4)c(-c4cc(S(=O)(=O)[O-])ccc4F)c4nc(c(-c5cc(S(=O)(=O)[O-])ccc5F)c5ccc2[nH]5)C=C4)C=C3)cc1
REMARK SMILES IDX 34 1 33 2 31 3 32 4 5 6 4 7 3 8 2 9 1 10 6 11 7 12 8 13
REMARK SMILES IDX 30 14 9 15 20 16 19 17 10 18 11 19 12 20 13 21 14 22 18 23
REMARK SMILES IDX 15 24 17 25 16 26 21 27 22 28 23 29 24 30 25 31 29 32 26 33
REMARK SMILES IDX 28 34 27 35 35 36 36 37 37 38 38 39 39 40 40 42 41 43 42 44
REMARK SMILES IDX 103 45 43 46 102 47 44 48 45 49 46 50 96 51 47 52 101 53
REMARK SMILES IDX 95 54 97 55 48 56 100 57 94 58 93 59 49 61 81 62 61 63 80 64
REMARK SMILES IDX 62 65 65 66 79 67 98 68 63 69 64 70 78 72 99 73 66 74 50 75
REMARK SMILES IDX 51 76 59 77 52 78 58 79 60 80 57 81 53 82 54 83 55 84 56 85
REMARK SMILES IDX 82 86 83 87 91 88 84 89 90 90 92 91 89 92 85 93 86 94 87 95
REMARK SMILES IDX 88 96 67 97 68 98 76 99 69 100 75 101 77 102 74 103 70 104
REMARK SMILES IDX 71 105 72 106 73 107
REMARK H PARENT 33 5 38 41 97 60 65 71
REMARK Flexibility Score: inf
ROOT
ATOM      1  C   UNL A   1      46.773  40.757  23.995  1.00  0.00     0.116 C 
ENDROOT
BRANCH   1   2
ATOM      2  N   UNL A   1      47.334  40.812  22.651  1.00  0.00    -0.355 N 
ATOM      3  C   UNL A   1      47.245  41.784  21.686  1.00  0.00     0.233 C 
ATOM      4  O   UNL A   1      47.840  41.598  20.620  1.00  0.00    -0.274 OA
ATOM      5  H   UNL A   1      47.865  40.025  22.394  1.00  0.00     0.163 HD
BRANCH   3   6
ATOM      6  C   UNL A   1      46.417  43.070  21.918  1.00  0.00     0.144 C 
BRANCH   6   7
ATOM      7  C   UNL A   1      47.329  44.024  22.739  1.00  0.00     0.025 C 
BRANCH   7   8
ATOM      8  C   UNL A   1      46.785  44.918  23.847  1.00  0.00     0.001 C 
BRANCH   8   9
ATOM      9  C   UNL A   1      46.793  44.354  25.266  1.00  0.00    -0.003 C 
ATOM     10  C   UNL A   1      45.796  45.031  26.189  1.00  0.00     0.004 C 
ENDBRANCH   8   9
ENDBRANCH   7   8
ENDBRANCH   6   7
BRANCH   6  11
ATOM     11  S   UNL A   1      45.734  43.420  20.208  1.00  0.00    -0.073 SA
BRANCH  11  12
ATOM     12  C   UNL A   1      44.063  42.859  20.246  1.00  0.00     0.195 A 
ATOM     13  N   UNL A   1      43.199  43.572  19.489  1.00  0.00    -0.187 NA
ATOM     14  N   UNL A   1      43.715  42.067  21.260  1.00  0.00    -0.187 NA
ATOM     15  C   UNL A   1      41.978  43.738  19.992  1.00  0.00     0.221 A 
ATOM     16  C   UNL A   1      42.500  42.286  21.741  1.00  0.00     0.221 A 
ATOM     17  C   UNL A   1      41.697  43.264  21.233  1.00  0.00     0.136 A 
BRANCH  15  18
ATOM     18  O   UNL A   1      41.072  44.409  19.204  1.00  0.00    -0.477 OA
BRANCH  18  19
ATOM     19  C   UNL A   1      41.466  44.852  17.895  1.00  0.00     0.231 C 
BRANCH  19  20
ATOM     20  C   UNL A   1      41.282  46.362  17.595  1.00  0.00     0.045 C 
BRANCH  20  21
ATOM     21  C   UNL A   1      42.536  47.107  17.106  1.00  0.00    -0.008 C 
ATOM     22  C   UNL A   1      42.555  48.607  17.445  1.00  0.00     0.004 C 
ATOM     23  C   UNL A   1      43.823  46.471  17.635  1.00  0.00     0.004 C 
ATOM     24  C   UNL A   1      43.761  49.302  16.801  1.00  0.00     0.000 C 
ATOM     25  C   UNL A   1      45.021  47.058  16.898  1.00  0.00     0.000 C 
ATOM     26  C   UNL A   1      45.092  48.579  17.022  1.00  0.00     0.000 C 
ENDBRANCH  20  21
ENDBRANCH  19  20
ENDBRANCH  18  19
ENDBRANCH  15  18
BRANCH  16  27
ATOM     27  O   UNL A   1      42.209  41.728  22.963  1.00  0.00    -0.477 OA
BRANCH  27  28
ATOM     28  C   UNL A   1      42.472  42.590  24.072  1.00  0.00     0.231 C 
BRANCH  28  29
ATOM     29  C   UNL A   1      43.698  42.089  24.881  1.00  0.00     0.045 C 
BRANCH  29  30
ATOM     30  C   UNL A   1      43.351  41.534  26.274  1.00  0.00    -0.008 C 
ATOM     31  C   UNL A   1      43.130  40.025  26.283  1.00  0.00     0.004 C 
ATOM     32  C   UNL A   1      44.387  41.767  27.382  1.00  0.00     0.004 C 
ATOM     33  C   UNL A   1      42.257  39.718  27.494  1.00  0.00     0.000 C 
ATOM     34  C   UNL A   1      43.860  41.260  28.747  1.00  0.00     0.000 C 
ATOM     35  C   UNL A   1      43.114  39.912  28.733  1.00  0.00     0.000 C 
ENDBRANCH  29  30
ENDBRANCH  28  29
ENDBRANCH  27  28
ENDBRANCH  16  27
ENDBRANCH  11  12
ENDBRANCH   6  11
ENDBRANCH   3   6
ENDBRANCH   1   2
BRANCH   1  36
ATOM     36  C   UNL A   1      47.164  39.462  24.711  1.00  0.00     0.023 C 
BRANCH  36  37
ATOM     37  C   UNL A   1      46.753  39.423  26.181  1.00  0.00     0.023 C 
BRANCH  37  38
ATOM     38  C   UNL A   1      46.759  38.032  26.802  1.00  0.00     0.116 C 
BRANCH  38  39
ATOM     39  N   UNL A   1      46.522  36.974  25.829  1.00  0.00    -0.352 N 
ATOM     40  C   UNL A   1      45.833  35.798  26.014  1.00  0.00     0.251 C 
ATOM     41  H   UNL A   1      46.902  37.116  24.932  1.00  0.00     0.163 HD
ATOM     42  O   UNL A   1      45.836  34.930  25.146  1.00  0.00    -0.269 OA
BRANCH  40  43
ATOM     43  C   UNL A   1      45.128  35.593  27.294  1.00  0.00     0.039 A 
ATOM     44  C   UNL A   1      45.706  34.774  28.264  1.00  0.00     0.014 A 
ATOM     45  C   UNL A   1      43.949  36.295  27.561  1.00  0.00     0.014 A 
ATOM     46  C   UNL A   1      45.140  34.723  29.539  1.00  0.00     0.010 A 
ATOM     47  C   UNL A   1      43.437  36.306  28.852  1.00  0.00     0.010 A 
ATOM     48  C   UNL A   1      44.029  35.524  29.856  1.00  0.00    -0.014 A 
BRANCH  48  49
ATOM     49  C   UNL A   1      43.474  35.566  31.233  1.00  0.00     0.031 A 
ATOM     50  C   UNL A   1      44.063  36.504  32.248  1.00  0.00     0.074 A 
ATOM     51  C   UNL A   1      42.491  34.714  31.585  1.00  0.00     0.049 A 
ATOM     52  N   UNL A   1      43.782  36.633  33.520  1.00  0.00    -0.248 NA
ATOM     53  C   UNL A   1      45.133  37.396  31.775  1.00  0.00     0.031 C 
ATOM     54  C   UNL A   1      41.862  33.733  30.696  1.00  0.00     0.029 A 
ATOM     55  N   UNL A   1      41.849  34.529  32.784  1.00  0.00    -0.354 N 
ATOM     56  C   UNL A   1      44.644  37.613  33.999  1.00  0.00     0.074 A 
ATOM     57  C   UNL A   1      45.506  37.988  32.899  1.00  0.00     0.031 C 
ATOM     58  C   UNL A   1      40.906  33.075  31.372  1.00  0.00     0.029 A 
ATOM     59  C   UNL A   1      40.888  33.545  32.753  1.00  0.00     0.049 A 
ATOM     60  H   UNL A   1      42.058  35.052  33.592  1.00  0.00     0.167 HD
ATOM     61  C   UNL A   1      44.693  38.167  35.236  1.00  0.00     0.034 A 
ATOM     62  C   UNL A   1      40.092  33.065  33.731  1.00  0.00     0.034 A 
ATOM     63  C   UNL A   1      43.826  37.779  36.321  1.00  0.00     0.049 A 
ATOM     64  C   UNL A   1      40.206  33.656  35.114  1.00  0.00     0.074 A 
ATOM     65  C   UNL A   1      43.760  38.301  37.600  1.00  0.00     0.029 A 
ATOM     66  N   UNL A   1      42.879  36.763  36.259  1.00  0.00    -0.354 N 
ATOM     67  N   UNL A   1      40.995  34.615  35.542  1.00  0.00    -0.248 NA
ATOM     68  C   UNL A   1      39.317  33.104  36.144  1.00  0.00     0.031 C 
ATOM     69  C   UNL A   1      42.831  37.553  38.333  1.00  0.00     0.029 A 
ATOM     70  C   UNL A   1      42.252  36.620  37.487  1.00  0.00     0.049 A 
ATOM     71  H   UNL A   1      42.683  36.224  35.459  1.00  0.00     0.167 HD
ATOM     72  C   UNL A   1      40.671  34.803  36.883  1.00  0.00     0.074 A 
ATOM     73  C   UNL A   1      39.608  33.869  37.187  1.00  0.00     0.031 C 
ATOM     74  C   UNL A   1      41.199  35.675  37.780  1.00  0.00     0.034 A 
BRANCH  61  75
ATOM     75  C   UNL A   1      45.738  39.233  35.474  1.00  0.00     0.023 A 
ATOM     76  C   UNL A   1      45.425  40.602  35.394  1.00  0.00     0.031 A 
ATOM     77  C   UNL A   1      47.071  38.880  35.745  1.00  0.00     0.131 A 
ATOM     78  C   UNL A   1      46.442  41.561  35.494  1.00  0.00     0.055 A 
ATOM     79  C   UNL A   1      48.064  39.844  35.934  1.00  0.00     0.041 A 
ATOM     80  F   UNL A   1      47.438  37.591  35.811  1.00  0.00    -0.206 F 
ATOM     81  C   UNL A   1      47.756  41.194  35.791  1.00  0.00     0.022 A 
BRANCH  78  82
ATOM     82  S   UNL A   1      46.053  43.281  35.065  1.00  0.00     0.124 S 
ATOM     83  O   UNL A   1      46.783  44.014  36.098  1.00  0.00    -0.237 OA
ATOM     84  O   UNL A   1      46.578  43.394  33.709  1.00  0.00    -0.237 OA
ATOM     85  O   UNL A   1      44.598  43.342  35.179  1.00  0.00    -0.744 OA
ENDBRANCH  78  82
ENDBRANCH  61  75
BRANCH  62  86
ATOM     86  C   UNL A   1      39.125  31.965  33.450  1.00  0.00     0.023 A 
ATOM     87  C   UNL A   1      39.563  30.638  33.318  1.00  0.00     0.031 A 
ATOM     88  C   UNL A   1      37.757  32.228  33.262  1.00  0.00     0.131 A 
ATOM     89  C   UNL A   1      38.651  29.632  32.959  1.00  0.00     0.055 A 
ATOM     90  C   UNL A   1      36.844  31.215  32.963  1.00  0.00     0.041 A 
ATOM     91  F   UNL A   1      37.283  33.479  33.379  1.00  0.00    -0.206 F 
ATOM     92  C   UNL A   1      37.292  29.909  32.796  1.00  0.00     0.022 A 
BRANCH  89  93
ATOM     93  S   UNL A   1      39.286  27.967  32.621  1.00  0.00     0.124 S 
ATOM     94  O   UNL A   1      38.078  27.159  32.748  1.00  0.00    -0.237 OA
ATOM     95  O   UNL A   1      39.821  28.115  31.272  1.00  0.00    -0.237 OA
ATOM     96  O   UNL A   1      40.285  27.765  33.667  1.00  0.00    -0.744 OA
ENDBRANCH  89  93
ENDBRANCH  62  86
BRANCH  74  97
ATOM     97  C   UNL A   1      40.596  35.689  39.165  1.00  0.00     0.023 A 
ATOM     98  C   UNL A   1      41.061  34.844  40.187  1.00  0.00     0.031 A 
ATOM     99  C   UNL A   1      39.535  36.562  39.462  1.00  0.00     0.131 A 
ATOM    100  C   UNL A   1      40.433  34.853  41.442  1.00  0.00     0.055 A 
ATOM    101  C   UNL A   1      38.957  36.614  40.730  1.00  0.00     0.041 A 
ATOM    102  F   UNL A   1      39.046  37.390  38.523  1.00  0.00    -0.206 F 
ATOM    103  C   UNL A   1      39.397  35.747  41.726  1.00  0.00     0.022 A 
BRANCH 100 104
ATOM    104  S   UNL A   1      40.928  33.618  42.674  1.00  0.00     0.124 S 
ATOM    105  O   UNL A   1      41.885  34.365  43.485  1.00  0.00    -0.237 OA
ATOM    106  O   UNL A   1      39.661  33.296  43.321  1.00  0.00    -0.237 OA
ATOM    107  O   UNL A   1      41.504  32.541  41.871  1.00  0.00    -0.744 OA
ENDBRANCH 100 104
ENDBRANCH  74  97
ENDBRANCH  48  49
ENDBRANCH  40  43
ENDBRANCH  38  39
ENDBRANCH  37  38
ENDBRANCH  36  37
ENDBRANCH   1  36
TORSDOF 27
ENDMDL
MODEL 3
REMARK VINA RESULT:      -9.4      8.305     16.779
REMARK SMILES CCCC[C@@H](Sc1nc(OCCC2CCCCC2)cc(OCCC2CCCCC2)n1)C(=O)NCCCCNC(=O)c1ccc(-c2c3nc(c(-c4cc(S(=O)(=O)[O-])ccc4F)c4ccc([nH]4)c(-c4cc(S(=O)(=O)[O-])ccc4F)c4nc(c(-c5cc(S(=O)(=O)[O-])ccc5F)c5ccc2[nH]5)C=C4)C=C3)cc1
REMARK SMILES IDX 34 1 33 2 31 3 32 4 5 6 4 7 3 8 2 9 1 10 6 11 7 12 8 13
REMARK SMILES IDX 30 14 9 15 20 16 19 17 10 18 11 19 12 20 13 21 14 22 18 23
REMARK SMILES IDX 15 24 17 25 16 26 21 27 22 28 23 29 24 30 25 31 29 32 26 33
REMARK SMILES IDX 28 34 27 35 35 36 36 37 37 38 38 39 39 40 40 42 41 43 42 44
REMARK SMILES IDX 103 45 43 46 102 47 44 48 45 49 46 50 96 51 47 52 101 53
REMARK SMILES IDX 95 54 97 55 48 56 100 57 94 58 93 59 49 61 81 62 61 63 80 64
REMARK SMILES IDX 62 65 65 66 79 67 98 68 63 69 64 70 78 72 99 73 66 74 50 75
REMARK SMILES IDX 51 76 59 77 52 78 58 79 60 80 57 81 53 82 54 83 55 84 56 85
REMARK SMILES IDX 82 86 83 87 91 88 84 89 90 90 92 91 89 92 85 93 86 94 87 95
REMARK SMILES IDX 88 96 67 97 68 98 76 99 69 100 75 101 77 102 74 103 70 104
REMARK SMILES IDX 71 105 72 106 73 107
REMARK H PARENT 33 5 38 41 97 60 65 71
REMARK Flexibility Score: inf
ROOT
ATOM      1  C   UNL A   1      38.337  24.346  26.463  1.00  0.00     0.116 C 
ENDROOT
BRANCH   1   2
ATOM      2  N   UNL A   1      37.648  23.700  25.352  1.00  0.00    -0.355 N 
ATOM      3  C   UNL A   1      36.325  23.732  24.983  1.00  0.00     0.233 C 
ATOM      4  O   UNL A   1      35.991  23.107  23.972  1.00  0.00    -0.274 OA
ATOM      5  H   UNL A   1      38.223  23.154  24.772  1.00  0.00     0.163 HD
BRANCH   3   6
ATOM      6  C   UNL A   1      35.281  24.516  25.812  1.00  0.00     0.144 C 
BRANCH   6   7
ATOM      7  C   UNL A   1      34.359  25.224  24.780  1.00  0.00     0.025 C 
BRANCH   7   8
ATOM      8  C   UNL A   1      34.044  26.713  24.853  1.00  0.00     0.001 C 
BRANCH   8   9
ATOM      9  C   UNL A   1      33.909  27.331  26.242  1.00  0.00    -0.003 C 
ATOM     10  C   UNL A   1      34.517  28.718  26.346  1.00  0.00     0.004 C 
ENDBRANCH   8   9
ENDBRANCH   7   8
ENDBRANCH   6   7
BRANCH   6  11
ATOM     11  S   UNL A   1      34.730  23.241  27.071  1.00  0.00    -0.073 SA
BRANCH  11  12
ATOM     12  C   UNL A   1      33.152  22.685  26.515  1.00  0.00     0.195 A 
ATOM     13  N   UNL A   1      33.137  22.141  25.277  1.00  0.00    -0.187 NA
ATOM     14  N   UNL A   1      32.084  23.168  27.150  1.00  0.00    -0.187 NA
ATOM     15  C   UNL A   1      32.060  22.398  24.537  1.00  0.00     0.221 A 
ATOM     16  C   UNL A   1      31.047  23.429  26.367  1.00  0.00     0.221 A 
ATOM     17  C   UNL A   1      31.101  23.229  25.019  1.00  0.00     0.136 A 
BRANCH  15  18
ATOM     18  O   UNL A   1      32.004  21.799  23.300  1.00  0.00    -0.477 OA
BRANCH  18  19
ATOM     19  C   UNL A   1      32.259  20.389  23.185  1.00  0.00     0.231 C 
BRANCH  19  20
ATOM     20  C   UNL A   1      32.127  19.558  24.487  1.00  0.00     0.045 C 
BRANCH  20  21
ATOM     21  C   UNL A   1      32.611  18.100  24.404  1.00  0.00    -0.008 C 
ATOM     22  C   UNL A   1      34.015  17.931  23.797  1.00  0.00     0.004 C 
ATOM     23  C   UNL A   1      32.583  17.408  25.768  1.00  0.00     0.004 C 
ATOM     24  C   UNL A   1      34.361  16.447  23.616  1.00  0.00     0.000 C 
ATOM     25  C   UNL A   1      32.787  15.909  25.582  1.00  0.00     0.000 C 
ATOM     26  C   UNL A   1      34.090  15.586  24.852  1.00  0.00     0.000 C 
ENDBRANCH  20  21
ENDBRANCH  19  20
ENDBRANCH  18  19
ENDBRANCH  15  18
BRANCH  16  27
ATOM     27  O   UNL A   1      30.048  24.207  26.904  1.00  0.00    -0.477 OA
BRANCH  27  28
ATOM     28  C   UNL A   1      29.653  25.299  26.072  1.00  0.00     0.231 C 
BRANCH  28  29
ATOM     29  C   UNL A   1      30.671  26.466  26.175  1.00  0.00     0.045 C 
BRANCH  29  30
ATOM     30  C   UNL A   1      30.893  27.228  24.856  1.00  0.00    -0.008 C 
ATOM     31  C   UNL A   1      29.928  26.812  23.750  1.00  0.00     0.004 C 
ATOM     32  C   UNL A   1      30.755  28.755  24.916  1.00  0.00     0.004 C 
ATOM     33  C   UNL A   1      30.600  27.164  22.429  1.00  0.00     0.000 C 
ATOM     34  C   UNL A   1      31.113  29.397  23.553  1.00  0.00     0.000 C 
ATOM     35  C   UNL A   1      30.583  28.677  22.299  1.00  0.00     0.000 C 
ENDBRANCH  29  30
ENDBRANCH  28  29
ENDBRANCH  27  28
ENDBRANCH  16  27
ENDBRANCH  11  12
ENDBRANCH   6  11
ENDBRANCH   3   6
ENDBRANCH   1   2
BRANCH   1  36
ATOM     36  C   UNL A   1      39.348  23.401  27.116  1.00  0.00     0.023 C 
BRANCH  36  37
ATOM     37  C   UNL A   1      40.697  23.355  26.404  1.00  0.00     0.023 C 
BRANCH  37  38
ATOM     38  C   UNL A   1      41.211  24.710  25.935  1.00  0.00     0.116 C 
BRANCH  38  39
ATOM     39  N   UNL A   1      42.523  24.635  25.305  1.00  0.00    -0.352 N 
ATOM     40  C   UNL A   1      43.557  25.535  25.401  1.00  0.00     0.251 C 
ATOM     41  H   UNL A   1      42.687  23.844  24.741  1.00  0.00     0.163 HD
ATOM     42  O   UNL A   1      44.556  25.416  24.698  1.00  0.00    -0.269 OA
BRANCH  40  43
ATOM     43  C   UNL A   1      43.416  26.667  26.338  1.00  0.00     0.039 A 
ATOM     44  C   UNL A   1      43.922  26.545  27.632  1.00  0.00     0.014 A 
ATOM     45  C   UNL A   1      42.874  27.876  25.892  1.00  0.00     0.014 A 
ATOM     46  C   UNL A   1      43.956  27.668  28.459  1.00  0.00     0.010 A 
ATOM     47  C   UNL A   1      42.986  29.009  26.688  1.00  0.00     0.010 A 
ATOM     48  C   UNL A   1      43.533  28.919  27.977  1.00  0.00    -0.014 A 
BRANCH  48  49
ATOM     49  C   UNL A   1      43.658  30.148  28.802  1.00  0.00     0.031 A 
ATOM     50  C   UNL A   1      42.512  30.585  29.671  1.00  0.00     0.074 A 
ATOM     51  C   UNL A   1      44.771  30.903  28.715  1.00  0.00     0.049 A 
ATOM     52  N   UNL A   1      42.386  31.666  30.397  1.00  0.00    -0.248 NA
ATOM     53  C   UNL A   1      41.337  29.700  29.702  1.00  0.00     0.031 C 
ATOM     54  C   UNL A   1      45.936  30.601  27.879  1.00  0.00     0.029 A 
ATOM     55  N   UNL A   1      45.105  32.083  29.331  1.00  0.00    -0.354 N 
ATOM     56  C   UNL A   1      41.119  31.594  30.965  1.00  0.00     0.074 A 
ATOM     57  C   UNL A   1      40.490  30.402  30.438  1.00  0.00     0.031 C 
ATOM     58  C   UNL A   1      46.866  31.552  28.061  1.00  0.00     0.029 A 
ATOM     59  C   UNL A   1      46.347  32.560  28.979  1.00  0.00     0.049 A 
ATOM     60  H   UNL A   1      44.511  32.547  29.965  1.00  0.00     0.167 HD
ATOM     61  C   UNL A   1      40.545  32.431  31.864  1.00  0.00     0.034 A 
ATOM     62  C   UNL A   1      46.990  33.688  29.345  1.00  0.00     0.034 A 
ATOM     63  C   UNL A   1      41.187  33.616  32.377  1.00  0.00     0.049 A 
ATOM     64  C   UNL A   1      46.306  34.635  30.300  1.00  0.00     0.074 A 
ATOM     65  C   UNL A   1      40.716  34.512  33.321  1.00  0.00     0.029 A 
ATOM     66  N   UNL A   1      42.437  34.078  31.982  1.00  0.00    -0.354 N 
ATOM     67  N   UNL A   1      45.125  34.531  30.865  1.00  0.00    -0.248 NA
ATOM     68  C   UNL A   1      47.047  35.848  30.672  1.00  0.00     0.031 C 
ATOM     69  C   UNL A   1      41.643  35.553  33.439  1.00  0.00     0.029 A 
ATOM     70  C   UNL A   1      42.736  35.265  32.636  1.00  0.00     0.049 A 
ATOM     71  H   UNL A   1      43.025  33.629  31.333  1.00  0.00     0.167 HD
ATOM     72  C   UNL A   1      44.997  35.649  31.686  1.00  0.00     0.074 A 
ATOM     73  C   UNL A   1      46.226  36.404  31.551  1.00  0.00     0.031 C 
ATOM     74  C   UNL A   1      43.961  36.014  32.484  1.00  0.00     0.034 A 
BRANCH  61  75
ATOM     75  C   UNL A   1      39.144  32.098  32.321  1.00  0.00     0.023 A 
ATOM     76  C   UNL A   1      38.015  32.470  31.569  1.00  0.00     0.031 A 
ATOM     77  C   UNL A   1      38.928  31.435  33.543  1.00  0.00     0.131 A 
ATOM     78  C   UNL A   1      36.728  32.259  32.083  1.00  0.00     0.055 A 
ATOM     79  C   UNL A   1      37.643  31.147  34.007  1.00  0.00     0.041 A 
ATOM     80  F   UNL A   1      39.963  31.075  34.317  1.00  0.00    -0.206 F 
ATOM     81  C   UNL A   1      36.533  31.575  33.284  1.00  0.00     0.022 A 
BRANCH  78  82
ATOM     82  S   UNL A   1      35.322  33.038  31.241  1.00  0.00     0.124 S 
ATOM     83  O   UNL A   1      34.196  32.551  32.036  1.00  0.00    -0.237 OA
ATOM     84  O   UNL A   1      35.627  34.458  31.367  1.00  0.00    -0.237 OA
ATOM     85  O   UNL A   1      35.395  32.502  29.884  1.00  0.00    -0.744 OA
ENDBRANCH  78  82
ENDBRANCH  61  75
BRANCH  62  86
ATOM     86  C   UNL A   1      48.347  33.996  28.808  1.00  0.00     0.023 A 
ATOM     87  C   UNL A   1      48.509  34.498  27.507  1.00  0.00     0.031 A 
ATOM     88  C   UNL A   1      49.504  33.751  29.567  1.00  0.00     0.131 A 
ATOM     89  C   UNL A   1      49.798  34.691  26.986  1.00  0.00     0.055 A 
ATOM     90  C   UNL A   1      50.783  34.000  29.066  1.00  0.00     0.041 A 
ATOM     91  F   UNL A   1      49.408  33.273  30.819  1.00  0.00    -0.206 F 
ATOM     92  C   UNL A   1      50.936  34.460  27.762  1.00  0.00     0.022 A 
BRANCH  89  93
ATOM     93  S   UNL A   1      49.968  35.165  25.243  1.00  0.00     0.124 S 
ATOM     94  O   UNL A   1      50.903  34.159  24.754  1.00  0.00    -0.237 OA
ATOM     95  O   UNL A   1      48.595  35.054  24.764  1.00  0.00    -0.237 OA
ATOM     96  O   UNL A   1      50.495  36.527  25.312  1.00  0.00    -0.744 OA
ENDBRANCH  89  93
ENDBRANCH  62  86
BRANCH  74  97
ATOM     97  C   UNL A   1      44.137  37.265  33.311  1.00  0.00     0.023 A 
ATOM     98  C   UNL A   1      43.662  38.515  32.879  1.00  0.00     0.031 A 
ATOM     99  C   UNL A   1      44.795  37.201  34.553  1.00  0.00     0.131 A 
ATOM    100  C   UNL A   1      43.898  39.659  33.657  1.00  0.00     0.055 A 
ATOM    101  C   UNL A   1      44.969  38.331  35.353  1.00  0.00     0.041 A 
ATOM    102  F   UNL A   1      45.274  36.034  35.015  1.00  0.00    -0.206 F 
ATOM    103  C   UNL A   1      44.531  39.572  34.900  1.00  0.00     0.022 A 
BRANCH 100 104
ATOM    104  S   UNL A   1      43.446  41.281  32.983  1.00  0.00     0.124 S 
ATOM    105  O   UNL A   1      43.943  41.190  31.614  1.00  0.00    -0.237 OA
ATOM    106  O   UNL A   1      41.994  41.289  33.133  1.00  0.00    -0.237 OA
ATOM    107  O   UNL A   1      44.162  42.222  33.841  1.00  0.00    -0.744 OA
ENDBRANCH 100 104
ENDBRANCH  74  97
ENDBRANCH  48  49
ENDBRANCH  40  43
ENDBRANCH  38  39
ENDBRANCH  37  38
ENDBRANCH  36  37
ENDBRANCH   1  36
TORSDOF 27
ENDMDL
