MODEL 1
REMARK VINA RESULT:     -10.4      0.000      0.000
REMARK SMILES O=C(NCCCCNC(=O)c1ccc(C[NH2+]CCOc2ccccc2)nc1)c1ccc(-c2c3nc(c(-c4cc(S(=O)(=O)[O-])ccc4F)c4ccc([nH]4)c(-c4cc(S(=O)(=O)[O-])ccc4F)c4nc(c(-c5cc(S(=O)(=O)[O-])ccc5F)c5ccc2[nH]5)C=C4)C=C3)cc1
REMARK SMILES IDX 7 1 6 2 5 3 4 4 3 5 1 6 2 7 28 9 29 10 90 11 30 12 89 13
REMARK SMILES IDX 31 14 32 15 33 16 83 17 34 18 88 19 82 20 84 21 35 22 87 23
REMARK SMILES IDX 81 24 80 25 36 27 68 28 48 29 67 30 49 31 52 32 66 33 85 34
REMARK SMILES IDX 50 35 51 36 65 38 86 39 53 40 37 41 38 42 46 43 39 44 45 45
REMARK SMILES IDX 47 46 44 47 40 48 41 49 42 50 43 51 69 52 70 53 78 54 71 55
REMARK SMILES IDX 77 56 79 57 76 58 72 59 73 60 74 61 75 62 54 63 55 64 63 65
REMARK SMILES IDX 56 66 62 67 64 68 61 69 57 70 58 71 59 72 60 73 8 74 9 75
REMARK SMILES IDX 10 77 11 78 12 79 27 80 13 81 26 82 14 83 15 84 16 85 17 88
REMARK SMILES IDX 18 89 19 90 20 91 21 92 25 93 22 94 24 95 23 96
REMARK H PARENT 3 8 84 26 52 37 8 76 16 86 16 87
REMARK Flexibility Score: inf
ROOT
ATOM      1  C   UNL A   1      33.422  28.335  22.907  1.00  0.00     0.116 C 
ENDROOT
BRANCH   1   2
ATOM      2  C   UNL A   1      33.662  28.943  24.286  1.00  0.00     0.023 C 
BRANCH   2   3
ATOM      3  C   UNL A   1      33.987  27.938  25.389  1.00  0.00     0.023 C 
BRANCH   3   4
ATOM      4  C   UNL A   1      33.616  28.380  26.798  1.00  0.00     0.116 C 
BRANCH   4   5
ATOM      5  N   UNL A   1      33.533  29.826  26.937  1.00  0.00    -0.352 N 
ATOM      6  O   UNL A   1      34.098  31.866  27.715  1.00  0.00    -0.269 OA
ATOM      7  C   UNL A   1      34.395  30.682  27.580  1.00  0.00     0.251 C 
ATOM      8  H   UNL A   1      32.752  30.250  26.512  1.00  0.00     0.163 HD
BRANCH   7   9
ATOM      9  C   UNL A   1      35.669  30.163  28.123  1.00  0.00     0.039 A 
ATOM     10  C   UNL A   1      35.719  29.609  29.404  1.00  0.00     0.014 A 
ATOM     11  C   UNL A   1      36.824  30.239  27.342  1.00  0.00     0.014 A 
ATOM     12  C   UNL A   1      36.944  29.249  29.953  1.00  0.00     0.010 A 
ATOM     13  C   UNL A   1      38.043  29.799  27.866  1.00  0.00     0.010 A 
ATOM     14  C   UNL A   1      38.115  29.319  29.183  1.00  0.00    -0.014 A 
BRANCH  14  15
ATOM     15  C   UNL A   1      39.388  28.799  29.743  1.00  0.00     0.031 A 
ATOM     16  C   UNL A   1      40.034  29.443  30.938  1.00  0.00     0.074 A 
ATOM     17  C   UNL A   1      39.959  27.732  29.148  1.00  0.00     0.049 A 
ATOM     18  N   UNL A   1      41.163  29.137  31.525  1.00  0.00    -0.248 NA
ATOM     19  C   UNL A   1      39.328  30.579  31.547  1.00  0.00     0.031 C 
ATOM     20  C   UNL A   1      39.417  27.035  27.977  1.00  0.00     0.029 A 
ATOM     21  N   UNL A   1      41.110  27.046  29.435  1.00  0.00    -0.354 N 
ATOM     22  C   UNL A   1      41.317  30.054  32.560  1.00  0.00     0.074 A 
ATOM     23  C   UNL A   1      40.172  30.939  32.505  1.00  0.00     0.031 C 
ATOM     24  C   UNL A   1      40.221  26.010  27.663  1.00  0.00     0.029 A 
ATOM     25  C   UNL A   1      41.372  26.021  28.555  1.00  0.00     0.049 A 
ATOM     26  H   UNL A   1      41.694  27.266  30.197  1.00  0.00     0.167 HD
ATOM     27  C   UNL A   1      42.323  30.142  33.465  1.00  0.00     0.034 A 
ATOM     28  C   UNL A   1      42.439  25.206  28.450  1.00  0.00     0.034 A 
ATOM     29  C   UNL A   1      43.449  29.238  33.504  1.00  0.00     0.049 A 
ATOM     30  C   UNL A   1      43.564  25.362  29.437  1.00  0.00     0.074 A 
ATOM     31  C   UNL A   1      44.482  29.189  34.424  1.00  0.00     0.029 A 
ATOM     32  N   UNL A   1      43.703  28.239  32.572  1.00  0.00    -0.354 N 
ATOM     33  N   UNL A   1      43.668  26.203  30.439  1.00  0.00    -0.248 NA
ATOM     34  C   UNL A   1      44.713  24.463  29.278  1.00  0.00     0.031 C 
ATOM     35  C   UNL A   1      45.397  28.216  34.008  1.00  0.00     0.029 A 
ATOM     36  C   UNL A   1      44.901  27.604  32.868  1.00  0.00     0.049 A 
ATOM     37  H   UNL A   1      43.118  28.015  31.813  1.00  0.00     0.167 HD
ATOM     38  C   UNL A   1      44.890  25.924  31.040  1.00  0.00     0.074 A 
ATOM     39  C   UNL A   1      45.474  24.822  30.301  1.00  0.00     0.031 C 
ATOM     40  C   UNL A   1      45.479  26.523  32.106  1.00  0.00     0.034 A 
BRANCH  27  41
ATOM     41  C   UNL A   1      42.285  31.279  34.457  1.00  0.00     0.023 A 
ATOM     42  C   UNL A   1      42.812  32.548  34.162  1.00  0.00     0.031 A 
ATOM     43  C   UNL A   1      41.691  31.091  35.718  1.00  0.00     0.131 A 
ATOM     44  C   UNL A   1      42.779  33.563  35.133  1.00  0.00     0.055 A 
ATOM     45  C   UNL A   1      41.602  32.122  36.656  1.00  0.00     0.041 A 
ATOM     46  F   UNL A   1      41.187  29.895  36.063  1.00  0.00    -0.206 F 
ATOM     47  C   UNL A   1      42.157  33.365  36.368  1.00  0.00     0.022 A 
BRANCH  44  48
ATOM     48  S   UNL A   1      43.660  35.114  34.801  1.00  0.00     0.124 S 
ATOM     49  O   UNL A   1      42.768  35.760  33.840  1.00  0.00    -0.237 OA
ATOM     50  O   UNL A   1      43.727  35.726  36.122  1.00  0.00    -0.237 OA
ATOM     51  O   UNL A   1      44.939  34.671  34.251  1.00  0.00    -0.744 OA
ENDBRANCH  44  48
ENDBRANCH  27  41
BRANCH  28  52
ATOM     52  C   UNL A   1      42.522  24.221  27.335  1.00  0.00     0.023 A 
ATOM     53  C   UNL A   1      41.917  22.959  27.434  1.00  0.00     0.031 A 
ATOM     54  C   UNL A   1      43.241  24.518  26.163  1.00  0.00     0.131 A 
ATOM     55  C   UNL A   1      42.077  22.026  26.397  1.00  0.00     0.055 A 
ATOM     56  C   UNL A   1      43.347  23.609  25.110  1.00  0.00     0.041 A 
ATOM     57  F   UNL A   1      43.838  25.713  26.016  1.00  0.00    -0.206 F 
ATOM     58  C   UNL A   1      42.775  22.349  25.230  1.00  0.00     0.022 A 
BRANCH  55  59
ATOM     59  S   UNL A   1      41.438  20.347  26.637  1.00  0.00     0.124 S 
ATOM     60  O   UNL A   1      42.149  19.927  27.839  1.00  0.00    -0.237 OA
ATOM     61  O   UNL A   1      40.007  20.588  26.791  1.00  0.00    -0.237 OA
ATOM     62  O   UNL A   1      41.824  19.658  25.409  1.00  0.00    -0.744 OA
ENDBRANCH  55  59
ENDBRANCH  28  52
BRANCH  40  63
ATOM     63  C   UNL A   1      46.813  25.973  32.541  1.00  0.00     0.023 A 
ATOM     64  C   UNL A   1      46.908  24.951  33.500  1.00  0.00     0.031 A 
ATOM     65  C   UNL A   1      48.003  26.489  31.997  1.00  0.00     0.131 A 
ATOM     66  C   UNL A   1      48.171  24.509  33.925  1.00  0.00     0.055 A 
ATOM     67  C   UNL A   1      49.253  26.005  32.381  1.00  0.00     0.041 A 
ATOM     68  F   UNL A   1      47.967  27.469  31.081  1.00  0.00    -0.206 F 
ATOM     69  C   UNL A   1      49.343  25.017  33.358  1.00  0.00     0.022 A 
BRANCH  66  70
ATOM     70  S   UNL A   1      48.262  23.311  35.283  1.00  0.00     0.124 S 
ATOM     71  O   UNL A   1      49.627  22.812  35.154  1.00  0.00    -0.237 OA
ATOM     72  O   UNL A   1      47.995  24.141  36.453  1.00  0.00    -0.237 OA
ATOM     73  O   UNL A   1      47.215  22.344  34.958  1.00  0.00    -0.744 OA
ENDBRANCH  66  70
ENDBRANCH  40  63
ENDBRANCH  14  15
ENDBRANCH   7   9
ENDBRANCH   4   5
ENDBRANCH   3   4
ENDBRANCH   2   3
ENDBRANCH   1   2
BRANCH   1  74
ATOM     74  N   UNL A   1      32.093  28.620  22.390  1.00  0.00    -0.352 N 
ATOM     75  C   UNL A   1      30.921  27.928  22.579  1.00  0.00     0.252 C 
ATOM     76  H   UNL A   1      32.024  29.423  21.824  1.00  0.00     0.163 HD
ATOM     77  O   UNL A   1      29.909  28.222  21.961  1.00  0.00    -0.269 OA
BRANCH  75  78
ATOM     78  C   UNL A   1      30.890  26.806  23.527  1.00  0.00     0.058 A 
ATOM     79  C   UNL A   1      31.210  25.506  23.147  1.00  0.00     0.017 A 
ATOM     80  C   UNL A   1      30.536  27.046  24.842  1.00  0.00     0.125 A 
ATOM     81  C   UNL A   1      31.081  24.481  24.078  1.00  0.00     0.030 A 
ATOM     82  N   UNL A   1      30.409  26.064  25.769  1.00  0.00    -0.255 NA
ATOM     83  C   UNL A   1      30.666  24.791  25.374  1.00  0.00     0.094 A 
BRANCH  83  84
ATOM     84  C   UNL A   1      30.524  23.684  26.409  1.00  0.00     0.318 C 
BRANCH  84  85
ATOM     85  N   UNL A   1      31.611  22.706  26.332  1.00  0.00    -0.338 N 
ATOM     86  H   UNL A   1      32.216  22.961  25.552  1.00  0.00     0.346 HD
ATOM     87  H   UNL A   1      31.174  21.793  26.211  1.00  0.00     0.346 HD
BRANCH  85  88
ATOM     88  C   UNL A   1      32.431  22.623  27.541  1.00  0.00     0.302 C 
BRANCH  88  89
ATOM     89  C   UNL A   1      33.903  22.203  27.345  1.00  0.00     0.290 C 
BRANCH  89  90
ATOM     90  O   UNL A   1      34.719  23.324  26.974  1.00  0.00    -0.488 OA
BRANCH  90  91
ATOM     91  C   UNL A   1      35.357  23.143  25.779  1.00  0.00     0.119 A 
ATOM     92  C   UNL A   1      36.681  22.713  25.707  1.00  0.00     0.046 A 
ATOM     93  C   UNL A   1      34.660  23.473  24.619  1.00  0.00     0.046 A 
ATOM     94  C   UNL A   1      37.288  22.556  24.459  1.00  0.00     0.004 A 
ATOM     95  C   UNL A   1      35.256  23.294  23.373  1.00  0.00     0.004 A 
ATOM     96  C   UNL A   1      36.571  22.833  23.293  1.00  0.00     0.000 A 
ENDBRANCH  90  91
ENDBRANCH  89  90
ENDBRANCH  88  89
ENDBRANCH  85  88
ENDBRANCH  84  85
ENDBRANCH  83  84
ENDBRANCH  75  78
ENDBRANCH   1  74
TORSDOF 20
ENDMDL
MODEL 2
REMARK VINA RESULT:     -10.4      3.522      8.391
REMARK SMILES O=C(NCCCCNC(=O)c1ccc(C[NH2+]CCOc2ccccc2)nc1)c1ccc(-c2c3nc(c(-c4cc(S(=O)(=O)[O-])ccc4F)c4ccc([nH]4)c(-c4cc(S(=O)(=O)[O-])ccc4F)c4nc(c(-c5cc(S(=O)(=O)[O-])ccc5F)c5ccc2[nH]5)C=C4)C=C3)cc1
REMARK SMILES IDX 7 1 6 2 5 3 4 4 3 5 1 6 2 7 28 9 29 10 90 11 30 12 89 13
REMARK SMILES IDX 31 14 32 15 33 16 83 17 34 18 88 19 82 20 84 21 35 22 87 23
REMARK SMILES IDX 81 24 80 25 36 27 68 28 48 29 67 30 49 31 52 32 66 33 85 34
REMARK SMILES IDX 50 35 51 36 65 38 86 39 53 40 37 41 38 42 46 43 39 44 45 45
REMARK SMILES IDX 47 46 44 47 40 48 41 49 42 50 43 51 69 52 70 53 78 54 71 55
REMARK SMILES IDX 77 56 79 57 76 58 72 59 73 60 74 61 75 62 54 63 55 64 63 65
REMARK SMILES IDX 56 66 62 67 64 68 61 69 57 70 58 71 59 72 60 73 8 74 9 75
REMARK SMILES IDX 10 77 11 78 12 79 27 80 13 81 26 82 14 83 15 84 16 85 17 88
REMARK SMILES IDX 18 89 19 90 20 91 21 92 25 93 22 94 24 95 23 96
REMARK H PARENT 3 8 84 26 52 37 8 76 16 86 16 87
REMARK Flexibility Score: inf
ROOT
ATOM      1  C   UNL A   1      33.295  29.349  27.208  1.00  0.00     0.116 C 
ENDROOT
BRANCH   1   2
ATOM      2  C   UNL A   1      33.913  30.722  27.453  1.00  0.00     0.023 C 
BRANCH   2   3
ATOM      3  C   UNL A   1      32.912  31.864  27.610  1.00  0.00     0.023 C 
BRANCH   3   4
ATOM      4  C   UNL A   1      33.428  33.239  27.206  1.00  0.00     0.116 C 
BRANCH   4   5
ATOM      5  N   UNL A   1      32.921  34.308  28.054  1.00  0.00    -0.352 N 
ATOM      6  O   UNL A   1      32.696  35.520  29.942  1.00  0.00    -0.269 OA
ATOM      7  C   UNL A   1      33.328  34.676  29.315  1.00  0.00     0.251 C 
ATOM      8  H   UNL A   1      32.185  34.839  27.674  1.00  0.00     0.163 HD
BRANCH   7   9
ATOM      9  C   UNL A   1      34.520  34.035  29.912  1.00  0.00     0.039 A 
ATOM     10  C   UNL A   1      35.804  34.429  29.528  1.00  0.00     0.014 A 
ATOM     11  C   UNL A   1      34.347  33.026  30.863  1.00  0.00     0.014 A 
ATOM     12  C   UNL A   1      36.910  33.729  29.994  1.00  0.00     0.010 A 
ATOM     13  C   UNL A   1      35.466  32.378  31.394  1.00  0.00     0.010 A 
ATOM     14  C   UNL A   1      36.754  32.712  30.949  1.00  0.00    -0.014 A 
BRANCH  14  15
ATOM     15  C   UNL A   1      37.959  32.073  31.537  1.00  0.00     0.031 A 
ATOM     16  C   UNL A   1      38.697  30.984  30.809  1.00  0.00     0.074 A 
ATOM     17  C   UNL A   1      38.377  32.491  32.749  1.00  0.00     0.049 A 
ATOM     18  N   UNL A   1      39.741  30.298  31.198  1.00  0.00    -0.248 NA
ATOM     19  C   UNL A   1      38.196  30.613  29.478  1.00  0.00     0.031 C 
ATOM     20  C   UNL A   1      37.728  33.538  33.544  1.00  0.00     0.029 A 
ATOM     21  N   UNL A   1      39.435  32.095  33.525  1.00  0.00    -0.354 N 
ATOM     22  C   UNL A   1      40.012  29.397  30.173  1.00  0.00     0.074 A 
ATOM     23  C   UNL A   1      39.007  29.615  29.151  1.00  0.00     0.031 C 
ATOM     24  C   UNL A   1      38.415  33.717  34.681  1.00  0.00     0.029 A 
ATOM     25  C   UNL A   1      39.502  32.749  34.735  1.00  0.00     0.049 A 
ATOM     26  H   UNL A   1      40.084  31.410  33.246  1.00  0.00     0.167 HD
ATOM     27  C   UNL A   1      41.006  28.478  30.099  1.00  0.00     0.034 A 
ATOM     28  C   UNL A   1      40.320  32.564  35.788  1.00  0.00     0.034 A 
ATOM     29  C   UNL A   1      42.002  28.289  31.128  1.00  0.00     0.049 A 
ATOM     30  C   UNL A   1      41.381  31.501  35.697  1.00  0.00     0.074 A 
ATOM     31  C   UNL A   1      43.098  27.443  31.120  1.00  0.00     0.029 A 
ATOM     32  N   UNL A   1      42.015  28.939  32.356  1.00  0.00    -0.354 N 
ATOM     33  N   UNL A   1      41.653  30.693  34.698  1.00  0.00    -0.248 NA
ATOM     34  C   UNL A   1      42.242  31.323  36.871  1.00  0.00     0.031 C 
ATOM     35  C   UNL A   1      43.725  27.522  32.368  1.00  0.00     0.029 A 
ATOM     36  C   UNL A   1      43.068  28.474  33.131  1.00  0.00     0.049 A 
ATOM     37  H   UNL A   1      41.370  29.629  32.635  1.00  0.00     0.167 HD
ATOM     38  C   UNL A   1      42.728  29.920  35.121  1.00  0.00     0.074 A 
ATOM     39  C   UNL A   1      43.068  30.374  36.454  1.00  0.00     0.031 C 
ATOM     40  C   UNL A   1      43.376  28.922  34.467  1.00  0.00     0.034 A 
BRANCH  27  41
ATOM     41  C   UNL A   1      41.043  27.571  28.892  1.00  0.00     0.023 A 
ATOM     42  C   UNL A   1      42.025  27.692  27.895  1.00  0.00     0.031 A 
ATOM     43  C   UNL A   1      40.083  26.553  28.751  1.00  0.00     0.131 A 
ATOM     44  C   UNL A   1      41.995  26.842  26.776  1.00  0.00     0.055 A 
ATOM     45  C   UNL A   1      40.097  25.668  27.670  1.00  0.00     0.041 A 
ATOM     46  F   UNL A   1      39.109  26.401  29.663  1.00  0.00    -0.206 F 
ATOM     47  C   UNL A   1      41.052  25.817  26.670  1.00  0.00     0.022 A 
BRANCH  44  48
ATOM     48  S   UNL A   1      43.139  27.165  25.407  1.00  0.00     0.124 S 
ATOM     49  O   UNL A   1      43.357  25.820  24.879  1.00  0.00    -0.237 OA
ATOM     50  O   UNL A   1      42.370  28.068  24.560  1.00  0.00    -0.237 OA
ATOM     51  O   UNL A   1      44.300  27.763  26.063  1.00  0.00    -0.744 OA
ENDBRANCH  44  48
ENDBRANCH  27  41
BRANCH  28  52
ATOM     52  C   UNL A   1      40.126  33.355  37.035  1.00  0.00     0.023 A 
ATOM     53  C   UNL A   1      39.367  32.853  38.103  1.00  0.00     0.031 A 
ATOM     54  C   UNL A   1      40.672  34.646  37.163  1.00  0.00     0.131 A 
ATOM     55  C   UNL A   1      39.141  33.654  39.234  1.00  0.00     0.055 A 
ATOM     56  C   UNL A   1      40.494  35.414  38.313  1.00  0.00     0.041 A 
ATOM     57  F   UNL A   1      41.408  35.173  36.170  1.00  0.00    -0.206 F 
ATOM     58  C   UNL A   1      39.711  34.924  39.352  1.00  0.00     0.022 A 
BRANCH  55  59
ATOM     59  S   UNL A   1      38.007  33.046  40.512  1.00  0.00     0.124 S 
ATOM     60  O   UNL A   1      36.776  32.858  39.753  1.00  0.00    -0.237 OA
ATOM     61  O   UNL A   1      38.678  31.829  40.956  1.00  0.00    -0.237 OA
ATOM     62  O   UNL A   1      37.982  34.133  41.487  1.00  0.00    -0.744 OA
ENDBRANCH  55  59
ENDBRANCH  28  52
BRANCH  40  63
ATOM     63  C   UNL A   1      44.534  28.281  35.189  1.00  0.00     0.023 A 
ATOM     64  C   UNL A   1      44.367  27.114  35.953  1.00  0.00     0.031 A 
ATOM     65  C   UNL A   1      45.817  28.853  35.120  1.00  0.00     0.131 A 
ATOM     66  C   UNL A   1      45.455  26.581  36.661  1.00  0.00     0.055 A 
ATOM     67  C   UNL A   1      46.907  28.287  35.780  1.00  0.00     0.041 A 
ATOM     68  F   UNL A   1      46.029  29.971  34.408  1.00  0.00    -0.206 F 
ATOM     69  C   UNL A   1      46.728  27.151  36.565  1.00  0.00     0.022 A 
BRANCH  66  70
ATOM     70  S   UNL A   1      45.170  25.175  37.769  1.00  0.00     0.124 S 
ATOM     71  O   UNL A   1      43.749  24.914  37.566  1.00  0.00    -0.237 OA
ATOM     72  O   UNL A   1      46.085  24.168  37.242  1.00  0.00    -0.237 OA
ATOM     73  O   UNL A   1      45.522  25.701  39.087  1.00  0.00    -0.744 OA
ENDBRANCH  66  70
ENDBRANCH  40  63
ENDBRANCH  14  15
ENDBRANCH   7   9
ENDBRANCH   4   5
ENDBRANCH   3   4
ENDBRANCH   2   3
ENDBRANCH   1   2
BRANCH   1  74
ATOM     74  N   UNL A   1      32.473  29.308  26.010  1.00  0.00    -0.352 N 
ATOM     75  C   UNL A   1      32.106  28.226  25.246  1.00  0.00     0.252 C 
ATOM     76  H   UNL A   1      32.131  30.178  25.701  1.00  0.00     0.163 HD
ATOM     77  O   UNL A   1      31.520  28.374  24.184  1.00  0.00    -0.269 OA
BRANCH  75  78
ATOM     78  C   UNL A   1      32.438  26.871  25.706  1.00  0.00     0.058 A 
ATOM     79  C   UNL A   1      33.663  26.273  25.427  1.00  0.00     0.017 A 
ATOM     80  C   UNL A   1      31.507  26.164  26.447  1.00  0.00     0.125 A 
ATOM     81  C   UNL A   1      33.878  24.958  25.826  1.00  0.00     0.030 A 
ATOM     82  N   UNL A   1      31.696  24.884  26.852  1.00  0.00    -0.255 NA
ATOM     83  C   UNL A   1      32.871  24.288  26.523  1.00  0.00     0.094 A 
BRANCH  83  84
ATOM     84  C   UNL A   1      33.088  22.851  26.973  1.00  0.00     0.318 C 
BRANCH  84  85
ATOM     85  N   UNL A   1      32.079  21.939  26.431  1.00  0.00    -0.338 N 
ATOM     86  H   UNL A   1      31.388  22.491  25.925  1.00  0.00     0.346 HD
ATOM     87  H   UNL A   1      31.681  21.438  27.225  1.00  0.00     0.346 HD
BRANCH  85  88
ATOM     88  C   UNL A   1      32.612  20.925  25.520  1.00  0.00     0.302 C 
BRANCH  88  89
ATOM     89  C   UNL A   1      32.188  21.038  24.041  1.00  0.00     0.290 C 
BRANCH  89  90
ATOM     90  O   UNL A   1      33.110  21.847  23.295  1.00  0.00    -0.488 OA
BRANCH  90  91
ATOM     91  C   UNL A   1      32.604  23.078  22.986  1.00  0.00     0.119 A 
ATOM     92  C   UNL A   1      31.319  23.464  23.365  1.00  0.00     0.046 A 
ATOM     93  C   UNL A   1      33.392  23.924  22.208  1.00  0.00     0.046 A 
ATOM     94  C   UNL A   1      30.847  24.730  23.012  1.00  0.00     0.004 A 
ATOM     95  C   UNL A   1      32.931  25.196  21.877  1.00  0.00     0.004 A 
ATOM     96  C   UNL A   1      31.658  25.599  22.280  1.00  0.00     0.000 A 
ENDBRANCH  90  91
ENDBRANCH  89  90
ENDBRANCH  88  89
ENDBRANCH  85  88
ENDBRANCH  84  85
ENDBRANCH  83  84
ENDBRANCH  75  78
ENDBRANCH   1  74
TORSDOF 20
ENDMDL
MODEL 3
REMARK VINA RESULT:     -10.3      2.887      3.771
REMARK SMILES O=C(NCCCCNC(=O)c1ccc(C[NH2+]CCOc2ccccc2)nc1)c1ccc(-c2c3nc(c(-c4cc(S(=O)(=O)[O-])ccc4F)c4ccc([nH]4)c(-c4cc(S(=O)(=O)[O-])ccc4F)c4nc(c(-c5cc(S(=O)(=O)[O-])ccc5F)c5ccc2[nH]5)C=C4)C=C3)cc1
REMARK SMILES IDX 7 1 6 2 5 3 4 4 3 5 1 6 2 7 28 9 29 10 90 11 30 12 89 13
REMARK SMILES IDX 31 14 32 15 33 16 83 17 34 18 88 19 82 20 84 21 35 22 87 23
REMARK SMILES IDX 81 24 80 25 36 27 68 28 48 29 67 30 49 31 52 32 66 33 85 34
REMARK SMILES IDX 50 35 51 36 65 38 86 39 53 40 37 41 38 42 46 43 39 44 45 45
REMARK SMILES IDX 47 46 44 47 40 48 41 49 42 50 43 51 69 52 70 53 78 54 71 55
REMARK SMILES IDX 77 56 79 57 76 58 72 59 73 60 74 61 75 62 54 63 55 64 63 65
REMARK SMILES IDX 56 66 62 67 64 68 61 69 57 70 58 71 59 72 60 73 8 74 9 75
REMARK SMILES IDX 10 77 11 78 12 79 27 80 13 81 26 82 14 83 15 84 16 85 17 88
REMARK SMILES IDX 18 89 19 90 20 91 21 92 25 93 22 94 24 95 23 96
REMARK H PARENT 3 8 84 26 52 37 8 76 16 86 16 87
REMARK Flexibility Score: inf
ROOT
ATOM      1  C   UNL A   1      33.055  29.918  26.114  1.00  0.00     0.116 C 
ENDROOT
BRANCH   1   2
ATOM      2  C   UNL A   1      31.676  30.493  26.422  1.00  0.00     0.023 C 
BRANCH   2   3
ATOM      3  C   UNL A   1      31.648  31.994  26.699  1.00  0.00     0.023 C 
BRANCH   3   4
ATOM      4  C   UNL A   1      32.981  32.603  27.112  1.00  0.00     0.116 C 
BRANCH   4   5
ATOM      5  N   UNL A   1      32.847  33.942  27.666  1.00  0.00    -0.352 N 
ATOM      6  O   UNL A   1      33.196  35.618  29.134  1.00  0.00    -0.269 OA
ATOM      7  C   UNL A   1      33.533  34.516  28.710  1.00  0.00     0.251 C 
ATOM      8  H   UNL A   1      32.173  34.515  27.234  1.00  0.00     0.163 HD
BRANCH   7   9
ATOM      9  C   UNL A   1      34.663  33.789  29.328  1.00  0.00     0.039 A 
ATOM     10  C   UNL A   1      35.981  34.137  29.020  1.00  0.00     0.014 A 
ATOM     11  C   UNL A   1      34.399  32.746  30.218  1.00  0.00     0.014 A 
ATOM     12  C   UNL A   1      37.029  33.361  29.501  1.00  0.00     0.010 A 
ATOM     13  C   UNL A   1      35.459  32.019  30.766  1.00  0.00     0.010 A 
ATOM     14  C   UNL A   1      36.782  32.309  30.396  1.00  0.00    -0.014 A 
BRANCH  14  15
ATOM     15  C   UNL A   1      37.926  31.584  31.004  1.00  0.00     0.031 A 
ATOM     16  C   UNL A   1      38.422  31.926  32.381  1.00  0.00     0.074 A 
ATOM     17  C   UNL A   1      38.517  30.607  30.287  1.00  0.00     0.049 A 
ATOM     18  N   UNL A   1      39.431  31.418  33.041  1.00  0.00    -0.248 NA
ATOM     19  C   UNL A   1      37.699  32.979  33.108  1.00  0.00     0.031 C 
ATOM     20  C   UNL A   1      38.117  30.200  28.937  1.00  0.00     0.029 A 
ATOM     21  N   UNL A   1      39.572  29.783  30.580  1.00  0.00    -0.354 N 
ATOM     22  C   UNL A   1      39.482  32.101  34.251  1.00  0.00     0.074 A 
ATOM     23  C   UNL A   1      38.409  33.074  34.225  1.00  0.00     0.031 C 
ATOM     24  C   UNL A   1      38.899  29.190  28.531  1.00  0.00     0.029 A 
ATOM     25  C   UNL A   1      39.904  28.930  29.553  1.00  0.00     0.049 A 
ATOM     26  H   UNL A   1      40.047  29.801  31.443  1.00  0.00     0.167 HD
ATOM     27  C   UNL A   1      40.345  31.926  35.282  1.00  0.00     0.034 A 
ATOM     28  C   UNL A   1      40.927  28.062  29.428  1.00  0.00     0.034 A 
ATOM     29  C   UNL A   1      41.400  30.939  35.287  1.00  0.00     0.049 A 
ATOM     30  C   UNL A   1      41.899  27.928  30.569  1.00  0.00     0.074 A 
ATOM     31  C   UNL A   1      42.279  30.624  36.309  1.00  0.00     0.029 A 
ATOM     32  N   UNL A   1      41.733  30.121  34.214  1.00  0.00    -0.354 N 
ATOM     33  N   UNL A   1      41.901  28.547  31.726  1.00  0.00    -0.248 NA
ATOM     34  C   UNL A   1      43.006  26.983  30.386  1.00  0.00     0.031 C 
ATOM     35  C   UNL A   1      43.191  29.677  35.830  1.00  0.00     0.029 A 
ATOM     36  C   UNL A   1      42.836  29.341  34.533  1.00  0.00     0.049 A 
ATOM     37  H   UNL A   1      41.256  30.099  33.354  1.00  0.00     0.167 HD
ATOM     38  C   UNL A   1      43.002  28.054  32.416  1.00  0.00     0.074 A 
ATOM     39  C   UNL A   1      43.626  27.071  31.554  1.00  0.00     0.031 C 
ATOM     40  C   UNL A   1      43.458  28.383  33.651  1.00  0.00     0.034 A 
BRANCH  27  41
ATOM     41  C   UNL A   1      40.224  32.848  36.471  1.00  0.00     0.023 A 
ATOM     42  C   UNL A   1      39.447  32.522  37.596  1.00  0.00     0.031 A 
ATOM     43  C   UNL A   1      40.916  34.073  36.483  1.00  0.00     0.131 A 
ATOM     44  C   UNL A   1      39.343  33.431  38.662  1.00  0.00     0.055 A 
ATOM     45  C   UNL A   1      40.862  34.943  37.573  1.00  0.00     0.041 A 
ATOM     46  F   UNL A   1      41.659  34.447  35.428  1.00  0.00    -0.206 F 
ATOM     47  C   UNL A   1      40.063  34.628  38.668  1.00  0.00     0.022 A 
BRANCH  44  48
ATOM     48  S   UNL A   1      38.164  33.077  39.995  1.00  0.00     0.124 S 
ATOM     49  O   UNL A   1      38.805  31.947  40.665  1.00  0.00    -0.237 OA
ATOM     50  O   UNL A   1      38.142  34.331  40.737  1.00  0.00    -0.237 OA
ATOM     51  O   UNL A   1      36.930  32.749  39.284  1.00  0.00    -0.744 OA
ENDBRANCH  44  48
ENDBRANCH  27  41
BRANCH  28  52
ATOM     52  C   UNL A   1      41.119  27.308  28.158  1.00  0.00     0.023 A 
ATOM     53  C   UNL A   1      40.827  25.939  28.074  1.00  0.00     0.031 A 
ATOM     54  C   UNL A   1      41.632  27.945  27.013  1.00  0.00     0.131 A 
ATOM     55  C   UNL A   1      41.090  25.242  26.885  1.00  0.00     0.055 A 
ATOM     56  C   UNL A   1      41.836  27.261  25.815  1.00  0.00     0.041 A 
ATOM     57  F   UNL A   1      41.926  29.256  27.038  1.00  0.00    -0.206 F 
ATOM     58  C   UNL A   1      41.577  25.896  25.751  1.00  0.00     0.022 A 
BRANCH  55  59
ATOM     59  S   UNL A   1      40.874  23.442  26.871  1.00  0.00     0.124 S 
ATOM     60  O   UNL A   1      41.824  23.036  25.841  1.00  0.00    -0.237 OA
ATOM     61  O   UNL A   1      41.225  23.085  28.242  1.00  0.00    -0.237 OA
ATOM     62  O   UNL A   1      39.465  23.271  26.525  1.00  0.00    -0.744 OA
ENDBRANCH  55  59
ENDBRANCH  28  52
BRANCH  40  63
ATOM     63  C   UNL A   1      44.680  27.648  34.140  1.00  0.00     0.023 A 
ATOM     64  C   UNL A   1      44.575  26.431  34.835  1.00  0.00     0.031 A 
ATOM     65  C   UNL A   1      45.963  28.180  33.919  1.00  0.00     0.131 A 
ATOM     66  C   UNL A   1      45.731  25.808  35.328  1.00  0.00     0.055 A 
ATOM     67  C   UNL A   1      47.112  27.526  34.363  1.00  0.00     0.041 A 
ATOM     68  F   UNL A   1      46.117  29.342  33.266  1.00  0.00    -0.206 F 
ATOM     69  C   UNL A   1      47.000  26.339  35.081  1.00  0.00     0.022 A 
BRANCH  66  70
ATOM     70  S   UNL A   1      45.550  24.330  36.363  1.00  0.00     0.124 S 
ATOM     71  O   UNL A   1      44.682  24.813  37.431  1.00  0.00    -0.237 OA
ATOM     72  O   UNL A   1      44.952  23.371  35.440  1.00  0.00    -0.237 OA
ATOM     73  O   UNL A   1      46.921  24.025  36.768  1.00  0.00    -0.744 OA
ENDBRANCH  66  70
ENDBRANCH  40  63
ENDBRANCH  14  15
ENDBRANCH   7   9
ENDBRANCH   4   5
ENDBRANCH   3   4
ENDBRANCH   2   3
ENDBRANCH   1   2
BRANCH   1  74
ATOM     74  N   UNL A   1      33.278  29.722  24.690  1.00  0.00    -0.352 N 
ATOM     75  C   UNL A   1      33.058  28.603  23.923  1.00  0.00     0.252 C 
ATOM     76  H   UNL A   1      33.637  30.501  24.208  1.00  0.00     0.163 HD
ATOM     77  O   UNL A   1      33.427  28.555  22.759  1.00  0.00    -0.269 OA
BRANCH  75  78
ATOM     78  C   UNL A   1      32.385  27.441  24.518  1.00  0.00     0.058 A 
ATOM     79  C   UNL A   1      31.001  27.303  24.511  1.00  0.00     0.017 A 
ATOM     80  C   UNL A   1      33.149  26.446  25.101  1.00  0.00     0.125 A 
ATOM     81  C   UNL A   1      30.428  26.216  25.163  1.00  0.00     0.030 A 
ATOM     82  N   UNL A   1      32.615  25.374  25.737  1.00  0.00    -0.255 NA
ATOM     83  C   UNL A   1      31.260  25.278  25.777  1.00  0.00     0.094 A 
BRANCH  83  84
ATOM     84  C   UNL A   1      30.654  24.079  26.490  1.00  0.00     0.318 C 
BRANCH  84  85
ATOM     85  N   UNL A   1      30.399  22.960  25.581  1.00  0.00    -0.338 N 
ATOM     86  H   UNL A   1      30.486  23.299  24.624  1.00  0.00     0.346 HD
ATOM     87  H   UNL A   1      29.464  22.616  25.796  1.00  0.00     0.346 HD
BRANCH  85  88
ATOM     88  C   UNL A   1      31.312  21.828  25.751  1.00  0.00     0.302 C 
BRANCH  88  89
ATOM     89  C   UNL A   1      32.253  21.520  24.568  1.00  0.00     0.290 C 
BRANCH  89  90
ATOM     90  O   UNL A   1      33.409  20.786  25.000  1.00  0.00    -0.488 OA
BRANCH  90  91
ATOM     91  C   UNL A   1      34.582  21.385  24.637  1.00  0.00     0.119 A 
ATOM     92  C   UNL A   1      34.610  22.551  23.872  1.00  0.00     0.046 A 
ATOM     93  C   UNL A   1      35.769  20.751  24.996  1.00  0.00     0.046 A 
ATOM     94  C   UNL A   1      35.837  23.115  23.519  1.00  0.00     0.004 A 
ATOM     95  C   UNL A   1      36.994  21.326  24.665  1.00  0.00     0.004 A 
ATOM     96  C   UNL A   1      37.028  22.510  23.927  1.00  0.00     0.000 A 
ENDBRANCH  90  91
ENDBRANCH  89  90
ENDBRANCH  88  89
ENDBRANCH  85  88
ENDBRANCH  84  85
ENDBRANCH  83  84
ENDBRANCH  75  78
ENDBRANCH   1  74
TORSDOF 20
ENDMDL
