MODEL 1
REMARK VINA RESULT:     -11.4      0.000      0.000
REMARK SMILES CCc1cc(OCC(=O)NCCCCNC(=O)c2ccc(-c3c4nc(c(-c5cc(S(=O)(=O)[O-])ccc5F)c5ccc([nH]5)c(-c5cc(S(=O)(=O)[O-])ccc5F)c5nc(c(-c6cc(S(=O)(=O)[O-])ccc6F)c6ccc3[nH]6)C=C5)C=C4)cc2)nc(Nc2ccc(C)c(F)c2)n1
REMARK SMILES IDX 12 1 11 2 10 3 8 4 9 5 7 7 6 8 5 9 3 10 4 11 92 12 82 13
REMARK SMILES IDX 81 14 2 15 1 16 83 17 84 19 85 20 91 21 86 22 89 23 87 24
REMARK SMILES IDX 90 25 88 26 13 27 14 28 15 29 16 30 17 32 18 33 19 34 80 35
REMARK SMILES IDX 20 36 79 37 21 38 22 39 23 40 73 41 24 42 78 43 72 44 74 45
REMARK SMILES IDX 25 46 77 47 71 48 70 49 26 51 58 52 38 53 57 54 39 55 42 56
REMARK SMILES IDX 56 57 75 58 40 59 41 60 55 62 76 63 43 64 27 65 28 66 36 67
REMARK SMILES IDX 29 68 35 69 37 70 34 71 30 72 31 73 32 74 33 75 59 76 60 77
REMARK SMILES IDX 68 78 61 79 67 80 69 81 66 82 62 83 63 84 64 85 65 86 44 87
REMARK SMILES IDX 45 88 53 89 46 90 52 91 54 92 51 93 47 94 48 95 49 96 50 97
REMARK H PARENT 10 6 83 18 15 31 74 50 42 61
REMARK Flexibility Score: inf
ROOT
ATOM      1  C   UNL A   1      33.981  26.148  24.428  1.00  0.00     0.023 C 
ENDROOT
BRANCH   1   2
ATOM      2  C   UNL A   1      34.273  24.800  25.086  1.00  0.00     0.116 C 
BRANCH   2   3
ATOM      3  N   UNL A   1      35.645  24.694  25.544  1.00  0.00    -0.353 N 
ATOM      4  C   UNL A   1      36.529  23.679  25.334  1.00  0.00     0.258 C 
ATOM      5  O   UNL A   1      37.676  23.782  25.774  1.00  0.00    -0.271 OA
ATOM      6  H   UNL A   1      35.981  25.452  26.073  1.00  0.00     0.163 HD
BRANCH   4   7
ATOM      7  C   UNL A   1      36.096  22.435  24.546  1.00  0.00     0.331 C 
BRANCH   7   8
ATOM      8  O   UNL A   1      35.823  21.255  25.278  1.00  0.00    -0.467 OA
BRANCH   8   9
ATOM      9  C   UNL A   1      34.610  20.649  25.100  1.00  0.00     0.218 A 
ATOM     10  C   UNL A   1      33.130  18.916  24.572  1.00  0.00     0.050 A 
ATOM     11  C   UNL A   1      34.423  19.385  24.591  1.00  0.00     0.092 A 
ATOM     12  N   UNL A   1      32.105  19.671  24.993  1.00  0.00    -0.218 NA
ATOM     13  C   UNL A   1      32.358  20.916  25.422  1.00  0.00     0.230 A 
ATOM     14  N   UNL A   1      33.589  21.435  25.488  1.00  0.00    -0.177 NA
BRANCH  10  15
ATOM     15  C   UNL A   1      32.843  17.514  24.095  1.00  0.00     0.053 C 
ATOM     16  C   UNL A   1      33.977  16.873  23.304  1.00  0.00     0.011 C 
ENDBRANCH  10  15
BRANCH  13  17
ATOM     17  N   UNL A   1      31.292  21.760  25.730  1.00  0.00    -0.324 N 
ATOM     18  H   UNL A   1      30.627  21.401  26.362  1.00  0.00     0.170 HD
BRANCH  17  19
ATOM     19  C   UNL A   1      31.049  23.053  25.254  1.00  0.00     0.044 A 
ATOM     20  C   UNL A   1      30.986  23.286  23.874  1.00  0.00     0.026 A 
ATOM     21  C   UNL A   1      30.729  24.106  26.117  1.00  0.00     0.065 A 
ATOM     22  C   UNL A   1      30.589  24.532  23.372  1.00  0.00     0.008 A 
ATOM     23  C   UNL A   1      30.354  25.347  25.616  1.00  0.00     0.128 A 
ATOM     24  C   UNL A   1      30.264  25.576  24.243  1.00  0.00    -0.015 A 
ATOM     25  F   UNL A   1      30.053  26.328  26.480  1.00  0.00    -0.207 F 
ATOM     26  C   UNL A   1      29.789  26.892  23.711  1.00  0.00     0.047 C 
ENDBRANCH  17  19
ENDBRANCH  13  17
ENDBRANCH   8   9
ENDBRANCH   7   8
ENDBRANCH   4   7
ENDBRANCH   2   3
ENDBRANCH   1   2
BRANCH   1  27
ATOM     27  C   UNL A   1      33.509  27.251  25.380  1.00  0.00     0.023 C 
BRANCH  27  28
ATOM     28  C   UNL A   1      34.079  28.643  25.121  1.00  0.00     0.116 C 
BRANCH  28  29
ATOM     29  N   UNL A   1      33.192  29.712  25.550  1.00  0.00    -0.352 N 
ATOM     30  C   UNL A   1      33.308  30.566  26.622  1.00  0.00     0.251 C 
ATOM     31  H   UNL A   1      32.391  29.845  24.992  1.00  0.00     0.163 HD
ATOM     32  O   UNL A   1      32.382  31.326  26.893  1.00  0.00    -0.269 OA
BRANCH  30  33
ATOM     33  C   UNL A   1      34.524  30.540  27.468  1.00  0.00     0.039 A 
ATOM     34  C   UNL A   1      34.853  29.359  28.139  1.00  0.00     0.014 A 
ATOM     35  C   UNL A   1      35.344  31.665  27.592  1.00  0.00     0.014 A 
ATOM     36  C   UNL A   1      36.040  29.284  28.872  1.00  0.00     0.010 A 
ATOM     37  C   UNL A   1      36.563  31.565  28.262  1.00  0.00     0.010 A 
ATOM     38  C   UNL A   1      36.928  30.372  28.906  1.00  0.00    -0.014 A 
BRANCH  38  39
ATOM     39  C   UNL A   1      38.239  30.279  29.602  1.00  0.00     0.031 A 
ATOM     40  C   UNL A   1      39.367  29.491  28.994  1.00  0.00     0.074 A 
ATOM     41  C   UNL A   1      38.398  30.857  30.810  1.00  0.00     0.049 A 
ATOM     42  N   UNL A   1      40.556  29.232  29.479  1.00  0.00    -0.248 NA
ATOM     43  C   UNL A   1      39.112  28.890  27.677  1.00  0.00     0.031 C 
ATOM     44  C   UNL A   1      37.373  31.623  31.520  1.00  0.00     0.029 A 
ATOM     45  N   UNL A   1      39.477  30.886  31.658  1.00  0.00    -0.354 N 
ATOM     46  C   UNL A   1      41.188  28.436  28.530  1.00  0.00     0.074 A 
ATOM     47  C   UNL A   1      40.221  28.196  27.478  1.00  0.00     0.031 C 
ATOM     48  C   UNL A   1      37.883  32.076  32.677  1.00  0.00     0.029 A 
ATOM     49  C   UNL A   1      39.251  31.589  32.819  1.00  0.00     0.049 A 
ATOM     50  H   UNL A   1      40.334  30.445  31.454  1.00  0.00     0.167 HD
ATOM     51  C   UNL A   1      42.463  27.971  28.522  1.00  0.00     0.034 A 
ATOM     52  C   UNL A   1      40.052  31.808  33.882  1.00  0.00     0.034 A 
ATOM     53  C   UNL A   1      43.415  28.216  29.579  1.00  0.00     0.049 A 
ATOM     54  C   UNL A   1      41.444  31.231  33.880  1.00  0.00     0.074 A 
ATOM     55  C   UNL A   1      44.740  27.824  29.656  1.00  0.00     0.029 A 
ATOM     56  N   UNL A   1      43.141  28.911  30.752  1.00  0.00    -0.354 N 
ATOM     57  N   UNL A   1      42.042  30.512  32.957  1.00  0.00    -0.248 NA
ATOM     58  C   UNL A   1      42.274  31.500  35.061  1.00  0.00     0.031 C 
ATOM     59  C   UNL A   1      45.244  28.215  30.902  1.00  0.00     0.029 A 
ATOM     60  C   UNL A   1      44.262  28.927  31.571  1.00  0.00     0.049 A 
ATOM     61  H   UNL A   1      42.277  29.330  30.970  1.00  0.00     0.167 HD
ATOM     62  C   UNL A   1      43.328  30.276  33.433  1.00  0.00     0.074 A 
ATOM     63  C   UNL A   1      43.423  30.939  34.718  1.00  0.00     0.031 C 
ATOM     64  C   UNL A   1      44.343  29.580  32.857  1.00  0.00     0.034 A 
BRANCH  51  65
ATOM     65  C   UNL A   1      42.882  27.127  27.339  1.00  0.00     0.023 A 
ATOM     66  C   UNL A   1      42.555  25.761  27.255  1.00  0.00     0.031 A 
ATOM     67  C   UNL A   1      43.655  27.679  26.302  1.00  0.00     0.131 A 
ATOM     68  C   UNL A   1      43.075  24.977  26.215  1.00  0.00     0.055 A 
ATOM     69  C   UNL A   1      44.092  26.912  25.219  1.00  0.00     0.041 A 
ATOM     70  F   UNL A   1      44.019  28.971  26.332  1.00  0.00    -0.206 F 
ATOM     71  C   UNL A   1      43.819  25.548  25.181  1.00  0.00     0.022 A 
BRANCH  68  72
ATOM     72  S   UNL A   1      42.911  23.174  26.330  1.00  0.00     0.124 S 
ATOM     73  O   UNL A   1      44.175  22.803  26.962  1.00  0.00    -0.237 OA
ATOM     74  O   UNL A   1      41.716  23.017  27.150  1.00  0.00    -0.237 OA
ATOM     75  O   UNL A   1      42.774  22.753  24.938  1.00  0.00    -0.744 OA
ENDBRANCH  68  72
ENDBRANCH  51  65
BRANCH  52  76
ATOM     76  C   UNL A   1      39.565  32.610  35.042  1.00  0.00     0.023 A 
ATOM     77  C   UNL A   1      38.926  31.989  36.128  1.00  0.00     0.031 A 
ATOM     78  C   UNL A   1      39.688  34.010  35.064  1.00  0.00     0.131 A 
ATOM     79  C   UNL A   1      38.392  32.767  37.166  1.00  0.00     0.055 A 
ATOM     80  C   UNL A   1      39.206  34.777  36.127  1.00  0.00     0.041 A 
ATOM     81  F   UNL A   1      40.292  34.655  34.053  1.00  0.00    -0.206 F 
ATOM     82  C   UNL A   1      38.541  34.156  37.180  1.00  0.00     0.022 A 
BRANCH  79  83
ATOM     83  S   UNL A   1      37.421  31.944  38.457  1.00  0.00     0.124 S 
ATOM     84  O   UNL A   1      37.314  30.588  37.928  1.00  0.00    -0.237 OA
ATOM     85  O   UNL A   1      38.274  32.108  39.630  1.00  0.00    -0.237 OA
ATOM     86  O   UNL A   1      36.175  32.705  38.484  1.00  0.00    -0.744 OA
ENDBRANCH  79  83
ENDBRANCH  52  76
BRANCH  64  87
ATOM     87  C   UNL A   1      45.660  29.548  33.597  1.00  0.00     0.023 A 
ATOM     88  C   UNL A   1      45.961  28.545  34.535  1.00  0.00     0.031 A 
ATOM     89  C   UNL A   1      46.622  30.547  33.367  1.00  0.00     0.131 A 
ATOM     90  C   UNL A   1      47.168  28.596  35.250  1.00  0.00     0.055 A 
ATOM     91  C   UNL A   1      47.848  30.556  34.035  1.00  0.00     0.041 A 
ATOM     92  F   UNL A   1      46.388  31.532  32.484  1.00  0.00    -0.206 F 
ATOM     93  C   UNL A   1      48.120  29.585  34.993  1.00  0.00     0.022 A 
BRANCH  90  94
ATOM     94  S   UNL A   1      47.436  27.407  36.594  1.00  0.00     0.124 S 
ATOM     95  O   UNL A   1      46.945  26.166  36.003  1.00  0.00    -0.237 OA
ATOM     96  O   UNL A   1      48.877  27.488  36.800  1.00  0.00    -0.237 OA
ATOM     97  O   UNL A   1      46.622  27.936  37.688  1.00  0.00    -0.744 OA
ENDBRANCH  90  94
ENDBRANCH  64  87
ENDBRANCH  38  39
ENDBRANCH  30  33
ENDBRANCH  28  29
ENDBRANCH  27  28
ENDBRANCH   1  27
TORSDOF 19
ENDMDL
MODEL 2
REMARK VINA RESULT:     -11.1      1.713      7.636
REMARK SMILES CCc1cc(OCC(=O)NCCCCNC(=O)c2ccc(-c3c4nc(c(-c5cc(S(=O)(=O)[O-])ccc5F)c5ccc([nH]5)c(-c5cc(S(=O)(=O)[O-])ccc5F)c5nc(c(-c6cc(S(=O)(=O)[O-])ccc6F)c6ccc3[nH]6)C=C5)C=C4)cc2)nc(Nc2ccc(C)c(F)c2)n1
REMARK SMILES IDX 12 1 11 2 10 3 8 4 9 5 7 7 6 8 5 9 3 10 4 11 92 12 82 13
REMARK SMILES IDX 81 14 2 15 1 16 83 17 84 19 85 20 91 21 86 22 89 23 87 24
REMARK SMILES IDX 90 25 88 26 13 27 14 28 15 29 16 30 17 32 18 33 19 34 80 35
REMARK SMILES IDX 20 36 79 37 21 38 22 39 23 40 73 41 24 42 78 43 72 44 74 45
REMARK SMILES IDX 25 46 77 47 71 48 70 49 26 51 58 52 38 53 57 54 39 55 42 56
REMARK SMILES IDX 56 57 75 58 40 59 41 60 55 62 76 63 43 64 27 65 28 66 36 67
REMARK SMILES IDX 29 68 35 69 37 70 34 71 30 72 31 73 32 74 33 75 59 76 60 77
REMARK SMILES IDX 68 78 61 79 67 80 69 81 66 82 62 83 63 84 64 85 65 86 44 87
REMARK SMILES IDX 45 88 53 89 46 90 52 91 54 92 51 93 47 94 48 95 49 96 50 97
REMARK H PARENT 10 6 83 18 15 31 74 50 42 61
REMARK Flexibility Score: inf
ROOT
ATOM      1  C   UNL A   1      31.819  27.636  27.080  1.00  0.00     0.023 C 
ENDROOT
BRANCH   1   2
ATOM      2  C   UNL A   1      32.187  26.312  26.414  1.00  0.00     0.116 C 
BRANCH   2   3
ATOM      3  N   UNL A   1      31.268  25.244  26.761  1.00  0.00    -0.353 N 
ATOM      4  C   UNL A   1      31.553  23.942  27.045  1.00  0.00     0.258 C 
ATOM      5  O   UNL A   1      30.636  23.182  27.358  1.00  0.00    -0.271 OA
ATOM      6  H   UNL A   1      30.317  25.492  26.798  1.00  0.00     0.163 HD
BRANCH   4   7
ATOM      7  C   UNL A   1      33.005  23.446  26.987  1.00  0.00     0.331 C 
BRANCH   7   8
ATOM      8  O   UNL A   1      33.217  22.058  26.805  1.00  0.00    -0.467 OA
BRANCH   8   9
ATOM      9  C   UNL A   1      32.973  21.522  25.572  1.00  0.00     0.218 A 
ATOM     10  C   UNL A   1      32.603  19.832  23.998  1.00  0.00     0.050 A 
ATOM     11  C   UNL A   1      32.957  20.178  25.281  1.00  0.00     0.092 A 
ATOM     12  N   UNL A   1      32.325  20.763  23.073  1.00  0.00    -0.218 NA
ATOM     13  C   UNL A   1      32.417  22.056  23.414  1.00  0.00     0.230 A 
ATOM     14  N   UNL A   1      32.737  22.469  24.645  1.00  0.00    -0.177 NA
BRANCH  10  15
ATOM     15  C   UNL A   1      32.492  18.378  23.611  1.00  0.00     0.053 C 
ATOM     16  C   UNL A   1      32.259  18.137  22.125  1.00  0.00     0.011 C 
ENDBRANCH  10  15
BRANCH  13  17
ATOM     17  N   UNL A   1      32.270  23.032  22.430  1.00  0.00    -0.324 N 
ATOM     18  H   UNL A   1      32.385  22.728  21.501  1.00  0.00     0.170 HD
BRANCH  17  19
ATOM     19  C   UNL A   1      31.977  24.390  22.599  1.00  0.00     0.044 A 
ATOM     20  C   UNL A   1      32.816  25.358  22.034  1.00  0.00     0.026 A 
ATOM     21  C   UNL A   1      30.789  24.816  23.203  1.00  0.00     0.065 A 
ATOM     22  C   UNL A   1      32.464  26.714  22.051  1.00  0.00     0.008 A 
ATOM     23  C   UNL A   1      30.451  26.164  23.235  1.00  0.00     0.128 A 
ATOM     24  C   UNL A   1      31.271  27.129  22.651  1.00  0.00    -0.015 A 
ATOM     25  F   UNL A   1      29.302  26.527  23.823  1.00  0.00    -0.207 F 
ATOM     26  C   UNL A   1      30.867  28.570  22.625  1.00  0.00     0.047 C 
ENDBRANCH  17  19
ENDBRANCH  13  17
ENDBRANCH   8   9
ENDBRANCH   7   8
ENDBRANCH   4   7
ENDBRANCH   2   3
ENDBRANCH   1   2
BRANCH   1  27
ATOM     27  C   UNL A   1      31.752  28.843  26.140  1.00  0.00     0.023 C 
BRANCH  27  28
ATOM     28  C   UNL A   1      33.008  29.708  26.073  1.00  0.00     0.116 C 
BRANCH  28  29
ATOM     29  N   UNL A   1      32.798  31.061  26.563  1.00  0.00    -0.352 N 
ATOM     30  C   UNL A   1      33.561  31.801  27.436  1.00  0.00     0.251 C 
ATOM     31  H   UNL A   1      31.992  31.513  26.221  1.00  0.00     0.163 HD
ATOM     32  O   UNL A   1      33.146  32.888  27.829  1.00  0.00    -0.269 OA
BRANCH  30  33
ATOM     33  C   UNL A   1      34.854  31.273  27.928  1.00  0.00     0.039 A 
ATOM     34  C   UNL A   1      35.958  32.129  27.970  1.00  0.00     0.014 A 
ATOM     35  C   UNL A   1      34.981  29.949  28.357  1.00  0.00     0.014 A 
ATOM     36  C   UNL A   1      37.166  31.679  28.512  1.00  0.00     0.010 A 
ATOM     37  C   UNL A   1      36.163  29.525  28.963  1.00  0.00     0.010 A 
ATOM     38  C   UNL A   1      37.267  30.387  29.052  1.00  0.00    -0.014 A 
BRANCH  38  39
ATOM     39  C   UNL A   1      38.515  29.922  29.717  1.00  0.00     0.031 A 
ATOM     40  C   UNL A   1      38.899  30.456  31.070  1.00  0.00     0.074 A 
ATOM     41  C   UNL A   1      39.333  29.062  29.078  1.00  0.00     0.049 A 
ATOM     42  N   UNL A   1      39.977  30.231  31.777  1.00  0.00    -0.248 NA
ATOM     43  C   UNL A   1      37.953  31.392  31.697  1.00  0.00     0.031 C 
ATOM     44  C   UNL A   1      39.090  28.494  27.751  1.00  0.00     0.029 A 
ATOM     45  N   UNL A   1      40.537  28.519  29.453  1.00  0.00    -0.354 N 
ATOM     46  C   UNL A   1      39.844  30.999  32.929  1.00  0.00     0.074 A 
ATOM     47  C   UNL A   1      38.613  31.751  32.787  1.00  0.00     0.031 C 
ATOM     48  C   UNL A   1      40.093  27.657  27.439  1.00  0.00     0.029 A 
ATOM     49  C   UNL A   1      41.077  27.668  28.517  1.00  0.00     0.049 A 
ATOM     50  H   UNL A   1      40.973  28.720  30.313  1.00  0.00     0.167 HD
ATOM     51  C   UNL A   1      40.655  31.053  34.015  1.00  0.00     0.034 A 
ATOM     52  C   UNL A   1      42.238  26.982  28.521  1.00  0.00     0.034 A 
ATOM     53  C   UNL A   1      41.880  30.299  34.142  1.00  0.00     0.049 A 
ATOM     54  C   UNL A   1      43.155  27.103  29.712  1.00  0.00     0.074 A 
ATOM     55  C   UNL A   1      42.757  30.250  35.211  1.00  0.00     0.029 A 
ATOM     56  N   UNL A   1      42.408  29.467  33.161  1.00  0.00    -0.354 N 
ATOM     57  N   UNL A   1      42.996  27.804  30.811  1.00  0.00    -0.248 NA
ATOM     58  C   UNL A   1      44.405  26.335  29.664  1.00  0.00     0.031 C 
ATOM     59  C   UNL A   1      43.848  29.451  34.850  1.00  0.00     0.029 A 
ATOM     60  C   UNL A   1      43.615  28.930  33.588  1.00  0.00     0.049 A 
ATOM     61  H   UNL A   1      41.987  29.285  32.289  1.00  0.00     0.167 HD
ATOM     62  C   UNL A   1      44.110  27.530  31.600  1.00  0.00     0.074 A 
ATOM     63  C   UNL A   1      44.925  26.592  30.855  1.00  0.00     0.031 C 
ATOM     64  C   UNL A   1      44.427  28.005  32.832  1.00  0.00     0.034 A 
BRANCH  51  65
ATOM     65  C   UNL A   1      40.247  31.981  35.137  1.00  0.00     0.023 A 
ATOM     66  C   UNL A   1      39.395  31.556  36.173  1.00  0.00     0.031 A 
ATOM     67  C   UNL A   1      40.676  33.320  35.152  1.00  0.00     0.131 A 
ATOM     68  C   UNL A   1      38.925  32.477  37.120  1.00  0.00     0.055 A 
ATOM     69  C   UNL A   1      40.279  34.210  36.152  1.00  0.00     0.041 A 
ATOM     70  F   UNL A   1      41.473  33.795  34.182  1.00  0.00    -0.206 F 
ATOM     71  C   UNL A   1      39.383  33.796  37.134  1.00  0.00     0.022 A 
BRANCH  68  72
ATOM     72  S   UNL A   1      37.577  31.970  38.223  1.00  0.00     0.124 S 
ATOM     73  O   UNL A   1      38.198  32.125  39.537  1.00  0.00    -0.237 OA
ATOM     74  O   UNL A   1      36.526  32.926  37.895  1.00  0.00    -0.237 OA
ATOM     75  O   UNL A   1      37.313  30.589  37.827  1.00  0.00    -0.744 OA
ENDBRANCH  68  72
ENDBRANCH  51  65
BRANCH  52  76
ATOM     76  C   UNL A   1      42.610  26.117  27.363  1.00  0.00     0.023 A 
ATOM     77  C   UNL A   1      42.174  24.783  27.293  1.00  0.00     0.031 A 
ATOM     78  C   UNL A   1      43.441  26.592  26.335  1.00  0.00     0.131 A 
ATOM     79  C   UNL A   1      42.610  23.958  26.245  1.00  0.00     0.055 A 
ATOM     80  C   UNL A   1      43.826  25.784  25.263  1.00  0.00     0.041 A 
ATOM     81  F   UNL A   1      43.885  27.860  26.351  1.00  0.00    -0.206 F 
ATOM     82  C   UNL A   1      43.421  24.453  25.221  1.00  0.00     0.022 A 
BRANCH  79  83
ATOM     83  S   UNL A   1      42.171  22.199  26.287  1.00  0.00     0.124 S 
ATOM     84  O   UNL A   1      42.899  21.684  25.132  1.00  0.00    -0.237 OA
ATOM     85  O   UNL A   1      42.674  21.792  27.595  1.00  0.00    -0.237 OA
ATOM     86  O   UNL A   1      40.716  22.208  26.156  1.00  0.00    -0.744 OA
ENDBRANCH  79  83
ENDBRANCH  52  76
BRANCH  64  87
ATOM     87  C   UNL A   1      45.690  27.473  33.469  1.00  0.00     0.023 A 
ATOM     88  C   UNL A   1      45.694  26.301  34.247  1.00  0.00     0.031 A 
ATOM     89  C   UNL A   1      46.906  28.161  33.306  1.00  0.00     0.131 A 
ATOM     90  C   UNL A   1      46.876  25.885  34.878  1.00  0.00     0.055 A 
ATOM     91  C   UNL A   1      48.092  27.706  33.885  1.00  0.00     0.041 A 
ATOM     92  F   UNL A   1      46.961  29.288  32.578  1.00  0.00    -0.206 F 
ATOM     93  C   UNL A   1      48.078  26.570  34.687  1.00  0.00     0.022 A 
BRANCH  90  94
ATOM     94  S   UNL A   1      46.802  24.489  36.034  1.00  0.00     0.124 S 
ATOM     95  O   UNL A   1      48.200  24.080  36.106  1.00  0.00    -0.237 OA
ATOM     96  O   UNL A   1      46.256  25.107  37.237  1.00  0.00    -0.237 OA
ATOM     97  O   UNL A   1      45.912  23.538  35.367  1.00  0.00    -0.744 OA
ENDBRANCH  90  94
ENDBRANCH  64  87
ENDBRANCH  38  39
ENDBRANCH  30  33
ENDBRANCH  28  29
ENDBRANCH  27  28
ENDBRANCH   1  27
TORSDOF 19
ENDMDL
MODEL 3
REMARK VINA RESULT:     -11.0      5.193     10.306
REMARK SMILES CCc1cc(OCC(=O)NCCCCNC(=O)c2ccc(-c3c4nc(c(-c5cc(S(=O)(=O)[O-])ccc5F)c5ccc([nH]5)c(-c5cc(S(=O)(=O)[O-])ccc5F)c5nc(c(-c6cc(S(=O)(=O)[O-])ccc6F)c6ccc3[nH]6)C=C5)C=C4)cc2)nc(Nc2ccc(C)c(F)c2)n1
REMARK SMILES IDX 12 1 11 2 10 3 8 4 9 5 7 7 6 8 5 9 3 10 4 11 92 12 82 13
REMARK SMILES IDX 81 14 2 15 1 16 83 17 84 19 85 20 91 21 86 22 89 23 87 24
REMARK SMILES IDX 90 25 88 26 13 27 14 28 15 29 16 30 17 32 18 33 19 34 80 35
REMARK SMILES IDX 20 36 79 37 21 38 22 39 23 40 73 41 24 42 78 43 72 44 74 45
REMARK SMILES IDX 25 46 77 47 71 48 70 49 26 51 58 52 38 53 57 54 39 55 42 56
REMARK SMILES IDX 56 57 75 58 40 59 41 60 55 62 76 63 43 64 27 65 28 66 36 67
REMARK SMILES IDX 29 68 35 69 37 70 34 71 30 72 31 73 32 74 33 75 59 76 60 77
REMARK SMILES IDX 68 78 61 79 67 80 69 81 66 82 62 83 63 84 64 85 65 86 44 87
REMARK SMILES IDX 45 88 53 89 46 90 52 91 54 92 51 93 47 94 48 95 49 96 50 97
REMARK H PARENT 10 6 83 18 15 31 74 50 42 61
REMARK Flexibility Score: inf
ROOT
ATOM      1  C   UNL A   1      37.049  19.794  25.114  1.00  0.00     0.023 C 
ENDROOT
BRANCH   1   2
ATOM      2  C   UNL A   1      36.257  21.096  25.218  1.00  0.00     0.116 C 
BRANCH   2   3
ATOM      3  N   UNL A   1      36.994  22.139  25.906  1.00  0.00    -0.353 N 
ATOM      4  C   UNL A   1      36.801  23.486  25.853  1.00  0.00     0.258 C 
ATOM      5  O   UNL A   1      37.509  24.222  26.543  1.00  0.00    -0.271 OA
ATOM      6  H   UNL A   1      37.727  21.834  26.488  1.00  0.00     0.163 HD
BRANCH   4   7
ATOM      7  C   UNL A   1      35.702  24.068  24.953  1.00  0.00     0.331 C 
BRANCH   7   8
ATOM      8  O   UNL A   1      34.667  24.807  25.574  1.00  0.00    -0.467 OA
BRANCH   8   9
ATOM      9  C   UNL A   1      33.372  24.461  25.304  1.00  0.00     0.218 A 
ATOM     10  C   UNL A   1      31.157  24.784  24.624  1.00  0.00     0.050 A 
ATOM     11  C   UNL A   1      32.376  25.337  24.941  1.00  0.00     0.092 A 
ATOM     12  N   UNL A   1      30.947  23.462  24.703  1.00  0.00    -0.218 NA
ATOM     13  C   UNL A   1      31.948  22.675  25.121  1.00  0.00     0.230 A 
ATOM     14  N   UNL A   1      33.165  23.136  25.429  1.00  0.00    -0.177 NA
BRANCH  10  15
ATOM     15  C   UNL A   1      30.029  25.666  24.148  1.00  0.00     0.053 C 
ATOM     16  C   UNL A   1      30.309  27.159  24.259  1.00  0.00     0.011 C 
ENDBRANCH  10  15
BRANCH  13  17
ATOM     17  N   UNL A   1      31.704  21.321  25.343  1.00  0.00    -0.324 N 
ATOM     18  H   UNL A   1      30.987  21.112  25.984  1.00  0.00     0.170 HD
BRANCH  17  19
ATOM     19  C   UNL A   1      32.350  20.222  24.766  1.00  0.00     0.044 A 
ATOM     20  C   UNL A   1      33.130  19.376  25.564  1.00  0.00     0.026 A 
ATOM     21  C   UNL A   1      32.131  19.857  23.433  1.00  0.00     0.065 A 
ATOM     22  C   UNL A   1      33.656  18.184  25.050  1.00  0.00     0.008 A 
ATOM     23  C   UNL A   1      32.671  18.683  22.920  1.00  0.00     0.128 A 
ATOM     24  C   UNL A   1      33.426  17.825  23.718  1.00  0.00    -0.015 A 
ATOM     25  F   UNL A   1      32.434  18.372  21.637  1.00  0.00    -0.207 F 
ATOM     26  C   UNL A   1      33.943  16.527  23.179  1.00  0.00     0.047 C 
ENDBRANCH  17  19
ENDBRANCH  13  17
ENDBRANCH   8   9
ENDBRANCH   7   8
ENDBRANCH   4   7
ENDBRANCH   2   3
ENDBRANCH   1   2
BRANCH   1  27
ATOM     27  C   UNL A   1      38.516  19.954  24.704  1.00  0.00     0.023 C 
BRANCH  27  28
ATOM     28  C   UNL A   1      39.513  20.130  25.847  1.00  0.00     0.116 C 
BRANCH  28  29
ATOM     29  N   UNL A   1      40.494  19.060  25.919  1.00  0.00    -0.352 N 
ATOM     30  C   UNL A   1      41.852  19.133  26.124  1.00  0.00     0.251 C 
ATOM     31  H   UNL A   1      40.134  18.149  25.805  1.00  0.00     0.163 HD
ATOM     32  O   UNL A   1      42.534  18.117  26.026  1.00  0.00    -0.269 OA
BRANCH  30  33
ATOM     33  C   UNL A   1      42.492  20.436  26.422  1.00  0.00     0.039 A 
ATOM     34  C   UNL A   1      43.088  21.148  25.379  1.00  0.00     0.014 A 
ATOM     35  C   UNL A   1      42.497  20.961  27.718  1.00  0.00     0.014 A 
ATOM     36  C   UNL A   1      43.621  22.418  25.619  1.00  0.00     0.010 A 
ATOM     37  C   UNL A   1      42.962  22.256  27.940  1.00  0.00     0.010 A 
ATOM     38  C   UNL A   1      43.525  23.001  26.892  1.00  0.00    -0.014 A 
BRANCH  38  39
ATOM     39  C   UNL A   1      44.002  24.388  27.145  1.00  0.00     0.031 A 
ATOM     40  C   UNL A   1      43.048  25.440  27.642  1.00  0.00     0.074 A 
ATOM     41  C   UNL A   1      45.281  24.716  26.872  1.00  0.00     0.049 A 
ATOM     42  N   UNL A   1      43.254  26.716  27.852  1.00  0.00    -0.248 NA
ATOM     43  C   UNL A   1      41.671  25.002  27.912  1.00  0.00     0.031 C 
ATOM     44  C   UNL A   1      46.297  23.796  26.358  1.00  0.00     0.029 A 
ATOM     45  N   UNL A   1      45.946  25.912  26.983  1.00  0.00    -0.354 N 
ATOM     46  C   UNL A   1      42.034  27.234  28.273  1.00  0.00     0.074 A 
ATOM     47  C   UNL A   1      41.079  26.146  28.216  1.00  0.00     0.031 C 
ATOM     48  C   UNL A   1      47.462  24.452  26.232  1.00  0.00     0.029 A 
ATOM     49  C   UNL A   1      47.267  25.849  26.604  1.00  0.00     0.049 A 
ATOM     50  H   UNL A   1      45.517  26.738  27.305  1.00  0.00     0.167 HD
ATOM     51  C   UNL A   1      41.742  28.491  28.694  1.00  0.00     0.034 A 
ATOM     52  C   UNL A   1      48.211  26.810  26.551  1.00  0.00     0.034 A 
ATOM     53  C   UNL A   1      42.704  29.566  28.743  1.00  0.00     0.049 A 
ATOM     54  C   UNL A   1      47.850  28.214  26.965  1.00  0.00     0.074 A 
ATOM     55  C   UNL A   1      42.525  30.865  29.185  1.00  0.00     0.029 A 
ATOM     56  N   UNL A   1      44.027  29.471  28.325  1.00  0.00    -0.354 N 
ATOM     57  N   UNL A   1      46.701  28.680  27.398  1.00  0.00    -0.248 NA
ATOM     58  C   UNL A   1      48.916  29.221  26.888  1.00  0.00     0.031 C 
ATOM     59  C   UNL A   1      43.713  31.572  28.967  1.00  0.00     0.029 A 
ATOM     60  C   UNL A   1      44.663  30.696  28.467  1.00  0.00     0.049 A 
ATOM     61  H   UNL A   1      44.451  28.652  27.978  1.00  0.00     0.167 HD
ATOM     62  C   UNL A   1      46.919  30.026  27.680  1.00  0.00     0.074 A 
ATOM     63  C   UNL A   1      48.311  30.292  27.379  1.00  0.00     0.031 C 
ATOM     64  C   UNL A   1      46.049  30.956  28.152  1.00  0.00     0.034 A 
BRANCH  51  65
ATOM     65  C   UNL A   1      40.314  28.765  29.108  1.00  0.00     0.023 A 
ATOM     66  C   UNL A   1      39.928  28.777  30.460  1.00  0.00     0.031 A 
ATOM     67  C   UNL A   1      39.315  28.976  28.141  1.00  0.00     0.131 A 
ATOM     68  C   UNL A   1      38.573  28.897  30.804  1.00  0.00     0.055 A 
ATOM     69  C   UNL A   1      37.980  29.190  28.494  1.00  0.00     0.041 A 
ATOM     70  F   UNL A   1      39.613  28.957  26.832  1.00  0.00    -0.206 F 
ATOM     71  C   UNL A   1      37.599  29.132  29.831  1.00  0.00     0.022 A 
BRANCH  68  72
ATOM     72  S   UNL A   1      38.086  28.569  32.520  1.00  0.00     0.124 S 
ATOM     73  O   UNL A   1      39.136  29.262  33.262  1.00  0.00    -0.237 OA
ATOM     74  O   UNL A   1      36.756  29.163  32.589  1.00  0.00    -0.237 OA
ATOM     75  O   UNL A   1      38.126  27.112  32.615  1.00  0.00    -0.744 OA
ENDBRANCH  68  72
ENDBRANCH  51  65
BRANCH  52  76
ATOM     76  C   UNL A   1      49.593  26.488  26.089  1.00  0.00     0.023 A 
ATOM     77  C   UNL A   1      50.069  26.967  24.856  1.00  0.00     0.031 A 
ATOM     78  C   UNL A   1      50.441  25.661  26.845  1.00  0.00     0.131 A 
ATOM     79  C   UNL A   1      51.336  26.577  24.395  1.00  0.00     0.055 A 
ATOM     80  C   UNL A   1      51.723  25.322  26.408  1.00  0.00     0.041 A 
ATOM     81  F   UNL A   1      50.037  25.177  28.030  1.00  0.00    -0.206 F 
ATOM     82  C   UNL A   1      52.172  25.770  25.170  1.00  0.00     0.022 A 
BRANCH  79  83
ATOM     83  S   UNL A   1      51.840  27.071  22.725  1.00  0.00     0.124 S 
ATOM     84  O   UNL A   1      52.311  28.434  22.948  1.00  0.00    -0.237 OA
ATOM     85  O   UNL A   1      52.866  26.081  22.413  1.00  0.00    -0.237 OA
ATOM     86  O   UNL A   1      50.608  26.953  21.949  1.00  0.00    -0.744 OA
ENDBRANCH  79  83
ENDBRANCH  52  76
BRANCH  64  87
ATOM     87  C   UNL A   1      46.599  32.337  28.419  1.00  0.00     0.023 A 
ATOM     88  C   UNL A   1      46.770  33.281  27.390  1.00  0.00     0.031 A 
ATOM     89  C   UNL A   1      46.970  32.709  29.724  1.00  0.00     0.131 A 
ATOM     90  C   UNL A   1      47.352  34.526  27.674  1.00  0.00     0.055 A 
ATOM     91  C   UNL A   1      47.489  33.973  30.010  1.00  0.00     0.041 A 
ATOM     92  F   UNL A   1      46.832  31.848  30.745  1.00  0.00    -0.206 F 
ATOM     93  C   UNL A   1      47.695  34.885  28.979  1.00  0.00     0.022 A 
BRANCH  90  94
ATOM     94  S   UNL A   1      47.744  35.639  26.295  1.00  0.00     0.124 S 
ATOM     95  O   UNL A   1      49.127  36.002  26.583  1.00  0.00    -0.237 OA
ATOM     96  O   UNL A   1      47.540  34.781  25.133  1.00  0.00    -0.237 OA
ATOM     97  O   UNL A   1      46.774  36.724  26.443  1.00  0.00    -0.744 OA
ENDBRANCH  90  94
ENDBRANCH  64  87
ENDBRANCH  38  39
ENDBRANCH  30  33
ENDBRANCH  28  29
ENDBRANCH  27  28
ENDBRANCH   1  27
TORSDOF 19
ENDMDL
