MODEL 1
REMARK VINA RESULT:     -12.7      0.000      0.000
REMARK SMILES Cc1ccc(S(=O)(=O)N(c2ccccc2)[C@H](C)C(=O)NCCCCNC(=O)c2ccc(-c3c4nc(c(-c5cc(S(=O)(=O)[O-])ccc5F)c5ccc([nH]5)c(-c5cc(S(=O)(=O)[O-])ccc5F)c5nc(c(-c6cc(S(=O)(=O)[O-])ccc6F)c6ccc3[nH]6)C=C5)C=C4)cc2)cc1
REMARK SMILES IDX 22 1 21 2 20 3 18 4 19 5 16 7 17 8 9 9 6 10 7 11 8 12 5 13
REMARK SMILES IDX 1 14 2 15 3 16 92 17 4 18 91 19 10 20 11 21 15 22 12 23
REMARK SMILES IDX 14 24 13 25 23 26 24 27 25 28 26 29 27 31 28 32 29 33 90 34
REMARK SMILES IDX 30 35 89 36 31 37 32 38 33 39 83 40 34 41 88 42 82 43 84 44
REMARK SMILES IDX 35 45 87 46 81 47 80 48 36 50 68 51 48 52 67 53 49 54 52 55
REMARK SMILES IDX 66 56 85 57 50 58 51 59 65 61 86 62 53 63 37 64 38 65 46 66
REMARK SMILES IDX 39 67 45 68 47 69 44 70 40 71 41 72 42 73 43 74 69 75 70 76
REMARK SMILES IDX 78 77 71 78 77 79 79 80 76 81 72 82 73 83 74 84 75 85 54 86
REMARK SMILES IDX 55 87 63 88 56 89 62 90 64 91 61 92 57 93 58 94 59 95 60 96
REMARK H PARENT 20 6 25 30 84 49 52 60
REMARK Flexibility Score: inf
ROOT
ATOM      1  C   UNL A   1      32.405  28.395  27.280  1.00  0.00     0.023 C 
ENDROOT
BRANCH   1   2
ATOM      2  C   UNL A   1      32.379  27.080  26.495  1.00  0.00     0.116 C 
BRANCH   2   3
ATOM      3  N   UNL A   1      33.186  27.068  25.283  1.00  0.00    -0.354 N 
ATOM      4  C   UNL A   1      33.147  26.255  24.181  1.00  0.00     0.243 C 
ATOM      5  O   UNL A   1      33.755  26.688  23.190  1.00  0.00    -0.273 OA
ATOM      6  H   UNL A   1      33.881  27.765  25.250  1.00  0.00     0.163 HD
BRANCH   4   7
ATOM      7  C   UNL A   1      32.487  24.864  24.123  1.00  0.00     0.185 C 
ATOM      8  C   UNL A   1      32.090  24.463  22.703  1.00  0.00     0.043 C 
BRANCH   7   9
ATOM      9  N   UNL A   1      33.140  23.751  24.867  1.00  0.00    -0.254 N 
BRANCH   9  10
ATOM     10  S   UNL A   1      32.147  22.601  25.629  1.00  0.00     0.265 S 
ATOM     11  O   UNL A   1      30.786  22.953  25.259  1.00  0.00    -0.201 OA
ATOM     12  O   UNL A   1      32.509  22.555  27.031  1.00  0.00    -0.201 OA
BRANCH  10  13
ATOM     13  C   UNL A   1      32.434  20.961  24.961  1.00  0.00     0.088 A 
ATOM     14  C   UNL A   1      33.530  17.230  23.093  1.00  0.00     0.044 C 
ATOM     15  C   UNL A   1      33.102  18.512  23.746  1.00  0.00    -0.051 A 
ATOM     16  C   UNL A   1      32.405  19.491  23.028  1.00  0.00     0.005 A 
ATOM     17  C   UNL A   1      33.370  18.732  25.101  1.00  0.00     0.005 A 
ATOM     18  C   UNL A   1      32.093  20.717  23.625  1.00  0.00     0.022 A 
ATOM     19  C   UNL A   1      32.995  19.931  25.717  1.00  0.00     0.022 A 
ENDBRANCH  10  13
ENDBRANCH   9  10
BRANCH   9  20
ATOM     20  C   UNL A   1      34.527  23.530  24.744  1.00  0.00     0.053 A 
ATOM     21  C   UNL A   1      35.349  23.897  25.811  1.00  0.00     0.027 A 
ATOM     22  C   UNL A   1      35.057  22.985  23.574  1.00  0.00     0.027 A 
ATOM     23  C   UNL A   1      36.719  23.726  25.700  1.00  0.00     0.002 A 
ATOM     24  C   UNL A   1      36.432  22.813  23.472  1.00  0.00     0.002 A 
ATOM     25  C   UNL A   1      37.256  23.189  24.533  1.00  0.00     0.000 A 
ENDBRANCH   9  20
ENDBRANCH   7   9
ENDBRANCH   4   7
ENDBRANCH   2   3
ENDBRANCH   1   2
BRANCH   1  26
ATOM     26  C   UNL A   1      33.792  28.971  27.569  1.00  0.00     0.023 C 
BRANCH  26  27
ATOM     27  C   UNL A   1      34.083  30.340  26.959  1.00  0.00     0.116 C 
BRANCH  27  28
ATOM     28  N   UNL A   1      34.651  31.339  27.847  1.00  0.00    -0.352 N 
ATOM     29  C   UNL A   1      35.708  31.232  28.747  1.00  0.00     0.251 C 
ATOM     30  H   UNL A   1      34.224  32.224  27.807  1.00  0.00     0.163 HD
ATOM     31  O   UNL A   1      35.912  32.132  29.539  1.00  0.00    -0.269 OA
BRANCH  29  32
ATOM     32  C   UNL A   1      36.653  30.073  28.691  1.00  0.00     0.039 A 
ATOM     33  C   UNL A   1      36.810  29.288  29.847  1.00  0.00     0.014 A 
ATOM     34  C   UNL A   1      37.474  29.832  27.598  1.00  0.00     0.014 A 
ATOM     35  C   UNL A   1      37.911  28.436  29.971  1.00  0.00     0.010 A 
ATOM     36  C   UNL A   1      38.623  29.092  27.757  1.00  0.00     0.010 A 
ATOM     37  C   UNL A   1      38.867  28.434  28.960  1.00  0.00    -0.014 A 
BRANCH  37  38
ATOM     38  C   UNL A   1      40.213  27.899  29.084  1.00  0.00     0.031 A 
ATOM     39  C   UNL A   1      40.534  26.544  28.610  1.00  0.00     0.074 A 
ATOM     40  C   UNL A   1      41.202  28.756  29.419  1.00  0.00     0.049 A 
ATOM     41  N   UNL A   1      41.598  25.904  28.949  1.00  0.00    -0.248 NA
ATOM     42  C   UNL A   1      39.660  25.788  27.721  1.00  0.00     0.031 C 
ATOM     43  C   UNL A   1      42.640  28.600  29.223  1.00  0.00     0.029 A 
ATOM     44  N   UNL A   1      41.094  29.912  30.185  1.00  0.00    -0.354 N 
ATOM     45  C   UNL A   1      41.700  24.811  28.122  1.00  0.00     0.074 A 
ATOM     46  C   UNL A   1      40.438  24.744  27.423  1.00  0.00     0.031 C 
ATOM     47  C   UNL A   1      43.276  29.431  30.065  1.00  0.00     0.029 A 
ATOM     48  C   UNL A   1      42.267  30.005  30.944  1.00  0.00     0.049 A 
ATOM     49  H   UNL A   1      40.339  30.542  30.193  1.00  0.00     0.167 HD
ATOM     50  C   UNL A   1      42.891  24.159  28.016  1.00  0.00     0.034 A 
ATOM     51  C   UNL A   1      42.257  29.929  32.306  1.00  0.00     0.034 A 
ATOM     52  C   UNL A   1      43.920  24.763  28.860  1.00  0.00     0.049 A 
ATOM     53  C   UNL A   1      43.037  28.719  32.826  1.00  0.00     0.074 A 
ATOM     54  C   UNL A   1      45.001  25.598  28.629  1.00  0.00     0.029 A 
ATOM     55  N   UNL A   1      43.738  24.756  30.231  1.00  0.00    -0.354 N 
ATOM     56  N   UNL A   1      43.578  27.799  32.072  1.00  0.00    -0.248 NA
ATOM     57  C   UNL A   1      43.173  28.408  34.249  1.00  0.00     0.031 C 
ATOM     58  C   UNL A   1      45.453  26.099  29.886  1.00  0.00     0.029 A 
ATOM     59  C   UNL A   1      44.663  25.548  30.878  1.00  0.00     0.049 A 
ATOM     60  H   UNL A   1      43.033  24.245  30.690  1.00  0.00     0.167 HD
ATOM     61  C   UNL A   1      44.059  26.778  32.853  1.00  0.00     0.074 A 
ATOM     62  C   UNL A   1      43.779  27.209  34.212  1.00  0.00     0.031 C 
ATOM     63  C   UNL A   1      44.606  25.638  32.330  1.00  0.00     0.034 A 
BRANCH  50  64
ATOM     64  C   UNL A   1      43.176  23.131  26.952  1.00  0.00     0.023 A 
ATOM     65  C   UNL A   1      42.634  21.838  27.082  1.00  0.00     0.031 A 
ATOM     66  C   UNL A   1      43.973  23.347  25.811  1.00  0.00     0.131 A 
ATOM     67  C   UNL A   1      42.965  20.812  26.181  1.00  0.00     0.055 A 
ATOM     68  C   UNL A   1      44.356  22.311  24.948  1.00  0.00     0.041 A 
ATOM     69  F   UNL A   1      44.377  24.576  25.462  1.00  0.00    -0.206 F 
ATOM     70  C   UNL A   1      43.861  21.029  25.139  1.00  0.00     0.022 A 
BRANCH  67  71
ATOM     71  S   UNL A   1      42.189  19.187  26.388  1.00  0.00     0.124 S 
ATOM     72  O   UNL A   1      40.824  19.438  25.937  1.00  0.00    -0.237 OA
ATOM     73  O   UNL A   1      43.010  18.344  25.526  1.00  0.00    -0.237 OA
ATOM     74  O   UNL A   1      42.328  18.926  27.819  1.00  0.00    -0.744 OA
ENDBRANCH  67  71
ENDBRANCH  50  64
BRANCH  51  75
ATOM     75  C   UNL A   1      40.987  30.439  32.923  1.00  0.00     0.023 A 
ATOM     76  C   UNL A   1      40.782  31.834  33.052  1.00  0.00     0.031 A 
ATOM     77  C   UNL A   1      39.860  29.604  33.007  1.00  0.00     0.131 A 
ATOM     78  C   UNL A   1      39.474  32.350  33.145  1.00  0.00     0.055 A 
ATOM     79  C   UNL A   1      38.567  30.124  33.120  1.00  0.00     0.041 A 
ATOM     80  F   UNL A   1      39.979  28.280  32.832  1.00  0.00    -0.206 F 
ATOM     81  C   UNL A   1      38.366  31.500  33.157  1.00  0.00     0.022 A 
BRANCH  78  82
ATOM     82  S   UNL A   1      39.190  34.147  33.206  1.00  0.00     0.124 S 
ATOM     83  O   UNL A   1      38.248  34.289  34.311  1.00  0.00    -0.237 OA
ATOM     84  O   UNL A   1      40.533  34.661  33.451  1.00  0.00    -0.237 OA
ATOM     85  O   UNL A   1      38.646  34.443  31.884  1.00  0.00    -0.744 OA
ENDBRANCH  78  82
ENDBRANCH  51  75
BRANCH  63  86
ATOM     86  C   UNL A   1      45.120  24.481  33.156  1.00  0.00     0.023 A 
ATOM     87  C   UNL A   1      46.432  24.436  33.648  1.00  0.00     0.031 A 
ATOM     88  C   UNL A   1      44.326  23.335  33.410  1.00  0.00     0.131 A 
ATOM     89  C   UNL A   1      46.877  23.342  34.413  1.00  0.00     0.055 A 
ATOM     90  C   UNL A   1      44.799  22.212  34.091  1.00  0.00     0.041 A 
ATOM     91  F   UNL A   1      43.037  23.268  33.047  1.00  0.00    -0.206 F 
ATOM     92  C   UNL A   1      46.080  22.216  34.613  1.00  0.00     0.022 A 
BRANCH  89  93
ATOM     93  S   UNL A   1      48.495  23.452  35.217  1.00  0.00     0.124 S 
ATOM     94  O   UNL A   1      49.402  23.605  34.085  1.00  0.00    -0.237 OA
ATOM     95  O   UNL A   1      48.325  24.635  36.057  1.00  0.00    -0.237 OA
ATOM     96  O   UNL A   1      48.608  22.189  35.942  1.00  0.00    -0.744 OA
ENDBRANCH  89  93
ENDBRANCH  63  86
ENDBRANCH  37  38
ENDBRANCH  29  32
ENDBRANCH  27  28
ENDBRANCH  26  27
ENDBRANCH   1  26
TORSDOF 18
ENDMDL
MODEL 2
REMARK VINA RESULT:     -12.7      0.910      2.386
REMARK SMILES Cc1ccc(S(=O)(=O)N(c2ccccc2)[C@H](C)C(=O)NCCCCNC(=O)c2ccc(-c3c4nc(c(-c5cc(S(=O)(=O)[O-])ccc5F)c5ccc([nH]5)c(-c5cc(S(=O)(=O)[O-])ccc5F)c5nc(c(-c6cc(S(=O)(=O)[O-])ccc6F)c6ccc3[nH]6)C=C5)C=C4)cc2)cc1
REMARK SMILES IDX 22 1 21 2 20 3 18 4 19 5 16 7 17 8 9 9 6 10 7 11 8 12 5 13
REMARK SMILES IDX 1 14 2 15 3 16 92 17 4 18 91 19 10 20 11 21 15 22 12 23
REMARK SMILES IDX 14 24 13 25 23 26 24 27 25 28 26 29 27 31 28 32 29 33 90 34
REMARK SMILES IDX 30 35 89 36 31 37 32 38 33 39 83 40 34 41 88 42 82 43 84 44
REMARK SMILES IDX 35 45 87 46 81 47 80 48 36 50 68 51 48 52 67 53 49 54 52 55
REMARK SMILES IDX 66 56 85 57 50 58 51 59 65 61 86 62 53 63 37 64 38 65 46 66
REMARK SMILES IDX 39 67 45 68 47 69 44 70 40 71 41 72 42 73 43 74 69 75 70 76
REMARK SMILES IDX 78 77 71 78 77 79 79 80 76 81 72 82 73 83 74 84 75 85 54 86
REMARK SMILES IDX 55 87 63 88 56 89 62 90 64 91 61 92 57 93 58 94 59 95 60 96
REMARK H PARENT 20 6 25 30 84 49 52 60
REMARK Flexibility Score: inf
ROOT
ATOM      1  C   UNL A   1      31.846  28.601  27.586  1.00  0.00     0.023 C 
ENDROOT
BRANCH   1   2
ATOM      2  C   UNL A   1      31.850  27.467  26.556  1.00  0.00     0.116 C 
BRANCH   2   3
ATOM      3  N   UNL A   1      31.457  26.163  27.070  1.00  0.00    -0.354 N 
ATOM      4  C   UNL A   1      31.401  24.935  26.466  1.00  0.00     0.243 C 
ATOM      5  O   UNL A   1      31.324  23.972  27.245  1.00  0.00    -0.273 OA
ATOM      6  H   UNL A   1      31.183  26.164  28.016  1.00  0.00     0.163 HD
BRANCH   4   7
ATOM      7  C   UNL A   1      31.355  24.690  24.945  1.00  0.00     0.185 C 
ATOM      8  C   UNL A   1      30.909  25.927  24.167  1.00  0.00     0.043 C 
BRANCH   7   9
ATOM      9  N   UNL A   1      32.518  24.008  24.313  1.00  0.00    -0.254 N 
BRANCH   9  10
ATOM     10  S   UNL A   1      33.916  24.923  24.002  1.00  0.00     0.265 S 
ATOM     11  O   UNL A   1      33.864  26.043  24.929  1.00  0.00    -0.201 OA
ATOM     12  O   UNL A   1      33.974  25.186  22.579  1.00  0.00    -0.201 OA
BRANCH  10  13
ATOM     13  C   UNL A   1      35.395  24.000  24.423  1.00  0.00     0.088 A 
ATOM     14  C   UNL A   1      38.641  21.482  25.742  1.00  0.00     0.044 C 
ATOM     15  C   UNL A   1      37.544  22.395  25.277  1.00  0.00    -0.051 A 
ATOM     16  C   UNL A   1      37.039  23.400  26.109  1.00  0.00     0.005 A 
ATOM     17  C   UNL A   1      37.031  22.270  23.981  1.00  0.00     0.005 A 
ATOM     18  C   UNL A   1      35.956  24.183  25.694  1.00  0.00     0.022 A 
ATOM     19  C   UNL A   1      35.995  23.101  23.541  1.00  0.00     0.022 A 
ENDBRANCH  10  13
ENDBRANCH   9  10
BRANCH   9  20
ATOM     20  C   UNL A   1      32.541  22.603  24.194  1.00  0.00     0.053 A 
ATOM     21  C   UNL A   1      32.180  22.041  22.968  1.00  0.00     0.027 A 
ATOM     22  C   UNL A   1      32.889  21.805  25.283  1.00  0.00     0.027 A 
ATOM     23  C   UNL A   1      32.158  20.662  22.835  1.00  0.00     0.002 A 
ATOM     24  C   UNL A   1      32.868  20.423  25.142  1.00  0.00     0.002 A 
ATOM     25  C   UNL A   1      32.497  19.859  23.921  1.00  0.00     0.000 A 
ENDBRANCH   9  20
ENDBRANCH   7   9
ENDBRANCH   4   7
ENDBRANCH   2   3
ENDBRANCH   1   2
BRANCH   1  26
ATOM     26  C   UNL A   1      32.324  29.963  27.079  1.00  0.00     0.023 C 
BRANCH  26  27
ATOM     27  C   UNL A   1      33.836  30.141  26.977  1.00  0.00     0.116 C 
BRANCH  27  28
ATOM     28  N   UNL A   1      34.418  31.209  27.772  1.00  0.00    -0.352 N 
ATOM     29  C   UNL A   1      35.510  31.182  28.634  1.00  0.00     0.251 C 
ATOM     30  H   UNL A   1      33.973  32.082  27.687  1.00  0.00     0.163 HD
ATOM     31  O   UNL A   1      35.728  32.139  29.353  1.00  0.00    -0.269 OA
BRANCH  29  32
ATOM     32  C   UNL A   1      36.475  30.038  28.621  1.00  0.00     0.039 A 
ATOM     33  C   UNL A   1      36.672  29.321  29.815  1.00  0.00     0.014 A 
ATOM     34  C   UNL A   1      37.276  29.750  27.525  1.00  0.00     0.014 A 
ATOM     35  C   UNL A   1      37.790  28.496  29.961  1.00  0.00     0.010 A 
ATOM     36  C   UNL A   1      38.441  29.039  27.699  1.00  0.00     0.010 A 
ATOM     37  C   UNL A   1      38.723  28.454  28.931  1.00  0.00    -0.014 A 
BRANCH  37  38
ATOM     38  C   UNL A   1      40.081  27.949  29.054  1.00  0.00     0.031 A 
ATOM     39  C   UNL A   1      40.436  26.608  28.565  1.00  0.00     0.074 A 
ATOM     40  C   UNL A   1      41.049  28.825  29.402  1.00  0.00     0.049 A 
ATOM     41  N   UNL A   1      41.513  25.989  28.901  1.00  0.00    -0.248 NA
ATOM     42  C   UNL A   1      39.582  25.842  27.664  1.00  0.00     0.031 C 
ATOM     43  C   UNL A   1      42.490  28.705  29.209  1.00  0.00     0.029 A 
ATOM     44  N   UNL A   1      40.911  29.970  30.181  1.00  0.00    -0.354 N 
ATOM     45  C   UNL A   1      41.644  24.909  28.062  1.00  0.00     0.074 A 
ATOM     46  C   UNL A   1      40.386  24.820  27.357  1.00  0.00     0.031 C 
ATOM     47  C   UNL A   1      43.104  29.542  30.063  1.00  0.00     0.029 A 
ATOM     48  C   UNL A   1      42.079  30.082  30.944  1.00  0.00     0.049 A 
ATOM     49  H   UNL A   1      40.141  30.582  30.193  1.00  0.00     0.167 HD
ATOM     50  C   UNL A   1      42.850  24.286  27.953  1.00  0.00     0.034 A 
ATOM     51  C   UNL A   1      42.065  29.990  32.306  1.00  0.00     0.034 A 
ATOM     52  C   UNL A   1      43.862  24.905  28.808  1.00  0.00     0.049 A 
ATOM     53  C   UNL A   1      42.872  28.793  32.815  1.00  0.00     0.074 A 
ATOM     54  C   UNL A   1      44.924  25.767  28.590  1.00  0.00     0.029 A 
ATOM     55  N   UNL A   1      43.675  24.877  30.178  1.00  0.00    -0.354 N 
ATOM     56  N   UNL A   1      43.437  27.894  32.053  1.00  0.00    -0.248 NA
ATOM     57  C   UNL A   1      43.011  28.469  34.234  1.00  0.00     0.031 C 
ATOM     58  C   UNL A   1      45.360  26.264  29.854  1.00  0.00     0.029 A 
ATOM     59  C   UNL A   1      44.579  25.683  30.837  1.00  0.00     0.049 A 
ATOM     60  H   UNL A   1      42.981  24.345  30.629  1.00  0.00     0.167 HD
ATOM     61  C   UNL A   1      43.939  26.876  32.824  1.00  0.00     0.074 A 
ATOM     62  C   UNL A   1      43.645  27.285  34.187  1.00  0.00     0.031 C 
ATOM     63  C   UNL A   1      44.515  25.756  32.290  1.00  0.00     0.034 A 
BRANCH  50  64
ATOM     64  C   UNL A   1      43.163  23.277  26.879  1.00  0.00     0.023 A 
ATOM     65  C   UNL A   1      42.715  21.951  27.029  1.00  0.00     0.031 A 
ATOM     66  C   UNL A   1      43.899  23.544  25.708  1.00  0.00     0.131 A 
ATOM     67  C   UNL A   1      43.081  20.947  26.116  1.00  0.00     0.055 A 
ATOM     68  C   UNL A   1      44.317  22.534  24.830  1.00  0.00     0.041 A 
ATOM     69  F   UNL A   1      44.205  24.797  25.343  1.00  0.00    -0.206 F 
ATOM     70  C   UNL A   1      43.919  21.223  25.040  1.00  0.00     0.022 A 
BRANCH  67  71
ATOM     71  S   UNL A   1      42.425  19.274  26.352  1.00  0.00     0.124 S 
ATOM     72  O   UNL A   1      42.033  19.292  27.757  1.00  0.00    -0.237 OA
ATOM     73  O   UNL A   1      41.339  19.231  25.378  1.00  0.00    -0.237 OA
ATOM     74  O   UNL A   1      43.567  18.417  26.041  1.00  0.00    -0.744 OA
ENDBRANCH  67  71
ENDBRANCH  50  64
BRANCH  51  75
ATOM     75  C   UNL A   1      40.782  30.463  32.924  1.00  0.00     0.023 A 
ATOM     76  C   UNL A   1      40.532  31.851  33.044  1.00  0.00     0.031 A 
ATOM     77  C   UNL A   1      39.683  29.593  33.018  1.00  0.00     0.131 A 
ATOM     78  C   UNL A   1      39.208  32.325  33.138  1.00  0.00     0.055 A 
ATOM     79  C   UNL A   1      38.374  30.072  33.132  1.00  0.00     0.041 A 
ATOM     80  F   UNL A   1      39.844  28.272  32.852  1.00  0.00    -0.206 F 
ATOM     81  C   UNL A   1      38.129  31.441  33.160  1.00  0.00     0.022 A 
BRANCH  78  82
ATOM     82  S   UNL A   1      38.867  34.113  33.188  1.00  0.00     0.124 S 
ATOM     83  O   UNL A   1      37.667  34.191  34.014  1.00  0.00    -0.237 OA
ATOM     84  O   UNL A   1      40.085  34.641  33.791  1.00  0.00    -0.237 OA
ATOM     85  O   UNL A   1      38.676  34.454  31.781  1.00  0.00    -0.744 OA
ENDBRANCH  78  82
ENDBRANCH  51  75
BRANCH  63  86
ATOM     86  C   UNL A   1      45.053  24.601  33.105  1.00  0.00     0.023 A 
ATOM     87  C   UNL A   1      46.356  24.594  33.623  1.00  0.00     0.031 A 
ATOM     88  C   UNL A   1      44.296  23.424  33.320  1.00  0.00     0.131 A 
ATOM     89  C   UNL A   1      46.824  23.501  34.376  1.00  0.00     0.055 A 
ATOM     90  C   UNL A   1      44.796  22.305  33.990  1.00  0.00     0.041 A 
ATOM     91  F   UNL A   1      43.018  23.318  32.928  1.00  0.00    -0.206 F 
ATOM     92  C   UNL A   1      46.065  22.344  34.538  1.00  0.00     0.022 A 
BRANCH  89  93
ATOM     93  S   UNL A   1      48.420  23.654  35.216  1.00  0.00     0.124 S 
ATOM     94  O   UNL A   1      48.050  23.544  36.624  1.00  0.00    -0.237 OA
ATOM     95  O   UNL A   1      49.154  22.518  34.663  1.00  0.00    -0.237 OA
ATOM     96  O   UNL A   1      48.906  24.967  34.799  1.00  0.00    -0.744 OA
ENDBRANCH  89  93
ENDBRANCH  63  86
ENDBRANCH  37  38
ENDBRANCH  29  32
ENDBRANCH  27  28
ENDBRANCH  26  27
ENDBRANCH   1  26
TORSDOF 18
ENDMDL
MODEL 3
REMARK VINA RESULT:     -12.6      3.976     10.199
REMARK SMILES Cc1ccc(S(=O)(=O)N(c2ccccc2)[C@H](C)C(=O)NCCCCNC(=O)c2ccc(-c3c4nc(c(-c5cc(S(=O)(=O)[O-])ccc5F)c5ccc([nH]5)c(-c5cc(S(=O)(=O)[O-])ccc5F)c5nc(c(-c6cc(S(=O)(=O)[O-])ccc6F)c6ccc3[nH]6)C=C5)C=C4)cc2)cc1
REMARK SMILES IDX 22 1 21 2 20 3 18 4 19 5 16 7 17 8 9 9 6 10 7 11 8 12 5 13
REMARK SMILES IDX 1 14 2 15 3 16 92 17 4 18 91 19 10 20 11 21 15 22 12 23
REMARK SMILES IDX 14 24 13 25 23 26 24 27 25 28 26 29 27 31 28 32 29 33 90 34
REMARK SMILES IDX 30 35 89 36 31 37 32 38 33 39 83 40 34 41 88 42 82 43 84 44
REMARK SMILES IDX 35 45 87 46 81 47 80 48 36 50 68 51 48 52 67 53 49 54 52 55
REMARK SMILES IDX 66 56 85 57 50 58 51 59 65 61 86 62 53 63 37 64 38 65 46 66
REMARK SMILES IDX 39 67 45 68 47 69 44 70 40 71 41 72 42 73 43 74 69 75 70 76
REMARK SMILES IDX 78 77 71 78 77 79 79 80 76 81 72 82 73 83 74 84 75 85 54 86
REMARK SMILES IDX 55 87 63 88 56 89 62 90 64 91 61 92 57 93 58 94 59 95 60 96
REMARK H PARENT 20 6 25 30 84 49 52 60
REMARK Flexibility Score: inf
ROOT
ATOM      1  C   UNL A   1      36.289  23.162  24.112  1.00  0.00     0.023 C 
ENDROOT
BRANCH   1   2
ATOM      2  C   UNL A   1      34.894  22.657  24.492  1.00  0.00     0.116 C 
BRANCH   2   3
ATOM      3  N   UNL A   1      34.502  22.901  25.872  1.00  0.00    -0.354 N 
ATOM      4  C   UNL A   1      33.276  23.149  26.431  1.00  0.00     0.243 C 
ATOM      5  O   UNL A   1      33.225  23.010  27.663  1.00  0.00    -0.273 OA
ATOM      6  H   UNL A   1      35.247  22.886  26.516  1.00  0.00     0.163 HD
BRANCH   4   7
ATOM      7  C   UNL A   1      32.031  23.643  25.668  1.00  0.00     0.185 C 
ATOM      8  C   UNL A   1      30.743  23.454  26.467  1.00  0.00     0.043 C 
BRANCH   7   9
ATOM      9  N   UNL A   1      32.102  24.976  25.007  1.00  0.00    -0.254 N 
BRANCH   9  10
ATOM     10  S   UNL A   1      31.462  25.132  23.441  1.00  0.00     0.265 S 
ATOM     11  O   UNL A   1      30.634  23.953  23.238  1.00  0.00    -0.201 OA
ATOM     12  O   UNL A   1      32.559  25.389  22.531  1.00  0.00    -0.201 OA
BRANCH  10  13
ATOM     13  C   UNL A   1      30.355  26.539  23.336  1.00  0.00     0.088 A 
ATOM     14  C   UNL A   1      27.633  29.799  22.574  1.00  0.00     0.044 C 
ATOM     15  C   UNL A   1      28.601  28.691  22.875  1.00  0.00    -0.051 A 
ATOM     16  C   UNL A   1      29.939  28.773  22.476  1.00  0.00     0.005 A 
ATOM     17  C   UNL A   1      28.178  27.568  23.594  1.00  0.00     0.005 A 
ATOM     18  C   UNL A   1      30.806  27.694  22.684  1.00  0.00     0.022 A 
ATOM     19  C   UNL A   1      29.064  26.519  23.864  1.00  0.00     0.022 A 
ENDBRANCH  10  13
ENDBRANCH   9  10
BRANCH   9  20
ATOM     20  C   UNL A   1      32.473  26.118  25.746  1.00  0.00     0.053 A 
ATOM     21  C   UNL A   1      31.524  26.689  26.595  1.00  0.00     0.027 A 
ATOM     22  C   UNL A   1      33.747  26.669  25.606  1.00  0.00     0.027 A 
ATOM     23  C   UNL A   1      31.851  27.834  27.304  1.00  0.00     0.002 A 
ATOM     24  C   UNL A   1      34.069  27.815  26.323  1.00  0.00     0.002 A 
ATOM     25  C   UNL A   1      33.118  28.394  27.163  1.00  0.00     0.000 A 
ENDBRANCH   9  20
ENDBRANCH   7   9
ENDBRANCH   4   7
ENDBRANCH   2   3
ENDBRANCH   1   2
BRANCH   1  26
ATOM     26  C   UNL A   1      37.463  22.349  24.660  1.00  0.00     0.023 C 
BRANCH  26  27
ATOM     27  C   UNL A   1      37.957  22.747  26.048  1.00  0.00     0.116 C 
BRANCH  27  28
ATOM     28  N   UNL A   1      39.384  22.617  26.291  1.00  0.00    -0.352 N 
ATOM     29  C   UNL A   1      40.339  23.600  26.533  1.00  0.00     0.251 C 
ATOM     30  H   UNL A   1      39.726  21.694  26.284  1.00  0.00     0.163 HD
ATOM     31  O   UNL A   1      41.518  23.303  26.526  1.00  0.00    -0.269 OA
BRANCH  29  32
ATOM     32  C   UNL A   1      39.934  24.994  26.895  1.00  0.00     0.039 A 
ATOM     33  C   UNL A   1      40.489  26.059  26.162  1.00  0.00     0.014 A 
ATOM     34  C   UNL A   1      39.150  25.279  28.005  1.00  0.00     0.014 A 
ATOM     35  C   UNL A   1      40.434  27.361  26.666  1.00  0.00     0.010 A 
ATOM     36  C   UNL A   1      39.196  26.534  28.569  1.00  0.00     0.010 A 
ATOM     37  C   UNL A   1      39.879  27.563  27.926  1.00  0.00    -0.014 A 
BRANCH  37  38
ATOM     38  C   UNL A   1      40.059  28.756  28.736  1.00  0.00     0.031 A 
ATOM     39  C   UNL A   1      39.013  29.788  28.804  1.00  0.00     0.074 A 
ATOM     40  C   UNL A   1      41.092  28.777  29.606  1.00  0.00     0.049 A 
ATOM     41  N   UNL A   1      39.215  30.981  29.245  1.00  0.00    -0.248 NA
ATOM     42  C   UNL A   1      37.644  29.559  28.354  1.00  0.00     0.031 C 
ATOM     43  C   UNL A   1      41.270  29.622  30.781  1.00  0.00     0.029 A 
ATOM     44  N   UNL A   1      42.310  28.116  29.484  1.00  0.00    -0.354 N 
ATOM     45  C   UNL A   1      37.985  31.569  29.415  1.00  0.00     0.074 A 
ATOM     46  C   UNL A   1      37.044  30.673  28.783  1.00  0.00     0.031 C 
ATOM     47  C   UNL A   1      42.576  29.646  31.095  1.00  0.00     0.029 A 
ATOM     48  C   UNL A   1      43.286  28.963  30.023  1.00  0.00     0.049 A 
ATOM     49  H   UNL A   1      42.458  27.224  29.094  1.00  0.00     0.167 HD
ATOM     50  C   UNL A   1      37.875  32.683  30.190  1.00  0.00     0.034 A 
ATOM     51  C   UNL A   1      44.284  29.496  29.259  1.00  0.00     0.034 A 
ATOM     52  C   UNL A   1      39.168  33.096  30.735  1.00  0.00     0.049 A 
ATOM     53  C   UNL A   1      44.217  31.023  29.199  1.00  0.00     0.074 A 
ATOM     54  C   UNL A   1      39.781  32.985  31.972  1.00  0.00     0.029 A 
ATOM     55  N   UNL A   1      40.163  33.484  29.856  1.00  0.00    -0.354 N 
ATOM     56  N   UNL A   1      43.269  31.751  29.728  1.00  0.00    -0.248 NA
ATOM     57  C   UNL A   1      45.170  31.835  28.442  1.00  0.00     0.031 C 
ATOM     58  C   UNL A   1      41.163  33.302  31.813  1.00  0.00     0.029 A 
ATOM     59  C   UNL A   1      41.380  33.628  30.487  1.00  0.00     0.049 A 
ATOM     60  H   UNL A   1      40.018  33.640  28.895  1.00  0.00     0.167 HD
ATOM     61  C   UNL A   1      43.423  33.063  29.354  1.00  0.00     0.074 A 
ATOM     62  C   UNL A   1      44.632  33.062  28.547  1.00  0.00     0.031 C 
ATOM     63  C   UNL A   1      42.529  34.041  29.693  1.00  0.00     0.034 A 
BRANCH  50  64
ATOM     64  C   UNL A   1      36.554  33.242  30.650  1.00  0.00     0.023 A 
ATOM     65  C   UNL A   1      35.713  33.877  29.717  1.00  0.00     0.031 A 
ATOM     66  C   UNL A   1      36.074  33.198  31.974  1.00  0.00     0.131 A 
ATOM     67  C   UNL A   1      34.527  34.516  30.117  1.00  0.00     0.055 A 
ATOM     68  C   UNL A   1      34.926  33.888  32.386  1.00  0.00     0.041 A 
ATOM     69  F   UNL A   1      36.673  32.450  32.911  1.00  0.00    -0.206 F 
ATOM     70  C   UNL A   1      34.152  34.565  31.455  1.00  0.00     0.022 A 
BRANCH  67  71
ATOM     71  S   UNL A   1      33.474  35.270  28.849  1.00  0.00     0.124 S 
ATOM     72  O   UNL A   1      32.576  36.099  29.646  1.00  0.00    -0.237 OA
ATOM     73  O   UNL A   1      34.448  35.979  28.026  1.00  0.00    -0.237 OA
ATOM     74  O   UNL A   1      32.843  34.119  28.206  1.00  0.00    -0.744 OA
ENDBRANCH  67  71
ENDBRANCH  50  64
BRANCH  51  75
ATOM     75  C   UNL A   1      44.681  28.624  28.103  1.00  0.00     0.023 A 
ATOM     76  C   UNL A   1      45.513  27.501  28.326  1.00  0.00     0.031 A 
ATOM     77  C   UNL A   1      43.945  28.663  26.907  1.00  0.00     0.131 A 
ATOM     78  C   UNL A   1      45.499  26.421  27.421  1.00  0.00     0.055 A 
ATOM     79  C   UNL A   1      43.953  27.595  26.004  1.00  0.00     0.041 A 
ATOM     80  F   UNL A   1      43.093  29.670  26.664  1.00  0.00    -0.206 F 
ATOM     81  C   UNL A   1      44.705  26.456  26.273  1.00  0.00     0.022 A 
BRANCH  78  82
ATOM     82  S   UNL A   1      46.484  24.925  27.748  1.00  0.00     0.124 S 
ATOM     83  O   UNL A   1      45.504  24.011  28.323  1.00  0.00    -0.237 OA
ATOM     84  O   UNL A   1      46.967  24.579  26.416  1.00  0.00    -0.237 OA
ATOM     85  O   UNL A   1      47.510  25.399  28.674  1.00  0.00    -0.744 OA
ENDBRANCH  78  82
ENDBRANCH  51  75
BRANCH  63  86
ATOM     86  C   UNL A   1      42.650  35.489  29.277  1.00  0.00     0.023 A 
ATOM     87  C   UNL A   1      43.359  36.430  30.037  1.00  0.00     0.031 A 
ATOM     88  C   UNL A   1      41.981  35.995  28.135  1.00  0.00     0.131 A 
ATOM     89  C   UNL A   1      43.448  37.772  29.620  1.00  0.00     0.055 A 
ATOM     90  C   UNL A   1      41.997  37.344  27.775  1.00  0.00     0.041 A 
ATOM     91  F   UNL A   1      41.314  35.197  27.289  1.00  0.00    -0.206 F 
ATOM     92  C   UNL A   1      42.749  38.242  28.511  1.00  0.00     0.022 A 
BRANCH  89  93
ATOM     93  S   UNL A   1      44.571  38.878  30.511  1.00  0.00     0.124 S 
ATOM     94  O   UNL A   1      43.654  39.682  31.312  1.00  0.00    -0.237 OA
ATOM     95  O   UNL A   1      45.395  37.926  31.252  1.00  0.00    -0.237 OA
ATOM     96  O   UNL A   1      45.264  39.598  29.445  1.00  0.00    -0.744 OA
ENDBRANCH  89  93
ENDBRANCH  63  86
ENDBRANCH  37  38
ENDBRANCH  29  32
ENDBRANCH  27  28
ENDBRANCH  26  27
ENDBRANCH   1  26
TORSDOF 18
ENDMDL
