MODEL 1
REMARK VINA RESULT:     -11.4      0.000      0.000
REMARK SMILES CCCC[C@@H](C(=O)NCCCCNC(=O)c1ccc(-c2c3nc(c(-c4cc(S(=O)(=O)[O-])ccc4F)c4ccc([nH]4)c(-c4cc(S(=O)(=O)[O-])ccc4F)c4nc(c(-c5cc(S(=O)(=O)[O-])ccc5F)c5ccc2[nH]5)C=C4)C=C3)cc1)[C@]1(O)COc2cc(O)ccc21
REMARK SMILES IDX 10 1 9 2 8 3 6 4 7 5 5 7 4 8 3 9 2 10 1 11 79 12 81 13 89 14
REMARK SMILES IDX 82 15 83 16 88 17 84 18 87 19 85 20 80 21 86 23 11 25 12 26
REMARK SMILES IDX 13 27 14 28 15 30 16 31 17 32 78 33 18 34 77 35 19 36 20 37
REMARK SMILES IDX 21 38 71 39 22 40 76 41 70 42 72 43 23 44 75 45 69 46 68 47
REMARK SMILES IDX 24 49 56 50 36 51 55 52 37 53 40 54 54 55 73 56 38 57 39 58
REMARK SMILES IDX 53 60 74 61 41 62 25 63 26 64 34 65 27 66 33 67 35 68 32 69
REMARK SMILES IDX 28 70 29 71 30 72 31 73 57 74 58 75 66 76 59 77 65 78 67 79
REMARK SMILES IDX 64 80 60 81 61 82 62 83 63 84 42 85 43 86 51 87 44 88 50 89
REMARK SMILES IDX 52 90 49 91 45 92 46 93 47 94 48 95
REMARK H PARENT 8 6 80 22 86 24 13 29 72 48 40 59
REMARK Flexibility Score: inf
ROOT
ATOM      1  C   UNL A   1      33.829  22.623  24.770  1.00  0.00     0.023 C 
ENDROOT
BRANCH   1   2
ATOM      2  C   UNL A   1      33.345  23.540  25.899  1.00  0.00     0.116 C 
BRANCH   2   3
ATOM      3  N   UNL A   1      31.918  23.757  25.765  1.00  0.00    -0.356 N 
ATOM      4  C   UNL A   1      31.283  24.966  25.861  1.00  0.00     0.226 C 
ATOM      5  O   UNL A   1      30.243  25.022  26.512  1.00  0.00    -0.275 OA
ATOM      6  H   UNL A   1      31.358  22.966  25.589  1.00  0.00     0.163 HD
BRANCH   4   7
ATOM      7  C   UNL A   1      31.863  26.173  25.124  1.00  0.00     0.118 C 
BRANCH   7   8
ATOM      8  C   UNL A   1      31.613  27.499  25.894  1.00  0.00     0.017 C 
BRANCH   8   9
ATOM      9  C   UNL A   1      32.704  28.571  25.893  1.00  0.00     0.001 C 
BRANCH   9  10
ATOM     10  C   UNL A   1      32.259  29.983  25.516  1.00  0.00    -0.003 C 
ATOM     11  C   UNL A   1      31.771  30.769  26.723  1.00  0.00     0.004 C 
ENDBRANCH   9  10
ENDBRANCH   8   9
ENDBRANCH   7   8
BRANCH   7  12
ATOM     12  C   UNL A   1      31.273  26.259  23.672  1.00  0.00     0.139 C 
ATOM     13  C   UNL A   1      32.090  27.095  22.648  1.00  0.00     0.270 C 
ATOM     14  C   UNL A   1      29.961  26.969  23.495  1.00  0.00     0.030 A 
ATOM     15  O   UNL A   1      31.487  28.396  22.484  1.00  0.00    -0.490 OA
ATOM     16  C   UNL A   1      30.186  28.185  22.852  1.00  0.00     0.129 A 
ATOM     17  C   UNL A   1      28.675  26.616  23.875  1.00  0.00     0.014 A 
ATOM     18  C   UNL A   1      29.185  29.104  22.622  1.00  0.00     0.093 A 
ATOM     19  C   UNL A   1      27.632  27.518  23.614  1.00  0.00     0.047 A 
ATOM     20  C   UNL A   1      27.898  28.755  23.009  1.00  0.00     0.119 A 
BRANCH  12  21
ATOM     21  O   UNL A   1      31.176  24.904  23.187  1.00  0.00    -0.381 OA
ATOM     22  H   UNL A   1      30.297  24.761  22.801  1.00  0.00     0.212 HD
ENDBRANCH  12  21
BRANCH  20  23
ATOM     23  O   UNL A   1      26.904  29.659  22.774  1.00  0.00    -0.508 OA
ATOM     24  H   UNL A   1      26.764  29.987  21.907  1.00  0.00     0.293 HD
ENDBRANCH  20  23
ENDBRANCH   7  12
ENDBRANCH   4   7
ENDBRANCH   2   3
ENDBRANCH   1   2
BRANCH   1  25
ATOM     25  C   UNL A   1      35.338  22.614  24.556  1.00  0.00     0.023 C 
BRANCH  25  26
ATOM     26  C   UNL A   1      36.139  22.233  25.785  1.00  0.00     0.116 C 
BRANCH  26  27
ATOM     27  N   UNL A   1      37.057  21.128  25.554  1.00  0.00    -0.352 N 
ATOM     28  C   UNL A   1      38.421  21.121  25.745  1.00  0.00     0.251 C 
ATOM     29  H   UNL A   1      36.658  20.291  25.223  1.00  0.00     0.163 HD
ATOM     30  O   UNL A   1      39.096  20.159  25.417  1.00  0.00    -0.269 OA
BRANCH  28  31
ATOM     31  C   UNL A   1      39.040  22.338  26.310  1.00  0.00     0.039 A 
ATOM     32  C   UNL A   1      40.108  22.205  27.197  1.00  0.00     0.014 A 
ATOM     33  C   UNL A   1      38.634  23.596  25.857  1.00  0.00     0.014 A 
ATOM     34  C   UNL A   1      40.822  23.343  27.579  1.00  0.00     0.010 A 
ATOM     35  C   UNL A   1      39.398  24.711  26.170  1.00  0.00     0.010 A 
ATOM     36  C   UNL A   1      40.497  24.597  27.038  1.00  0.00    -0.014 A 
BRANCH  36  37
ATOM     37  C   UNL A   1      41.262  25.819  27.390  1.00  0.00     0.031 A 
ATOM     38  C   UNL A   1      40.603  26.878  28.231  1.00  0.00     0.074 A 
ATOM     39  C   UNL A   1      42.500  26.010  26.894  1.00  0.00     0.049 A 
ATOM     40  N   UNL A   1      41.027  28.074  28.542  1.00  0.00    -0.248 NA
ATOM     41  C   UNL A   1      39.265  26.558  28.754  1.00  0.00     0.031 C 
ATOM     42  C   UNL A   1      43.224  25.073  26.032  1.00  0.00     0.029 A 
ATOM     43  N   UNL A   1      43.366  27.065  27.034  1.00  0.00    -0.354 N 
ATOM     44  C   UNL A   1      39.999  28.659  29.274  1.00  0.00     0.074 A 
ATOM     45  C   UNL A   1      38.907  27.709  29.298  1.00  0.00     0.031 C 
ATOM     46  C   UNL A   1      44.432  25.585  25.742  1.00  0.00     0.029 A 
ATOM     47  C   UNL A   1      44.553  26.902  26.357  1.00  0.00     0.049 A 
ATOM     48  H   UNL A   1      43.157  27.865  27.568  1.00  0.00     0.167 HD
ATOM     49  C   UNL A   1      39.978  29.864  29.893  1.00  0.00     0.034 A 
ATOM     50  C   UNL A   1      45.613  27.727  26.244  1.00  0.00     0.034 A 
ATOM     51  C   UNL A   1      41.088  30.782  29.885  1.00  0.00     0.049 A 
ATOM     52  C   UNL A   1      45.572  29.061  26.949  1.00  0.00     0.074 A 
ATOM     53  C   UNL A   1      41.198  32.013  30.509  1.00  0.00     0.029 A 
ATOM     54  N   UNL A   1      42.289  30.566  29.221  1.00  0.00    -0.354 N 
ATOM     55  N   UNL A   1      44.603  29.587  27.664  1.00  0.00    -0.248 NA
ATOM     56  C   UNL A   1      46.769  29.904  26.843  1.00  0.00     0.031 C 
ATOM     57  C   UNL A   1      42.446  32.559  30.187  1.00  0.00     0.029 A 
ATOM     58  C   UNL A   1      43.140  31.642  29.412  1.00  0.00     0.049 A 
ATOM     59  H   UNL A   1      42.505  29.763  28.693  1.00  0.00     0.167 HD
ATOM     60  C   UNL A   1      45.091  30.807  28.121  1.00  0.00     0.074 A 
ATOM     61  C   UNL A   1      46.442  30.933  27.610  1.00  0.00     0.031 C 
ATOM     62  C   UNL A   1      44.484  31.740  28.898  1.00  0.00     0.034 A 
BRANCH  49  63
ATOM     63  C   UNL A   1      38.707  30.249  30.610  1.00  0.00     0.023 A 
ATOM     64  C   UNL A   1      37.705  31.002  29.973  1.00  0.00     0.031 A 
ATOM     65  C   UNL A   1      38.514  29.903  31.959  1.00  0.00     0.131 A 
ATOM     66  C   UNL A   1      36.600  31.459  30.707  1.00  0.00     0.055 A 
ATOM     67  C   UNL A   1      37.368  30.288  32.659  1.00  0.00     0.041 A 
ATOM     68  F   UNL A   1      39.445  29.205  32.626  1.00  0.00    -0.206 F 
ATOM     69  C   UNL A   1      36.410  31.084  32.038  1.00  0.00     0.022 A 
BRANCH  66  70
ATOM     70  S   UNL A   1      35.494  32.672  29.934  1.00  0.00     0.124 S 
ATOM     71  O   UNL A   1      35.242  32.051  28.636  1.00  0.00    -0.237 OA
ATOM     72  O   UNL A   1      34.366  32.706  30.857  1.00  0.00    -0.237 OA
ATOM     73  O   UNL A   1      36.301  33.890  29.888  1.00  0.00    -0.744 OA
ENDBRANCH  66  70
ENDBRANCH  49  63
BRANCH  50  74
ATOM     74  C   UNL A   1      46.805  27.332  25.440  1.00  0.00     0.023 A 
ATOM     75  C   UNL A   1      46.993  27.828  24.140  1.00  0.00     0.031 A 
ATOM     76  C   UNL A   1      47.745  26.412  25.937  1.00  0.00     0.131 A 
ATOM     77  C   UNL A   1      48.061  27.361  23.359  1.00  0.00     0.055 A 
ATOM     78  C   UNL A   1      48.835  25.989  25.174  1.00  0.00     0.041 A 
ATOM     79  F   UNL A   1      47.618  25.913  27.176  1.00  0.00    -0.206 F 
ATOM     80  C   UNL A   1      48.989  26.453  23.871  1.00  0.00     0.022 A 
BRANCH  77  81
ATOM     81  S   UNL A   1      48.164  27.890  21.627  1.00  0.00     0.124 S 
ATOM     82  O   UNL A   1      48.334  26.617  20.937  1.00  0.00    -0.237 OA
ATOM     83  O   UNL A   1      46.879  28.555  21.438  1.00  0.00    -0.237 OA
ATOM     84  O   UNL A   1      49.329  28.772  21.609  1.00  0.00    -0.744 OA
ENDBRANCH  77  81
ENDBRANCH  50  74
BRANCH  62  85
ATOM     85  C   UNL A   1      45.304  32.942  29.289  1.00  0.00     0.023 A 
ATOM     86  C   UNL A   1      45.308  34.118  28.519  1.00  0.00     0.031 A 
ATOM     87  C   UNL A   1      46.095  32.904  30.450  1.00  0.00     0.131 A 
ATOM     88  C   UNL A   1      46.128  35.192  28.893  1.00  0.00     0.055 A 
ATOM     89  C   UNL A   1      46.868  33.995  30.846  1.00  0.00     0.041 A 
ATOM     90  F   UNL A   1      46.124  31.805  31.220  1.00  0.00    -0.206 F 
ATOM     91  C   UNL A   1      46.897  35.144  30.060  1.00  0.00     0.022 A 
BRANCH  88  92
ATOM     92  S   UNL A   1      46.234  36.631  27.795  1.00  0.00     0.124 S 
ATOM     93  O   UNL A   1      44.845  37.074  27.737  1.00  0.00    -0.237 OA
ATOM     94  O   UNL A   1      47.153  37.507  28.515  1.00  0.00    -0.237 OA
ATOM     95  O   UNL A   1      46.759  36.074  26.549  1.00  0.00    -0.744 OA
ENDBRANCH  88  92
ENDBRANCH  62  85
ENDBRANCH  36  37
ENDBRANCH  28  31
ENDBRANCH  26  27
ENDBRANCH  25  26
ENDBRANCH   1  25
TORSDOF 20
ENDMDL
MODEL 2
REMARK VINA RESULT:     -11.2      5.201     10.321
REMARK SMILES CCCC[C@@H](C(=O)NCCCCNC(=O)c1ccc(-c2c3nc(c(-c4cc(S(=O)(=O)[O-])ccc4F)c4ccc([nH]4)c(-c4cc(S(=O)(=O)[O-])ccc4F)c4nc(c(-c5cc(S(=O)(=O)[O-])ccc5F)c5ccc2[nH]5)C=C4)C=C3)cc1)[C@]1(O)COc2cc(O)ccc21
REMARK SMILES IDX 10 1 9 2 8 3 6 4 7 5 5 7 4 8 3 9 2 10 1 11 79 12 81 13 89 14
REMARK SMILES IDX 82 15 83 16 88 17 84 18 87 19 85 20 80 21 86 23 11 25 12 26
REMARK SMILES IDX 13 27 14 28 15 30 16 31 17 32 78 33 18 34 77 35 19 36 20 37
REMARK SMILES IDX 21 38 71 39 22 40 76 41 70 42 72 43 23 44 75 45 69 46 68 47
REMARK SMILES IDX 24 49 56 50 36 51 55 52 37 53 40 54 54 55 73 56 38 57 39 58
REMARK SMILES IDX 53 60 74 61 41 62 25 63 26 64 34 65 27 66 33 67 35 68 32 69
REMARK SMILES IDX 28 70 29 71 30 72 31 73 57 74 58 75 66 76 59 77 65 78 67 79
REMARK SMILES IDX 64 80 60 81 61 82 62 83 63 84 42 85 43 86 51 87 44 88 50 89
REMARK SMILES IDX 52 90 49 91 45 92 46 93 47 94 48 95
REMARK H PARENT 8 6 80 22 86 24 13 29 72 48 40 59
REMARK Flexibility Score: inf
ROOT
ATOM      1  C   UNL A   1      32.589  28.124  24.662  1.00  0.00     0.023 C 
ENDROOT
BRANCH   1   2
ATOM      2  C   UNL A   1      31.508  27.465  23.796  1.00  0.00     0.116 C 
BRANCH   2   3
ATOM      3  N   UNL A   1      32.135  26.802  22.669  1.00  0.00    -0.356 N 
ATOM      4  C   UNL A   1      33.035  25.773  22.750  1.00  0.00     0.226 C 
ATOM      5  O   UNL A   1      34.026  25.815  22.026  1.00  0.00    -0.275 OA
ATOM      6  H   UNL A   1      31.892  27.118  21.769  1.00  0.00     0.163 HD
BRANCH   4   7
ATOM      7  C   UNL A   1      32.749  24.606  23.694  1.00  0.00     0.118 C 
BRANCH   7   8
ATOM      8  C   UNL A   1      33.413  24.807  25.084  1.00  0.00     0.017 C 
BRANCH   8   9
ATOM      9  C   UNL A   1      32.698  24.276  26.328  1.00  0.00     0.001 C 
BRANCH   9  10
ATOM     10  C   UNL A   1      31.172  24.330  26.302  1.00  0.00    -0.003 C 
ATOM     11  C   UNL A   1      30.548  22.977  26.602  1.00  0.00     0.004 C 
ENDBRANCH   9  10
ENDBRANCH   8   9
ENDBRANCH   7   8
BRANCH   7  12
ATOM     12  C   UNL A   1      33.222  23.255  23.048  1.00  0.00     0.139 C 
ATOM     13  C   UNL A   1      32.388  21.994  23.406  1.00  0.00     0.270 C 
ATOM     14  C   UNL A   1      34.564  22.720  23.459  1.00  0.00     0.030 A 
ATOM     15  O   UNL A   1      33.070  21.225  24.418  1.00  0.00    -0.490 OA
ATOM     16  C   UNL A   1      34.378  21.598  24.264  1.00  0.00     0.129 A 
ATOM     17  C   UNL A   1      35.847  23.169  23.185  1.00  0.00     0.014 A 
ATOM     18  C   UNL A   1      35.423  20.931  24.868  1.00  0.00     0.093 A 
ATOM     19  C   UNL A   1      36.930  22.481  23.756  1.00  0.00     0.047 A 
ATOM     20  C   UNL A   1      36.707  21.385  24.602  1.00  0.00     0.119 A 
BRANCH  12  21
ATOM     21  O   UNL A   1      33.177  23.446  21.619  1.00  0.00    -0.381 OA
ATOM     22  H   UNL A   1      32.252  23.488  21.327  1.00  0.00     0.212 HD
ENDBRANCH  12  21
BRANCH  20  23
ATOM     23  O   UNL A   1      37.743  20.720  25.190  1.00  0.00    -0.508 OA
ATOM     24  H   UNL A   1      38.572  21.144  25.297  1.00  0.00     0.293 HD
ENDBRANCH  20  23
ENDBRANCH   7  12
ENDBRANCH   4   7
ENDBRANCH   2   3
ENDBRANCH   1   2
BRANCH   1  25
ATOM     25  C   UNL A   1      32.369  29.606  24.940  1.00  0.00     0.023 C 
BRANCH  25  26
ATOM     26  C   UNL A   1      32.491  29.991  26.401  1.00  0.00     0.116 C 
BRANCH  26  27
ATOM     27  N   UNL A   1      32.193  31.392  26.654  1.00  0.00    -0.352 N 
ATOM     28  C   UNL A   1      32.964  32.298  27.349  1.00  0.00     0.251 C 
ATOM     29  H   UNL A   1      31.344  31.731  26.287  1.00  0.00     0.163 HD
ATOM     30  O   UNL A   1      32.554  33.424  27.579  1.00  0.00    -0.269 OA
BRANCH  28  31
ATOM     31  C   UNL A   1      34.276  31.839  27.849  1.00  0.00     0.039 A 
ATOM     32  C   UNL A   1      35.338  32.743  27.891  1.00  0.00     0.014 A 
ATOM     33  C   UNL A   1      34.403  30.555  28.386  1.00  0.00     0.014 A 
ATOM     34  C   UNL A   1      36.518  32.377  28.541  1.00  0.00     0.010 A 
ATOM     35  C   UNL A   1      35.544  30.228  29.105  1.00  0.00     0.010 A 
ATOM     36  C   UNL A   1      36.615  31.134  29.186  1.00  0.00    -0.014 A 
BRANCH  36  37
ATOM     37  C   UNL A   1      37.839  30.732  29.922  1.00  0.00     0.031 A 
ATOM     38  C   UNL A   1      38.787  29.752  29.286  1.00  0.00     0.074 A 
ATOM     39  C   UNL A   1      38.054  31.177  31.176  1.00  0.00     0.049 A 
ATOM     40  N   UNL A   1      39.835  29.161  29.794  1.00  0.00    -0.248 NA
ATOM     41  C   UNL A   1      38.484  29.356  27.901  1.00  0.00     0.031 C 
ATOM     42  C   UNL A   1      37.182  32.095  31.913  1.00  0.00     0.029 A 
ATOM     43  N   UNL A   1      39.068  30.906  32.060  1.00  0.00    -0.354 N 
ATOM     44  C   UNL A   1      40.301  28.302  28.804  1.00  0.00     0.074 A 
ATOM     45  C   UNL A   1      39.378  28.403  27.693  1.00  0.00     0.031 C 
ATOM     46  C   UNL A   1      37.712  32.329  33.124  1.00  0.00     0.029 A 
ATOM     47  C   UNL A   1      38.935  31.547  33.270  1.00  0.00     0.049 A 
ATOM     48  H   UNL A   1      39.821  30.308  31.847  1.00  0.00     0.167 HD
ATOM     49  C   UNL A   1      41.411  27.525  28.808  1.00  0.00     0.034 A 
ATOM     50  C   UNL A   1      39.711  31.500  34.371  1.00  0.00     0.034 A 
ATOM     51  C   UNL A   1      42.335  27.463  29.912  1.00  0.00     0.049 A 
ATOM     52  C   UNL A   1      40.947  30.635  34.350  1.00  0.00     0.074 A 
ATOM     53  C   UNL A   1      43.512  26.743  30.015  1.00  0.00     0.029 A 
ATOM     54  N   UNL A   1      42.188  28.157  31.107  1.00  0.00    -0.354 N 
ATOM     55  N   UNL A   1      41.391  29.852  33.393  1.00  0.00    -0.248 NA
ATOM     56  C   UNL A   1      41.791  30.656  35.552  1.00  0.00     0.031 C 
ATOM     57  C   UNL A   1      44.053  26.967  31.286  1.00  0.00     0.029 A 
ATOM     58  C   UNL A   1      43.246  27.874  31.954  1.00  0.00     0.049 A 
ATOM     59  H   UNL A   1      41.440  28.762  31.319  1.00  0.00     0.167 HD
ATOM     60  C   UNL A   1      42.585  29.317  33.867  1.00  0.00     0.074 A 
ATOM     61  C   UNL A   1      42.796  29.873  35.188  1.00  0.00     0.031 C 
ATOM     62  C   UNL A   1      43.437  28.448  33.264  1.00  0.00     0.034 A 
BRANCH  49  63
ATOM     63  C   UNL A   1      41.662  26.675  27.586  1.00  0.00     0.023 A 
ATOM     64  C   UNL A   1      41.250  25.332  27.530  1.00  0.00     0.031 A 
ATOM     65  C   UNL A   1      42.363  27.196  26.486  1.00  0.00     0.131 A 
ATOM     66  C   UNL A   1      41.618  24.532  26.438  1.00  0.00     0.055 A 
ATOM     67  C   UNL A   1      42.650  26.417  25.362  1.00  0.00     0.041 A 
ATOM     68  F   UNL A   1      42.802  28.464  26.491  1.00  0.00    -0.206 F 
ATOM     69  C   UNL A   1      42.292  25.071  25.341  1.00  0.00     0.022 A 
BRANCH  66  70
ATOM     70  S   UNL A   1      41.333  22.744  26.544  1.00  0.00     0.124 S 
ATOM     71  O   UNL A   1      39.888  22.667  26.340  1.00  0.00    -0.237 OA
ATOM     72  O   UNL A   1      42.160  22.226  25.461  1.00  0.00    -0.237 OA
ATOM     73  O   UNL A   1      41.784  22.405  27.892  1.00  0.00    -0.744 OA
ENDBRANCH  66  70
ENDBRANCH  49  63
BRANCH  50  74
ATOM     74  C   UNL A   1      39.359  32.289  35.586  1.00  0.00     0.023 A 
ATOM     75  C   UNL A   1      38.615  31.712  36.628  1.00  0.00     0.031 A 
ATOM     76  C   UNL A   1      39.713  33.645  35.701  1.00  0.00     0.131 A 
ATOM     77  C   UNL A   1      38.200  32.499  37.713  1.00  0.00     0.055 A 
ATOM     78  C   UNL A   1      39.341  34.412  36.807  1.00  0.00     0.041 A 
ATOM     79  F   UNL A   1      40.431  34.244  34.738  1.00  0.00    -0.206 F 
ATOM     80  C   UNL A   1      38.567  33.843  37.814  1.00  0.00     0.022 A 
BRANCH  77  81
ATOM     81  S   UNL A   1      37.091  31.763  38.945  1.00  0.00     0.124 S 
ATOM     82  O   UNL A   1      36.946  30.403  38.439  1.00  0.00    -0.237 OA
ATOM     83  O   UNL A   1      37.864  31.911  40.173  1.00  0.00    -0.237 OA
ATOM     84  O   UNL A   1      35.890  32.592  38.861  1.00  0.00    -0.744 OA
ENDBRANCH  77  81
ENDBRANCH  50  74
BRANCH  62  85
ATOM     85  C   UNL A   1      44.700  28.103  34.009  1.00  0.00     0.023 A 
ATOM     86  C   UNL A   1      44.770  27.000  34.877  1.00  0.00     0.031 A 
ATOM     87  C   UNL A   1      45.849  28.896  33.846  1.00  0.00     0.131 A 
ATOM     88  C   UNL A   1      45.952  26.749  35.590  1.00  0.00     0.055 A 
ATOM     89  C   UNL A   1      47.038  28.610  34.517  1.00  0.00     0.041 A 
ATOM     90  F   UNL A   1      45.834  29.959  33.026  1.00  0.00    -0.206 F 
ATOM     91  C   UNL A   1      47.091  27.539  35.405  1.00  0.00     0.022 A 
BRANCH  88  92
ATOM     92  S   UNL A   1      45.960  25.419  36.822  1.00  0.00     0.124 S 
ATOM     93  O   UNL A   1      44.598  25.476  37.341  1.00  0.00    -0.237 OA
ATOM     94  O   UNL A   1      46.286  24.247  36.014  1.00  0.00    -0.237 OA
ATOM     95  O   UNL A   1      47.000  25.830  37.763  1.00  0.00    -0.744 OA
ENDBRANCH  88  92
ENDBRANCH  62  85
ENDBRANCH  36  37
ENDBRANCH  28  31
ENDBRANCH  26  27
ENDBRANCH  25  26
ENDBRANCH   1  25
TORSDOF 20
ENDMDL
MODEL 3
REMARK VINA RESULT:     -11.1      5.130      7.954
REMARK SMILES CCCC[C@@H](C(=O)NCCCCNC(=O)c1ccc(-c2c3nc(c(-c4cc(S(=O)(=O)[O-])ccc4F)c4ccc([nH]4)c(-c4cc(S(=O)(=O)[O-])ccc4F)c4nc(c(-c5cc(S(=O)(=O)[O-])ccc5F)c5ccc2[nH]5)C=C4)C=C3)cc1)[C@]1(O)COc2cc(O)ccc21
REMARK SMILES IDX 10 1 9 2 8 3 6 4 7 5 5 7 4 8 3 9 2 10 1 11 79 12 81 13 89 14
REMARK SMILES IDX 82 15 83 16 88 17 84 18 87 19 85 20 80 21 86 23 11 25 12 26
REMARK SMILES IDX 13 27 14 28 15 30 16 31 17 32 78 33 18 34 77 35 19 36 20 37
REMARK SMILES IDX 21 38 71 39 22 40 76 41 70 42 72 43 23 44 75 45 69 46 68 47
REMARK SMILES IDX 24 49 56 50 36 51 55 52 37 53 40 54 54 55 73 56 38 57 39 58
REMARK SMILES IDX 53 60 74 61 41 62 25 63 26 64 34 65 27 66 33 67 35 68 32 69
REMARK SMILES IDX 28 70 29 71 30 72 31 73 57 74 58 75 66 76 59 77 65 78 67 79
REMARK SMILES IDX 64 80 60 81 61 82 62 83 63 84 42 85 43 86 51 87 44 88 50 89
REMARK SMILES IDX 52 90 49 91 45 92 46 93 47 94 48 95
REMARK H PARENT 8 6 80 22 86 24 13 29 72 48 40 59
REMARK Flexibility Score: inf
ROOT
ATOM      1  C   UNL A   1      33.021  29.056  24.618  1.00  0.00     0.023 C 
ENDROOT
BRANCH   1   2
ATOM      2  C   UNL A   1      31.809  28.458  23.894  1.00  0.00     0.116 C 
BRANCH   2   3
ATOM      3  N   UNL A   1      32.262  27.701  22.743  1.00  0.00    -0.356 N 
ATOM      4  C   UNL A   1      33.203  26.707  22.764  1.00  0.00     0.226 C 
ATOM      5  O   UNL A   1      34.056  26.700  21.880  1.00  0.00    -0.275 OA
ATOM      6  H   UNL A   1      31.858  27.921  21.873  1.00  0.00     0.163 HD
BRANCH   4   7
ATOM      7  C   UNL A   1      33.127  25.632  23.848  1.00  0.00     0.118 C 
BRANCH   7   8
ATOM      8  C   UNL A   1      34.447  24.819  23.954  1.00  0.00     0.017 C 
BRANCH   8   9
ATOM      9  C   UNL A   1      35.031  24.536  25.339  1.00  0.00     0.001 C 
BRANCH   9  10
ATOM     10  C   UNL A   1      35.538  23.114  25.577  1.00  0.00    -0.003 C 
ATOM     11  C   UNL A   1      34.863  22.460  26.772  1.00  0.00     0.004 C 
ENDBRANCH   9  10
ENDBRANCH   8   9
ENDBRANCH   7   8
BRANCH   7  12
ATOM     12  C   UNL A   1      31.911  24.676  23.582  1.00  0.00     0.139 C 
ATOM     13  C   UNL A   1      30.663  24.886  24.484  1.00  0.00     0.270 C 
ATOM     14  C   UNL A   1      32.102  23.213  23.859  1.00  0.00     0.030 A 
ATOM     15  O   UNL A   1      30.637  23.890  25.527  1.00  0.00    -0.490 OA
ATOM     16  C   UNL A   1      31.379  22.867  24.999  1.00  0.00     0.129 A 
ATOM     17  C   UNL A   1      32.856  22.251  23.203  1.00  0.00     0.014 A 
ATOM     18  C   UNL A   1      31.421  21.608  25.558  1.00  0.00     0.093 A 
ATOM     19  C   UNL A   1      32.881  20.950  23.729  1.00  0.00     0.047 A 
ATOM     20  C   UNL A   1      32.181  20.647  24.905  1.00  0.00     0.119 A 
BRANCH  12  21
ATOM     21  O   UNL A   1      31.524  24.877  22.207  1.00  0.00    -0.381 OA
ATOM     22  H   UNL A   1      32.319  24.963  21.657  1.00  0.00     0.212 HD
ENDBRANCH  12  21
BRANCH  20  23
ATOM     23  O   UNL A   1      32.216  19.397  25.450  1.00  0.00    -0.508 OA
ATOM     24  H   UNL A   1      32.471  18.664  24.926  1.00  0.00     0.293 HD
ENDBRANCH  20  23
ENDBRANCH   7  12
ENDBRANCH   4   7
ENDBRANCH   2   3
ENDBRANCH   1   2
BRANCH   1  25
ATOM     25  C   UNL A   1      32.680  30.049  25.723  1.00  0.00     0.023 C 
BRANCH  25  26
ATOM     26  C   UNL A   1      33.762  30.208  26.772  1.00  0.00     0.116 C 
BRANCH  26  27
ATOM     27  N   UNL A   1      33.607  31.408  27.580  1.00  0.00    -0.352 N 
ATOM     28  C   UNL A   1      34.459  31.872  28.558  1.00  0.00     0.251 C 
ATOM     29  H   UNL A   1      32.803  31.949  27.409  1.00  0.00     0.163 HD
ATOM     30  O   UNL A   1      34.166  32.842  29.238  1.00  0.00    -0.269 OA
BRANCH  28  31
ATOM     31  C   UNL A   1      35.712  31.122  28.789  1.00  0.00     0.039 A 
ATOM     32  C   UNL A   1      36.914  31.654  28.322  1.00  0.00     0.014 A 
ATOM     33  C   UNL A   1      35.692  29.965  29.571  1.00  0.00     0.014 A 
ATOM     34  C   UNL A   1      38.116  31.056  28.705  1.00  0.00     0.010 A 
ATOM     35  C   UNL A   1      36.890  29.426  30.018  1.00  0.00     0.010 A 
ATOM     36  C   UNL A   1      38.115  29.962  29.587  1.00  0.00    -0.014 A 
BRANCH  36  37
ATOM     37  C   UNL A   1      39.376  29.331  30.046  1.00  0.00     0.031 A 
ATOM     38  C   UNL A   1      40.111  29.930  31.214  1.00  0.00     0.074 A 
ATOM     39  C   UNL A   1      39.896  28.285  29.373  1.00  0.00     0.049 A 
ATOM     40  N   UNL A   1      41.288  29.632  31.695  1.00  0.00    -0.248 NA
ATOM     41  C   UNL A   1      39.443  31.046  31.904  1.00  0.00     0.031 C 
ATOM     42  C   UNL A   1      39.295  27.648  28.199  1.00  0.00     0.029 A 
ATOM     43  N   UNL A   1      41.056  27.581  29.572  1.00  0.00    -0.354 N 
ATOM     44  C   UNL A   1      41.515  30.538  32.725  1.00  0.00     0.074 A 
ATOM     45  C   UNL A   1      40.380  31.438  32.751  1.00  0.00     0.031 C 
ATOM     46  C   UNL A   1      40.079  26.632  27.800  1.00  0.00     0.029 A 
ATOM     47  C   UNL A   1      41.257  26.573  28.658  1.00  0.00     0.049 A 
ATOM     48  H   UNL A   1      41.687  27.780  30.302  1.00  0.00     0.167 HD
ATOM     49  C   UNL A   1      42.557  30.598  33.590  1.00  0.00     0.034 A 
ATOM     50  C   UNL A   1      42.282  25.706  28.527  1.00  0.00     0.034 A 
ATOM     51  C   UNL A   1      43.661  29.673  33.570  1.00  0.00     0.049 A 
ATOM     52  C   UNL A   1      43.427  25.785  29.506  1.00  0.00     0.074 A 
ATOM     53  C   UNL A   1      44.752  29.609  34.419  1.00  0.00     0.029 A 
ATOM     54  N   UNL A   1      43.811  28.640  32.653  1.00  0.00    -0.354 N 
ATOM     55  N   UNL A   1      43.611  26.630  30.495  1.00  0.00    -0.248 NA
ATOM     56  C   UNL A   1      44.494  24.787  29.359  1.00  0.00     0.031 C 
ATOM     57  C   UNL A   1      45.582  28.568  33.990  1.00  0.00     0.029 A 
ATOM     58  C   UNL A   1      44.979  27.942  32.909  1.00  0.00     0.049 A 
ATOM     59  H   UNL A   1      43.178  28.434  31.927  1.00  0.00     0.167 HD
ATOM     60  C   UNL A   1      44.798  26.240  31.109  1.00  0.00     0.074 A 
ATOM     61  C   UNL A   1      45.279  25.080  30.385  1.00  0.00     0.031 C 
ATOM     62  C   UNL A   1      45.433  26.785  32.178  1.00  0.00     0.034 A 
BRANCH  49  63
ATOM     63  C   UNL A   1      42.545  31.711  34.609  1.00  0.00     0.023 A 
ATOM     64  C   UNL A   1      41.709  31.663  35.739  1.00  0.00     0.031 A 
ATOM     65  C   UNL A   1      43.341  32.855  34.428  1.00  0.00     0.131 A 
ATOM     66  C   UNL A   1      41.621  32.772  36.593  1.00  0.00     0.055 A 
ATOM     67  C   UNL A   1      43.313  33.920  35.331  1.00  0.00     0.041 A 
ATOM     68  F   UNL A   1      44.142  32.968  33.358  1.00  0.00    -0.206 F 
ATOM     69  C   UNL A   1      42.437  33.889  36.413  1.00  0.00     0.022 A 
BRANCH  66  70
ATOM     70  S   UNL A   1      40.316  32.789  37.853  1.00  0.00     0.124 S 
ATOM     71  O   UNL A   1      41.039  32.308  39.028  1.00  0.00    -0.237 OA
ATOM     72  O   UNL A   1      39.917  34.191  37.877  1.00  0.00    -0.237 OA
ATOM     73  O   UNL A   1      39.316  31.863  37.323  1.00  0.00    -0.744 OA
ENDBRANCH  66  70
ENDBRANCH  49  63
BRANCH  50  74
ATOM     74  C   UNL A   1      42.284  24.688  27.438  1.00  0.00     0.023 A 
ATOM     75  C   UNL A   1      41.650  23.447  27.613  1.00  0.00     0.031 A 
ATOM     76  C   UNL A   1      42.965  24.915  26.230  1.00  0.00     0.131 A 
ATOM     77  C   UNL A   1      41.755  22.460  26.621  1.00  0.00     0.055 A 
ATOM     78  C   UNL A   1      43.024  23.948  25.224  1.00  0.00     0.041 A 
ATOM     79  F   UNL A   1      43.581  26.087  26.007  1.00  0.00    -0.206 F 
ATOM     80  C   UNL A   1      42.429  22.706  25.423  1.00  0.00     0.022 A 
BRANCH  77  81
ATOM     81  S   UNL A   1      41.076  20.813  26.962  1.00  0.00     0.124 S 
ATOM     82  O   UNL A   1      42.205  19.951  26.632  1.00  0.00    -0.237 OA
ATOM     83  O   UNL A   1      40.737  20.913  28.378  1.00  0.00    -0.237 OA
ATOM     84  O   UNL A   1      39.934  20.721  26.054  1.00  0.00    -0.744 OA
ENDBRANCH  77  81
ENDBRANCH  50  74
BRANCH  62  85
ATOM     85  C   UNL A   1      46.680  26.088  32.659  1.00  0.00     0.023 A 
ATOM     86  C   UNL A   1      46.632  25.064  33.618  1.00  0.00     0.031 A 
ATOM     87  C   UNL A   1      47.934  26.463  32.146  1.00  0.00     0.131 A 
ATOM     88  C   UNL A   1      47.823  24.481  34.075  1.00  0.00     0.055 A 
ATOM     89  C   UNL A   1      49.111  25.844  32.565  1.00  0.00     0.041 A 
ATOM     90  F   UNL A   1      48.033  27.435  31.226  1.00  0.00    -0.206 F 
ATOM     91  C   UNL A   1      49.062  24.855  33.544  1.00  0.00     0.022 A 
BRANCH  88  92
ATOM     92  S   UNL A   1      47.742  23.277  35.428  1.00  0.00     0.124 S 
ATOM     93  O   UNL A   1      46.382  23.466  35.922  1.00  0.00    -0.237 OA
ATOM     94  O   UNL A   1      48.001  22.016  34.740  1.00  0.00    -0.237 OA
ATOM     95  O   UNL A   1      48.799  23.713  36.339  1.00  0.00    -0.744 OA
ENDBRANCH  88  92
ENDBRANCH  62  85
ENDBRANCH  36  37
ENDBRANCH  28  31
ENDBRANCH  26  27
ENDBRANCH  25  26
ENDBRANCH   1  25
TORSDOF 20
ENDMDL
