MODEL 1
REMARK VINA RESULT:     -11.3      0.000      0.000
REMARK SMILES O=C(CNC(=O)CNC(=O)OCc1ccccc1)NCCCCNC(=O)c1ccc(-c2c3nc(c(-c4cc(S(=O)(=O)[O-])ccc4F)c4ccc([nH]4)c(-c4cc(S(=O)(=O)[O-])ccc4F)c4nc(c(-c5cc(S(=O)(=O)[O-])ccc5F)c5ccc2[nH]5)C=C4)C=C3)cc1
REMARK SMILES IDX 20 1 19 2 1 3 2 4 3 6 4 7 5 8 6 10 7 11 8 12 9 13 10 15
REMARK SMILES IDX 11 16 12 17 13 18 14 19 18 20 15 21 17 22 16 23 21 24 22 25
REMARK SMILES IDX 23 26 24 27 25 28 26 30 27 31 28 32 89 33 29 34 88 35 30 36
REMARK SMILES IDX 31 37 32 38 82 39 33 40 87 41 81 42 83 43 34 44 86 45 80 46
REMARK SMILES IDX 79 47 35 49 67 50 47 51 66 52 48 53 51 54 65 55 84 56 49 57
REMARK SMILES IDX 50 58 64 60 85 61 52 62 36 63 37 64 45 65 38 66 44 67 46 68
REMARK SMILES IDX 43 69 39 70 40 71 41 72 42 73 68 74 69 75 77 76 70 77 76 78
REMARK SMILES IDX 78 79 75 80 71 81 72 82 73 83 74 84 53 85 54 86 62 87 55 88
REMARK SMILES IDX 61 89 63 90 60 91 56 92 57 93 58 94 59 95
REMARK H PARENT 19 5 4 9 8 14 24 29 83 48 51 59
REMARK Flexibility Score: inf
ROOT
ATOM      1  C   UNL A   1      35.211  23.938  25.470  1.00  0.00     0.116 C 
ENDROOT
BRANCH   1   2
ATOM      2  N   UNL A   1      34.097  23.719  24.567  1.00  0.00    -0.355 N 
ATOM      3  O   UNL A   1      35.366  23.263  22.708  1.00  0.00    -0.273 OA
ATOM      4  C   UNL A   1      34.267  23.331  23.256  1.00  0.00     0.239 C 
ATOM      5  H   UNL A   1      33.182  23.854  24.904  1.00  0.00     0.163 HD
BRANCH   4   6
ATOM      6  C   UNL A   1      32.971  23.117  22.462  1.00  0.00     0.216 C 
BRANCH   6   7
ATOM      7  N   UNL A   1      32.904  23.876  21.221  1.00  0.00    -0.346 N 
ATOM      8  C   UNL A   1      32.690  25.207  21.013  1.00  0.00     0.239 C 
ATOM      9  H   UNL A   1      33.031  23.344  20.402  1.00  0.00     0.164 HD
ATOM     10  O   UNL A   1      32.883  25.647  19.879  1.00  0.00    -0.273 OA
BRANCH   8  11
ATOM     11  C   UNL A   1      32.277  26.126  22.161  1.00  0.00     0.219 C 
BRANCH  11  12
ATOM     12  N   UNL A   1      31.408  27.179  21.670  1.00  0.00    -0.312 N 
ATOM     13  C   UNL A   1      30.724  28.083  22.421  1.00  0.00     0.407 C 
ATOM     14  H   UNL A   1      31.304  27.247  20.693  1.00  0.00     0.167 HD
ATOM     15  O   UNL A   1      29.874  28.806  21.922  1.00  0.00    -0.225 OA
BRANCH  13  16
ATOM     16  O   UNL A   1      31.054  28.040  23.733  1.00  0.00    -0.445 OA
BRANCH  16  17
ATOM     17  C   UNL A   1      31.046  29.309  24.402  1.00  0.00     0.270 C 
BRANCH  17  18
ATOM     18  C   UNL A   1      32.143  29.434  25.429  1.00  0.00    -0.011 A 
ATOM     19  C   UNL A   1      33.182  28.495  25.494  1.00  0.00     0.007 A 
ATOM     20  C   UNL A   1      32.141  30.513  26.325  1.00  0.00     0.007 A 
ATOM     21  C   UNL A   1      34.214  28.651  26.421  1.00  0.00     0.000 A 
ATOM     22  C   UNL A   1      33.173  30.664  27.251  1.00  0.00     0.000 A 
ATOM     23  C   UNL A   1      34.211  29.736  27.296  1.00  0.00     0.000 A 
ENDBRANCH  17  18
ENDBRANCH  16  17
ENDBRANCH  13  16
ENDBRANCH  11  12
ENDBRANCH   8  11
ENDBRANCH   6   7
ENDBRANCH   4   6
ENDBRANCH   1   2
BRANCH   1  24
ATOM     24  C   UNL A   1      35.455  22.778  26.434  1.00  0.00     0.023 C 
BRANCH  24  25
ATOM     25  C   UNL A   1      35.896  21.465  25.783  1.00  0.00     0.023 C 
BRANCH  25  26
ATOM     26  C   UNL A   1      37.232  21.492  25.051  1.00  0.00     0.116 C 
BRANCH  26  27
ATOM     27  N   UNL A   1      38.149  20.452  25.481  1.00  0.00    -0.352 N 
ATOM     28  C   UNL A   1      39.376  20.570  26.096  1.00  0.00     0.251 C 
ATOM     29  H   UNL A   1      37.852  19.530  25.308  1.00  0.00     0.163 HD
ATOM     30  O   UNL A   1      40.065  19.568  26.262  1.00  0.00    -0.269 OA
BRANCH  28  31
ATOM     31  C   UNL A   1      39.881  21.900  26.519  1.00  0.00     0.039 A 
ATOM     32  C   UNL A   1      40.946  21.958  27.421  1.00  0.00     0.014 A 
ATOM     33  C   UNL A   1      39.319  23.083  26.033  1.00  0.00     0.014 A 
ATOM     34  C   UNL A   1      41.495  23.195  27.773  1.00  0.00     0.010 A 
ATOM     35  C   UNL A   1      39.919  24.309  26.319  1.00  0.00     0.010 A 
ATOM     36  C   UNL A   1      41.018  24.382  27.190  1.00  0.00    -0.014 A 
BRANCH  36  37
ATOM     37  C   UNL A   1      41.660  25.696  27.476  1.00  0.00     0.031 A 
ATOM     38  C   UNL A   1      40.916  26.752  28.250  1.00  0.00     0.074 A 
ATOM     39  C   UNL A   1      42.891  25.959  26.994  1.00  0.00     0.049 A 
ATOM     40  N   UNL A   1      41.278  27.979  28.535  1.00  0.00    -0.248 NA
ATOM     41  C   UNL A   1      39.580  26.390  28.746  1.00  0.00     0.031 C 
ATOM     42  C   UNL A   1      43.703  25.033  26.201  1.00  0.00     0.029 A 
ATOM     43  N   UNL A   1      43.676  27.082  27.092  1.00  0.00    -0.354 N 
ATOM     44  C   UNL A   1      40.215  28.535  29.239  1.00  0.00     0.074 A 
ATOM     45  C   UNL A   1      39.169  27.534  29.274  1.00  0.00     0.031 C 
ATOM     46  C   UNL A   1      44.877  25.614  25.910  1.00  0.00     0.029 A 
ATOM     47  C   UNL A   1      44.885  26.973  26.441  1.00  0.00     0.049 A 
ATOM     48  H   UNL A   1      43.401  27.891  27.581  1.00  0.00     0.167 HD
ATOM     49  C   UNL A   1      40.127  29.757  29.822  1.00  0.00     0.034 A 
ATOM     50  C   UNL A   1      45.879  27.869  26.273  1.00  0.00     0.034 A 
ATOM     51  C   UNL A   1      41.177  30.746  29.777  1.00  0.00     0.049 A 
ATOM     52  C   UNL A   1      45.738  29.240  26.885  1.00  0.00     0.074 A 
ATOM     53  C   UNL A   1      41.205  31.999  30.367  1.00  0.00     0.029 A 
ATOM     54  N   UNL A   1      42.380  30.604  29.097  1.00  0.00    -0.354 N 
ATOM     55  N   UNL A   1      44.742  29.734  27.585  1.00  0.00    -0.248 NA
ATOM     56  C   UNL A   1      46.857  30.172  26.695  1.00  0.00     0.031 C 
ATOM     57  C   UNL A   1      42.383  32.643  29.977  1.00  0.00     0.029 A 
ATOM     58  C   UNL A   1      43.138  31.760  29.222  1.00  0.00     0.049 A 
ATOM     59  H   UNL A   1      42.655  29.801  28.598  1.00  0.00     0.167 HD
ATOM     60  C   UNL A   1      45.133  31.022  27.945  1.00  0.00     0.074 A 
ATOM     61  C   UNL A   1      46.460  31.220  27.401  1.00  0.00     0.031 C 
ATOM     62  C   UNL A   1      44.458  31.954  28.667  1.00  0.00     0.034 A 
BRANCH  49  63
ATOM     63  C   UNL A   1      38.838  30.097  30.536  1.00  0.00     0.023 A 
ATOM     64  C   UNL A   1      37.902  30.989  29.985  1.00  0.00     0.031 A 
ATOM     65  C   UNL A   1      38.548  29.537  31.793  1.00  0.00     0.131 A 
ATOM     66  C   UNL A   1      36.764  31.355  30.718  1.00  0.00     0.055 A 
ATOM     67  C   UNL A   1      37.368  29.835  32.478  1.00  0.00     0.041 A 
ATOM     68  F   UNL A   1      39.411  28.695  32.383  1.00  0.00    -0.206 F 
ATOM     69  C   UNL A   1      36.475  30.762  31.950  1.00  0.00     0.022 A 
BRANCH  66  70
ATOM     70  S   UNL A   1      35.749  32.731  30.113  1.00  0.00     0.124 S 
ATOM     71  O   UNL A   1      34.402  32.264  30.427  1.00  0.00    -0.237 OA
ATOM     72  O   UNL A   1      36.237  33.855  30.904  1.00  0.00    -0.237 OA
ATOM     73  O   UNL A   1      36.064  32.788  28.687  1.00  0.00    -0.744 OA
ENDBRANCH  66  70
ENDBRANCH  49  63
BRANCH  50  74
ATOM     74  C   UNL A   1      47.089  27.517  25.470  1.00  0.00     0.023 A 
ATOM     75  C   UNL A   1      47.200  27.886  24.121  1.00  0.00     0.031 A 
ATOM     76  C   UNL A   1      48.132  26.758  26.031  1.00  0.00     0.131 A 
ATOM     77  C   UNL A   1      48.300  27.452  23.363  1.00  0.00     0.055 A 
ATOM     78  C   UNL A   1      49.256  26.384  25.292  1.00  0.00     0.041 A 
ATOM     79  F   UNL A   1      48.078  26.373  27.317  1.00  0.00    -0.206 F 
ATOM     80  C   UNL A   1      49.337  26.718  23.944  1.00  0.00     0.022 A 
BRANCH  77  81
ATOM     81  S   UNL A   1      48.305  27.768  21.576  1.00  0.00     0.124 S 
ATOM     82  O   UNL A   1      46.932  28.203  21.350  1.00  0.00    -0.237 OA
ATOM     83  O   UNL A   1      49.333  28.796  21.453  1.00  0.00    -0.237 OA
ATOM     84  O   UNL A   1      48.653  26.469  21.003  1.00  0.00    -0.744 OA
ENDBRANCH  77  81
ENDBRANCH  50  74
BRANCH  62  85
ATOM     85  C   UNL A   1      45.169  33.257  28.953  1.00  0.00     0.023 A 
ATOM     86  C   UNL A   1      45.014  34.386  28.130  1.00  0.00     0.031 A 
ATOM     87  C   UNL A   1      46.023  33.364  30.065  1.00  0.00     0.131 A 
ATOM     88  C   UNL A   1      45.748  35.552  28.397  1.00  0.00     0.055 A 
ATOM     89  C   UNL A   1      46.695  34.550  30.366  1.00  0.00     0.041 A 
ATOM     90  F   UNL A   1      46.216  32.317  30.883  1.00  0.00    -0.206 F 
ATOM     91  C   UNL A   1      46.571  35.648  29.522  1.00  0.00     0.022 A 
BRANCH  88  92
ATOM     92  S   UNL A   1      45.694  36.910  27.195  1.00  0.00     0.124 S 
ATOM     93  O   UNL A   1      46.558  36.407  26.131  1.00  0.00    -0.237 OA
ATOM     94  O   UNL A   1      44.272  36.991  26.877  1.00  0.00    -0.237 OA
ATOM     95  O   UNL A   1      46.228  38.049  27.941  1.00  0.00    -0.744 OA
ENDBRANCH  88  92
ENDBRANCH  62  85
ENDBRANCH  36  37
ENDBRANCH  28  31
ENDBRANCH  26  27
ENDBRANCH  25  26
ENDBRANCH  24  25
ENDBRANCH   1  24
TORSDOF 20
ENDMDL
MODEL 2
REMARK VINA RESULT:     -11.2      5.876     11.297
REMARK SMILES O=C(CNC(=O)CNC(=O)OCc1ccccc1)NCCCCNC(=O)c1ccc(-c2c3nc(c(-c4cc(S(=O)(=O)[O-])ccc4F)c4ccc([nH]4)c(-c4cc(S(=O)(=O)[O-])ccc4F)c4nc(c(-c5cc(S(=O)(=O)[O-])ccc5F)c5ccc2[nH]5)C=C4)C=C3)cc1
REMARK SMILES IDX 20 1 19 2 1 3 2 4 3 6 4 7 5 8 6 10 7 11 8 12 9 13 10 15
REMARK SMILES IDX 11 16 12 17 13 18 14 19 18 20 15 21 17 22 16 23 21 24 22 25
REMARK SMILES IDX 23 26 24 27 25 28 26 30 27 31 28 32 89 33 29 34 88 35 30 36
REMARK SMILES IDX 31 37 32 38 82 39 33 40 87 41 81 42 83 43 34 44 86 45 80 46
REMARK SMILES IDX 79 47 35 49 67 50 47 51 66 52 48 53 51 54 65 55 84 56 49 57
REMARK SMILES IDX 50 58 64 60 85 61 52 62 36 63 37 64 45 65 38 66 44 67 46 68
REMARK SMILES IDX 43 69 39 70 40 71 41 72 42 73 68 74 69 75 77 76 70 77 76 78
REMARK SMILES IDX 78 79 75 80 71 81 72 82 73 83 74 84 53 85 54 86 62 87 55 88
REMARK SMILES IDX 61 89 63 90 60 91 56 92 57 93 58 94 59 95
REMARK H PARENT 19 5 4 9 8 14 24 29 83 48 51 59
REMARK Flexibility Score: inf
ROOT
ATOM      1  C   UNL A   1      31.997  29.073  26.641  1.00  0.00     0.116 C 
ENDROOT
BRANCH   1   2
ATOM      2  N   UNL A   1      31.037  28.088  26.180  1.00  0.00    -0.355 N 
ATOM      3  O   UNL A   1      32.511  26.331  26.074  1.00  0.00    -0.273 OA
ATOM      4  C   UNL A   1      31.363  26.763  25.993  1.00  0.00     0.239 C 
ATOM      5  H   UNL A   1      30.115  28.379  25.994  1.00  0.00     0.163 HD
BRANCH   4   6
ATOM      6  C   UNL A   1      30.208  25.863  25.532  1.00  0.00     0.216 C 
BRANCH   6   7
ATOM      7  N   UNL A   1      29.827  24.843  26.500  1.00  0.00    -0.346 N 
ATOM      8  C   UNL A   1      30.244  23.551  26.628  1.00  0.00     0.239 C 
ATOM      9  H   UNL A   1      29.163  25.132  27.166  1.00  0.00     0.164 HD
ATOM     10  O   UNL A   1      29.929  22.948  27.654  1.00  0.00    -0.273 OA
BRANCH   8  11
ATOM     11  C   UNL A   1      31.114  22.895  25.556  1.00  0.00     0.219 C 
BRANCH  11  12
ATOM     12  N   UNL A   1      32.517  23.142  25.833  1.00  0.00    -0.312 N 
ATOM     13  C   UNL A   1      33.532  22.241  25.743  1.00  0.00     0.407 C 
ATOM     14  H   UNL A   1      32.759  24.054  26.114  1.00  0.00     0.167 HD
ATOM     15  O   UNL A   1      34.645  22.497  26.179  1.00  0.00    -0.225 OA
BRANCH  13  16
ATOM     16  O   UNL A   1      33.152  21.068  25.185  1.00  0.00    -0.445 OA
BRANCH  16  17
ATOM     17  C   UNL A   1      34.226  20.252  24.696  1.00  0.00     0.270 C 
BRANCH  17  18
ATOM     18  C   UNL A   1      33.918  18.779  24.767  1.00  0.00    -0.011 A 
ATOM     19  C   UNL A   1      34.846  17.824  24.327  1.00  0.00     0.007 A 
ATOM     20  C   UNL A   1      32.694  18.346  25.296  1.00  0.00     0.007 A 
ATOM     21  C   UNL A   1      34.563  16.463  24.443  1.00  0.00     0.000 A 
ATOM     22  C   UNL A   1      32.413  16.984  25.407  1.00  0.00     0.000 A 
ATOM     23  C   UNL A   1      33.350  16.043  24.985  1.00  0.00     0.000 A 
ENDBRANCH  17  18
ENDBRANCH  16  17
ENDBRANCH  13  16
ENDBRANCH  11  12
ENDBRANCH   8  11
ENDBRANCH   6   7
ENDBRANCH   4   6
ENDBRANCH   1   2
BRANCH   1  24
ATOM     24  C   UNL A   1      31.940  30.391  25.869  1.00  0.00     0.023 C 
BRANCH  24  25
ATOM     25  C   UNL A   1      31.629  31.631  26.710  1.00  0.00     0.023 C 
BRANCH  25  26
ATOM     26  C   UNL A   1      32.824  32.341  27.333  1.00  0.00     0.116 C 
BRANCH  26  27
ATOM     27  N   UNL A   1      32.584  33.746  27.607  1.00  0.00    -0.352 N 
ATOM     28  C   UNL A   1      33.202  34.576  28.516  1.00  0.00     0.251 C 
ATOM     29  H   UNL A   1      31.878  34.166  27.067  1.00  0.00     0.163 HD
ATOM     30  O   UNL A   1      32.764  35.709  28.693  1.00  0.00    -0.269 OA
BRANCH  28  31
ATOM     31  C   UNL A   1      34.363  34.096  29.306  1.00  0.00     0.039 A 
ATOM     32  C   UNL A   1      34.130  33.276  30.412  1.00  0.00     0.014 A 
ATOM     33  C   UNL A   1      35.673  34.441  28.963  1.00  0.00     0.014 A 
ATOM     34  C   UNL A   1      35.209  32.742  31.125  1.00  0.00     0.010 A 
ATOM     35  C   UNL A   1      36.748  33.843  29.622  1.00  0.00     0.010 A 
ATOM     36  C   UNL A   1      36.530  32.982  30.710  1.00  0.00    -0.014 A 
BRANCH  36  37
ATOM     37  C   UNL A   1      37.685  32.338  31.395  1.00  0.00     0.031 A 
ATOM     38  C   UNL A   1      38.423  31.202  30.737  1.00  0.00     0.074 A 
ATOM     39  C   UNL A   1      38.038  32.740  32.633  1.00  0.00     0.049 A 
ATOM     40  N   UNL A   1      39.403  30.469  31.204  1.00  0.00    -0.248 NA
ATOM     41  C   UNL A   1      37.982  30.823  29.386  1.00  0.00     0.031 C 
ATOM     42  C   UNL A   1      37.383  33.806  33.393  1.00  0.00     0.029 A 
ATOM     43  N   UNL A   1      39.030  32.297  33.475  1.00  0.00    -0.354 N 
ATOM     44  C   UNL A   1      39.693  29.542  30.209  1.00  0.00     0.074 A 
ATOM     45  C   UNL A   1      38.737  29.762  29.144  1.00  0.00     0.031 C 
ATOM     46  C   UNL A   1      38.005  33.953  34.573  1.00  0.00     0.029 A 
ATOM     47  C   UNL A   1      39.066  32.957  34.684  1.00  0.00     0.049 A 
ATOM     48  H   UNL A   1      39.656  31.576  33.238  1.00  0.00     0.167 HD
ATOM     49  C   UNL A   1      40.680  28.611  30.175  1.00  0.00     0.034 A 
ATOM     50  C   UNL A   1      39.849  32.770  35.766  1.00  0.00     0.034 A 
ATOM     51  C   UNL A   1      41.625  28.402  31.245  1.00  0.00     0.049 A 
ATOM     52  C   UNL A   1      40.905  31.693  35.727  1.00  0.00     0.074 A 
ATOM     53  C   UNL A   1      42.686  27.514  31.295  1.00  0.00     0.029 A 
ATOM     54  N   UNL A   1      41.621  29.079  32.459  1.00  0.00    -0.354 N 
ATOM     55  N   UNL A   1      41.193  30.853  34.759  1.00  0.00    -0.248 NA
ATOM     56  C   UNL A   1      41.747  31.544  36.921  1.00  0.00     0.031 C 
ATOM     57  C   UNL A   1      43.268  27.595  32.564  1.00  0.00     0.029 A 
ATOM     58  C   UNL A   1      42.635  28.601  33.276  1.00  0.00     0.049 A 
ATOM     59  H   UNL A   1      40.989  29.794  32.704  1.00  0.00     0.167 HD
ATOM     60  C   UNL A   1      42.273  30.101  35.217  1.00  0.00     0.074 A 
ATOM     61  C   UNL A   1      42.593  30.599  36.539  1.00  0.00     0.031 C 
ATOM     62  C   UNL A   1      42.943  29.096  34.598  1.00  0.00     0.034 A 
BRANCH  49  63
ATOM     63  C   UNL A   1      40.766  27.732  28.947  1.00  0.00     0.023 A 
ATOM     64  C   UNL A   1      41.721  27.961  27.941  1.00  0.00     0.031 A 
ATOM     65  C   UNL A   1      39.872  26.661  28.770  1.00  0.00     0.131 A 
ATOM     66  C   UNL A   1      41.709  27.186  26.772  1.00  0.00     0.055 A 
ATOM     67  C   UNL A   1      39.925  25.835  27.646  1.00  0.00     0.041 A 
ATOM     68  F   UNL A   1      38.923  26.404  29.685  1.00  0.00    -0.206 F 
ATOM     69  C   UNL A   1      40.836  26.105  26.629  1.00  0.00     0.022 A 
BRANCH  66  70
ATOM     70  S   UNL A   1      42.744  27.708  25.377  1.00  0.00     0.124 S 
ATOM     71  O   UNL A   1      42.917  26.452  24.652  1.00  0.00    -0.237 OA
ATOM     72  O   UNL A   1      41.912  28.713  24.726  1.00  0.00    -0.237 OA
ATOM     73  O   UNL A   1      43.953  28.219  26.020  1.00  0.00    -0.744 OA
ENDBRANCH  66  70
ENDBRANCH  49  63
BRANCH  50  74
ATOM     74  C   UNL A   1      39.654  33.598  36.994  1.00  0.00     0.023 A 
ATOM     75  C   UNL A   1      40.431  34.743  37.231  1.00  0.00     0.031 A 
ATOM     76  C   UNL A   1      38.720  33.225  37.977  1.00  0.00     0.131 A 
ATOM     77  C   UNL A   1      40.299  35.443  38.442  1.00  0.00     0.055 A 
ATOM     78  C   UNL A   1      38.545  33.961  39.151  1.00  0.00     0.041 A 
ATOM     79  F   UNL A   1      37.951  32.136  37.806  1.00  0.00    -0.206 F 
ATOM     80  C   UNL A   1      39.349  35.069  39.395  1.00  0.00     0.022 A 
BRANCH  77  81
ATOM     81  S   UNL A   1      41.463  36.787  38.802  1.00  0.00     0.124 S 
ATOM     82  O   UNL A   1      42.186  36.896  37.540  1.00  0.00    -0.237 OA
ATOM     83  O   UNL A   1      40.563  37.889  39.123  1.00  0.00    -0.237 OA
ATOM     84  O   UNL A   1      42.241  36.271  39.926  1.00  0.00    -0.744 OA
ENDBRANCH  77  81
ENDBRANCH  50  74
BRANCH  62  85
ATOM     85  C   UNL A   1      44.125  28.500  35.327  1.00  0.00     0.023 A 
ATOM     86  C   UNL A   1      43.970  27.521  36.324  1.00  0.00     0.031 A 
ATOM     87  C   UNL A   1      45.430  28.927  35.021  1.00  0.00     0.131 A 
ATOM     88  C   UNL A   1      45.092  27.048  37.021  1.00  0.00     0.055 A 
ATOM     89  C   UNL A   1      46.548  28.400  35.668  1.00  0.00     0.041 A 
ATOM     90  F   UNL A   1      45.640  29.863  34.082  1.00  0.00    -0.206 F 
ATOM     91  C   UNL A   1      46.383  27.465  36.684  1.00  0.00     0.022 A 
BRANCH  88  92
ATOM     92  S   UNL A   1      44.836  25.956  38.447  1.00  0.00     0.124 S 
ATOM     93  O   UNL A   1      43.548  26.417  38.954  1.00  0.00    -0.237 OA
ATOM     94  O   UNL A   1      44.843  24.632  37.832  1.00  0.00    -0.237 OA
ATOM     95  O   UNL A   1      45.982  26.243  39.309  1.00  0.00    -0.744 OA
ENDBRANCH  88  92
ENDBRANCH  62  85
ENDBRANCH  36  37
ENDBRANCH  28  31
ENDBRANCH  26  27
ENDBRANCH  25  26
ENDBRANCH  24  25
ENDBRANCH   1  24
TORSDOF 20
ENDMDL
MODEL 3
REMARK VINA RESULT:     -11.0      5.833     11.119
REMARK SMILES O=C(CNC(=O)CNC(=O)OCc1ccccc1)NCCCCNC(=O)c1ccc(-c2c3nc(c(-c4cc(S(=O)(=O)[O-])ccc4F)c4ccc([nH]4)c(-c4cc(S(=O)(=O)[O-])ccc4F)c4nc(c(-c5cc(S(=O)(=O)[O-])ccc5F)c5ccc2[nH]5)C=C4)C=C3)cc1
REMARK SMILES IDX 20 1 19 2 1 3 2 4 3 6 4 7 5 8 6 10 7 11 8 12 9 13 10 15
REMARK SMILES IDX 11 16 12 17 13 18 14 19 18 20 15 21 17 22 16 23 21 24 22 25
REMARK SMILES IDX 23 26 24 27 25 28 26 30 27 31 28 32 89 33 29 34 88 35 30 36
REMARK SMILES IDX 31 37 32 38 82 39 33 40 87 41 81 42 83 43 34 44 86 45 80 46
REMARK SMILES IDX 79 47 35 49 67 50 47 51 66 52 48 53 51 54 65 55 84 56 49 57
REMARK SMILES IDX 50 58 64 60 85 61 52 62 36 63 37 64 45 65 38 66 44 67 46 68
REMARK SMILES IDX 43 69 39 70 40 71 41 72 42 73 68 74 69 75 77 76 70 77 76 78
REMARK SMILES IDX 78 79 75 80 71 81 72 82 73 83 74 84 53 85 54 86 62 87 55 88
REMARK SMILES IDX 61 89 63 90 60 91 56 92 57 93 58 94 59 95
REMARK H PARENT 19 5 4 9 8 14 24 29 83 48 51 59
REMARK Flexibility Score: inf
ROOT
ATOM      1  C   UNL A   1      32.231  28.871  26.797  1.00  0.00     0.116 C 
ENDROOT
BRANCH   1   2
ATOM      2  N   UNL A   1      31.308  27.924  26.200  1.00  0.00    -0.355 N 
ATOM      3  O   UNL A   1      32.374  26.031  26.944  1.00  0.00    -0.273 OA
ATOM      4  C   UNL A   1      31.420  26.562  26.378  1.00  0.00     0.239 C 
ATOM      5  H   UNL A   1      30.572  28.269  25.644  1.00  0.00     0.163 HD
BRANCH   4   6
ATOM      6  C   UNL A   1      30.335  25.721  25.695  1.00  0.00     0.216 C 
BRANCH   6   7
ATOM      7  N   UNL A   1      29.702  24.744  26.570  1.00  0.00    -0.346 N 
ATOM      8  C   UNL A   1      30.044  23.452  26.841  1.00  0.00     0.239 C 
ATOM      9  H   UNL A   1      28.900  25.067  27.040  1.00  0.00     0.164 HD
ATOM     10  O   UNL A   1      29.471  22.892  27.776  1.00  0.00    -0.273 OA
BRANCH   8  11
ATOM     11  C   UNL A   1      31.139  22.744  26.043  1.00  0.00     0.219 C 
BRANCH  11  12
ATOM     12  N   UNL A   1      32.232  22.368  26.920  1.00  0.00    -0.312 N 
ATOM     13  C   UNL A   1      33.393  21.762  26.554  1.00  0.00     0.407 C 
ATOM     14  H   UNL A   1      32.122  22.573  27.876  1.00  0.00     0.167 HD
ATOM     15  O   UNL A   1      34.166  21.317  27.391  1.00  0.00    -0.225 OA
BRANCH  13  16
ATOM     16  O   UNL A   1      33.546  21.674  25.212  1.00  0.00    -0.445 OA
BRANCH  16  17
ATOM     17  C   UNL A   1      34.619  22.456  24.671  1.00  0.00     0.270 C 
BRANCH  17  18
ATOM     18  C   UNL A   1      34.135  23.623  23.849  1.00  0.00    -0.011 A 
ATOM     19  C   UNL A   1      33.511  23.426  22.610  1.00  0.00     0.007 A 
ATOM     20  C   UNL A   1      34.290  24.930  24.334  1.00  0.00     0.007 A 
ATOM     21  C   UNL A   1      33.027  24.515  21.884  1.00  0.00     0.000 A 
ATOM     22  C   UNL A   1      33.808  26.016  23.604  1.00  0.00     0.000 A 
ATOM     23  C   UNL A   1      33.173  25.808  22.382  1.00  0.00     0.000 A 
ENDBRANCH  17  18
ENDBRANCH  16  17
ENDBRANCH  13  16
ENDBRANCH  11  12
ENDBRANCH   8  11
ENDBRANCH   6   7
ENDBRANCH   4   6
ENDBRANCH   1   2
BRANCH   1  24
ATOM     24  C   UNL A   1      32.124  30.280  26.215  1.00  0.00     0.023 C 
BRANCH  24  25
ATOM     25  C   UNL A   1      32.077  31.413  27.242  1.00  0.00     0.023 C 
BRANCH  25  26
ATOM     26  C   UNL A   1      33.142  32.494  27.102  1.00  0.00     0.116 C 
BRANCH  26  27
ATOM     27  N   UNL A   1      32.706  33.799  27.568  1.00  0.00    -0.352 N 
ATOM     28  C   UNL A   1      33.168  34.546  28.628  1.00  0.00     0.251 C 
ATOM     29  H   UNL A   1      31.975  34.208  27.052  1.00  0.00     0.163 HD
ATOM     30  O   UNL A   1      32.576  35.573  28.945  1.00  0.00    -0.269 OA
BRANCH  28  31
ATOM     31  C   UNL A   1      34.346  34.095  29.410  1.00  0.00     0.039 A 
ATOM     32  C   UNL A   1      34.138  33.308  30.545  1.00  0.00     0.014 A 
ATOM     33  C   UNL A   1      35.648  34.435  29.032  1.00  0.00     0.014 A 
ATOM     34  C   UNL A   1      35.233  32.801  31.253  1.00  0.00     0.010 A 
ATOM     35  C   UNL A   1      36.737  33.862  29.688  1.00  0.00     0.010 A 
ATOM     36  C   UNL A   1      36.544  33.034  30.805  1.00  0.00    -0.014 A 
BRANCH  36  37
ATOM     37  C   UNL A   1      37.716  32.416  31.488  1.00  0.00     0.031 A 
ATOM     38  C   UNL A   1      38.448  31.265  30.850  1.00  0.00     0.074 A 
ATOM     39  C   UNL A   1      38.090  32.856  32.707  1.00  0.00     0.049 A 
ATOM     40  N   UNL A   1      39.440  30.551  31.320  1.00  0.00    -0.248 NA
ATOM     41  C   UNL A   1      37.984  30.844  29.520  1.00  0.00     0.031 C 
ATOM     42  C   UNL A   1      37.443  33.941  33.447  1.00  0.00     0.029 A 
ATOM     43  N   UNL A   1      39.099  32.444  33.543  1.00  0.00    -0.354 N 
ATOM     44  C   UNL A   1      39.717  29.597  30.348  1.00  0.00     0.074 A 
ATOM     45  C   UNL A   1      38.740  29.780  29.295  1.00  0.00     0.031 C 
ATOM     46  C   UNL A   1      38.086  34.126  34.610  1.00  0.00     0.029 A 
ATOM     47  C   UNL A   1      39.154  33.139  34.731  1.00  0.00     0.049 A 
ATOM     48  H   UNL A   1      39.725  31.719  33.315  1.00  0.00     0.167 HD
ATOM     49  C   UNL A   1      40.708  28.670  30.323  1.00  0.00     0.034 A 
ATOM     50  C   UNL A   1      39.958  32.988  35.803  1.00  0.00     0.034 A 
ATOM     51  C   UNL A   1      41.673  28.497  31.381  1.00  0.00     0.049 A 
ATOM     52  C   UNL A   1      41.019  31.916  35.776  1.00  0.00     0.074 A 
ATOM     53  C   UNL A   1      42.740  27.616  31.438  1.00  0.00     0.029 A 
ATOM     54  N   UNL A   1      41.688  29.210  32.574  1.00  0.00    -0.354 N 
ATOM     55  N   UNL A   1      41.293  31.050  34.828  1.00  0.00    -0.248 NA
ATOM     56  C   UNL A   1      41.884  31.807  36.958  1.00  0.00     0.031 C 
ATOM     57  C   UNL A   1      43.345  27.737  32.692  1.00  0.00     0.029 A 
ATOM     58  C   UNL A   1      42.720  28.761  33.385  1.00  0.00     0.049 A 
ATOM     59  H   UNL A   1      41.057  29.928  32.809  1.00  0.00     0.167 HD
ATOM     60  C   UNL A   1      42.386  30.317  35.288  1.00  0.00     0.074 A 
ATOM     61  C   UNL A   1      42.727  30.855  36.588  1.00  0.00     0.031 C 
ATOM     62  C   UNL A   1      43.049  29.296  34.687  1.00  0.00     0.034 A 
BRANCH  49  63
ATOM     63  C   UNL A   1      40.776  27.755  29.120  1.00  0.00     0.023 A 
ATOM     64  C   UNL A   1      41.720  27.950  28.097  1.00  0.00     0.031 A 
ATOM     65  C   UNL A   1      39.875  26.684  28.985  1.00  0.00     0.131 A 
ATOM     66  C   UNL A   1      41.692  27.141  26.952  1.00  0.00     0.055 A 
ATOM     67  C   UNL A   1      39.911  25.825  27.884  1.00  0.00     0.041 A 
ATOM     68  F   UNL A   1      38.935  26.458  29.917  1.00  0.00    -0.206 F 
ATOM     69  C   UNL A   1      40.812  26.061  26.850  1.00  0.00     0.022 A 
BRANCH  66  70
ATOM     70  S   UNL A   1      42.714  27.617  25.531  1.00  0.00     0.124 S 
ATOM     71  O   UNL A   1      42.639  26.419  24.700  1.00  0.00    -0.237 OA
ATOM     72  O   UNL A   1      42.017  28.793  25.022  1.00  0.00    -0.237 OA
ATOM     73  O   UNL A   1      44.025  27.875  26.122  1.00  0.00    -0.744 OA
ENDBRANCH  66  70
ENDBRANCH  49  63
BRANCH  50  74
ATOM     74  C   UNL A   1      39.782  33.852  37.010  1.00  0.00     0.023 A 
ATOM     75  C   UNL A   1      39.161  33.364  38.170  1.00  0.00     0.031 A 
ATOM     76  C   UNL A   1      40.187  35.199  36.999  1.00  0.00     0.131 A 
ATOM     77  C   UNL A   1      38.915  34.228  39.251  1.00  0.00     0.055 A 
ATOM     78  C   UNL A   1      40.000  36.037  38.100  1.00  0.00     0.041 A 
ATOM     79  F   UNL A   1      40.783  35.721  35.914  1.00  0.00    -0.206 F 
ATOM     80  C   UNL A   1      39.347  35.556  39.229  1.00  0.00     0.022 A 
BRANCH  77  81
ATOM     81  S   UNL A   1      37.927  33.619  40.644  1.00  0.00     0.124 S 
ATOM     82  O   UNL A   1      37.682  34.847  41.391  1.00  0.00    -0.237 OA
ATOM     83  O   UNL A   1      36.773  33.038  39.967  1.00  0.00    -0.237 OA
ATOM     84  O   UNL A   1      38.814  32.657  41.296  1.00  0.00    -0.744 OA
ENDBRANCH  77  81
ENDBRANCH  50  74
BRANCH  62  85
ATOM     85  C   UNL A   1      44.249  28.728  35.411  1.00  0.00     0.023 A 
ATOM     86  C   UNL A   1      44.124  27.716  36.378  1.00  0.00     0.031 A 
ATOM     87  C   UNL A   1      45.537  29.217  35.131  1.00  0.00     0.131 A 
ATOM     88  C   UNL A   1      45.259  27.268  37.072  1.00  0.00     0.055 A 
ATOM     89  C   UNL A   1      46.671  28.717  35.774  1.00  0.00     0.041 A 
ATOM     90  F   UNL A   1      45.718  30.188  34.222  1.00  0.00    -0.206 F 
ATOM     91  C   UNL A   1      46.534  27.747  36.761  1.00  0.00     0.022 A 
BRANCH  88  92
ATOM     92  S   UNL A   1      45.034  26.125  38.463  1.00  0.00     0.124 S 
ATOM     93  O   UNL A   1      43.733  26.533  38.983  1.00  0.00    -0.237 OA
ATOM     94  O   UNL A   1      45.080  24.822  37.808  1.00  0.00    -0.237 OA
ATOM     95  O   UNL A   1      46.171  26.420  39.335  1.00  0.00    -0.744 OA
ENDBRANCH  88  92
ENDBRANCH  62  85
ENDBRANCH  36  37
ENDBRANCH  28  31
ENDBRANCH  26  27
ENDBRANCH  25  26
ENDBRANCH  24  25
ENDBRANCH   1  24
TORSDOF 20
ENDMDL
