MODEL 1
REMARK VINA RESULT:     -10.7      0.000      0.000
REMARK SMILES CCCOc1cc(NC[C@H]2CC[C@@H](C(=O)NCCCCNC(=O)c3ccc(-c4c5nc(c(-c6cc(S(=O)(=O)[O-])ccc6F)c6ccc([nH]6)c(-c6cc(S(=O)(=O)[O-])ccc6F)c6nc(c(-c7cc(S(=O)(=O)[O-])ccc7F)c7ccc4[nH]7)C=C6)C=C5)cc3)O2)ncn1
REMARK SMILES IDX 17 1 16 2 14 3 15 4 13 6 10 7 11 8 87 9 12 10 9 11 8 12 7 14
REMARK SMILES IDX 5 15 6 16 90 17 89 18 88 19 4 20 3 21 2 22 1 23 18 24 19 25
REMARK SMILES IDX 20 26 21 27 22 28 23 30 24 31 25 32 86 33 26 34 85 35 27 36
REMARK SMILES IDX 28 37 29 38 79 39 30 40 84 41 78 42 80 43 31 44 83 45 77 46
REMARK SMILES IDX 76 47 32 49 64 50 44 51 63 52 45 53 48 54 62 55 81 56 46 57
REMARK SMILES IDX 47 58 61 60 82 61 49 62 33 63 34 64 42 65 35 66 41 67 43 68
REMARK SMILES IDX 40 69 36 70 37 71 38 72 39 73 65 74 66 75 74 76 67 77 73 78
REMARK SMILES IDX 75 79 72 80 68 81 69 82 70 83 71 84 50 85 51 86 59 87 52 88
REMARK SMILES IDX 58 89 60 90 57 91 53 92 54 93 55 94 56 95
REMARK H PARENT 16 5 8 13 21 29 80 48 48 59
REMARK Flexibility Score: inf
ROOT
ATOM      1  C   UNL A   1      36.507  22.126  24.826  1.00  0.00     0.116 C 
ENDROOT
BRANCH   1   2
ATOM      2  N   UNL A   1      35.838  22.557  23.612  1.00  0.00    -0.354 N 
ATOM      3  C   UNL A   1      34.569  23.035  23.436  1.00  0.00     0.249 C 
ATOM      4  O   UNL A   1      34.237  23.386  22.304  1.00  0.00    -0.272 OA
ATOM      5  H   UNL A   1      36.380  22.495  22.793  1.00  0.00     0.163 HD
BRANCH   3   6
ATOM      6  C   UNL A   1      33.612  23.085  24.639  1.00  0.00     0.207 C 
ATOM      7  C   UNL A   1      31.447  23.976  24.833  1.00  0.00     0.138 C 
ATOM      8  C   UNL A   1      31.409  22.519  25.267  1.00  0.00     0.037 C 
ATOM      9  O   UNL A   1      32.846  24.298  24.733  1.00  0.00    -0.363 OA
ATOM     10  C   UNL A   1      32.610  21.942  24.565  1.00  0.00     0.045 C 
BRANCH   7  11
ATOM     11  C   UNL A   1      30.724  24.220  23.483  1.00  0.00     0.146 C 
BRANCH  11  12
ATOM     12  N   UNL A   1      31.611  24.881  22.526  1.00  0.00    -0.367 N 
ATOM     13  H   UNL A   1      32.064  24.350  21.832  1.00  0.00     0.162 HD
BRANCH  12  14
ATOM     14  C   UNL A   1      31.818  26.252  22.591  1.00  0.00     0.133 A 
ATOM     15  C   UNL A   1      30.976  28.399  22.961  1.00  0.00     0.218 A 
ATOM     16  C   UNL A   1      30.720  27.068  22.737  1.00  0.00     0.115 A 
ATOM     17  N   UNL A   1      32.188  28.962  22.900  1.00  0.00    -0.202 NA
ATOM     18  C   UNL A   1      33.174  28.099  22.631  1.00  0.00     0.228 A 
ATOM     19  N   UNL A   1      33.047  26.769  22.489  1.00  0.00    -0.219 NA
BRANCH  15  20
ATOM     20  O   UNL A   1      29.924  29.210  23.313  1.00  0.00    -0.478 OA
BRANCH  20  21
ATOM     21  C   UNL A   1      28.794  28.940  22.467  1.00  0.00     0.231 C 
BRANCH  21  22
ATOM     22  C   UNL A   1      27.580  29.781  22.890  1.00  0.00     0.038 C 
ATOM     23  C   UNL A   1      27.965  31.061  23.625  1.00  0.00     0.007 C 
ENDBRANCH  21  22
ENDBRANCH  20  21
ENDBRANCH  15  20
ENDBRANCH  12  14
ENDBRANCH  11  12
ENDBRANCH   7  11
ENDBRANCH   3   6
ENDBRANCH   1   2
BRANCH   1  24
ATOM     24  C   UNL A   1      36.479  20.609  24.998  1.00  0.00     0.023 C 
BRANCH  24  25
ATOM     25  C   UNL A   1      37.834  19.911  24.843  1.00  0.00     0.023 C 
BRANCH  25  26
ATOM     26  C   UNL A   1      38.942  20.405  25.769  1.00  0.00     0.116 C 
BRANCH  26  27
ATOM     27  N   UNL A   1      40.014  19.437  25.935  1.00  0.00    -0.352 N 
ATOM     28  C   UNL A   1      41.348  19.649  26.215  1.00  0.00     0.251 C 
ATOM     29  H   UNL A   1      39.751  18.494  25.833  1.00  0.00     0.163 HD
ATOM     30  O   UNL A   1      42.128  18.711  26.177  1.00  0.00    -0.269 OA
BRANCH  28  31
ATOM     31  C   UNL A   1      41.832  21.018  26.521  1.00  0.00     0.039 A 
ATOM     32  C   UNL A   1      42.115  21.886  25.462  1.00  0.00     0.014 A 
ATOM     33  C   UNL A   1      41.999  21.448  27.840  1.00  0.00     0.014 A 
ATOM     34  C   UNL A   1      42.492  23.206  25.727  1.00  0.00     0.010 A 
ATOM     35  C   UNL A   1      42.305  22.783  28.101  1.00  0.00     0.010 A 
ATOM     36  C   UNL A   1      42.550  23.679  27.049  1.00  0.00    -0.014 A 
BRANCH  36  37
ATOM     37  C   UNL A   1      42.864  25.101  27.354  1.00  0.00     0.031 A 
ATOM     38  C   UNL A   1      44.258  25.627  27.142  1.00  0.00     0.074 A 
ATOM     39  C   UNL A   1      41.920  25.898  27.892  1.00  0.00     0.049 A 
ATOM     40  N   UNL A   1      44.760  26.795  27.450  1.00  0.00    -0.248 NA
ATOM     41  C   UNL A   1      45.221  24.701  26.528  1.00  0.00     0.031 C 
ATOM     42  C   UNL A   1      40.539  25.500  28.176  1.00  0.00     0.029 A 
ATOM     43  N   UNL A   1      41.977  27.205  28.311  1.00  0.00    -0.354 N 
ATOM     44  C   UNL A   1      46.102  26.740  27.085  1.00  0.00     0.074 A 
ATOM     45  C   UNL A   1      46.344  25.401  26.589  1.00  0.00     0.031 C 
ATOM     46  C   UNL A   1      39.879  26.543  28.704  1.00  0.00     0.029 A 
ATOM     47  C   UNL A   1      40.797  27.669  28.846  1.00  0.00     0.049 A 
ATOM     48  H   UNL A   1      42.789  27.757  28.237  1.00  0.00     0.167 HD
ATOM     49  C   UNL A   1      47.039  27.720  27.138  1.00  0.00     0.034 A 
ATOM     50  C   UNL A   1      40.493  28.858  29.403  1.00  0.00     0.034 A 
ATOM     51  C   UNL A   1      46.780  29.053  27.626  1.00  0.00     0.049 A 
ATOM     52  C   UNL A   1      41.559  29.922  29.485  1.00  0.00     0.074 A 
ATOM     53  C   UNL A   1      47.641  30.135  27.677  1.00  0.00     0.029 A 
ATOM     54  N   UNL A   1      45.570  29.486  28.158  1.00  0.00    -0.354 N 
ATOM     55  N   UNL A   1      42.812  29.867  29.097  1.00  0.00    -0.248 NA
ATOM     56  C   UNL A   1      41.165  31.210  30.071  1.00  0.00     0.031 C 
ATOM     57  C   UNL A   1      46.977  31.198  28.302  1.00  0.00     0.029 A 
ATOM     58  C   UNL A   1      45.675  30.808  28.566  1.00  0.00     0.049 A 
ATOM     59  H   UNL A   1      44.759  28.935  28.234  1.00  0.00     0.167 HD
ATOM     60  C   UNL A   1      43.346  31.127  29.361  1.00  0.00     0.074 A 
ATOM     61  C   UNL A   1      42.276  31.919  29.932  1.00  0.00     0.031 C 
ATOM     62  C   UNL A   1      44.604  31.587  29.142  1.00  0.00     0.034 A 
BRANCH  49  63
ATOM     63  C   UNL A   1      48.436  27.368  26.681  1.00  0.00     0.023 A 
ATOM     64  C   UNL A   1      48.891  27.684  25.388  1.00  0.00     0.031 A 
ATOM     65  C   UNL A   1      49.314  26.677  27.534  1.00  0.00     0.131 A 
ATOM     66  C   UNL A   1      50.148  27.234  24.957  1.00  0.00     0.055 A 
ATOM     67  C   UNL A   1      50.599  26.309  27.129  1.00  0.00     0.041 A 
ATOM     68  F   UNL A   1      48.932  26.329  28.773  1.00  0.00    -0.206 F 
ATOM     69  C   UNL A   1      51.016  26.572  25.827  1.00  0.00     0.022 A 
BRANCH  66  70
ATOM     70  S   UNL A   1      50.563  27.385  23.198  1.00  0.00     0.124 S 
ATOM     71  O   UNL A   1      50.609  28.836  23.029  1.00  0.00    -0.237 OA
ATOM     72  O   UNL A   1      51.843  26.692  23.114  1.00  0.00    -0.237 OA
ATOM     73  O   UNL A   1      49.447  26.724  22.525  1.00  0.00    -0.744 OA
ENDBRANCH  66  70
ENDBRANCH  49  63
BRANCH  50  74
ATOM     74  C   UNL A   1      39.125  29.110  29.942  1.00  0.00     0.023 A 
ATOM     75  C   UNL A   1      38.174  29.822  29.195  1.00  0.00     0.031 A 
ATOM     76  C   UNL A   1      38.762  28.676  31.230  1.00  0.00     0.131 A 
ATOM     77  C   UNL A   1      36.921  30.119  29.756  1.00  0.00     0.055 A 
ATOM     78  C   UNL A   1      37.497  28.929  31.764  1.00  0.00     0.041 A 
ATOM     79  F   UNL A   1      39.632  27.988  31.985  1.00  0.00    -0.206 F 
ATOM     80  C   UNL A   1      36.572  29.665  31.030  1.00  0.00     0.022 A 
BRANCH  77  81
ATOM     81  S   UNL A   1      35.781  31.178  28.825  1.00  0.00     0.124 S 
ATOM     82  O   UNL A   1      36.703  32.022  28.077  1.00  0.00    -0.237 OA
ATOM     83  O   UNL A   1      35.029  30.199  28.045  1.00  0.00    -0.237 OA
ATOM     84  O   UNL A   1      35.018  31.856  29.870  1.00  0.00    -0.744 OA
ENDBRANCH  77  81
ENDBRANCH  50  74
BRANCH  62  85
ATOM     85  C   UNL A   1      44.874  33.036  29.471  1.00  0.00     0.023 A 
ATOM     86  C   UNL A   1      44.569  34.074  28.573  1.00  0.00     0.031 A 
ATOM     87  C   UNL A   1      45.451  33.379  30.707  1.00  0.00     0.131 A 
ATOM     88  C   UNL A   1      44.888  35.400  28.904  1.00  0.00     0.055 A 
ATOM     89  C   UNL A   1      45.711  34.706  31.055  1.00  0.00     0.041 A 
ATOM     90  F   UNL A   1      45.767  32.429  31.601  1.00  0.00    -0.206 F 
ATOM     91  C   UNL A   1      45.441  35.724  30.146  1.00  0.00     0.022 A 
BRANCH  88  92
ATOM     92  S   UNL A   1      44.648  36.694  27.655  1.00  0.00     0.124 S 
ATOM     93  O   UNL A   1      46.011  36.920  27.187  1.00  0.00    -0.237 OA
ATOM     94  O   UNL A   1      43.746  36.049  26.706  1.00  0.00    -0.237 OA
ATOM     95  O   UNL A   1      44.061  37.798  28.413  1.00  0.00    -0.744 OA
ENDBRANCH  88  92
ENDBRANCH  62  85
ENDBRANCH  36  37
ENDBRANCH  28  31
ENDBRANCH  26  27
ENDBRANCH  25  26
ENDBRANCH  24  25
ENDBRANCH   1  24
TORSDOF 20
ENDMDL
MODEL 2
REMARK VINA RESULT:     -10.6      1.941      7.833
REMARK SMILES CCCOc1cc(NC[C@H]2CC[C@@H](C(=O)NCCCCNC(=O)c3ccc(-c4c5nc(c(-c6cc(S(=O)(=O)[O-])ccc6F)c6ccc([nH]6)c(-c6cc(S(=O)(=O)[O-])ccc6F)c6nc(c(-c7cc(S(=O)(=O)[O-])ccc7F)c7ccc4[nH]7)C=C6)C=C5)cc3)O2)ncn1
REMARK SMILES IDX 17 1 16 2 14 3 15 4 13 6 10 7 11 8 87 9 12 10 9 11 8 12 7 14
REMARK SMILES IDX 5 15 6 16 90 17 89 18 88 19 4 20 3 21 2 22 1 23 18 24 19 25
REMARK SMILES IDX 20 26 21 27 22 28 23 30 24 31 25 32 86 33 26 34 85 35 27 36
REMARK SMILES IDX 28 37 29 38 79 39 30 40 84 41 78 42 80 43 31 44 83 45 77 46
REMARK SMILES IDX 76 47 32 49 64 50 44 51 63 52 45 53 48 54 62 55 81 56 46 57
REMARK SMILES IDX 47 58 61 60 82 61 49 62 33 63 34 64 42 65 35 66 41 67 43 68
REMARK SMILES IDX 40 69 36 70 37 71 38 72 39 73 65 74 66 75 74 76 67 77 73 78
REMARK SMILES IDX 75 79 72 80 68 81 69 82 70 83 71 84 50 85 51 86 59 87 52 88
REMARK SMILES IDX 58 89 60 90 57 91 53 92 54 93 55 94 56 95
REMARK H PARENT 16 5 8 13 21 29 80 48 48 59
REMARK Flexibility Score: inf
ROOT
ATOM      1  C   UNL A   1      37.154  22.471  24.629  1.00  0.00     0.116 C 
ENDROOT
BRANCH   1   2
ATOM      2  N   UNL A   1      36.314  22.916  23.532  1.00  0.00    -0.354 N 
ATOM      3  C   UNL A   1      34.951  23.009  23.456  1.00  0.00     0.249 C 
ATOM      4  O   UNL A   1      34.461  23.467  22.425  1.00  0.00    -0.272 OA
ATOM      5  H   UNL A   1      36.799  23.193  22.721  1.00  0.00     0.163 HD
BRANCH   3   6
ATOM      6  C   UNL A   1      34.099  22.516  24.638  1.00  0.00     0.207 C 
ATOM      7  C   UNL A   1      31.953  23.158  25.346  1.00  0.00     0.138 C 
ATOM      8  C   UNL A   1      31.960  21.652  25.133  1.00  0.00     0.037 C 
ATOM      9  O   UNL A   1      33.337  23.548  25.287  1.00  0.00    -0.363 OA
ATOM     10  C   UNL A   1      33.100  21.468  24.167  1.00  0.00     0.045 C 
BRANCH   7  11
ATOM     11  C   UNL A   1      31.118  23.913  24.280  1.00  0.00     0.146 C 
BRANCH  11  12
ATOM     12  N   UNL A   1      31.911  24.962  23.640  1.00  0.00    -0.367 N 
ATOM     13  H   UNL A   1      32.652  24.717  23.040  1.00  0.00     0.162 HD
BRANCH  12  14
ATOM     14  C   UNL A   1      31.625  26.300  23.874  1.00  0.00     0.133 A 
ATOM     15  C   UNL A   1      31.492  28.100  25.356  1.00  0.00     0.218 A 
ATOM     16  C   UNL A   1      31.616  26.744  25.175  1.00  0.00     0.115 A 
ATOM     17  N   UNL A   1      31.237  28.977  24.379  1.00  0.00    -0.202 NA
ATOM     18  C   UNL A   1      31.145  28.426  23.164  1.00  0.00     0.228 A 
ATOM     19  N   UNL A   1      31.341  27.131  22.864  1.00  0.00    -0.219 NA
BRANCH  15  20
ATOM     20  O   UNL A   1      31.682  28.605  26.620  1.00  0.00    -0.478 OA
BRANCH  20  21
ATOM     21  C   UNL A   1      32.861  28.027  27.205  1.00  0.00     0.231 C 
BRANCH  21  22
ATOM     22  C   UNL A   1      34.078  28.941  27.001  1.00  0.00     0.038 C 
ATOM     23  C   UNL A   1      33.737  30.424  27.103  1.00  0.00     0.007 C 
ENDBRANCH  21  22
ENDBRANCH  20  21
ENDBRANCH  15  20
ENDBRANCH  12  14
ENDBRANCH  11  12
ENDBRANCH   7  11
ENDBRANCH   3   6
ENDBRANCH   1   2
BRANCH   1  24
ATOM     24  C   UNL A   1      36.856  21.030  25.040  1.00  0.00     0.023 C 
BRANCH  24  25
ATOM     25  C   UNL A   1      38.035  20.061  24.921  1.00  0.00     0.023 C 
BRANCH  25  26
ATOM     26  C   UNL A   1      39.271  20.419  25.740  1.00  0.00     0.116 C 
BRANCH  26  27
ATOM     27  N   UNL A   1      40.212  19.317  25.858  1.00  0.00    -0.352 N 
ATOM     28  C   UNL A   1      41.568  19.348  26.107  1.00  0.00     0.251 C 
ATOM     29  H   UNL A   1      39.826  18.419  25.743  1.00  0.00     0.163 HD
ATOM     30  O   UNL A   1      42.218  18.318  26.029  1.00  0.00    -0.269 OA
BRANCH  28  31
ATOM     31  C   UNL A   1      42.233  20.634  26.431  1.00  0.00     0.039 A 
ATOM     32  C   UNL A   1      42.717  21.425  25.383  1.00  0.00     0.014 A 
ATOM     33  C   UNL A   1      42.375  21.064  27.752  1.00  0.00     0.014 A 
ATOM     34  C   UNL A   1      43.271  22.679  25.658  1.00  0.00     0.010 A 
ATOM     35  C   UNL A   1      42.862  22.343  28.018  1.00  0.00     0.010 A 
ATOM     36  C   UNL A   1      43.311  23.167  26.974  1.00  0.00    -0.014 A 
BRANCH  36  37
ATOM     37  C   UNL A   1      43.817  24.532  27.283  1.00  0.00     0.031 A 
ATOM     38  C   UNL A   1      42.873  25.587  27.797  1.00  0.00     0.074 A 
ATOM     39  C   UNL A   1      45.102  24.847  27.029  1.00  0.00     0.049 A 
ATOM     40  N   UNL A   1      43.090  26.858  28.018  1.00  0.00    -0.248 NA
ATOM     41  C   UNL A   1      41.495  25.155  28.071  1.00  0.00     0.031 C 
ATOM     42  C   UNL A   1      46.109  23.925  26.500  1.00  0.00     0.029 A 
ATOM     43  N   UNL A   1      45.782  26.033  27.167  1.00  0.00    -0.354 N 
ATOM     44  C   UNL A   1      41.872  27.383  28.439  1.00  0.00     0.074 A 
ATOM     45  C   UNL A   1      40.910  26.302  28.383  1.00  0.00     0.031 C 
ATOM     46  C   UNL A   1      47.279  24.573  26.376  1.00  0.00     0.029 A 
ATOM     47  C   UNL A   1      47.097  25.968  26.765  1.00  0.00     0.049 A 
ATOM     48  H   UNL A   1      45.366  26.852  27.519  1.00  0.00     0.167 HD
ATOM     49  C   UNL A   1      41.587  28.643  28.854  1.00  0.00     0.034 A 
ATOM     50  C   UNL A   1      48.044  26.925  26.701  1.00  0.00     0.034 A 
ATOM     51  C   UNL A   1      42.559  29.708  28.913  1.00  0.00     0.049 A 
ATOM     52  C   UNL A   1      47.696  28.328  27.133  1.00  0.00     0.074 A 
ATOM     53  C   UNL A   1      42.390  31.006  29.363  1.00  0.00     0.029 A 
ATOM     54  N   UNL A   1      43.882  29.603  28.499  1.00  0.00    -0.354 N 
ATOM     55  N   UNL A   1      46.551  28.799  27.567  1.00  0.00    -0.248 NA
ATOM     56  C   UNL A   1      48.773  29.325  27.074  1.00  0.00     0.031 C 
ATOM     57  C   UNL A   1      43.586  31.703  29.159  1.00  0.00     0.029 A 
ATOM     58  C   UNL A   1      44.529  30.821  28.657  1.00  0.00     0.049 A 
ATOM     59  H   UNL A   1      44.299  28.785  28.146  1.00  0.00     0.167 HD
ATOM     60  C   UNL A   1      46.780  30.140  27.867  1.00  0.00     0.074 A 
ATOM     61  C   UNL A   1      48.175  30.398  27.571  1.00  0.00     0.031 C 
ATOM     62  C   UNL A   1      45.918  31.070  28.352  1.00  0.00     0.034 A 
BRANCH  49  63
ATOM     63  C   UNL A   1      40.157  28.937  29.246  1.00  0.00     0.023 A 
ATOM     64  C   UNL A   1      39.755  28.979  30.594  1.00  0.00     0.031 A 
ATOM     65  C   UNL A   1      39.174  29.142  28.262  1.00  0.00     0.131 A 
ATOM     66  C   UNL A   1      38.398  29.131  30.916  1.00  0.00     0.055 A 
ATOM     67  C   UNL A   1      37.838  29.382  28.593  1.00  0.00     0.041 A 
ATOM     68  F   UNL A   1      39.490  29.094  26.959  1.00  0.00    -0.206 F 
ATOM     69  C   UNL A   1      37.440  29.360  29.927  1.00  0.00     0.022 A 
BRANCH  66  70
ATOM     70  S   UNL A   1      37.885  28.865  32.635  1.00  0.00     0.124 S 
ATOM     71  O   UNL A   1      36.586  29.535  32.663  1.00  0.00    -0.237 OA
ATOM     72  O   UNL A   1      37.855  27.410  32.734  1.00  0.00    -0.237 OA
ATOM     73  O   UNL A   1      38.933  29.523  33.412  1.00  0.00    -0.744 OA
ENDBRANCH  66  70
ENDBRANCH  49  63
BRANCH  50  74
ATOM     74  C   UNL A   1      49.410  26.602  26.196  1.00  0.00     0.023 A 
ATOM     75  C   UNL A   1      49.842  27.056  24.941  1.00  0.00     0.031 A 
ATOM     76  C   UNL A   1      50.290  25.802  26.949  1.00  0.00     0.131 A 
ATOM     77  C   UNL A   1      51.101  26.671  24.452  1.00  0.00     0.055 A 
ATOM     78  C   UNL A   1      51.561  25.465  26.481  1.00  0.00     0.041 A 
ATOM     79  F   UNL A   1      49.928  25.347  28.158  1.00  0.00    -0.206 F 
ATOM     80  C   UNL A   1      51.969  25.890  25.220  1.00  0.00     0.022 A 
BRANCH  77  81
ATOM     81  S   UNL A   1      51.558  27.140  22.761  1.00  0.00     0.124 S 
ATOM     82  O   UNL A   1      52.695  26.265  22.507  1.00  0.00    -0.237 OA
ATOM     83  O   UNL A   1      50.336  26.836  22.024  1.00  0.00    -0.237 OA
ATOM     84  O   UNL A   1      51.876  28.561  22.877  1.00  0.00    -0.744 OA
ENDBRANCH  77  81
ENDBRANCH  50  74
BRANCH  62  85
ATOM     85  C   UNL A   1      46.478  32.441  28.645  1.00  0.00     0.023 A 
ATOM     86  C   UNL A   1      46.606  33.423  27.648  1.00  0.00     0.031 A 
ATOM     87  C   UNL A   1      46.892  32.766  29.950  1.00  0.00     0.131 A 
ATOM     88  C   UNL A   1      47.181  34.665  27.961  1.00  0.00     0.055 A 
ATOM     89  C   UNL A   1      47.408  34.023  30.268  1.00  0.00     0.041 A 
ATOM     90  F   UNL A   1      46.796  31.865  30.941  1.00  0.00    -0.206 F 
ATOM     91  C   UNL A   1      47.566  34.978  29.267  1.00  0.00     0.022 A 
BRANCH  88  92
ATOM     92  S   UNL A   1      47.498  35.843  26.618  1.00  0.00     0.124 S 
ATOM     93  O   UNL A   1      46.569  36.923  26.936  1.00  0.00    -0.237 OA
ATOM     94  O   UNL A   1      48.914  36.147  26.795  1.00  0.00    -0.237 OA
ATOM     95  O   UNL A   1      47.175  35.084  25.410  1.00  0.00    -0.744 OA
ENDBRANCH  88  92
ENDBRANCH  62  85
ENDBRANCH  36  37
ENDBRANCH  28  31
ENDBRANCH  26  27
ENDBRANCH  25  26
ENDBRANCH  24  25
ENDBRANCH   1  24
TORSDOF 20
ENDMDL
MODEL 3
REMARK VINA RESULT:     -10.4      4.736      9.866
REMARK SMILES CCCOc1cc(NC[C@H]2CC[C@@H](C(=O)NCCCCNC(=O)c3ccc(-c4c5nc(c(-c6cc(S(=O)(=O)[O-])ccc6F)c6ccc([nH]6)c(-c6cc(S(=O)(=O)[O-])ccc6F)c6nc(c(-c7cc(S(=O)(=O)[O-])ccc7F)c7ccc4[nH]7)C=C6)C=C5)cc3)O2)ncn1
REMARK SMILES IDX 17 1 16 2 14 3 15 4 13 6 10 7 11 8 87 9 12 10 9 11 8 12 7 14
REMARK SMILES IDX 5 15 6 16 90 17 89 18 88 19 4 20 3 21 2 22 1 23 18 24 19 25
REMARK SMILES IDX 20 26 21 27 22 28 23 30 24 31 25 32 86 33 26 34 85 35 27 36
REMARK SMILES IDX 28 37 29 38 79 39 30 40 84 41 78 42 80 43 31 44 83 45 77 46
REMARK SMILES IDX 76 47 32 49 64 50 44 51 63 52 45 53 48 54 62 55 81 56 46 57
REMARK SMILES IDX 47 58 61 60 82 61 49 62 33 63 34 64 42 65 35 66 41 67 43 68
REMARK SMILES IDX 40 69 36 70 37 71 38 72 39 73 65 74 66 75 74 76 67 77 73 78
REMARK SMILES IDX 75 79 72 80 68 81 69 82 70 83 71 84 50 85 51 86 59 87 52 88
REMARK SMILES IDX 58 89 60 90 57 91 53 92 54 93 55 94 56 95
REMARK H PARENT 16 5 8 13 21 29 80 48 48 59
REMARK Flexibility Score: inf
ROOT
ATOM      1  C   UNL A   1      31.064  27.471  26.532  1.00  0.00     0.116 C 
ENDROOT
BRANCH   1   2
ATOM      2  N   UNL A   1      31.495  26.175  27.026  1.00  0.00    -0.354 N 
ATOM      3  C   UNL A   1      31.544  24.968  26.385  1.00  0.00     0.249 C 
ATOM      4  O   UNL A   1      31.999  24.005  27.002  1.00  0.00    -0.272 OA
ATOM      5  H   UNL A   1      31.798  26.165  27.963  1.00  0.00     0.163 HD
BRANCH   3   6
ATOM      6  C   UNL A   1      31.009  24.860  24.946  1.00  0.00     0.207 C 
ATOM      7  C   UNL A   1      32.147  24.558  22.912  1.00  0.00     0.138 C 
ATOM      8  C   UNL A   1      31.099  23.463  23.047  1.00  0.00     0.037 C 
ATOM      9  O   UNL A   1      31.839  25.496  23.959  1.00  0.00    -0.363 OA
ATOM     10  C   UNL A   1      30.888  23.399  24.537  1.00  0.00     0.045 C 
BRANCH   7  11
ATOM     11  C   UNL A   1      33.595  24.025  23.054  1.00  0.00     0.146 C 
BRANCH  11  12
ATOM     12  N   UNL A   1      33.850  23.553  24.415  1.00  0.00    -0.367 N 
ATOM     13  H   UNL A   1      33.567  24.100  25.183  1.00  0.00     0.162 HD
BRANCH  12  14
ATOM     14  C   UNL A   1      34.487  22.338  24.629  1.00  0.00     0.133 A 
ATOM     15  C   UNL A   1      34.368  20.019  24.874  1.00  0.00     0.218 A 
ATOM     16  C   UNL A   1      33.708  21.222  24.829  1.00  0.00     0.115 A 
ATOM     17  N   UNL A   1      35.698  19.880  24.885  1.00  0.00    -0.202 NA
ATOM     18  C   UNL A   1      36.366  21.037  24.808  1.00  0.00     0.228 A 
ATOM     19  N   UNL A   1      35.822  22.257  24.666  1.00  0.00    -0.219 NA
BRANCH  15  20
ATOM     20  O   UNL A   1      33.617  18.868  24.868  1.00  0.00    -0.478 OA
BRANCH  20  21
ATOM     21  C   UNL A   1      32.683  18.901  23.776  1.00  0.00     0.231 C 
BRANCH  21  22
ATOM     22  C   UNL A   1      32.895  17.703  22.837  1.00  0.00     0.038 C 
ATOM     23  C   UNL A   1      33.953  16.727  23.341  1.00  0.00     0.007 C 
ENDBRANCH  21  22
ENDBRANCH  20  21
ENDBRANCH  15  20
ENDBRANCH  12  14
ENDBRANCH  11  12
ENDBRANCH   7  11
ENDBRANCH   3   6
ENDBRANCH   1   2
BRANCH   1  24
ATOM     24  C   UNL A   1      31.677  28.625  27.323  1.00  0.00     0.023 C 
BRANCH  24  25
ATOM     25  C   UNL A   1      33.207  28.683  27.312  1.00  0.00     0.023 C 
BRANCH  25  26
ATOM     26  C   UNL A   1      33.818  29.896  26.616  1.00  0.00     0.116 C 
BRANCH  26  27
ATOM     27  N   UNL A   1      33.707  31.115  27.401  1.00  0.00    -0.352 N 
ATOM     28  C   UNL A   1      34.502  31.565  28.435  1.00  0.00     0.251 C 
ATOM     29  H   UNL A   1      32.957  31.705  27.160  1.00  0.00     0.163 HD
ATOM     30  O   UNL A   1      34.164  32.552  29.068  1.00  0.00    -0.269 OA
BRANCH  28  31
ATOM     31  C   UNL A   1      35.738  30.828  28.794  1.00  0.00     0.039 A 
ATOM     32  C   UNL A   1      36.931  31.155  28.143  1.00  0.00     0.014 A 
ATOM     33  C   UNL A   1      35.727  29.828  29.769  1.00  0.00     0.014 A 
ATOM     34  C   UNL A   1      38.124  30.532  28.523  1.00  0.00     0.010 A 
ATOM     35  C   UNL A   1      36.927  29.261  30.197  1.00  0.00     0.010 A 
ATOM     36  C   UNL A   1      38.140  29.610  29.582  1.00  0.00    -0.014 A 
BRANCH  36  37
ATOM     37  C   UNL A   1      39.408  28.998  30.064  1.00  0.00     0.031 A 
ATOM     38  C   UNL A   1      40.125  29.586  31.251  1.00  0.00     0.074 A 
ATOM     39  C   UNL A   1      39.956  27.968  29.391  1.00  0.00     0.049 A 
ATOM     40  N   UNL A   1      41.291  29.273  31.754  1.00  0.00    -0.248 NA
ATOM     41  C   UNL A   1      39.448  30.692  31.942  1.00  0.00     0.031 C 
ATOM     42  C   UNL A   1      39.377  27.328  28.207  1.00  0.00     0.029 A 
ATOM     43  N   UNL A   1      41.129  27.282  29.594  1.00  0.00    -0.354 N 
ATOM     44  C   UNL A   1      41.498  30.155  32.810  1.00  0.00     0.074 A 
ATOM     45  C   UNL A   1      40.361  31.052  32.832  1.00  0.00     0.031 C 
ATOM     46  C   UNL A   1      40.186  26.336  27.802  1.00  0.00     0.029 A 
ATOM     47  C   UNL A   1      41.366  26.299  28.661  1.00  0.00     0.049 A 
ATOM     48  H   UNL A   1      41.744  27.478  30.337  1.00  0.00     0.167 HD
ATOM     49  C   UNL A   1      42.528  30.199  33.692  1.00  0.00     0.034 A 
ATOM     50  C   UNL A   1      42.419  25.472  28.504  1.00  0.00     0.034 A 
ATOM     51  C   UNL A   1      43.650  29.292  33.662  1.00  0.00     0.049 A 
ATOM     52  C   UNL A   1      43.570  25.562  29.474  1.00  0.00     0.074 A 
ATOM     53  C   UNL A   1      44.721  29.217  34.536  1.00  0.00     0.029 A 
ATOM     54  N   UNL A   1      43.853  28.307  32.703  1.00  0.00    -0.354 N 
ATOM     55  N   UNL A   1      43.731  26.374  30.493  1.00  0.00    -0.248 NA
ATOM     56  C   UNL A   1      44.677  24.616  29.278  1.00  0.00     0.031 C 
ATOM     57  C   UNL A   1      45.604  28.237  34.067  1.00  0.00     0.029 A 
ATOM     58  C   UNL A   1      45.046  27.642  32.947  1.00  0.00     0.049 A 
ATOM     59  H   UNL A   1      43.241  28.110  31.958  1.00  0.00     0.167 HD
ATOM     60  C   UNL A   1      44.942  26.012  31.079  1.00  0.00     0.074 A 
ATOM     61  C   UNL A   1      45.463  24.905  30.305  1.00  0.00     0.031 C 
ATOM     62  C   UNL A   1      45.561  26.543  32.165  1.00  0.00     0.034 A 
BRANCH  49  63
ATOM     63  C   UNL A   1      42.495  31.286  34.742  1.00  0.00     0.023 A 
ATOM     64  C   UNL A   1      43.050  32.557  34.507  1.00  0.00     0.031 A 
ATOM     65  C   UNL A   1      41.934  31.041  36.008  1.00  0.00     0.131 A 
ATOM     66  C   UNL A   1      43.112  33.499  35.545  1.00  0.00     0.055 A 
ATOM     67  C   UNL A   1      41.919  32.014  37.009  1.00  0.00     0.041 A 
ATOM     68  F   UNL A   1      41.406  29.842  36.300  1.00  0.00    -0.206 F 
ATOM     69  C   UNL A   1      42.527  33.246  36.786  1.00  0.00     0.022 A 
BRANCH  66  70
ATOM     70  S   UNL A   1      44.110  34.993  35.297  1.00  0.00     0.124 S 
ATOM     71  O   UNL A   1      45.439  34.427  35.074  1.00  0.00    -0.237 OA
ATOM     72  O   UNL A   1      43.476  35.608  34.136  1.00  0.00    -0.237 OA
ATOM     73  O   UNL A   1      43.955  35.721  36.554  1.00  0.00    -0.744 OA
ENDBRANCH  66  70
ENDBRANCH  49  63
BRANCH  50  74
ATOM     74  C   UNL A   1      42.449  24.493  27.378  1.00  0.00     0.023 A 
ATOM     75  C   UNL A   1      41.675  23.323  27.418  1.00  0.00     0.031 A 
ATOM     76  C   UNL A   1      43.282  24.696  26.263  1.00  0.00     0.131 A 
ATOM     77  C   UNL A   1      41.782  22.377  26.386  1.00  0.00     0.055 A 
ATOM     78  C   UNL A   1      43.346  23.778  25.214  1.00  0.00     0.041 A 
ATOM     79  F   UNL A   1      44.039  25.801  26.173  1.00  0.00    -0.206 F 
ATOM     80  C   UNL A   1      42.602  22.603  25.278  1.00  0.00     0.022 A 
BRANCH  77  81
ATOM     81  S   UNL A   1      40.893  20.805  26.551  1.00  0.00     0.124 S 
ATOM     82  O   UNL A   1      41.719  19.911  25.751  1.00  0.00    -0.237 OA
ATOM     83  O   UNL A   1      40.925  20.591  27.994  1.00  0.00    -0.237 OA
ATOM     84  O   UNL A   1      39.573  21.102  25.998  1.00  0.00    -0.744 OA
ENDBRANCH  77  81
ENDBRANCH  50  74
BRANCH  62  85
ATOM     85  C   UNL A   1      46.847  25.890  32.612  1.00  0.00     0.023 A 
ATOM     86  C   UNL A   1      46.870  24.878  33.586  1.00  0.00     0.031 A 
ATOM     87  C   UNL A   1      48.072  26.297  32.051  1.00  0.00     0.131 A 
ATOM     88  C   UNL A   1      48.097  24.340  34.005  1.00  0.00     0.055 A 
ATOM     89  C   UNL A   1      49.283  25.715  32.429  1.00  0.00     0.041 A 
ATOM     90  F   UNL A   1      48.109  27.263  31.120  1.00  0.00    -0.206 F 
ATOM     91  C   UNL A   1      49.301  24.739  33.421  1.00  0.00     0.022 A 
BRANCH  88  92
ATOM     92  S   UNL A   1      48.108  23.165  35.388  1.00  0.00     0.124 S 
ATOM     93  O   UNL A   1      46.880  23.516  36.094  1.00  0.00    -0.237 OA
ATOM     94  O   UNL A   1      48.104  21.876  34.704  1.00  0.00    -0.237 OA
ATOM     95  O   UNL A   1      49.345  23.484  36.100  1.00  0.00    -0.744 OA
ENDBRANCH  88  92
ENDBRANCH  62  85
ENDBRANCH  36  37
ENDBRANCH  28  31
ENDBRANCH  26  27
ENDBRANCH  25  26
ENDBRANCH  24  25
ENDBRANCH   1  24
TORSDOF 20
ENDMDL
