MODEL 1
REMARK VINA RESULT:     -13.1      0.000      0.000
REMARK SMILES CC(C)n1c2c(c3ccccc31)[C@@H](c1ccccc1)N(CC(=O)NCCCCNC(=O)c1ccc(-c3c4nc(c(-c5cc(S(=O)(=O)[O-])ccc5F)c5ccc([nH]5)c(-c5cc(S(=O)(=O)[O-])ccc5F)c5nc(c(-c6cc(S(=O)(=O)[O-])ccc6F)c6ccc3[nH]6)C=C5)C=C4)cc1)C2=O
REMARK SMILES IDX 27 1 26 2 25 3 24 4 22 5 23 6 21 8 20 9 4 10 5 11 12 12 6 13
REMARK SMILES IDX 95 14 7 15 11 16 13 17 96 18 8 19 10 20 9 21 2 22 1 23 3 24
REMARK SMILES IDX 14 25 15 26 19 27 16 28 18 29 17 30 28 31 29 32 30 33 31 35
REMARK SMILES IDX 32 36 33 37 94 38 34 39 93 40 35 41 36 42 37 43 87 44 38 45
REMARK SMILES IDX 92 46 86 47 88 48 39 49 91 50 85 51 84 52 40 54 72 55 52 56
REMARK SMILES IDX 71 57 53 58 56 59 70 60 89 61 54 62 55 63 69 65 90 66 57 67
REMARK SMILES IDX 41 68 42 69 50 70 43 71 49 72 51 73 48 74 44 75 45 76 46 77
REMARK SMILES IDX 47 78 73 79 74 80 82 81 75 82 81 83 83 84 80 85 76 86 77 87
REMARK SMILES IDX 78 88 79 89 58 90 59 91 67 92 60 93 66 94 68 95 65 96 61 97
REMARK SMILES IDX 62 98 63 99 64 100
REMARK H PARENT 24 7 29 34 88 53 56 64
REMARK Flexibility Score: inf
ROOT
ATOM      1  C   UNL A   1      32.713  29.815  26.541  1.00  0.00     0.023 C 
ENDROOT
BRANCH   1   2
ATOM      2  C   UNL A   1      31.650  29.082  27.367  1.00  0.00     0.023 C 
BRANCH   2   3
ATOM      3  C   UNL A   1      31.645  27.563  27.204  1.00  0.00     0.116 C 
BRANCH   3   4
ATOM      4  N   UNL A   1      30.798  27.141  26.108  1.00  0.00    -0.355 N 
ATOM      5  C   UNL A   1      30.482  25.867  25.735  1.00  0.00     0.239 C 
ATOM      6  O   UNL A   1      29.751  25.700  24.756  1.00  0.00    -0.273 OA
ATOM      7  H   UNL A   1      30.402  27.862  25.566  1.00  0.00     0.163 HD
BRANCH   5   8
ATOM      8  C   UNL A   1      31.046  24.672  26.516  1.00  0.00     0.220 C 
BRANCH   8   9
ATOM      9  N   UNL A   1      32.086  23.985  25.769  1.00  0.00    -0.317 N 
ATOM     10  N   UNL A   1      34.017  21.090  24.934  1.00  0.00    -0.334 N 
ATOM     11  C   UNL A   1      33.312  22.236  25.147  1.00  0.00     0.114 A 
ATOM     12  C   UNL A   1      35.378  21.405  25.036  1.00  0.00     0.049 A 
ATOM     13  C   UNL A   1      34.180  23.274  25.364  1.00  0.00     0.018 A 
ATOM     14  C   UNL A   1      31.965  22.666  25.325  1.00  0.00     0.272 C 
ATOM     15  C   UNL A   1      35.489  22.778  25.335  1.00  0.00     0.006 A 
ATOM     16  C   UNL A   1      36.528  20.606  24.911  1.00  0.00     0.027 A 
ATOM     17  C   UNL A   1      33.458  24.541  25.635  1.00  0.00     0.150 C 
ATOM     18  O   UNL A   1      30.933  22.018  25.227  1.00  0.00    -0.267 OA
ATOM     19  C   UNL A   1      36.759  23.352  25.528  1.00  0.00     0.011 A 
ATOM     20  C   UNL A   1      37.779  21.202  25.100  1.00  0.00     0.002 A 
ATOM     21  C   UNL A   1      37.896  22.553  25.408  1.00  0.00     0.001 A 
BRANCH  10  22
ATOM     22  C   UNL A   1      33.481  19.761  24.644  1.00  0.00     0.082 C 
ATOM     23  C   UNL A   1      32.825  19.074  25.841  1.00  0.00     0.031 C 
ATOM     24  C   UNL A   1      32.562  19.779  23.425  1.00  0.00     0.031 C 
ENDBRANCH  10  22
BRANCH  17  25
ATOM     25  C   UNL A   1      33.554  25.467  24.429  1.00  0.00    -0.021 A 
ATOM     26  C   UNL A   1      33.919  26.809  24.651  1.00  0.00     0.006 A 
ATOM     27  C   UNL A   1      33.245  25.096  23.105  1.00  0.00     0.006 A 
ATOM     28  C   UNL A   1      33.923  27.745  23.611  1.00  0.00     0.000 A 
ATOM     29  C   UNL A   1      33.274  26.025  22.062  1.00  0.00     0.000 A 
ATOM     30  C   UNL A   1      33.597  27.352  22.317  1.00  0.00     0.000 A 
ENDBRANCH  17  25
ENDBRANCH   8   9
ENDBRANCH   5   8
ENDBRANCH   3   4
ENDBRANCH   2   3
ENDBRANCH   1   2
BRANCH   1  31
ATOM     31  C   UNL A   1      34.103  29.796  27.173  1.00  0.00     0.116 C 
BRANCH  31  32
ATOM     32  N   UNL A   1      34.296  30.836  28.162  1.00  0.00    -0.352 N 
ATOM     33  C   UNL A   1      35.380  31.451  28.716  1.00  0.00     0.251 C 
ATOM     34  H   UNL A   1      33.444  31.180  28.517  1.00  0.00     0.163 HD
ATOM     35  O   UNL A   1      35.132  32.412  29.449  1.00  0.00    -0.269 OA
BRANCH  33  36
ATOM     36  C   UNL A   1      36.780  30.982  28.581  1.00  0.00     0.039 A 
ATOM     37  C   UNL A   1      37.199  29.899  27.805  1.00  0.00     0.014 A 
ATOM     38  C   UNL A   1      37.714  31.626  29.412  1.00  0.00     0.014 A 
ATOM     39  C   UNL A   1      38.450  29.343  28.004  1.00  0.00     0.010 A 
ATOM     40  C   UNL A   1      38.981  31.103  29.580  1.00  0.00     0.010 A 
ATOM     41  C   UNL A   1      39.300  29.905  28.952  1.00  0.00    -0.014 A 
BRANCH  41  42
ATOM     42  C   UNL A   1      40.558  29.230  29.228  1.00  0.00     0.031 A 
ATOM     43  C   UNL A   1      40.778  28.931  30.673  1.00  0.00     0.074 A 
ATOM     44  C   UNL A   1      41.348  28.822  28.212  1.00  0.00     0.049 A 
ATOM     45  N   UNL A   1      41.748  29.303  31.444  1.00  0.00    -0.248 NA
ATOM     46  C   UNL A   1      39.671  28.272  31.391  1.00  0.00     0.031 C 
ATOM     47  C   UNL A   1      41.056  28.854  26.772  1.00  0.00     0.029 A 
ATOM     48  N   UNL A   1      42.535  28.167  28.253  1.00  0.00    -0.354 N 
ATOM     49  C   UNL A   1      41.482  28.731  32.691  1.00  0.00     0.074 A 
ATOM     50  C   UNL A   1      40.116  28.280  32.645  1.00  0.00     0.031 C 
ATOM     51  C   UNL A   1      41.892  28.011  26.125  1.00  0.00     0.029 A 
ATOM     52  C   UNL A   1      42.871  27.515  27.071  1.00  0.00     0.049 A 
ATOM     53  H   UNL A   1      43.111  28.156  29.051  1.00  0.00     0.167 HD
ATOM     54  C   UNL A   1      42.471  28.453  33.588  1.00  0.00     0.034 A 
ATOM     55  C   UNL A   1      43.814  26.546  26.936  1.00  0.00     0.034 A 
ATOM     56  C   UNL A   1      43.660  29.204  33.302  1.00  0.00     0.049 A 
ATOM     57  C   UNL A   1      44.693  26.617  28.133  1.00  0.00     0.074 A 
ATOM     58  C   UNL A   1      43.982  30.545  33.311  1.00  0.00     0.029 A 
ATOM     59  N   UNL A   1      44.644  28.585  32.572  1.00  0.00    -0.354 N 
ATOM     60  N   UNL A   1      45.485  27.623  28.386  1.00  0.00    -0.248 NA
ATOM     61  C   UNL A   1      44.302  25.813  29.284  1.00  0.00     0.031 C 
ATOM     62  C   UNL A   1      44.842  30.721  32.191  1.00  0.00     0.029 A 
ATOM     63  C   UNL A   1      45.061  29.470  31.611  1.00  0.00     0.049 A 
ATOM     64  H   UNL A   1      44.987  27.672  32.712  1.00  0.00     0.167 HD
ATOM     65  C   UNL A   1      45.342  27.844  29.748  1.00  0.00     0.074 A 
ATOM     66  C   UNL A   1      44.635  26.666  30.256  1.00  0.00     0.031 C 
ATOM     67  C   UNL A   1      45.533  29.078  30.298  1.00  0.00     0.034 A 
BRANCH  54  68
ATOM     68  C   UNL A   1      42.459  27.239  34.489  1.00  0.00     0.023 A 
ATOM     69  C   UNL A   1      43.196  26.071  34.208  1.00  0.00     0.031 A 
ATOM     70  C   UNL A   1      41.900  27.312  35.780  1.00  0.00     0.131 A 
ATOM     71  C   UNL A   1      43.355  25.050  35.153  1.00  0.00     0.055 A 
ATOM     72  C   UNL A   1      42.115  26.322  36.751  1.00  0.00     0.041 A 
ATOM     73  F   UNL A   1      41.178  28.376  36.163  1.00  0.00    -0.206 F 
ATOM     74  C   UNL A   1      42.850  25.184  36.440  1.00  0.00     0.022 A 
BRANCH  71  75
ATOM     75  S   UNL A   1      44.244  23.530  34.718  1.00  0.00     0.124 S 
ATOM     76  O   UNL A   1      43.232  22.794  33.968  1.00  0.00    -0.237 OA
ATOM     77  O   UNL A   1      45.358  24.054  33.931  1.00  0.00    -0.237 OA
ATOM     78  O   UNL A   1      44.615  22.968  36.013  1.00  0.00    -0.744 OA
ENDBRANCH  71  75
ENDBRANCH  54  68
BRANCH  55  79
ATOM     79  C   UNL A   1      43.611  25.267  26.207  1.00  0.00     0.023 A 
ATOM     80  C   UNL A   1      42.666  24.340  26.688  1.00  0.00     0.031 A 
ATOM     81  C   UNL A   1      44.537  24.807  25.256  1.00  0.00     0.131 A 
ATOM     82  C   UNL A   1      42.691  23.005  26.264  1.00  0.00     0.055 A 
ATOM     83  C   UNL A   1      44.546  23.476  24.814  1.00  0.00     0.041 A 
ATOM     84  F   UNL A   1      45.494  25.625  24.790  1.00  0.00    -0.206 F 
ATOM     85  C   UNL A   1      43.629  22.564  25.331  1.00  0.00     0.022 A 
BRANCH  82  86
ATOM     86  S   UNL A   1      41.566  21.791  27.005  1.00  0.00     0.124 S 
ATOM     87  O   UNL A   1      42.400  21.192  28.044  1.00  0.00    -0.237 OA
ATOM     88  O   UNL A   1      40.483  22.643  27.481  1.00  0.00    -0.237 OA
ATOM     89  O   UNL A   1      41.239  20.905  25.891  1.00  0.00    -0.744 OA
ENDBRANCH  82  86
ENDBRANCH  55  79
BRANCH  67  90
ATOM     90  C   UNL A   1      46.059  30.197  29.426  1.00  0.00     0.023 A 
ATOM     91  C   UNL A   1      45.125  30.871  28.625  1.00  0.00     0.031 A 
ATOM     92  C   UNL A   1      47.425  30.430  29.166  1.00  0.00     0.131 A 
ATOM     93  C   UNL A   1      45.553  31.686  27.572  1.00  0.00     0.055 A 
ATOM     94  C   UNL A   1      47.850  31.305  28.158  1.00  0.00     0.041 A 
ATOM     95  F   UNL A   1      48.384  29.752  29.807  1.00  0.00    -0.206 F 
ATOM     96  C   UNL A   1      46.911  31.922  27.341  1.00  0.00     0.022 A 
BRANCH  93  97
ATOM     97  S   UNL A   1      44.353  32.313  26.371  1.00  0.00     0.124 S 
ATOM     98  O   UNL A   1      43.744  33.424  27.096  1.00  0.00    -0.237 OA
ATOM     99  O   UNL A   1      45.211  32.691  25.249  1.00  0.00    -0.237 OA
ATOM    100  O   UNL A   1      43.476  31.173  26.120  1.00  0.00    -0.744 OA
ENDBRANCH  93  97
ENDBRANCH  67  90
ENDBRANCH  41  42
ENDBRANCH  33  36
ENDBRANCH  31  32
ENDBRANCH   1  31
TORSDOF 17
ENDMDL
MODEL 2
REMARK VINA RESULT:     -12.9      1.812      6.639
REMARK SMILES CC(C)n1c2c(c3ccccc31)[C@@H](c1ccccc1)N(CC(=O)NCCCCNC(=O)c1ccc(-c3c4nc(c(-c5cc(S(=O)(=O)[O-])ccc5F)c5ccc([nH]5)c(-c5cc(S(=O)(=O)[O-])ccc5F)c5nc(c(-c6cc(S(=O)(=O)[O-])ccc6F)c6ccc3[nH]6)C=C5)C=C4)cc1)C2=O
REMARK SMILES IDX 27 1 26 2 25 3 24 4 22 5 23 6 21 8 20 9 4 10 5 11 12 12 6 13
REMARK SMILES IDX 95 14 7 15 11 16 13 17 96 18 8 19 10 20 9 21 2 22 1 23 3 24
REMARK SMILES IDX 14 25 15 26 19 27 16 28 18 29 17 30 28 31 29 32 30 33 31 35
REMARK SMILES IDX 32 36 33 37 94 38 34 39 93 40 35 41 36 42 37 43 87 44 38 45
REMARK SMILES IDX 92 46 86 47 88 48 39 49 91 50 85 51 84 52 40 54 72 55 52 56
REMARK SMILES IDX 71 57 53 58 56 59 70 60 89 61 54 62 55 63 69 65 90 66 57 67
REMARK SMILES IDX 41 68 42 69 50 70 43 71 49 72 51 73 48 74 44 75 45 76 46 77
REMARK SMILES IDX 47 78 73 79 74 80 82 81 75 82 81 83 83 84 80 85 76 86 77 87
REMARK SMILES IDX 78 88 79 89 58 90 59 91 67 92 60 93 66 94 68 95 65 96 61 97
REMARK SMILES IDX 62 98 63 99 64 100
REMARK H PARENT 24 7 29 34 88 53 56 64
REMARK Flexibility Score: inf
ROOT
ATOM      1  C   UNL A   1      33.365  29.257  26.477  1.00  0.00     0.023 C 
ENDROOT
BRANCH   1   2
ATOM      2  C   UNL A   1      32.131  28.831  27.279  1.00  0.00     0.023 C 
BRANCH   2   3
ATOM      3  C   UNL A   1      31.828  27.334  27.245  1.00  0.00     0.116 C 
BRANCH   3   4
ATOM      4  N   UNL A   1      30.967  26.984  26.136  1.00  0.00    -0.355 N 
ATOM      5  C   UNL A   1      30.577  25.737  25.737  1.00  0.00     0.239 C 
ATOM      6  O   UNL A   1      29.845  25.632  24.750  1.00  0.00    -0.273 OA
ATOM      7  H   UNL A   1      30.619  27.736  25.603  1.00  0.00     0.163 HD
BRANCH   5   8
ATOM      8  C   UNL A   1      31.062  24.497  26.501  1.00  0.00     0.220 C 
BRANCH   8   9
ATOM      9  N   UNL A   1      32.072  23.768  25.753  1.00  0.00    -0.317 N 
ATOM     10  N   UNL A   1      33.977  20.830  25.014  1.00  0.00    -0.334 N 
ATOM     11  C   UNL A   1      33.278  21.986  25.187  1.00  0.00     0.114 A 
ATOM     12  C   UNL A   1      35.341  21.153  25.038  1.00  0.00     0.049 A 
ATOM     13  C   UNL A   1      34.150  23.037  25.302  1.00  0.00     0.018 A 
ATOM     14  C   UNL A   1      31.938  22.423  25.395  1.00  0.00     0.272 C 
ATOM     15  C   UNL A   1      35.459  22.541  25.248  1.00  0.00     0.006 A 
ATOM     16  C   UNL A   1      36.487  20.349  24.913  1.00  0.00     0.027 A 
ATOM     17  C   UNL A   1      33.434  24.316  25.526  1.00  0.00     0.150 C 
ATOM     18  O   UNL A   1      30.906  21.769  25.382  1.00  0.00    -0.267 OA
ATOM     19  C   UNL A   1      36.732  23.129  25.351  1.00  0.00     0.011 A 
ATOM     20  C   UNL A   1      37.743  20.958  25.011  1.00  0.00     0.002 A 
ATOM     21  C   UNL A   1      37.867  22.325  25.230  1.00  0.00     0.001 A 
BRANCH  10  22
ATOM     22  C   UNL A   1      33.436  19.484  24.830  1.00  0.00     0.082 C 
ATOM     23  C   UNL A   1      32.753  18.907  26.069  1.00  0.00     0.031 C 
ATOM     24  C   UNL A   1      32.539  19.404  23.596  1.00  0.00     0.031 C 
ENDBRANCH  10  22
BRANCH  17  25
ATOM     25  C   UNL A   1      33.474  25.167  24.262  1.00  0.00    -0.021 A 
ATOM     26  C   UNL A   1      33.925  26.497  24.372  1.00  0.00     0.006 A 
ATOM     27  C   UNL A   1      33.036  24.740  22.993  1.00  0.00     0.006 A 
ATOM     28  C   UNL A   1      33.889  27.371  23.282  1.00  0.00     0.000 A 
ATOM     29  C   UNL A   1      33.023  25.606  21.897  1.00  0.00     0.000 A 
ATOM     30  C   UNL A   1      33.434  26.925  22.045  1.00  0.00     0.000 A 
ENDBRANCH  17  25
ENDBRANCH   8   9
ENDBRANCH   5   8
ENDBRANCH   3   4
ENDBRANCH   2   3
ENDBRANCH   1   2
BRANCH   1  31
ATOM     31  C   UNL A   1      34.689  28.904  27.151  1.00  0.00     0.116 C 
BRANCH  31  32
ATOM     32  N   UNL A   1      35.025  29.788  28.247  1.00  0.00    -0.352 N 
ATOM     33  C   UNL A   1      36.165  30.077  28.940  1.00  0.00     0.251 C 
ATOM     34  H   UNL A   1      34.249  30.303  28.568  1.00  0.00     0.163 HD
ATOM     35  O   UNL A   1      36.081  31.012  29.741  1.00  0.00    -0.269 OA
BRANCH  33  36
ATOM     36  C   UNL A   1      37.420  29.291  28.868  1.00  0.00     0.039 A 
ATOM     37  C   UNL A   1      37.878  28.405  29.845  1.00  0.00     0.014 A 
ATOM     38  C   UNL A   1      38.251  29.582  27.771  1.00  0.00     0.014 A 
ATOM     39  C   UNL A   1      39.195  27.984  29.841  1.00  0.00     0.010 A 
ATOM     40  C   UNL A   1      39.554  29.127  27.737  1.00  0.00     0.010 A 
ATOM     41  C   UNL A   1      40.044  28.418  28.828  1.00  0.00    -0.014 A 
BRANCH  41  42
ATOM     42  C   UNL A   1      41.451  28.061  28.913  1.00  0.00     0.031 A 
ATOM     43  C   UNL A   1      41.775  26.736  28.307  1.00  0.00     0.074 A 
ATOM     44  C   UNL A   1      42.350  28.948  29.389  1.00  0.00     0.049 A 
ATOM     45  N   UNL A   1      42.319  25.699  28.858  1.00  0.00    -0.248 NA
ATOM     46  C   UNL A   1      41.260  26.483  26.948  1.00  0.00     0.031 C 
ATOM     47  C   UNL A   1      42.127  30.355  29.750  1.00  0.00     0.029 A 
ATOM     48  N   UNL A   1      43.693  28.822  29.532  1.00  0.00    -0.354 N 
ATOM     49  C   UNL A   1      42.417  24.742  27.846  1.00  0.00     0.074 A 
ATOM     50  C   UNL A   1      41.587  25.207  26.767  1.00  0.00     0.031 C 
ATOM     51  C   UNL A   1      43.313  31.002  29.795  1.00  0.00     0.029 A 
ATOM     52  C   UNL A   1      44.376  30.030  29.630  1.00  0.00     0.049 A 
ATOM     53  H   UNL A   1      44.147  27.949  29.564  1.00  0.00     0.167 HD
ATOM     54  C   UNL A   1      43.359  23.756  27.869  1.00  0.00     0.034 A 
ATOM     55  C   UNL A   1      45.712  30.206  29.460  1.00  0.00     0.034 A 
ATOM     56  C   UNL A   1      43.877  23.560  29.194  1.00  0.00     0.049 A 
ATOM     57  C   UNL A   1      46.352  28.871  29.584  1.00  0.00     0.074 A 
ATOM     58  C   UNL A   1      43.341  23.123  30.386  1.00  0.00     0.029 A 
ATOM     59  N   UNL A   1      45.051  24.193  29.517  1.00  0.00    -0.354 N 
ATOM     60  N   UNL A   1      46.387  28.190  30.697  1.00  0.00    -0.248 NA
ATOM     61  C   UNL A   1      46.490  28.092  28.361  1.00  0.00     0.031 C 
ATOM     62  C   UNL A   1      43.952  23.937  31.381  1.00  0.00     0.029 A 
ATOM     63  C   UNL A   1      44.882  24.766  30.752  1.00  0.00     0.049 A 
ATOM     64  H   UNL A   1      45.866  24.229  28.965  1.00  0.00     0.167 HD
ATOM     65  C   UNL A   1      46.112  26.885  30.315  1.00  0.00     0.074 A 
ATOM     66  C   UNL A   1      46.231  26.879  28.856  1.00  0.00     0.031 C 
ATOM     67  C   UNL A   1      45.522  25.998  31.168  1.00  0.00     0.034 A 
BRANCH  54  68
ATOM     68  C   UNL A   1      44.051  23.236  26.629  1.00  0.00     0.023 A 
ATOM     69  C   UNL A   1      43.958  21.895  26.205  1.00  0.00     0.031 A 
ATOM     70  C   UNL A   1      44.624  24.130  25.702  1.00  0.00     0.131 A 
ATOM     71  C   UNL A   1      44.411  21.483  24.947  1.00  0.00     0.055 A 
ATOM     72  C   UNL A   1      45.016  23.732  24.415  1.00  0.00     0.041 A 
ATOM     73  F   UNL A   1      44.764  25.432  25.992  1.00  0.00    -0.206 F 
ATOM     74  C   UNL A   1      44.907  22.401  24.031  1.00  0.00     0.022 A 
BRANCH  71  75
ATOM     75  S   UNL A   1      44.345  19.731  24.480  1.00  0.00     0.124 S 
ATOM     76  O   UNL A   1      44.524  19.799  23.034  1.00  0.00    -0.237 OA
ATOM     77  O   UNL A   1      45.470  19.182  25.233  1.00  0.00    -0.237 OA
ATOM     78  O   UNL A   1      43.028  19.304  24.942  1.00  0.00    -0.744 OA
ENDBRANCH  71  75
ENDBRANCH  54  68
BRANCH  55  79
ATOM     79  C   UNL A   1      46.322  31.277  28.629  1.00  0.00     0.023 A 
ATOM     80  C   UNL A   1      45.497  32.067  27.806  1.00  0.00     0.031 A 
ATOM     81  C   UNL A   1      47.705  31.321  28.386  1.00  0.00     0.131 A 
ATOM     82  C   UNL A   1      46.042  32.824  26.760  1.00  0.00     0.055 A 
ATOM     83  C   UNL A   1      48.252  32.097  27.353  1.00  0.00     0.041 A 
ATOM     84  F   UNL A   1      48.545  30.557  29.102  1.00  0.00    -0.206 F 
ATOM     85  C   UNL A   1      47.416  32.842  26.525  1.00  0.00     0.022 A 
BRANCH  82  86
ATOM     86  S   UNL A   1      44.953  33.717  25.616  1.00  0.00     0.124 S 
ATOM     87  O   UNL A   1      44.336  32.627  24.866  1.00  0.00    -0.237 OA
ATOM     88  O   UNL A   1      44.073  34.424  26.538  1.00  0.00    -0.237 OA
ATOM     89  O   UNL A   1      45.875  34.550  24.848  1.00  0.00    -0.744 OA
ENDBRANCH  82  86
ENDBRANCH  55  79
BRANCH  67  90
ATOM     90  C   UNL A   1      45.300  26.401  32.609  1.00  0.00     0.023 A 
ATOM     91  C   UNL A   1      46.192  25.880  33.559  1.00  0.00     0.031 A 
ATOM     92  C   UNL A   1      44.134  27.029  33.091  1.00  0.00     0.131 A 
ATOM     93  C   UNL A   1      45.886  25.934  34.922  1.00  0.00     0.055 A 
ATOM     94  C   UNL A   1      43.866  27.147  34.461  1.00  0.00     0.041 A 
ATOM     95  F   UNL A   1      43.177  27.460  32.261  1.00  0.00    -0.206 F 
ATOM     96  C   UNL A   1      44.735  26.578  35.384  1.00  0.00     0.022 A 
BRANCH  93  97
ATOM     97  S   UNL A   1      46.890  25.008  36.110  1.00  0.00     0.124 S 
ATOM     98  O   UNL A   1      48.123  24.783  35.361  1.00  0.00    -0.237 OA
ATOM     99  O   UNL A   1      46.995  25.949  37.224  1.00  0.00    -0.237 OA
ATOM    100  O   UNL A   1      46.099  23.812  36.385  1.00  0.00    -0.744 OA
ENDBRANCH  93  97
ENDBRANCH  67  90
ENDBRANCH  41  42
ENDBRANCH  33  36
ENDBRANCH  31  32
ENDBRANCH   1  31
TORSDOF 17
ENDMDL
MODEL 3
REMARK VINA RESULT:     -12.7      3.274      8.976
REMARK SMILES CC(C)n1c2c(c3ccccc31)[C@@H](c1ccccc1)N(CC(=O)NCCCCNC(=O)c1ccc(-c3c4nc(c(-c5cc(S(=O)(=O)[O-])ccc5F)c5ccc([nH]5)c(-c5cc(S(=O)(=O)[O-])ccc5F)c5nc(c(-c6cc(S(=O)(=O)[O-])ccc6F)c6ccc3[nH]6)C=C5)C=C4)cc1)C2=O
REMARK SMILES IDX 27 1 26 2 25 3 24 4 22 5 23 6 21 8 20 9 4 10 5 11 12 12 6 13
REMARK SMILES IDX 95 14 7 15 11 16 13 17 96 18 8 19 10 20 9 21 2 22 1 23 3 24
REMARK SMILES IDX 14 25 15 26 19 27 16 28 18 29 17 30 28 31 29 32 30 33 31 35
REMARK SMILES IDX 32 36 33 37 94 38 34 39 93 40 35 41 36 42 37 43 87 44 38 45
REMARK SMILES IDX 92 46 86 47 88 48 39 49 91 50 85 51 84 52 40 54 72 55 52 56
REMARK SMILES IDX 71 57 53 58 56 59 70 60 89 61 54 62 55 63 69 65 90 66 57 67
REMARK SMILES IDX 41 68 42 69 50 70 43 71 49 72 51 73 48 74 44 75 45 76 46 77
REMARK SMILES IDX 47 78 73 79 74 80 82 81 75 82 81 83 83 84 80 85 76 86 77 87
REMARK SMILES IDX 78 88 79 89 58 90 59 91 67 92 60 93 66 94 68 95 65 96 61 97
REMARK SMILES IDX 62 98 63 99 64 100
REMARK H PARENT 24 7 29 34 88 53 56 64
REMARK Flexibility Score: inf
ROOT
ATOM      1  C   UNL A   1      36.572  22.560  25.399  1.00  0.00     0.023 C 
ENDROOT
BRANCH   1   2
ATOM      2  C   UNL A   1      36.575  22.393  23.876  1.00  0.00     0.023 C 
BRANCH   2   3
ATOM      3  C   UNL A   1      35.631  23.331  23.125  1.00  0.00     0.116 C 
BRANCH   3   4
ATOM      4  N   UNL A   1      34.305  22.765  22.989  1.00  0.00    -0.355 N 
ATOM      5  C   UNL A   1      33.176  23.375  22.525  1.00  0.00     0.239 C 
ATOM      6  O   UNL A   1      32.124  22.732  22.495  1.00  0.00    -0.273 OA
ATOM      7  H   UNL A   1      34.206  21.824  23.266  1.00  0.00     0.163 HD
BRANCH   5   8
ATOM      8  C   UNL A   1      33.224  24.839  22.066  1.00  0.00     0.220 C 
BRANCH   8   9
ATOM      9  N   UNL A   1      32.569  25.721  23.018  1.00  0.00    -0.317 N 
ATOM     10  N   UNL A   1      30.961  28.785  23.927  1.00  0.00    -0.334 N 
ATOM     11  C   UNL A   1      31.520  27.570  23.674  1.00  0.00     0.114 A 
ATOM     12  C   UNL A   1      31.602  29.320  25.053  1.00  0.00     0.049 A 
ATOM     13  C   UNL A   1      32.484  27.304  24.612  1.00  0.00     0.018 A 
ATOM     14  C   UNL A   1      31.494  26.547  22.681  1.00  0.00     0.272 C 
ATOM     15  C   UNL A   1      32.584  28.402  25.475  1.00  0.00     0.006 A 
ATOM     16  C   UNL A   1      31.421  30.537  25.733  1.00  0.00     0.027 A 
ATOM     17  C   UNL A   1      33.147  26.002  24.358  1.00  0.00     0.150 C 
ATOM     18  O   UNL A   1      30.781  26.455  21.693  1.00  0.00    -0.267 OA
ATOM     19  C   UNL A   1      33.405  28.711  26.575  1.00  0.00     0.011 A 
ATOM     20  C   UNL A   1      32.245  30.818  26.829  1.00  0.00     0.002 A 
ATOM     21  C   UNL A   1      33.225  29.923  27.242  1.00  0.00     0.001 A 
BRANCH  10  22
ATOM     22  C   UNL A   1      29.885  29.439  23.184  1.00  0.00     0.082 C 
ATOM     23  C   UNL A   1      30.295  29.944  21.800  1.00  0.00     0.031 C 
ATOM     24  C   UNL A   1      28.633  28.566  23.123  1.00  0.00     0.031 C 
ENDBRANCH  10  22
BRANCH  17  25
ATOM     25  C   UNL A   1      32.682  24.970  25.378  1.00  0.00    -0.021 A 
ATOM     26  C   UNL A   1      33.661  24.301  26.138  1.00  0.00     0.006 A 
ATOM     27  C   UNL A   1      31.341  24.587  25.579  1.00  0.00     0.006 A 
ATOM     28  C   UNL A   1      33.322  23.266  27.015  1.00  0.00     0.000 A 
ATOM     29  C   UNL A   1      30.999  23.570  26.473  1.00  0.00     0.000 A 
ATOM     30  C   UNL A   1      31.990  22.898  27.179  1.00  0.00     0.000 A 
ENDBRANCH  17  25
ENDBRANCH   8   9
ENDBRANCH   5   8
ENDBRANCH   3   4
ENDBRANCH   2   3
ENDBRANCH   1   2
BRANCH   1  31
ATOM     31  C   UNL A   1      37.715  23.424  25.926  1.00  0.00     0.116 C 
BRANCH  31  32
ATOM     32  N   UNL A   1      38.798  22.652  26.499  1.00  0.00    -0.352 N 
ATOM     33  C   UNL A   1      39.892  22.942  27.262  1.00  0.00     0.251 C 
ATOM     34  H   UNL A   1      38.729  21.692  26.289  1.00  0.00     0.163 HD
ATOM     35  O   UNL A   1      40.526  21.969  27.678  1.00  0.00    -0.269 OA
BRANCH  33  36
ATOM     36  C   UNL A   1      40.404  24.309  27.521  1.00  0.00     0.039 A 
ATOM     37  C   UNL A   1      41.530  24.619  28.287  1.00  0.00     0.014 A 
ATOM     38  C   UNL A   1      39.595  25.356  27.045  1.00  0.00     0.014 A 
ATOM     39  C   UNL A   1      41.729  25.911  28.740  1.00  0.00     0.010 A 
ATOM     40  C   UNL A   1      39.816  26.656  27.456  1.00  0.00     0.010 A 
ATOM     41  C   UNL A   1      40.820  26.903  28.385  1.00  0.00    -0.014 A 
BRANCH  41  42
ATOM     42  C   UNL A   1      40.984  28.223  28.972  1.00  0.00     0.031 A 
ATOM     43  C   UNL A   1      42.228  28.925  28.540  1.00  0.00     0.074 A 
ATOM     44  C   UNL A   1      40.001  28.759  29.725  1.00  0.00     0.049 A 
ATOM     45  N   UNL A   1      43.201  29.379  29.263  1.00  0.00    -0.248 NA
ATOM     46  C   UNL A   1      42.498  28.967  27.090  1.00  0.00     0.031 C 
ATOM     47  C   UNL A   1      38.653  28.226  29.964  1.00  0.00     0.029 A 
ATOM     48  N   UNL A   1      39.947  29.968  30.340  1.00  0.00    -0.354 N 
ATOM     49  C   UNL A   1      44.097  29.965  28.365  1.00  0.00     0.074 A 
ATOM     50  C   UNL A   1      43.710  29.515  27.055  1.00  0.00     0.031 C 
ATOM     51  C   UNL A   1      37.851  29.215  30.419  1.00  0.00     0.029 A 
ATOM     52  C   UNL A   1      38.661  30.392  30.658  1.00  0.00     0.049 A 
ATOM     53  H   UNL A   1      40.751  30.499  30.544  1.00  0.00     0.167 HD
ATOM     54  C   UNL A   1      44.945  30.966  28.737  1.00  0.00     0.034 A 
ATOM     55  C   UNL A   1      38.297  31.663  30.974  1.00  0.00     0.034 A 
ATOM     56  C   UNL A   1      45.118  31.002  30.162  1.00  0.00     0.049 A 
ATOM     57  C   UNL A   1      39.536  32.399  31.337  1.00  0.00     0.074 A 
ATOM     58  C   UNL A   1      45.668  30.144  31.090  1.00  0.00     0.029 A 
ATOM     59  N   UNL A   1      44.342  31.883  30.875  1.00  0.00    -0.354 N 
ATOM     60  N   UNL A   1      40.247  32.133  32.398  1.00  0.00    -0.248 NA
ATOM     61  C   UNL A   1      40.242  33.071  30.254  1.00  0.00     0.031 C 
ATOM     62  C   UNL A   1      44.817  30.241  32.226  1.00  0.00     0.029 A 
ATOM     63  C   UNL A   1      43.845  31.207  31.960  1.00  0.00     0.049 A 
ATOM     64  H   UNL A   1      44.175  32.826  30.649  1.00  0.00     0.167 HD
ATOM     65  C   UNL A   1      41.563  32.199  31.961  1.00  0.00     0.074 A 
ATOM     66  C   UNL A   1      41.497  32.828  30.641  1.00  0.00     0.031 C 
ATOM     67  C   UNL A   1      42.553  31.476  32.559  1.00  0.00     0.034 A 
BRANCH  54  68
ATOM     68  C   UNL A   1      45.317  32.120  27.833  1.00  0.00     0.023 A 
ATOM     69  C   UNL A   1      44.595  33.329  27.798  1.00  0.00     0.031 A 
ATOM     70  C   UNL A   1      46.554  32.129  27.157  1.00  0.00     0.131 A 
ATOM     71  C   UNL A   1      45.077  34.461  27.131  1.00  0.00     0.055 A 
ATOM     72  C   UNL A   1      47.070  33.281  26.546  1.00  0.00     0.041 A 
ATOM     73  F   UNL A   1      47.331  31.036  27.121  1.00  0.00    -0.206 F 
ATOM     74  C   UNL A   1      46.330  34.458  26.534  1.00  0.00     0.022 A 
BRANCH  71  75
ATOM     75  S   UNL A   1      44.072  35.970  27.046  1.00  0.00     0.124 S 
ATOM     76  O   UNL A   1      45.030  36.939  26.526  1.00  0.00    -0.237 OA
ATOM     77  O   UNL A   1      43.013  35.568  26.123  1.00  0.00    -0.237 OA
ATOM     78  O   UNL A   1      43.642  36.172  28.426  1.00  0.00    -0.744 OA
ENDBRANCH  71  75
ENDBRANCH  54  68
BRANCH  55  79
ATOM     79  C   UNL A   1      37.123  32.371  30.401  1.00  0.00     0.023 A 
ATOM     80  C   UNL A   1      36.319  33.167  31.239  1.00  0.00     0.031 A 
ATOM     81  C   UNL A   1      36.598  32.026  29.144  1.00  0.00     0.131 A 
ATOM     82  C   UNL A   1      35.032  33.552  30.843  1.00  0.00     0.055 A 
ATOM     83  C   UNL A   1      35.318  32.432  28.738  1.00  0.00     0.041 A 
ATOM     84  F   UNL A   1      37.291  31.231  28.313  1.00  0.00    -0.206 F 
ATOM     85  C   UNL A   1      34.523  33.187  29.598  1.00  0.00     0.022 A 
BRANCH  82  86
ATOM     86  S   UNL A   1      33.954  34.450  31.993  1.00  0.00     0.124 S 
ATOM     87  O   UNL A   1      32.911  34.956  31.104  1.00  0.00    -0.237 OA
ATOM     88  O   UNL A   1      33.543  33.388  32.903  1.00  0.00    -0.237 OA
ATOM     89  O   UNL A   1      34.832  35.471  32.557  1.00  0.00    -0.744 OA
ENDBRANCH  82  86
ENDBRANCH  55  79
BRANCH  67  90
ATOM     90  C   UNL A   1      42.240  30.702  33.821  1.00  0.00     0.023 A 
ATOM     91  C   UNL A   1      42.616  31.291  35.037  1.00  0.00     0.031 A 
ATOM     92  C   UNL A   1      41.850  29.348  33.849  1.00  0.00     0.131 A 
ATOM     93  C   UNL A   1      42.659  30.529  36.210  1.00  0.00     0.055 A 
ATOM     94  C   UNL A   1      41.822  28.608  35.038  1.00  0.00     0.041 A 
ATOM     95  F   UNL A   1      41.577  28.675  32.726  1.00  0.00    -0.206 F 
ATOM     96  C   UNL A   1      42.249  29.194  36.224  1.00  0.00     0.022 A 
BRANCH  93  97
ATOM     97  S   UNL A   1      43.419  31.213  37.703  1.00  0.00     0.124 S 
ATOM     98  O   UNL A   1      42.253  31.572  38.505  1.00  0.00    -0.237 OA
ATOM     99  O   UNL A   1      44.197  30.079  38.199  1.00  0.00    -0.237 OA
ATOM    100  O   UNL A   1      44.211  32.337  37.213  1.00  0.00    -0.744 OA
ENDBRANCH  93  97
ENDBRANCH  67  90
ENDBRANCH  41  42
ENDBRANCH  33  36
ENDBRANCH  31  32
ENDBRANCH   1  31
TORSDOF 17
ENDMDL
