MODEL 1
REMARK VINA RESULT:     -10.3      0.000      0.000
REMARK SMILES CCC(CC)([NH2+]Cc1ccc(Cl)cc1[N+](=O)[O-])C(=O)NCCCCNC(=O)c1ccc(-c2c3nc(c(-c4cc(S(=O)(=O)[O-])ccc4F)c4ccc([nH]4)c(-c4cc(S(=O)(=O)[O-])ccc4F)c4nc(c(-c5cc(S(=O)(=O)[O-])ccc5F)c5ccc2[nH]5)C=C4)C=C3)cc1
REMARK SMILES IDX 22 1 21 2 20 3 18 4 19 5 3 7 2 8 1 9 4 10 5 11 6 12 7 15
REMARK SMILES IDX 8 16 9 17 14 18 10 19 13 20 11 21 12 22 15 23 16 24 17 25
REMARK SMILES IDX 23 26 24 27 25 28 26 29 27 31 28 32 29 33 90 34 30 35 89 36
REMARK SMILES IDX 31 37 32 38 33 39 83 40 34 41 88 42 82 43 84 44 35 45 87 46
REMARK SMILES IDX 81 47 80 48 36 50 68 51 48 52 67 53 49 54 52 55 66 56 85 57
REMARK SMILES IDX 50 58 51 59 65 61 86 62 53 63 37 64 38 65 46 66 39 67 45 68
REMARK SMILES IDX 47 69 44 70 40 71 41 72 42 73 43 74 69 75 70 76 78 77 71 78
REMARK SMILES IDX 77 79 79 80 76 81 72 82 73 83 74 84 75 85 54 86 55 87 63 88
REMARK SMILES IDX 56 89 62 90 64 91 61 92 57 93 58 94 59 95 60 96
REMARK H PARENT 20 6 6 13 6 14 25 30 84 49 52 60
REMARK Flexibility Score: inf
ROOT
ATOM      1  C   UNL A   1      34.306  24.733  25.727  1.00  0.00     0.023 C 
ENDROOT
BRANCH   1   2
ATOM      2  C   UNL A   1      34.337  26.243  25.471  1.00  0.00     0.116 C 
BRANCH   2   3
ATOM      3  N   UNL A   1      33.981  26.507  24.098  1.00  0.00    -0.351 N 
ATOM      4  C   UNL A   1      32.771  26.496  23.475  1.00  0.00     0.281 C 
ATOM      5  O   UNL A   1      32.820  26.213  22.271  1.00  0.00    -0.268 OA
ATOM      6  H   UNL A   1      34.739  26.735  23.515  1.00  0.00     0.163 HD
BRANCH   4   7
ATOM      7  C   UNL A   1      31.397  26.838  24.186  1.00  0.00     0.175 C 
BRANCH   7   8
ATOM      8  C   UNL A   1      30.390  27.108  22.989  1.00  0.00     0.076 C 
ATOM      9  C   UNL A   1      29.217  28.047  23.283  1.00  0.00     0.011 C 
ENDBRANCH   7   8
BRANCH   7  10
ATOM     10  C   UNL A   1      31.506  28.123  25.060  1.00  0.00     0.076 C 
ATOM     11  C   UNL A   1      31.362  27.994  26.576  1.00  0.00     0.011 C 
ENDBRANCH   7  10
BRANCH   7  12
ATOM     12  N   UNL A   1      30.770  25.627  24.809  1.00  0.00    -0.330 N 
ATOM     13  H   UNL A   1      29.945  25.968  25.303  1.00  0.00     0.347 HD
ATOM     14  H   UNL A   1      31.563  25.238  25.318  1.00  0.00     0.347 HD
BRANCH  12  15
ATOM     15  C   UNL A   1      30.324  24.458  24.055  1.00  0.00     0.305 C 
BRANCH  15  16
ATOM     16  C   UNL A   1      31.173  23.222  24.233  1.00  0.00     0.084 A 
ATOM     17  C   UNL A   1      31.873  22.692  23.138  1.00  0.00     0.018 A 
ATOM     18  C   UNL A   1      31.337  22.568  25.464  1.00  0.00     0.279 A 
ATOM     19  C   UNL A   1      32.883  21.745  23.311  1.00  0.00     0.021 A 
ATOM     20  C   UNL A   1      32.357  21.627  25.661  1.00  0.00     0.106 A 
ATOM     21  C   UNL A   1      33.160  21.263  24.584  1.00  0.00     0.047 A 
ATOM     22  Cl  UNL A   1      34.482  20.191  24.820  1.00  0.00    -0.084 Cl
BRANCH  18  23
ATOM     23  N   UNL A   1      30.399  22.802  26.561  1.00  0.00     0.063 N 
ATOM     24  O   UNL A   1      30.719  23.631  27.425  1.00  0.00    -0.258 OA
ATOM     25  O   UNL A   1      29.396  22.074  26.609  1.00  0.00    -0.258 OA
ENDBRANCH  18  23
ENDBRANCH  15  16
ENDBRANCH  12  15
ENDBRANCH   7  12
ENDBRANCH   4   7
ENDBRANCH   2   3
ENDBRANCH   1   2
BRANCH   1  26
ATOM     26  C   UNL A   1      35.509  23.971  25.199  1.00  0.00     0.023 C 
BRANCH  26  27
ATOM     27  C   UNL A   1      36.723  23.992  26.116  1.00  0.00     0.116 C 
BRANCH  27  28
ATOM     28  N   UNL A   1      37.515  22.765  26.099  1.00  0.00    -0.352 N 
ATOM     29  C   UNL A   1      38.855  22.621  26.382  1.00  0.00     0.251 C 
ATOM     30  H   UNL A   1      37.032  21.941  25.855  1.00  0.00     0.163 HD
ATOM     31  O   UNL A   1      39.404  21.530  26.260  1.00  0.00    -0.269 OA
BRANCH  29  32
ATOM     32  C   UNL A   1      39.611  23.824  26.782  1.00  0.00     0.039 A 
ATOM     33  C   UNL A   1      39.975  24.755  25.809  1.00  0.00     0.014 A 
ATOM     34  C   UNL A   1      39.811  24.090  28.138  1.00  0.00     0.014 A 
ATOM     35  C   UNL A   1      40.452  26.005  26.208  1.00  0.00     0.010 A 
ATOM     36  C   UNL A   1      40.184  25.367  28.531  1.00  0.00     0.010 A 
ATOM     37  C   UNL A   1      40.504  26.341  27.572  1.00  0.00    -0.014 A 
BRANCH  37  38
ATOM     38  C   UNL A   1      40.894  27.700  28.029  1.00  0.00     0.031 A 
ATOM     39  C   UNL A   1      42.346  28.097  28.018  1.00  0.00     0.074 A 
ATOM     40  C   UNL A   1      39.964  28.535  28.537  1.00  0.00     0.049 A 
ATOM     41  N   UNL A   1      42.914  29.177  28.484  1.00  0.00    -0.248 NA
ATOM     42  C   UNL A   1      43.288  27.120  27.447  1.00  0.00     0.031 C 
ATOM     43  C   UNL A   1      38.532  28.241  28.658  1.00  0.00     0.029 A 
ATOM     44  N   UNL A   1      40.083  29.800  29.058  1.00  0.00    -0.354 N 
ATOM     45  C   UNL A   1      44.280  28.998  28.291  1.00  0.00     0.074 A 
ATOM     46  C   UNL A   1      44.455  27.674  27.734  1.00  0.00     0.031 C 
ATOM     47  C   UNL A   1      37.906  29.307  29.184  1.00  0.00     0.029 A 
ATOM     48  C   UNL A   1      38.891  30.341  29.483  1.00  0.00     0.049 A 
ATOM     49  H   UNL A   1      40.943  30.275  29.122  1.00  0.00     0.167 HD
ATOM     50  C   UNL A   1      45.292  29.868  28.528  1.00  0.00     0.034 A 
ATOM     51  C   UNL A   1      38.626  31.533  30.053  1.00  0.00     0.034 A 
ATOM     52  C   UNL A   1      45.094  31.197  29.046  1.00  0.00     0.049 A 
ATOM     53  C   UNL A   1      39.766  32.491  30.295  1.00  0.00     0.074 A 
ATOM     54  C   UNL A   1      46.035  32.191  29.255  1.00  0.00     0.029 A 
ATOM     55  N   UNL A   1      43.869  31.721  29.437  1.00  0.00    -0.354 N 
ATOM     56  N   UNL A   1      41.047  32.329  30.052  1.00  0.00    -0.248 NA
ATOM     57  C   UNL A   1      39.424  33.795  30.877  1.00  0.00     0.031 C 
ATOM     58  C   UNL A   1      45.388  33.293  29.825  1.00  0.00     0.029 A 
ATOM     59  C   UNL A   1      44.033  33.015  29.908  1.00  0.00     0.049 A 
ATOM     60  H   UNL A   1      43.009  31.245  29.387  1.00  0.00     0.167 HD
ATOM     61  C   UNL A   1      41.656  33.524  30.420  1.00  0.00     0.074 A 
ATOM     62  C   UNL A   1      40.602  34.400  30.888  1.00  0.00     0.031 C 
ATOM     63  C   UNL A   1      42.968  33.871  30.374  1.00  0.00     0.034 A 
BRANCH  50  64
ATOM     64  C   UNL A   1      46.696  29.392  28.238  1.00  0.00     0.023 A 
ATOM     65  C   UNL A   1      47.481  28.764  29.222  1.00  0.00     0.031 A 
ATOM     66  C   UNL A   1      47.274  29.607  26.975  1.00  0.00     0.131 A 
ATOM     67  C   UNL A   1      48.822  28.455  28.955  1.00  0.00     0.055 A 
ATOM     68  C   UNL A   1      48.583  29.215  26.688  1.00  0.00     0.041 A 
ATOM     69  F   UNL A   1      46.582  30.220  26.001  1.00  0.00    -0.206 F 
ATOM     70  C   UNL A   1      49.372  28.651  27.687  1.00  0.00     0.022 A 
BRANCH  67  71
ATOM     71  S   UNL A   1      49.879  27.938  30.336  1.00  0.00     0.124 S 
ATOM     72  O   UNL A   1      50.403  29.221  30.800  1.00  0.00    -0.237 OA
ATOM     73  O   UNL A   1      48.933  27.276  31.227  1.00  0.00    -0.237 OA
ATOM     74  O   UNL A   1      50.863  27.062  29.705  1.00  0.00    -0.744 OA
ENDBRANCH  67  71
ENDBRANCH  50  64
BRANCH  51  75
ATOM     75  C   UNL A   1      37.231  31.903  30.434  1.00  0.00     0.023 A 
ATOM     76  C   UNL A   1      36.367  32.503  29.505  1.00  0.00     0.031 A 
ATOM     77  C   UNL A   1      36.758  31.708  31.743  1.00  0.00     0.131 A 
ATOM     78  C   UNL A   1      35.094  32.936  29.909  1.00  0.00     0.055 A 
ATOM     79  C   UNL A   1      35.472  32.093  32.128  1.00  0.00     0.041 A 
ATOM     80  F   UNL A   1      37.540  31.132  32.669  1.00  0.00    -0.206 F 
ATOM     81  C   UNL A   1      34.636  32.724  31.211  1.00  0.00     0.022 A 
BRANCH  78  82
ATOM     82  S   UNL A   1      34.075  33.859  28.725  1.00  0.00     0.124 S 
ATOM     83  O   UNL A   1      35.050  34.776  28.146  1.00  0.00    -0.237 OA
ATOM     84  O   UNL A   1      33.592  32.797  27.849  1.00  0.00    -0.237 OA
ATOM     85  O   UNL A   1      33.056  34.482  29.568  1.00  0.00    -0.744 OA
ENDBRANCH  78  82
ENDBRANCH  51  75
BRANCH  63  86
ATOM     86  C   UNL A   1      43.320  35.276  30.794  1.00  0.00     0.023 A 
ATOM     87  C   UNL A   1      43.465  35.629  32.146  1.00  0.00     0.031 A 
ATOM     88  C   UNL A   1      43.505  36.276  29.822  1.00  0.00     0.131 A 
ATOM     89  C   UNL A   1      43.734  36.962  32.492  1.00  0.00     0.055 A 
ATOM     90  C   UNL A   1      43.829  37.586  30.171  1.00  0.00     0.041 A 
ATOM     91  F   UNL A   1      43.375  35.991  28.516  1.00  0.00    -0.206 F 
ATOM     92  C   UNL A   1      43.933  37.939  31.513  1.00  0.00     0.022 A 
BRANCH  89  93
ATOM     93  S   UNL A   1      43.736  37.421  34.247  1.00  0.00     0.124 S 
ATOM     94  O   UNL A   1      44.439  36.295  34.854  1.00  0.00    -0.237 OA
ATOM     95  O   UNL A   1      44.457  38.690  34.236  1.00  0.00    -0.237 OA
ATOM     96  O   UNL A   1      42.316  37.517  34.578  1.00  0.00    -0.744 OA
ENDBRANCH  89  93
ENDBRANCH  63  86
ENDBRANCH  37  38
ENDBRANCH  29  32
ENDBRANCH  27  28
ENDBRANCH  26  27
ENDBRANCH   1  26
TORSDOF 20
ENDMDL
MODEL 2
REMARK VINA RESULT:     -10.2      4.021      9.051
REMARK SMILES CCC(CC)([NH2+]Cc1ccc(Cl)cc1[N+](=O)[O-])C(=O)NCCCCNC(=O)c1ccc(-c2c3nc(c(-c4cc(S(=O)(=O)[O-])ccc4F)c4ccc([nH]4)c(-c4cc(S(=O)(=O)[O-])ccc4F)c4nc(c(-c5cc(S(=O)(=O)[O-])ccc5F)c5ccc2[nH]5)C=C4)C=C3)cc1
REMARK SMILES IDX 22 1 21 2 20 3 18 4 19 5 3 7 2 8 1 9 4 10 5 11 6 12 7 15
REMARK SMILES IDX 8 16 9 17 14 18 10 19 13 20 11 21 12 22 15 23 16 24 17 25
REMARK SMILES IDX 23 26 24 27 25 28 26 29 27 31 28 32 29 33 90 34 30 35 89 36
REMARK SMILES IDX 31 37 32 38 33 39 83 40 34 41 88 42 82 43 84 44 35 45 87 46
REMARK SMILES IDX 81 47 80 48 36 50 68 51 48 52 67 53 49 54 52 55 66 56 85 57
REMARK SMILES IDX 50 58 51 59 65 61 86 62 53 63 37 64 38 65 46 66 39 67 45 68
REMARK SMILES IDX 47 69 44 70 40 71 41 72 42 73 43 74 69 75 70 76 78 77 71 78
REMARK SMILES IDX 77 79 79 80 76 81 72 82 73 83 74 84 75 85 54 86 55 87 63 88
REMARK SMILES IDX 56 89 62 90 64 91 61 92 57 93 58 94 59 95 60 96
REMARK H PARENT 20 6 6 13 6 14 25 30 84 49 52 60
REMARK Flexibility Score: inf
ROOT
ATOM      1  C   UNL A   1      31.098  29.764  24.692  1.00  0.00     0.023 C 
ENDROOT
BRANCH   1   2
ATOM      2  C   UNL A   1      31.102  28.582  23.717  1.00  0.00     0.116 C 
BRANCH   2   3
ATOM      3  N   UNL A   1      30.783  27.369  24.429  1.00  0.00    -0.351 N 
ATOM      4  C   UNL A   1      31.277  26.106  24.302  1.00  0.00     0.281 C 
ATOM      5  O   UNL A   1      30.478  25.213  24.613  1.00  0.00    -0.268 OA
ATOM      6  H   UNL A   1      30.094  27.470  25.124  1.00  0.00     0.163 HD
BRANCH   4   7
ATOM      7  C   UNL A   1      32.749  25.767  23.827  1.00  0.00     0.175 C 
BRANCH   7   8
ATOM      8  C   UNL A   1      33.677  26.686  24.731  1.00  0.00     0.076 C 
ATOM      9  C   UNL A   1      33.483  26.572  26.245  1.00  0.00     0.011 C 
ENDBRANCH   7   8
BRANCH   7  10
ATOM     10  C   UNL A   1      32.970  26.139  22.331  1.00  0.00     0.076 C 
ATOM     11  C   UNL A   1      31.790  26.029  21.365  1.00  0.00     0.011 C 
ENDBRANCH   7  10
BRANCH   7  12
ATOM     12  N   UNL A   1      33.186  24.405  24.276  1.00  0.00    -0.330 N 
ATOM     13  H   UNL A   1      32.369  23.987  24.723  1.00  0.00     0.347 HD
ATOM     14  H   UNL A   1      34.018  24.638  24.818  1.00  0.00     0.347 HD
BRANCH  12  15
ATOM     15  C   UNL A   1      33.716  23.379  23.381  1.00  0.00     0.305 C 
BRANCH  15  16
ATOM     16  C   UNL A   1      33.721  21.979  23.948  1.00  0.00     0.084 A 
ATOM     17  C   UNL A   1      32.655  21.110  23.670  1.00  0.00     0.018 A 
ATOM     18  C   UNL A   1      34.767  21.467  24.731  1.00  0.00     0.279 A 
ATOM     19  C   UNL A   1      32.750  19.741  23.921  1.00  0.00     0.021 A 
ATOM     20  C   UNL A   1      34.889  20.093  24.978  1.00  0.00     0.106 A 
ATOM     21  C   UNL A   1      33.896  19.231  24.520  1.00  0.00     0.047 A 
ATOM     22  Cl  UNL A   1      34.071  17.534  24.718  1.00  0.00    -0.084 Cl
BRANCH  18  23
ATOM     23  N   UNL A   1      35.726  22.366  25.371  1.00  0.00     0.063 N 
ATOM     24  O   UNL A   1      36.913  22.284  25.022  1.00  0.00    -0.258 OA
ATOM     25  O   UNL A   1      35.303  23.074  26.298  1.00  0.00    -0.258 OA
ENDBRANCH  18  23
ENDBRANCH  15  16
ENDBRANCH  12  15
ENDBRANCH   7  12
ENDBRANCH   4   7
ENDBRANCH   2   3
ENDBRANCH   1   2
BRANCH   1  26
ATOM     26  C   UNL A   1      32.410  29.993  25.424  1.00  0.00     0.023 C 
BRANCH  26  27
ATOM     27  C   UNL A   1      32.257  30.419  26.877  1.00  0.00     0.116 C 
BRANCH  27  28
ATOM     28  N   UNL A   1      32.208  31.864  27.081  1.00  0.00    -0.352 N 
ATOM     29  C   UNL A   1      33.206  32.682  27.564  1.00  0.00     0.251 C 
ATOM     30  H   UNL A   1      31.360  32.306  26.844  1.00  0.00     0.163 HD
ATOM     31  O   UNL A   1      32.997  33.878  27.746  1.00  0.00    -0.269 OA
BRANCH  29  32
ATOM     32  C   UNL A   1      34.503  32.066  27.903  1.00  0.00     0.039 A 
ATOM     33  C   UNL A   1      35.631  32.878  28.028  1.00  0.00     0.014 A 
ATOM     34  C   UNL A   1      34.553  30.714  28.247  1.00  0.00     0.014 A 
ATOM     35  C   UNL A   1      36.790  32.350  28.598  1.00  0.00     0.010 A 
ATOM     36  C   UNL A   1      35.669  30.223  28.909  1.00  0.00     0.010 A 
ATOM     37  C   UNL A   1      36.798  31.035  29.097  1.00  0.00    -0.014 A 
BRANCH  37  38
ATOM     38  C   UNL A   1      37.975  30.477  29.814  1.00  0.00     0.031 A 
ATOM     39  C   UNL A   1      38.240  30.893  31.236  1.00  0.00     0.074 A 
ATOM     40  C   UNL A   1      38.846  29.679  29.164  1.00  0.00     0.049 A 
ATOM     41  N   UNL A   1      39.267  30.627  32.000  1.00  0.00    -0.248 NA
ATOM     42  C   UNL A   1      37.235  31.768  31.862  1.00  0.00     0.031 C 
ATOM     43  C   UNL A   1      38.730  29.254  27.766  1.00  0.00     0.029 A 
ATOM     44  N   UNL A   1      40.011  29.089  29.589  1.00  0.00    -0.354 N 
ATOM     45  C   UNL A   1      39.046  31.324  33.183  1.00  0.00     0.074 A 
ATOM     46  C   UNL A   1      37.826  32.081  33.004  1.00  0.00     0.031 C 
ATOM     47  C   UNL A   1      39.761  28.447  27.463  1.00  0.00     0.029 A 
ATOM     48  C   UNL A   1      40.636  28.332  28.624  1.00  0.00     0.049 A 
ATOM     49  H   UNL A   1      40.366  29.198  30.501  1.00  0.00     0.167 HD
ATOM     50  C   UNL A   1      39.776  31.310  34.326  1.00  0.00     0.034 A 
ATOM     51  C   UNL A   1      41.786  27.632  28.671  1.00  0.00     0.034 A 
ATOM     52  C   UNL A   1      40.967  30.519  34.499  1.00  0.00     0.049 A 
ATOM     53  C   UNL A   1      42.576  27.620  29.956  1.00  0.00     0.074 A 
ATOM     54  C   UNL A   1      41.744  30.367  35.634  1.00  0.00     0.029 A 
ATOM     55  N   UNL A   1      41.553  29.741  33.509  1.00  0.00    -0.354 N 
ATOM     56  N   UNL A   1      42.323  28.239  31.088  1.00  0.00    -0.248 NA
ATOM     57  C   UNL A   1      43.799  26.808  29.976  1.00  0.00     0.031 C 
ATOM     58  C   UNL A   1      42.831  29.546  35.314  1.00  0.00     0.029 A 
ATOM     59  C   UNL A   1      42.696  29.127  34.000  1.00  0.00     0.049 A 
ATOM     60  H   UNL A   1      41.209  29.640  32.593  1.00  0.00     0.167 HD
ATOM     61  C   UNL A   1      43.338  27.861  31.962  1.00  0.00     0.074 A 
ATOM     62  C   UNL A   1      44.197  26.953  31.231  1.00  0.00     0.031 C 
ATOM     63  C   UNL A   1      43.542  28.227  33.253  1.00  0.00     0.034 A 
BRANCH  50  64
ATOM     64  C   UNL A   1      39.305  32.190  35.460  1.00  0.00     0.023 A 
ATOM     65  C   UNL A   1      39.664  33.548  35.539  1.00  0.00     0.031 A 
ATOM     66  C   UNL A   1      38.523  31.655  36.498  1.00  0.00     0.131 A 
ATOM     67  C   UNL A   1      39.317  34.299  36.671  1.00  0.00     0.055 A 
ATOM     68  C   UNL A   1      38.105  32.433  37.580  1.00  0.00     0.041 A 
ATOM     69  F   UNL A   1      38.167  30.361  36.489  1.00  0.00    -0.206 F 
ATOM     70  C   UNL A   1      38.518  33.759  37.680  1.00  0.00     0.022 A 
BRANCH  67  71
ATOM     71  S   UNL A   1      40.058  35.941  36.876  1.00  0.00     0.124 S 
ATOM     72  O   UNL A   1      41.474  35.608  37.017  1.00  0.00    -0.237 OA
ATOM     73  O   UNL A   1      39.681  36.615  35.640  1.00  0.00    -0.237 OA
ATOM     74  O   UNL A   1      39.423  36.454  38.088  1.00  0.00    -0.744 OA
ENDBRANCH  67  71
ENDBRANCH  50  64
BRANCH  51  75
ATOM     75  C   UNL A   1      42.270  26.878  27.478  1.00  0.00     0.023 A 
ATOM     76  C   UNL A   1      42.025  25.502  27.349  1.00  0.00     0.031 A 
ATOM     77  C   UNL A   1      43.025  27.510  26.475  1.00  0.00     0.131 A 
ATOM     78  C   UNL A   1      42.574  24.790  26.270  1.00  0.00     0.055 A 
ATOM     79  C   UNL A   1      43.526  26.808  25.375  1.00  0.00     0.041 A 
ATOM     80  F   UNL A   1      43.282  28.826  26.544  1.00  0.00    -0.206 F 
ATOM     81  C   UNL A   1      43.313  25.436  25.276  1.00  0.00     0.022 A 
BRANCH  78  82
ATOM     82  S   UNL A   1      42.378  22.987  26.232  1.00  0.00     0.124 S 
ATOM     83  O   UNL A   1      42.870  22.664  24.897  1.00  0.00    -0.237 OA
ATOM     84  O   UNL A   1      43.221  22.567  27.346  1.00  0.00    -0.237 OA
ATOM     85  O   UNL A   1      40.943  22.797  26.432  1.00  0.00    -0.744 OA
ENDBRANCH  78  82
ENDBRANCH  51  75
BRANCH  63  86
ATOM     86  C   UNL A   1      44.713  27.599  33.965  1.00  0.00     0.023 A 
ATOM     87  C   UNL A   1      44.599  26.367  34.631  1.00  0.00     0.031 A 
ATOM     88  C   UNL A   1      45.959  28.251  33.982  1.00  0.00     0.131 A 
ATOM     89  C   UNL A   1      45.700  25.850  35.331  1.00  0.00     0.055 A 
ATOM     90  C   UNL A   1      47.065  27.703  34.631  1.00  0.00     0.041 A 
ATOM     91  F   UNL A   1      46.121  29.432  33.363  1.00  0.00    -0.206 F 
ATOM     92  C   UNL A   1      46.936  26.502  35.321  1.00  0.00     0.022 A 
BRANCH  89  93
ATOM     93  S   UNL A   1      45.470  24.353  36.327  1.00  0.00     0.124 S 
ATOM     94  O   UNL A   1      45.771  24.834  37.672  1.00  0.00    -0.237 OA
ATOM     95  O   UNL A   1      44.073  24.017  36.069  1.00  0.00    -0.237 OA
ATOM     96  O   UNL A   1      46.444  23.416  35.771  1.00  0.00    -0.744 OA
ENDBRANCH  89  93
ENDBRANCH  63  86
ENDBRANCH  37  38
ENDBRANCH  29  32
ENDBRANCH  27  28
ENDBRANCH  26  27
ENDBRANCH   1  26
TORSDOF 20
ENDMDL
MODEL 3
REMARK VINA RESULT:     -10.1      2.909      4.237
REMARK SMILES CCC(CC)([NH2+]Cc1ccc(Cl)cc1[N+](=O)[O-])C(=O)NCCCCNC(=O)c1ccc(-c2c3nc(c(-c4cc(S(=O)(=O)[O-])ccc4F)c4ccc([nH]4)c(-c4cc(S(=O)(=O)[O-])ccc4F)c4nc(c(-c5cc(S(=O)(=O)[O-])ccc5F)c5ccc2[nH]5)C=C4)C=C3)cc1
REMARK SMILES IDX 22 1 21 2 20 3 18 4 19 5 3 7 2 8 1 9 4 10 5 11 6 12 7 15
REMARK SMILES IDX 8 16 9 17 14 18 10 19 13 20 11 21 12 22 15 23 16 24 17 25
REMARK SMILES IDX 23 26 24 27 25 28 26 29 27 31 28 32 29 33 90 34 30 35 89 36
REMARK SMILES IDX 31 37 32 38 33 39 83 40 34 41 88 42 82 43 84 44 35 45 87 46
REMARK SMILES IDX 81 47 80 48 36 50 68 51 48 52 67 53 49 54 52 55 66 56 85 57
REMARK SMILES IDX 50 58 51 59 65 61 86 62 53 63 37 64 38 65 46 66 39 67 45 68
REMARK SMILES IDX 47 69 44 70 40 71 41 72 42 73 43 74 69 75 70 76 78 77 71 78
REMARK SMILES IDX 77 79 79 80 76 81 72 82 73 83 74 84 75 85 54 86 55 87 63 88
REMARK SMILES IDX 56 89 62 90 64 91 61 92 57 93 58 94 59 95 60 96
REMARK H PARENT 20 6 6 13 6 14 25 30 84 49 52 60
REMARK Flexibility Score: inf
ROOT
ATOM      1  C   UNL A   1      36.898  22.625  23.545  1.00  0.00     0.023 C 
ENDROOT
BRANCH   1   2
ATOM      2  C   UNL A   1      35.479  23.147  23.300  1.00  0.00     0.116 C 
BRANCH   2   3
ATOM      3  N   UNL A   1      35.137  24.112  24.317  1.00  0.00    -0.351 N 
ATOM      4  C   UNL A   1      33.932  24.631  24.683  1.00  0.00     0.281 C 
ATOM      5  O   UNL A   1      33.992  25.774  25.152  1.00  0.00    -0.268 OA
ATOM      6  H   UNL A   1      35.902  24.451  24.834  1.00  0.00     0.163 HD
BRANCH   4   7
ATOM      7  C   UNL A   1      32.554  23.860  24.560  1.00  0.00     0.175 C 
BRANCH   7   8
ATOM      8  C   UNL A   1      32.713  22.611  25.528  1.00  0.00     0.076 C 
ATOM      9  C   UNL A   1      32.046  22.721  26.900  1.00  0.00     0.011 C 
ENDBRANCH   7   8
BRANCH   7  10
ATOM     10  C   UNL A   1      32.308  23.350  23.109  1.00  0.00     0.076 C 
ATOM     11  C   UNL A   1      32.188  21.844  22.871  1.00  0.00     0.011 C 
ENDBRANCH   7  10
BRANCH   7  12
ATOM     12  N   UNL A   1      31.436  24.594  25.237  1.00  0.00    -0.330 N 
ATOM     13  H   UNL A   1      31.855  25.042  26.053  1.00  0.00     0.347 HD
ATOM     14  H   UNL A   1      30.751  23.847  25.343  1.00  0.00     0.347 HD
BRANCH  12  15
ATOM     15  C   UNL A   1      30.626  25.625  24.593  1.00  0.00     0.305 C 
BRANCH  15  16
ATOM     16  C   UNL A   1      30.820  27.021  25.136  1.00  0.00     0.084 A 
ATOM     17  C   UNL A   1      31.179  27.202  26.481  1.00  0.00     0.018 A 
ATOM     18  C   UNL A   1      30.692  28.179  24.353  1.00  0.00     0.279 A 
ATOM     19  C   UNL A   1      31.648  28.431  26.948  1.00  0.00     0.021 A 
ATOM     20  C   UNL A   1      31.173  29.418  24.799  1.00  0.00     0.106 A 
ATOM     21  C   UNL A   1      31.699  29.519  26.084  1.00  0.00     0.047 A 
ATOM     22  Cl  UNL A   1      32.389  30.998  26.617  1.00  0.00    -0.084 Cl
BRANCH  18  23
ATOM     23  N   UNL A   1      29.987  28.137  23.074  1.00  0.00     0.063 N 
ATOM     24  O   UNL A   1      30.627  27.774  22.076  1.00  0.00    -0.258 OA
ATOM     25  O   UNL A   1      28.825  28.572  23.056  1.00  0.00    -0.258 OA
ENDBRANCH  18  23
ENDBRANCH  15  16
ENDBRANCH  12  15
ENDBRANCH   7  12
ENDBRANCH   4   7
ENDBRANCH   2   3
ENDBRANCH   1   2
BRANCH   1  26
ATOM     26  C   UNL A   1      36.974  21.193  24.047  1.00  0.00     0.023 C 
BRANCH  26  27
ATOM     27  C   UNL A   1      37.478  21.051  25.476  1.00  0.00     0.116 C 
BRANCH  27  28
ATOM     28  N   UNL A   1      38.585  20.113  25.635  1.00  0.00    -0.352 N 
ATOM     29  C   UNL A   1      39.816  20.349  26.206  1.00  0.00     0.251 C 
ATOM     30  H   UNL A   1      38.434  19.202  25.292  1.00  0.00     0.163 HD
ATOM     31  O   UNL A   1      40.680  19.476  26.209  1.00  0.00    -0.269 OA
BRANCH  29  32
ATOM     32  C   UNL A   1      40.076  21.692  26.760  1.00  0.00     0.039 A 
ATOM     33  C   UNL A   1      41.021  21.839  27.777  1.00  0.00     0.014 A 
ATOM     34  C   UNL A   1      39.495  22.809  26.156  1.00  0.00     0.014 A 
ATOM     35  C   UNL A   1      41.459  23.119  28.119  1.00  0.00     0.010 A 
ATOM     36  C   UNL A   1      40.010  24.069  26.424  1.00  0.00     0.010 A 
ATOM     37  C   UNL A   1      41.000  24.239  27.405  1.00  0.00    -0.014 A 
BRANCH  37  38
ATOM     38  C   UNL A   1      41.530  25.603  27.662  1.00  0.00     0.031 A 
ATOM     39  C   UNL A   1      42.917  25.958  27.197  1.00  0.00     0.074 A 
ATOM     40  C   UNL A   1      40.810  26.483  28.389  1.00  0.00     0.049 A 
ATOM     41  N   UNL A   1      43.616  27.039  27.423  1.00  0.00    -0.248 NA
ATOM     42  C   UNL A   1      43.628  24.935  26.413  1.00  0.00     0.031 C 
ATOM     43  C   UNL A   1      39.477  26.233  28.948  1.00  0.00     0.029 A 
ATOM     44  N   UNL A   1      41.100  27.762  28.793  1.00  0.00    -0.354 N 
ATOM     45  C   UNL A   1      44.857  26.815  26.836  1.00  0.00     0.074 A 
ATOM     46  C   UNL A   1      44.836  25.466  26.311  1.00  0.00     0.031 C 
ATOM     47  C   UNL A   1      39.055  27.336  29.590  1.00  0.00     0.029 A 
ATOM     48  C   UNL A   1      40.100  28.353  29.532  1.00  0.00     0.049 A 
ATOM     49  H   UNL A   1      41.946  28.215  28.574  1.00  0.00     0.167 HD
ATOM     50  C   UNL A   1      45.907  27.664  26.718  1.00  0.00     0.034 A 
ATOM     51  C   UNL A   1      40.037  29.572  30.102  1.00  0.00     0.034 A 
ATOM     52  C   UNL A   1      45.895  29.017  27.213  1.00  0.00     0.049 A 
ATOM     53  C   UNL A   1      41.212  30.506  29.947  1.00  0.00     0.074 A 
ATOM     54  C   UNL A   1      46.869  29.992  27.084  1.00  0.00     0.029 A 
ATOM     55  N   UNL A   1      44.852  29.590  27.930  1.00  0.00    -0.354 N 
ATOM     56  N   UNL A   1      42.357  30.299  29.338  1.00  0.00    -0.248 NA
ATOM     57  C   UNL A   1      41.081  31.840  30.546  1.00  0.00     0.031 C 
ATOM     58  C   UNL A   1      46.442  31.132  27.773  1.00  0.00     0.029 A 
ATOM     59  C   UNL A   1      45.171  30.896  28.272  1.00  0.00     0.049 A 
ATOM     60  H   UNL A   1      44.010  29.136  28.162  1.00  0.00     0.167 HD
ATOM     61  C   UNL A   1      43.068  31.490  29.452  1.00  0.00     0.074 A 
ATOM     62  C   UNL A   1      42.217  32.412  30.176  1.00  0.00     0.031 C 
ATOM     63  C   UNL A   1      44.309  31.798  28.998  1.00  0.00     0.034 A 
BRANCH  50  64
ATOM     64  C   UNL A   1      47.150  27.139  26.041  1.00  0.00     0.023 A 
ATOM     65  C   UNL A   1      48.123  26.409  26.747  1.00  0.00     0.031 A 
ATOM     66  C   UNL A   1      47.388  27.408  24.682  1.00  0.00     0.131 A 
ATOM     67  C   UNL A   1      49.324  26.050  26.117  1.00  0.00     0.055 A 
ATOM     68  C   UNL A   1      48.548  26.971  24.037  1.00  0.00     0.041 A 
ATOM     69  F   UNL A   1      46.508  28.119  23.960  1.00  0.00    -0.206 F 
ATOM     70  C   UNL A   1      49.532  26.303  24.760  1.00  0.00     0.022 A 
BRANCH  67  71
ATOM     71  S   UNL A   1      50.669  25.390  27.138  1.00  0.00     0.124 S 
ATOM     72  O   UNL A   1      51.617  24.942  26.121  1.00  0.00    -0.237 OA
ATOM     73  O   UNL A   1      51.073  26.553  27.920  1.00  0.00    -0.237 OA
ATOM     74  O   UNL A   1      50.028  24.318  27.898  1.00  0.00    -0.744 OA
ENDBRANCH  67  71
ENDBRANCH  50  64
BRANCH  51  75
ATOM     75  C   UNL A   1      38.828  29.995  30.868  1.00  0.00     0.023 A 
ATOM     76  C   UNL A   1      37.854  30.815  30.278  1.00  0.00     0.031 A 
ATOM     77  C   UNL A   1      38.654  29.628  32.213  1.00  0.00     0.131 A 
ATOM     78  C   UNL A   1      36.776  31.285  31.045  1.00  0.00     0.055 A 
ATOM     79  C   UNL A   1      37.552  30.055  32.958  1.00  0.00     0.041 A 
ATOM     80  F   UNL A   1      39.551  28.838  32.824  1.00  0.00    -0.206 F 
ATOM     81  C   UNL A   1      36.611  30.901  32.377  1.00  0.00     0.022 A 
BRANCH  78  82
ATOM     82  S   UNL A   1      35.633  32.479  30.295  1.00  0.00     0.124 S 
ATOM     83  O   UNL A   1      36.391  33.720  30.400  1.00  0.00    -0.237 OA
ATOM     84  O   UNL A   1      35.470  31.938  28.950  1.00  0.00    -0.237 OA
ATOM     85  O   UNL A   1      34.448  32.395  31.146  1.00  0.00    -0.744 OA
ENDBRANCH  78  82
ENDBRANCH  51  75
BRANCH  63  86
ATOM     86  C   UNL A   1      44.793  33.208  29.230  1.00  0.00     0.023 A 
ATOM     87  C   UNL A   1      44.466  34.254  28.352  1.00  0.00     0.031 A 
ATOM     88  C   UNL A   1      45.598  33.502  30.345  1.00  0.00     0.131 A 
ATOM     89  C   UNL A   1      44.987  35.538  28.574  1.00  0.00     0.055 A 
ATOM     90  C   UNL A   1      46.065  34.792  30.592  1.00  0.00     0.041 A 
ATOM     91  F   UNL A   1      45.940  32.537  31.214  1.00  0.00    -0.206 F 
ATOM     92  C   UNL A   1      45.771  35.817  29.697  1.00  0.00     0.022 A 
BRANCH  89  93
ATOM     93  S   UNL A   1      44.697  36.822  27.327  1.00  0.00     0.124 S 
ATOM     94  O   UNL A   1      43.579  36.266  26.573  1.00  0.00    -0.237 OA
ATOM     95  O   UNL A   1      44.394  37.991  28.148  1.00  0.00    -0.237 OA
ATOM     96  O   UNL A   1      45.964  36.888  26.601  1.00  0.00    -0.744 OA
ENDBRANCH  89  93
ENDBRANCH  63  86
ENDBRANCH  37  38
ENDBRANCH  29  32
ENDBRANCH  27  28
ENDBRANCH  26  27
ENDBRANCH   1  26
TORSDOF 20
ENDMDL
