MODEL 1
REMARK VINA RESULT:     -12.0      0.000      0.000
REMARK SMILES O=C(NCCCCNC(=O)c1cn(C2C[NH+](CC[NH+]3CCCCC3)C2)nn1)c1ccc(-c2c3nc(c(-c4cc(S(=O)(=O)[O-])ccc4F)c4ccc([nH]4)c(-c4cc(S(=O)(=O)[O-])ccc4F)c4nc(c(-c5cc(S(=O)(=O)[O-])ccc5F)c5ccc2[nH]5)C=C4)C=C3)cc1
REMARK SMILES IDX 6 1 5 2 4 3 3 4 1 5 2 6 28 8 29 9 90 10 30 11 89 12 31 13
REMARK SMILES IDX 32 14 33 15 83 16 34 17 88 18 82 19 84 20 35 21 87 22 81 23
REMARK SMILES IDX 80 24 36 26 68 27 48 28 67 29 49 30 52 31 66 32 85 33 50 34
REMARK SMILES IDX 51 35 65 37 86 38 53 39 37 40 38 41 46 42 39 43 45 44 47 45
REMARK SMILES IDX 44 46 40 47 41 48 42 49 43 50 69 51 70 52 78 53 71 54 77 55
REMARK SMILES IDX 79 56 76 57 72 58 73 59 74 60 75 61 54 62 55 63 63 64 56 65
REMARK SMILES IDX 62 66 64 67 61 68 57 69 58 70 59 71 60 72 7 73 8 74 9 75
REMARK SMILES IDX 10 77 11 78 12 79 27 80 13 81 26 82 14 83 15 84 25 85 16 86
REMARK SMILES IDX 17 88 18 89 19 90 20 91 24 92 21 94 23 95 22 96
REMARK H PARENT 3 7 84 25 52 36 8 76 16 87 19 93
REMARK Flexibility Score: inf
ROOT
ATOM      1  C   UNL A   1      36.089  21.787  24.693  1.00  0.00     0.023 C 
ENDROOT
BRANCH   1   2
ATOM      2  C   UNL A   1      37.610  21.646  24.704  1.00  0.00     0.023 C 
BRANCH   2   3
ATOM      3  C   UNL A   1      38.340  22.429  25.796  1.00  0.00     0.116 C 
BRANCH   3   4
ATOM      4  N   UNL A   1      39.752  22.136  25.921  1.00  0.00    -0.352 N 
ATOM      5  O   UNL A   1      41.841  22.075  26.633  1.00  0.00    -0.269 OA
ATOM      6  C   UNL A   1      40.786  22.716  26.608  1.00  0.00     0.251 C 
ATOM      7  H   UNL A   1      40.031  21.349  25.400  1.00  0.00     0.163 HD
BRANCH   6   8
ATOM      8  C   UNL A   1      40.735  24.056  27.257  1.00  0.00     0.039 A 
ATOM      9  C   UNL A   1      39.801  25.054  26.981  1.00  0.00     0.014 A 
ATOM     10  C   UNL A   1      41.751  24.334  28.192  1.00  0.00     0.014 A 
ATOM     11  C   UNL A   1      39.939  26.327  27.522  1.00  0.00     0.010 A 
ATOM     12  C   UNL A   1      41.871  25.595  28.768  1.00  0.00     0.010 A 
ATOM     13  C   UNL A   1      40.986  26.605  28.399  1.00  0.00    -0.014 A 
BRANCH  13  14
ATOM     14  C   UNL A   1      41.037  27.942  28.985  1.00  0.00     0.031 A 
ATOM     15  C   UNL A   1      42.082  28.852  28.438  1.00  0.00     0.074 A 
ATOM     16  C   UNL A   1      40.126  28.405  29.862  1.00  0.00     0.049 A 
ATOM     17  N   UNL A   1      43.028  29.471  29.067  1.00  0.00    -0.248 NA
ATOM     18  C   UNL A   1      42.121  29.036  26.979  1.00  0.00     0.031 C 
ATOM     19  C   UNL A   1      38.882  27.759  30.281  1.00  0.00     0.029 A 
ATOM     20  N   UNL A   1      40.068  29.626  30.470  1.00  0.00    -0.354 N 
ATOM     21  C   UNL A   1      43.664  30.278  28.123  1.00  0.00     0.074 A 
ATOM     22  C   UNL A   1      43.156  29.865  26.842  1.00  0.00     0.031 C 
ATOM     23  C   UNL A   1      38.090  28.676  30.878  1.00  0.00     0.029 A 
ATOM     24  C   UNL A   1      38.819  29.929  30.994  1.00  0.00     0.049 A 
ATOM     25  H   UNL A   1      40.840  30.234  30.531  1.00  0.00     0.167 HD
ATOM     26  C   UNL A   1      44.426  31.350  28.481  1.00  0.00     0.034 A 
ATOM     27  C   UNL A   1      38.378  31.141  31.414  1.00  0.00     0.034 A 
ATOM     28  C   UNL A   1      44.863  31.255  29.854  1.00  0.00     0.049 A 
ATOM     29  C   UNL A   1      39.565  31.969  31.730  1.00  0.00     0.074 A 
ATOM     30  C   UNL A   1      45.598  30.334  30.576  1.00  0.00     0.029 A 
ATOM     31  N   UNL A   1      44.276  32.066  30.797  1.00  0.00    -0.354 N 
ATOM     32  N   UNL A   1      40.388  31.708  32.708  1.00  0.00    -0.248 NA
ATOM     33  C   UNL A   1      40.091  32.857  30.705  1.00  0.00     0.031 C 
ATOM     34  C   UNL A   1      45.001  30.321  31.872  1.00  0.00     0.029 A 
ATOM     35  C   UNL A   1      43.973  31.265  31.868  1.00  0.00     0.049 A 
ATOM     36  H   UNL A   1      44.108  33.033  30.718  1.00  0.00     0.167 HD
ATOM     37  C   UNL A   1      41.643  32.034  32.221  1.00  0.00     0.074 A 
ATOM     38  C   UNL A   1      41.386  32.847  31.035  1.00  0.00     0.031 C 
ATOM     39  C   UNL A   1      42.765  31.389  32.658  1.00  0.00     0.034 A 
BRANCH  26  40
ATOM     40  C   UNL A   1      44.522  32.644  27.697  1.00  0.00     0.023 A 
ATOM     41  C   UNL A   1      43.829  33.763  28.203  1.00  0.00     0.031 A 
ATOM     42  C   UNL A   1      44.989  32.767  26.368  1.00  0.00     0.131 A 
ATOM     43  C   UNL A   1      43.526  34.863  27.381  1.00  0.00     0.055 A 
ATOM     44  C   UNL A   1      44.752  33.898  25.580  1.00  0.00     0.041 A 
ATOM     45  F   UNL A   1      45.614  31.774  25.726  1.00  0.00    -0.206 F 
ATOM     46  C   UNL A   1      43.984  34.939  26.070  1.00  0.00     0.022 A 
BRANCH  43  47
ATOM     47  S   UNL A   1      42.338  36.090  27.991  1.00  0.00     0.124 S 
ATOM     48  O   UNL A   1      43.093  36.720  29.070  1.00  0.00    -0.237 OA
ATOM     49  O   UNL A   1      42.114  36.904  26.801  1.00  0.00    -0.237 OA
ATOM     50  O   UNL A   1      41.202  35.278  28.419  1.00  0.00    -0.744 OA
ENDBRANCH  43  47
ENDBRANCH  26  40
BRANCH  27  51
ATOM     51  C   UNL A   1      37.006  31.683  31.233  1.00  0.00     0.023 A 
ATOM     52  C   UNL A   1      36.269  32.259  32.285  1.00  0.00     0.031 A 
ATOM     53  C   UNL A   1      36.479  31.828  29.929  1.00  0.00     0.131 A 
ATOM     54  C   UNL A   1      35.051  32.926  32.012  1.00  0.00     0.055 A 
ATOM     55  C   UNL A   1      35.269  32.472  29.668  1.00  0.00     0.041 A 
ATOM     56  F   UNL A   1      37.164  31.418  28.850  1.00  0.00    -0.206 F 
ATOM     57  C   UNL A   1      34.552  33.031  30.711  1.00  0.00     0.022 A 
BRANCH  54  58
ATOM     58  S   UNL A   1      34.144  33.762  33.351  1.00  0.00     0.124 S 
ATOM     59  O   UNL A   1      34.055  35.131  32.858  1.00  0.00    -0.237 OA
ATOM     60  O   UNL A   1      32.896  33.008  33.402  1.00  0.00    -0.237 OA
ATOM     61  O   UNL A   1      35.013  33.583  34.515  1.00  0.00    -0.744 OA
ENDBRANCH  54  58
ENDBRANCH  27  51
BRANCH  39  62
ATOM     62  C   UNL A   1      42.667  30.527  33.899  1.00  0.00     0.023 A 
ATOM     63  C   UNL A   1      42.214  29.188  33.902  1.00  0.00     0.031 A 
ATOM     64  C   UNL A   1      43.181  31.045  35.100  1.00  0.00     0.131 A 
ATOM     65  C   UNL A   1      42.271  28.427  35.084  1.00  0.00     0.055 A 
ATOM     66  C   UNL A   1      43.252  30.282  36.265  1.00  0.00     0.041 A 
ATOM     67  F   UNL A   1      43.664  32.298  35.151  1.00  0.00    -0.206 F 
ATOM     68  C   UNL A   1      42.791  28.971  36.263  1.00  0.00     0.022 A 
BRANCH  65  69
ATOM     69  S   UNL A   1      41.670  26.708  35.102  1.00  0.00     0.124 S 
ATOM     70  O   UNL A   1      41.279  26.497  36.492  1.00  0.00    -0.237 OA
ATOM     71  O   UNL A   1      40.582  26.742  34.129  1.00  0.00    -0.237 OA
ATOM     72  O   UNL A   1      42.839  25.935  34.676  1.00  0.00    -0.744 OA
ENDBRANCH  65  69
ENDBRANCH  39  62
ENDBRANCH  13  14
ENDBRANCH   6   8
ENDBRANCH   3   4
ENDBRANCH   2   3
ENDBRANCH   1   2
BRANCH   1  73
ATOM     73  C   UNL A   1      35.338  20.875  25.652  1.00  0.00     0.116 C 
BRANCH  73  74
ATOM     74  N   UNL A   1      34.724  19.735  24.995  1.00  0.00    -0.351 N 
ATOM     75  C   UNL A   1      33.467  19.633  24.436  1.00  0.00     0.273 C 
ATOM     76  H   UNL A   1      35.281  18.925  24.940  1.00  0.00     0.163 HD
ATOM     77  O   UNL A   1      33.094  18.556  24.006  1.00  0.00    -0.267 OA
BRANCH  75  78
ATOM     78  C   UNL A   1      32.631  20.823  24.416  1.00  0.00     0.170 A 
ATOM     79  C   UNL A   1      32.617  21.872  23.512  1.00  0.00     0.145 A 
ATOM     80  N   UNL A   1      31.708  21.069  25.400  1.00  0.00    -0.125 NA
ATOM     81  N   UNL A   1      31.814  22.794  24.110  1.00  0.00    -0.237 N 
ATOM     82  N   UNL A   1      31.212  22.278  25.199  1.00  0.00    -0.066 NA
BRANCH  81  83
ATOM     83  C   UNL A   1      31.720  24.191  23.862  1.00  0.00     0.218 C 
ATOM     84  C   UNL A   1      30.327  24.843  23.785  1.00  0.00     0.296 C 
ATOM     85  C   UNL A   1      31.932  25.112  25.071  1.00  0.00     0.296 C 
ATOM     86  N   UNL A   1      30.863  25.999  24.545  1.00  0.00    -0.326 N 
ATOM     87  H   UNL A   1      30.284  26.541  25.186  1.00  0.00     0.348 HD
BRANCH  86  88
ATOM     88  C   UNL A   1      31.337  27.102  23.665  1.00  0.00     0.324 C 
BRANCH  88  89
ATOM     89  C   UNL A   1      31.368  28.619  24.069  1.00  0.00     0.324 C 
BRANCH  89  90
ATOM     90  N   UNL A   1      32.181  28.896  25.259  1.00  0.00    -0.330 N 
ATOM     91  C   UNL A   1      33.600  28.557  25.100  1.00  0.00     0.262 C 
ATOM     92  C   UNL A   1      32.071  30.276  25.757  1.00  0.00     0.262 C 
ATOM     93  H   UNL A   1      31.774  28.274  25.957  1.00  0.00     0.348 HD
ATOM     94  C   UNL A   1      34.308  28.590  26.463  1.00  0.00     0.062 C 
ATOM     95  C   UNL A   1      32.564  30.265  27.204  1.00  0.00     0.062 C 
ATOM     96  C   UNL A   1      34.035  29.870  27.257  1.00  0.00     0.012 C 
ENDBRANCH  89  90
ENDBRANCH  88  89
ENDBRANCH  86  88
ENDBRANCH  81  83
ENDBRANCH  75  78
ENDBRANCH  73  74
ENDBRANCH   1  73
TORSDOF 18
ENDMDL
MODEL 2
REMARK VINA RESULT:     -11.9      3.323      9.718
REMARK SMILES O=C(NCCCCNC(=O)c1cn(C2C[NH+](CC[NH+]3CCCCC3)C2)nn1)c1ccc(-c2c3nc(c(-c4cc(S(=O)(=O)[O-])ccc4F)c4ccc([nH]4)c(-c4cc(S(=O)(=O)[O-])ccc4F)c4nc(c(-c5cc(S(=O)(=O)[O-])ccc5F)c5ccc2[nH]5)C=C4)C=C3)cc1
REMARK SMILES IDX 6 1 5 2 4 3 3 4 1 5 2 6 28 8 29 9 90 10 30 11 89 12 31 13
REMARK SMILES IDX 32 14 33 15 83 16 34 17 88 18 82 19 84 20 35 21 87 22 81 23
REMARK SMILES IDX 80 24 36 26 68 27 48 28 67 29 49 30 52 31 66 32 85 33 50 34
REMARK SMILES IDX 51 35 65 37 86 38 53 39 37 40 38 41 46 42 39 43 45 44 47 45
REMARK SMILES IDX 44 46 40 47 41 48 42 49 43 50 69 51 70 52 78 53 71 54 77 55
REMARK SMILES IDX 79 56 76 57 72 58 73 59 74 60 75 61 54 62 55 63 63 64 56 65
REMARK SMILES IDX 62 66 64 67 61 68 57 69 58 70 59 71 60 72 7 73 8 74 9 75
REMARK SMILES IDX 10 77 11 78 12 79 27 80 13 81 26 82 14 83 15 84 25 85 16 86
REMARK SMILES IDX 17 88 18 89 19 90 20 91 24 92 21 94 23 95 22 96
REMARK H PARENT 3 7 84 25 52 36 8 76 16 87 19 93
REMARK Flexibility Score: inf
ROOT
ATOM      1  C   UNL A   1      32.215  29.388  26.348  1.00  0.00     0.023 C 
ENDROOT
BRANCH   1   2
ATOM      2  C   UNL A   1      32.620  30.701  27.016  1.00  0.00     0.023 C 
BRANCH   2   3
ATOM      3  C   UNL A   1      34.085  30.802  27.442  1.00  0.00     0.116 C 
BRANCH   3   4
ATOM      4  N   UNL A   1      34.342  31.696  28.551  1.00  0.00    -0.352 N 
ATOM      5  O   UNL A   1      35.350  32.919  30.088  1.00  0.00    -0.269 OA
ATOM      6  C   UNL A   1      35.430  31.934  29.349  1.00  0.00     0.251 C 
ATOM      7  H   UNL A   1      33.566  32.256  28.783  1.00  0.00     0.163 HD
BRANCH   6   8
ATOM      8  C   UNL A   1      36.642  31.070  29.419  1.00  0.00     0.039 A 
ATOM      9  C   UNL A   1      36.641  29.683  29.565  1.00  0.00     0.014 A 
ATOM     10  C   UNL A   1      37.883  31.735  29.379  1.00  0.00     0.014 A 
ATOM     11  C   UNL A   1      37.825  28.989  29.784  1.00  0.00     0.010 A 
ATOM     12  C   UNL A   1      39.076  31.040  29.558  1.00  0.00     0.010 A 
ATOM     13  C   UNL A   1      39.041  29.669  29.802  1.00  0.00    -0.014 A 
BRANCH  13  14
ATOM     14  C   UNL A   1      40.255  28.875  29.970  1.00  0.00     0.031 A 
ATOM     15  C   UNL A   1      40.694  28.648  31.377  1.00  0.00     0.074 A 
ATOM     16  C   UNL A   1      40.883  28.252  28.955  1.00  0.00     0.049 A 
ATOM     17  N   UNL A   1      41.829  28.933  31.927  1.00  0.00    -0.248 NA
ATOM     18  C   UNL A   1      39.703  28.096  32.312  1.00  0.00     0.031 C 
ATOM     19  C   UNL A   1      40.431  28.126  27.569  1.00  0.00     0.029 A 
ATOM     20  N   UNL A   1      42.013  27.487  28.990  1.00  0.00    -0.354 N 
ATOM     21  C   UNL A   1      41.775  28.422  33.224  1.00  0.00     0.074 A 
ATOM     22  C   UNL A   1      40.404  28.047  33.445  1.00  0.00     0.031 C 
ATOM     23  C   UNL A   1      41.141  27.150  26.962  1.00  0.00     0.029 A 
ATOM     24  C   UNL A   1      42.173  26.679  27.873  1.00  0.00     0.049 A 
ATOM     25  H   UNL A   1      42.654  27.506  29.737  1.00  0.00     0.167 HD
ATOM     26  C   UNL A   1      42.898  28.178  33.955  1.00  0.00     0.034 A 
ATOM     27  C   UNL A   1      43.030  25.636  27.731  1.00  0.00     0.034 A 
ATOM     28  C   UNL A   1      44.030  28.919  33.451  1.00  0.00     0.049 A 
ATOM     29  C   UNL A   1      44.124  25.813  28.714  1.00  0.00     0.074 A 
ATOM     30  C   UNL A   1      44.301  30.260  33.252  1.00  0.00     0.029 A 
ATOM     31  N   UNL A   1      45.011  28.247  32.758  1.00  0.00    -0.354 N 
ATOM     32  N   UNL A   1      44.989  26.789  28.663  1.00  0.00    -0.248 NA
ATOM     33  C   UNL A   1      44.017  25.152  30.005  1.00  0.00     0.031 C 
ATOM     34  C   UNL A   1      45.083  30.305  32.059  1.00  0.00     0.029 A 
ATOM     35  C   UNL A   1      45.274  28.989  31.635  1.00  0.00     0.049 A 
ATOM     36  H   UNL A   1      45.440  27.401  33.019  1.00  0.00     0.167 HD
ATOM     37  C   UNL A   1      45.212  27.141  29.984  1.00  0.00     0.074 A 
ATOM     38  C   UNL A   1      44.685  26.025  30.765  1.00  0.00     0.031 C 
ATOM     39  C   UNL A   1      45.548  28.419  30.331  1.00  0.00     0.034 A 
BRANCH  26  40
ATOM     40  C   UNL A   1      43.063  27.031  34.934  1.00  0.00     0.023 A 
ATOM     41  C   UNL A   1      43.787  25.903  34.496  1.00  0.00     0.031 A 
ATOM     42  C   UNL A   1      42.322  26.854  36.124  1.00  0.00     0.131 A 
ATOM     43  C   UNL A   1      43.665  24.663  35.147  1.00  0.00     0.055 A 
ATOM     44  C   UNL A   1      42.266  25.637  36.813  1.00  0.00     0.041 A 
ATOM     45  F   UNL A   1      41.540  27.809  36.639  1.00  0.00    -0.206 F 
ATOM     46  C   UNL A   1      42.907  24.521  36.305  1.00  0.00     0.022 A 
BRANCH  43  47
ATOM     47  S   UNL A   1      44.336  23.191  34.327  1.00  0.00     0.124 S 
ATOM     48  O   UNL A   1      43.206  22.771  33.504  1.00  0.00    -0.237 OA
ATOM     49  O   UNL A   1      45.482  23.745  33.613  1.00  0.00    -0.237 OA
ATOM     50  O   UNL A   1      44.660  22.302  35.439  1.00  0.00    -0.744 OA
ENDBRANCH  43  47
ENDBRANCH  26  40
BRANCH  27  51
ATOM     51  C   UNL A   1      42.748  24.365  27.014  1.00  0.00     0.023 A 
ATOM     52  C   UNL A   1      43.678  23.753  26.153  1.00  0.00     0.031 A 
ATOM     53  C   UNL A   1      41.599  23.612  27.351  1.00  0.00     0.131 A 
ATOM     54  C   UNL A   1      43.429  22.454  25.651  1.00  0.00     0.055 A 
ATOM     55  C   UNL A   1      41.350  22.339  26.840  1.00  0.00     0.041 A 
ATOM     56  F   UNL A   1      40.714  24.060  28.256  1.00  0.00    -0.206 F 
ATOM     57  C   UNL A   1      42.270  21.750  25.990  1.00  0.00     0.022 A 
BRANCH  54  58
ATOM     58  S   UNL A   1      44.673  21.615  24.619  1.00  0.00     0.124 S 
ATOM     59  O   UNL A   1      44.586  22.357  23.366  1.00  0.00    -0.237 OA
ATOM     60  O   UNL A   1      45.895  21.792  25.395  1.00  0.00    -0.237 OA
ATOM     61  O   UNL A   1      44.186  20.237  24.552  1.00  0.00    -0.744 OA
ENDBRANCH  54  58
ENDBRANCH  27  51
BRANCH  39  62
ATOM     62  C   UNL A   1      45.973  29.377  29.240  1.00  0.00     0.023 A 
ATOM     63  C   UNL A   1      45.075  30.113  28.435  1.00  0.00     0.031 A 
ATOM     64  C   UNL A   1      47.345  29.654  29.107  1.00  0.00     0.131 A 
ATOM     65  C   UNL A   1      45.562  31.071  27.527  1.00  0.00     0.055 A 
ATOM     66  C   UNL A   1      47.823  30.616  28.218  1.00  0.00     0.041 A 
ATOM     67  F   UNL A   1      48.247  29.017  29.873  1.00  0.00    -0.206 F 
ATOM     68  C   UNL A   1      46.933  31.325  27.420  1.00  0.00     0.022 A 
BRANCH  65  69
ATOM     69  S   UNL A   1      44.412  32.008  26.471  1.00  0.00     0.124 S 
ATOM     70  O   UNL A   1      43.407  31.019  26.099  1.00  0.00    -0.237 OA
ATOM     71  O   UNL A   1      43.963  33.076  27.360  1.00  0.00    -0.237 OA
ATOM     72  O   UNL A   1      45.260  32.458  25.364  1.00  0.00    -0.744 OA
ENDBRANCH  65  69
ENDBRANCH  39  62
ENDBRANCH  13  14
ENDBRANCH   6   8
ENDBRANCH   3   4
ENDBRANCH   2   3
ENDBRANCH   1   2
BRANCH   1  73
ATOM     73  C   UNL A   1      32.148  29.417  24.828  1.00  0.00     0.116 C 
BRANCH  73  74
ATOM     74  N   UNL A   1      30.856  29.841  24.320  1.00  0.00    -0.351 N 
ATOM     75  C   UNL A   1      29.986  29.159  23.492  1.00  0.00     0.273 C 
ATOM     76  H   UNL A   1      30.558  30.734  24.605  1.00  0.00     0.163 HD
ATOM     77  O   UNL A   1      28.980  29.719  23.098  1.00  0.00    -0.267 OA
BRANCH  75  78
ATOM     78  C   UNL A   1      30.338  27.801  23.106  1.00  0.00     0.170 A 
ATOM     79  C   UNL A   1      30.174  26.618  23.807  1.00  0.00     0.145 A 
ATOM     80  N   UNL A   1      30.954  27.531  21.912  1.00  0.00    -0.125 NA
ATOM     81  N   UNL A   1      30.881  25.716  23.073  1.00  0.00    -0.237 N 
ATOM     82  N   UNL A   1      31.279  26.249  21.902  1.00  0.00    -0.066 NA
BRANCH  81  83
ATOM     83  C   UNL A   1      31.393  24.450  23.468  1.00  0.00     0.218 C 
ATOM     84  C   UNL A   1      32.585  23.853  22.697  1.00  0.00     0.296 C 
ATOM     85  C   UNL A   1      32.347  24.446  24.670  1.00  0.00     0.296 C 
ATOM     86  N   UNL A   1      33.152  23.399  23.991  1.00  0.00    -0.326 N 
ATOM     87  H   UNL A   1      34.157  23.340  24.150  1.00  0.00     0.348 HD
BRANCH  86  88
ATOM     88  C   UNL A   1      32.777  21.999  24.329  1.00  0.00     0.324 C 
BRANCH  88  89
ATOM     89  C   UNL A   1      33.765  20.920  24.898  1.00  0.00     0.324 C 
BRANCH  89  90
ATOM     90  N   UNL A   1      33.722  19.642  24.179  1.00  0.00    -0.330 N 
ATOM     91  C   UNL A   1      34.392  18.541  24.883  1.00  0.00     0.262 C 
ATOM     92  C   UNL A   1      32.369  19.212  23.793  1.00  0.00     0.262 C 
ATOM     93  H   UNL A   1      34.244  19.848  23.327  1.00  0.00     0.348 HD
ATOM     94  C   UNL A   1      34.564  17.339  23.944  1.00  0.00     0.062 C 
ATOM     95  C   UNL A   1      32.534  18.172  22.685  1.00  0.00     0.062 C 
ATOM     96  C   UNL A   1      33.275  16.950  23.214  1.00  0.00     0.012 C 
ENDBRANCH  89  90
ENDBRANCH  88  89
ENDBRANCH  86  88
ENDBRANCH  81  83
ENDBRANCH  75  78
ENDBRANCH  73  74
ENDBRANCH   1  73
TORSDOF 18
ENDMDL
MODEL 3
REMARK VINA RESULT:     -11.4      1.390      2.094
REMARK SMILES O=C(NCCCCNC(=O)c1cn(C2C[NH+](CC[NH+]3CCCCC3)C2)nn1)c1ccc(-c2c3nc(c(-c4cc(S(=O)(=O)[O-])ccc4F)c4ccc([nH]4)c(-c4cc(S(=O)(=O)[O-])ccc4F)c4nc(c(-c5cc(S(=O)(=O)[O-])ccc5F)c5ccc2[nH]5)C=C4)C=C3)cc1
REMARK SMILES IDX 6 1 5 2 4 3 3 4 1 5 2 6 28 8 29 9 90 10 30 11 89 12 31 13
REMARK SMILES IDX 32 14 33 15 83 16 34 17 88 18 82 19 84 20 35 21 87 22 81 23
REMARK SMILES IDX 80 24 36 26 68 27 48 28 67 29 49 30 52 31 66 32 85 33 50 34
REMARK SMILES IDX 51 35 65 37 86 38 53 39 37 40 38 41 46 42 39 43 45 44 47 45
REMARK SMILES IDX 44 46 40 47 41 48 42 49 43 50 69 51 70 52 78 53 71 54 77 55
REMARK SMILES IDX 79 56 76 57 72 58 73 59 74 60 75 61 54 62 55 63 63 64 56 65
REMARK SMILES IDX 62 66 64 67 61 68 57 69 58 70 59 71 60 72 7 73 8 74 9 75
REMARK SMILES IDX 10 77 11 78 12 79 27 80 13 81 26 82 14 83 15 84 25 85 16 86
REMARK SMILES IDX 17 88 18 89 19 90 20 91 24 92 21 94 23 95 22 96
REMARK H PARENT 3 7 84 25 52 36 8 76 16 87 19 93
REMARK Flexibility Score: inf
ROOT
ATOM      1  C   UNL A   1      36.926  22.384  25.146  1.00  0.00     0.023 C 
ENDROOT
BRANCH   1   2
ATOM      2  C   UNL A   1      38.117  21.615  25.716  1.00  0.00     0.023 C 
BRANCH   2   3
ATOM      3  C   UNL A   1      39.146  22.455  26.474  1.00  0.00     0.116 C 
BRANCH   3   4
ATOM      4  N   UNL A   1      40.511  22.314  26.014  1.00  0.00    -0.352 N 
ATOM      5  O   UNL A   1      42.706  22.475  25.834  1.00  0.00    -0.269 OA
ATOM      6  C   UNL A   1      41.672  22.999  26.258  1.00  0.00     0.251 C 
ATOM      7  H   UNL A   1      40.633  21.562  25.391  1.00  0.00     0.163 HD
BRANCH   6   8
ATOM      8  C   UNL A   1      41.756  24.326  26.932  1.00  0.00     0.039 A 
ATOM      9  C   UNL A   1      42.439  24.590  28.119  1.00  0.00     0.014 A 
ATOM     10  C   UNL A   1      41.041  25.377  26.327  1.00  0.00     0.014 A 
ATOM     11  C   UNL A   1      42.320  25.822  28.750  1.00  0.00     0.010 A 
ATOM     12  C   UNL A   1      40.950  26.627  26.933  1.00  0.00     0.010 A 
ATOM     13  C   UNL A   1      41.558  26.835  28.169  1.00  0.00    -0.014 A 
BRANCH  13  14
ATOM     14  C   UNL A   1      41.527  28.128  28.847  1.00  0.00     0.031 A 
ATOM     15  C   UNL A   1      42.533  29.127  28.389  1.00  0.00     0.074 A 
ATOM     16  C   UNL A   1      40.575  28.480  29.732  1.00  0.00     0.049 A 
ATOM     17  N   UNL A   1      43.432  29.748  29.082  1.00  0.00    -0.248 NA
ATOM     18  C   UNL A   1      42.591  29.415  26.948  1.00  0.00     0.031 C 
ATOM     19  C   UNL A   1      39.359  27.743  30.076  1.00  0.00     0.029 A 
ATOM     20  N   UNL A   1      40.440  29.651  30.422  1.00  0.00    -0.354 N 
ATOM     21  C   UNL A   1      44.042  30.651  28.211  1.00  0.00     0.074 A 
ATOM     22  C   UNL A   1      43.583  30.304  26.894  1.00  0.00     0.031 C 
ATOM     23  C   UNL A   1      38.507  28.573  30.717  1.00  0.00     0.029 A 
ATOM     24  C   UNL A   1      39.167  29.851  30.937  1.00  0.00     0.049 A 
ATOM     25  H   UNL A   1      41.177  30.292  30.543  1.00  0.00     0.167 HD
ATOM     26  C   UNL A   1      44.739  31.733  28.660  1.00  0.00     0.034 A 
ATOM     27  C   UNL A   1      38.654  31.006  31.429  1.00  0.00     0.034 A 
ATOM     28  C   UNL A   1      45.153  31.564  30.033  1.00  0.00     0.049 A 
ATOM     29  C   UNL A   1      39.789  31.871  31.829  1.00  0.00     0.074 A 
ATOM     30  C   UNL A   1      45.921  30.634  30.708  1.00  0.00     0.029 A 
ATOM     31  N   UNL A   1      44.505  32.276  31.016  1.00  0.00    -0.354 N 
ATOM     32  N   UNL A   1      40.604  31.584  32.806  1.00  0.00    -0.248 NA
ATOM     33  C   UNL A   1      40.286  32.854  30.880  1.00  0.00     0.031 C 
ATOM     34  C   UNL A   1      45.300  30.500  31.985  1.00  0.00     0.029 A 
ATOM     35  C   UNL A   1      44.223  31.387  32.022  1.00  0.00     0.049 A 
ATOM     36  H   UNL A   1      44.287  33.236  31.001  1.00  0.00     0.167 HD
ATOM     37  C   UNL A   1      41.849  32.008  32.372  1.00  0.00     0.074 A 
ATOM     38  C   UNL A   1      41.573  32.888  31.239  1.00  0.00     0.031 C 
ATOM     39  C   UNL A   1      42.995  31.392  32.790  1.00  0.00     0.034 A 
BRANCH  26  40
ATOM     40  C   UNL A   1      44.782  33.083  27.970  1.00  0.00     0.023 A 
ATOM     41  C   UNL A   1      43.924  34.090  28.459  1.00  0.00     0.031 A 
ATOM     42  C   UNL A   1      45.373  33.344  26.713  1.00  0.00     0.131 A 
ATOM     43  C   UNL A   1      43.597  35.210  27.675  1.00  0.00     0.055 A 
ATOM     44  C   UNL A   1      45.104  34.499  25.971  1.00  0.00     0.041 A 
ATOM     45  F   UNL A   1      46.165  32.465  26.089  1.00  0.00    -0.206 F 
ATOM     46  C   UNL A   1      44.182  35.423  26.431  1.00  0.00     0.022 A 
BRANCH  43  47
ATOM     47  S   UNL A   1      42.227  36.268  28.216  1.00  0.00     0.124 S 
ATOM     48  O   UNL A   1      42.823  36.962  29.354  1.00  0.00    -0.237 OA
ATOM     49  O   UNL A   1      41.985  37.074  27.024  1.00  0.00    -0.237 OA
ATOM     50  O   UNL A   1      41.174  35.313  28.552  1.00  0.00    -0.744 OA
ENDBRANCH  43  47
ENDBRANCH  26  40
BRANCH  27  51
ATOM     51  C   UNL A   1      37.259  31.488  31.253  1.00  0.00     0.023 A 
ATOM     52  C   UNL A   1      36.529  32.104  32.287  1.00  0.00     0.031 A 
ATOM     53  C   UNL A   1      36.692  31.533  29.958  1.00  0.00     0.131 A 
ATOM     54  C   UNL A   1      35.281  32.709  32.008  1.00  0.00     0.055 A 
ATOM     55  C   UNL A   1      35.454  32.117  29.692  1.00  0.00     0.041 A 
ATOM     56  F   UNL A   1      37.364  31.079  28.888  1.00  0.00    -0.206 F 
ATOM     57  C   UNL A   1      34.744  32.714  30.718  1.00  0.00     0.022 A 
BRANCH  54  58
ATOM     58  S   UNL A   1      34.379  33.596  33.318  1.00  0.00     0.124 S 
ATOM     59  O   UNL A   1      33.071  32.952  33.284  1.00  0.00    -0.237 OA
ATOM     60  O   UNL A   1      35.200  33.335  34.496  1.00  0.00    -0.237 OA
ATOM     61  O   UNL A   1      34.392  34.986  32.860  1.00  0.00    -0.744 OA
ENDBRANCH  54  58
ENDBRANCH  27  51
BRANCH  39  62
ATOM     62  C   UNL A   1      42.918  30.442  33.965  1.00  0.00     0.023 A 
ATOM     63  C   UNL A   1      42.788  29.040  33.845  1.00  0.00     0.031 A 
ATOM     64  C   UNL A   1      43.122  30.970  35.251  1.00  0.00     0.131 A 
ATOM     65  C   UNL A   1      42.847  28.225  34.991  1.00  0.00     0.055 A 
ATOM     66  C   UNL A   1      43.195  30.158  36.383  1.00  0.00     0.041 A 
ATOM     67  F   UNL A   1      43.292  32.292  35.427  1.00  0.00    -0.206 F 
ATOM     68  C   UNL A   1      43.052  28.781  36.257  1.00  0.00     0.022 A 
BRANCH  65  69
ATOM     69  S   UNL A   1      42.658  26.419  34.848  1.00  0.00     0.124 S 
ATOM     70  O   UNL A   1      43.193  26.123  33.523  1.00  0.00    -0.237 OA
ATOM     71  O   UNL A   1      43.440  25.928  35.979  1.00  0.00    -0.237 OA
ATOM     72  O   UNL A   1      41.213  26.218  34.978  1.00  0.00    -0.744 OA
ENDBRANCH  65  69
ENDBRANCH  39  62
ENDBRANCH  13  14
ENDBRANCH   6   8
ENDBRANCH   3   4
ENDBRANCH   2   3
ENDBRANCH   1   2
BRANCH   1  73
ATOM     73  C   UNL A   1      35.670  22.380  26.004  1.00  0.00     0.116 C 
BRANCH  73  74
ATOM     74  N   UNL A   1      34.901  21.154  25.887  1.00  0.00    -0.351 N 
ATOM     75  C   UNL A   1      33.540  20.970  26.028  1.00  0.00     0.273 C 
ATOM     76  H   UNL A   1      35.419  20.344  25.678  1.00  0.00     0.163 HD
ATOM     77  O   UNL A   1      33.086  19.841  25.983  1.00  0.00    -0.267 OA
BRANCH  75  78
ATOM     78  C   UNL A   1      32.714  22.145  26.257  1.00  0.00     0.170 A 
ATOM     79  C   UNL A   1      32.159  23.021  25.339  1.00  0.00     0.145 A 
ATOM     80  N   UNL A   1      32.397  22.565  27.523  1.00  0.00    -0.125 NA
ATOM     81  N   UNL A   1      31.695  24.039  26.114  1.00  0.00    -0.237 N 
ATOM     82  N   UNL A   1      31.769  23.725  27.422  1.00  0.00    -0.066 NA
BRANCH  81  83
ATOM     83  C   UNL A   1      31.373  25.372  25.739  1.00  0.00     0.218 C 
ATOM     84  C   UNL A   1      32.397  26.188  24.928  1.00  0.00     0.296 C 
ATOM     85  C   UNL A   1      30.475  25.534  24.505  1.00  0.00     0.296 C 
ATOM     86  N   UNL A   1      31.277  26.720  24.113  1.00  0.00    -0.326 N 
ATOM     87  H   UNL A   1      31.391  26.961  23.129  1.00  0.00     0.348 HD
BRANCH  86  88
ATOM     88  C   UNL A   1      30.763  28.023  24.615  1.00  0.00     0.324 C 
BRANCH  88  89
ATOM     89  C   UNL A   1      30.973  29.405  23.900  1.00  0.00     0.324 C 
BRANCH  89  90
ATOM     90  N   UNL A   1      29.744  29.969  23.331  1.00  0.00    -0.330 N 
ATOM     91  C   UNL A   1      29.339  31.243  23.938  1.00  0.00     0.262 C 
ATOM     92  C   UNL A   1      29.770  30.121  21.868  1.00  0.00     0.262 C 
ATOM     93  H   UNL A   1      29.047  29.262  23.564  1.00  0.00     0.348 HD
ATOM     94  C   UNL A   1      27.910  31.603  23.507  1.00  0.00     0.062 C 
ATOM     95  C   UNL A   1      28.318  30.249  21.410  1.00  0.00     0.062 C 
ATOM     96  C   UNL A   1      27.690  31.509  21.995  1.00  0.00     0.012 C 
ENDBRANCH  89  90
ENDBRANCH  88  89
ENDBRANCH  86  88
ENDBRANCH  81  83
ENDBRANCH  75  78
ENDBRANCH  73  74
ENDBRANCH   1  73
TORSDOF 18
ENDMDL
