MODEL 1
REMARK VINA RESULT:     -10.7      0.000      0.000
REMARK SMILES COC(=O)/C=C(/CC(C)C)C(=O)NCCCCNC(=O)c1ccc(-c2c3nc(c(-c4cc(S(=O)(=O)[O-])ccc4F)c4ccc([nH]4)c(-c4cc(S(=O)(=O)[O-])ccc4F)c4nc(c(-c5cc(S(=O)(=O)[O-])ccc5F)c5ccc2[nH]5)C=C4)C=C3)cc1
REMARK SMILES IDX 16 1 15 2 14 3 13 4 11 5 12 6 6 8 5 9 3 10 4 11 2 12 1 13
REMARK SMILES IDX 7 14 8 15 9 16 10 17 17 18 18 19 19 20 20 22 21 23 22 24
REMARK SMILES IDX 83 25 23 26 82 27 24 28 25 29 26 30 76 31 27 32 81 33 75 34
REMARK SMILES IDX 77 35 28 36 80 37 74 38 73 39 29 41 61 42 41 43 60 44 42 45
REMARK SMILES IDX 45 46 59 47 78 48 43 49 44 50 58 52 79 53 46 54 30 55 31 56
REMARK SMILES IDX 39 57 32 58 38 59 40 60 37 61 33 62 34 63 35 64 36 65 62 66
REMARK SMILES IDX 63 67 71 68 64 69 70 70 72 71 69 72 65 73 66 74 67 75 68 76
REMARK SMILES IDX 47 77 48 78 56 79 49 80 55 81 57 82 54 83 50 84 51 85 52 86
REMARK SMILES IDX 53 87
REMARK H PARENT 13 7 18 21 77 40 45 51
REMARK Flexibility Score: inf
ROOT
ATOM      1  C   UNL A   1      31.696  29.537  26.956  1.00  0.00     0.023 C 
ENDROOT
BRANCH   1   2
ATOM      2  C   UNL A   1      31.813  28.118  27.482  1.00  0.00     0.023 C 
BRANCH   2   3
ATOM      3  C   UNL A   1      32.196  27.067  26.440  1.00  0.00     0.116 C 
BRANCH   3   4
ATOM      4  N   UNL A   1      31.309  25.921  26.530  1.00  0.00    -0.352 N 
ATOM      5  C   UNL A   1      30.112  25.656  25.941  1.00  0.00     0.247 C 
ATOM      6  O   UNL A   1      29.250  25.169  26.673  1.00  0.00    -0.270 OA
ATOM      7  H   UNL A   1      31.632  25.207  27.126  1.00  0.00     0.163 HD
BRANCH   5   8
ATOM      8  C   UNL A   1      29.825  25.908  24.491  1.00  0.00     0.024 C 
ATOM      9  C   UNL A   1      30.407  25.121  23.557  1.00  0.00     0.102 C 
BRANCH   9  10
ATOM     10  C   UNL A   1      31.343  23.983  23.652  1.00  0.00     0.330 C 
ATOM     11  O   UNL A   1      32.370  23.965  22.983  1.00  0.00    -0.247 OA
BRANCH  10  12
ATOM     12  O   UNL A   1      31.006  23.088  24.602  1.00  0.00    -0.466 OA
ATOM     13  C   UNL A   1      32.118  22.537  25.312  1.00  0.00     0.282 C 
ENDBRANCH  10  12
ENDBRANCH   9  10
BRANCH   8  14
ATOM     14  C   UNL A   1      28.900  26.991  23.990  1.00  0.00     0.044 C 
BRANCH  14  15
ATOM     15  C   UNL A   1      29.499  28.023  23.001  1.00  0.00    -0.013 C 
ATOM     16  C   UNL A   1      28.559  29.095  22.462  1.00  0.00     0.008 C 
ATOM     17  C   UNL A   1      30.707  28.710  23.650  1.00  0.00     0.008 C 
ENDBRANCH  14  15
ENDBRANCH   8  14
ENDBRANCH   5   8
ENDBRANCH   3   4
ENDBRANCH   2   3
ENDBRANCH   1   2
BRANCH   1  18
ATOM     18  C   UNL A   1      33.018  30.267  26.805  1.00  0.00     0.116 C 
BRANCH  18  19
ATOM     19  N   UNL A   1      32.973  31.671  27.200  1.00  0.00    -0.352 N 
ATOM     20  C   UNL A   1      33.932  32.411  27.853  1.00  0.00     0.251 C 
ATOM     21  H   UNL A   1      32.146  32.153  26.969  1.00  0.00     0.163 HD
ATOM     22  O   UNL A   1      33.694  33.563  28.198  1.00  0.00    -0.269 OA
BRANCH  20  23
ATOM     23  C   UNL A   1      35.223  31.770  28.171  1.00  0.00     0.039 A 
ATOM     24  C   UNL A   1      36.383  32.544  28.178  1.00  0.00     0.014 A 
ATOM     25  C   UNL A   1      35.258  30.434  28.575  1.00  0.00     0.014 A 
ATOM     26  C   UNL A   1      37.563  31.994  28.680  1.00  0.00     0.010 A 
ATOM     27  C   UNL A   1      36.393  29.939  29.199  1.00  0.00     0.010 A 
ATOM     28  C   UNL A   1      37.565  30.707  29.247  1.00  0.00    -0.014 A 
BRANCH  28  29
ATOM     29  C   UNL A   1      38.787  30.151  29.882  1.00  0.00     0.031 A 
ATOM     30  C   UNL A   1      39.180  30.589  31.269  1.00  0.00     0.074 A 
ATOM     31  C   UNL A   1      39.559  29.288  29.192  1.00  0.00     0.049 A 
ATOM     32  N   UNL A   1      40.202  30.215  31.995  1.00  0.00    -0.248 NA
ATOM     33  C   UNL A   1      38.340  31.615  31.907  1.00  0.00     0.031 C 
ATOM     34  C   UNL A   1      39.326  28.862  27.808  1.00  0.00     0.029 A 
ATOM     35  N   UNL A   1      40.689  28.603  29.558  1.00  0.00    -0.354 N 
ATOM     36  C   UNL A   1      40.130  30.967  33.164  1.00  0.00     0.074 A 
ATOM     37  C   UNL A   1      39.024  31.884  33.006  1.00  0.00     0.031 C 
ATOM     38  C   UNL A   1      40.244  27.943  27.468  1.00  0.00     0.029 A 
ATOM     39  C   UNL A   1      41.156  27.745  28.588  1.00  0.00     0.049 A 
ATOM     40  H   UNL A   1      41.126  28.715  30.433  1.00  0.00     0.167 HD
ATOM     41  C   UNL A   1      40.888  30.873  34.283  1.00  0.00     0.034 A 
ATOM     42  C   UNL A   1      42.194  26.886  28.607  1.00  0.00     0.034 A 
ATOM     43  C   UNL A   1      41.974  29.935  34.425  1.00  0.00     0.049 A 
ATOM     44  C   UNL A   1      43.010  26.781  29.872  1.00  0.00     0.074 A 
ATOM     45  C   UNL A   1      42.781  29.706  35.526  1.00  0.00     0.029 A 
ATOM     46  N   UNL A   1      42.410  29.069  33.428  1.00  0.00    -0.354 N 
ATOM     47  N   UNL A   1      42.881  27.445  30.998  1.00  0.00    -0.248 NA
ATOM     48  C   UNL A   1      44.095  25.795  29.872  1.00  0.00     0.031 C 
ATOM     49  C   UNL A   1      43.744  28.755  35.173  1.00  0.00     0.029 A 
ATOM     50  C   UNL A   1      43.489  28.326  33.880  1.00  0.00     0.049 A 
ATOM     51  H   UNL A   1      42.011  28.995  32.532  1.00  0.00     0.167 HD
ATOM     52  C   UNL A   1      43.856  26.935  31.851  1.00  0.00     0.074 A 
ATOM     53  C   UNL A   1      44.534  25.885  31.117  1.00  0.00     0.031 C 
ATOM     54  C   UNL A   1      44.168  27.299  33.122  1.00  0.00     0.034 A 
BRANCH  41  55
ATOM     55  C   UNL A   1      40.569  31.816  35.420  1.00  0.00     0.023 A 
ATOM     56  C   UNL A   1      39.481  31.592  36.285  1.00  0.00     0.031 A 
ATOM     57  C   UNL A   1      41.332  32.979  35.620  1.00  0.00     0.131 A 
ATOM     58  C   UNL A   1      39.135  32.553  37.246  1.00  0.00     0.055 A 
ATOM     59  C   UNL A   1      41.038  33.888  36.640  1.00  0.00     0.041 A 
ATOM     60  F   UNL A   1      42.368  33.265  34.815  1.00  0.00    -0.206 F 
ATOM     61  C   UNL A   1      39.923  33.686  37.449  1.00  0.00     0.022 A 
BRANCH  58  62
ATOM     62  S   UNL A   1      37.552  32.379  38.115  1.00  0.00     0.124 S 
ATOM     63  O   UNL A   1      37.336  30.935  38.048  1.00  0.00    -0.237 OA
ATOM     64  O   UNL A   1      37.854  32.919  39.435  1.00  0.00    -0.237 OA
ATOM     65  O   UNL A   1      36.629  33.177  37.309  1.00  0.00    -0.744 OA
ENDBRANCH  58  62
ENDBRANCH  41  55
BRANCH  42  66
ATOM     66  C   UNL A   1      42.511  26.045  27.416  1.00  0.00     0.023 A 
ATOM     67  C   UNL A   1      42.089  24.707  27.337  1.00  0.00     0.031 A 
ATOM     68  C   UNL A   1      43.283  26.553  26.355  1.00  0.00     0.131 A 
ATOM     69  C   UNL A   1      42.482  23.910  26.250  1.00  0.00     0.055 A 
ATOM     70  C   UNL A   1      43.624  25.772  25.249  1.00  0.00     0.041 A 
ATOM     71  F   UNL A   1      43.708  27.826  26.374  1.00  0.00    -0.206 F 
ATOM     72  C   UNL A   1      43.235  24.437  25.200  1.00  0.00     0.022 A 
BRANCH  69  73
ATOM     73  S   UNL A   1      42.073  22.142  26.276  1.00  0.00     0.124 S 
ATOM     74  O   UNL A   1      42.829  21.643  25.134  1.00  0.00    -0.237 OA
ATOM     75  O   UNL A   1      42.558  21.739  27.593  1.00  0.00    -0.237 OA
ATOM     76  O   UNL A   1      40.620  22.128  26.119  1.00  0.00    -0.744 OA
ENDBRANCH  69  73
ENDBRANCH  42  66
BRANCH  54  77
ATOM     77  C   UNL A   1      45.276  26.522  33.795  1.00  0.00     0.023 A 
ATOM     78  C   UNL A   1      45.005  25.403  34.600  1.00  0.00     0.031 A 
ATOM     79  C   UNL A   1      46.613  26.940  33.671  1.00  0.00     0.131 A 
ATOM     80  C   UNL A   1      46.040  24.800  35.329  1.00  0.00     0.055 A 
ATOM     81  C   UNL A   1      47.651  26.282  34.333  1.00  0.00     0.041 A 
ATOM     82  F   UNL A   1      46.933  28.002  32.915  1.00  0.00    -0.206 F 
ATOM     83  C   UNL A   1      47.364  25.221  35.186  1.00  0.00     0.022 A 
BRANCH  80  84
ATOM     84  S   UNL A   1      45.608  23.562  36.581  1.00  0.00     0.124 S 
ATOM     85  O   UNL A   1      44.895  22.566  35.787  1.00  0.00    -0.237 OA
ATOM     86  O   UNL A   1      46.916  23.157  37.084  1.00  0.00    -0.237 OA
ATOM     87  O   UNL A   1      44.781  24.308  37.528  1.00  0.00    -0.744 OA
ENDBRANCH  80  84
ENDBRANCH  54  77
ENDBRANCH  28  29
ENDBRANCH  20  23
ENDBRANCH  18  19
ENDBRANCH   1  18
TORSDOF 18
ENDMDL
MODEL 2
REMARK VINA RESULT:     -10.6      5.024     10.084
REMARK SMILES COC(=O)/C=C(/CC(C)C)C(=O)NCCCCNC(=O)c1ccc(-c2c3nc(c(-c4cc(S(=O)(=O)[O-])ccc4F)c4ccc([nH]4)c(-c4cc(S(=O)(=O)[O-])ccc4F)c4nc(c(-c5cc(S(=O)(=O)[O-])ccc5F)c5ccc2[nH]5)C=C4)C=C3)cc1
REMARK SMILES IDX 16 1 15 2 14 3 13 4 11 5 12 6 6 8 5 9 3 10 4 11 2 12 1 13
REMARK SMILES IDX 7 14 8 15 9 16 10 17 17 18 18 19 19 20 20 22 21 23 22 24
REMARK SMILES IDX 83 25 23 26 82 27 24 28 25 29 26 30 76 31 27 32 81 33 75 34
REMARK SMILES IDX 77 35 28 36 80 37 74 38 73 39 29 41 61 42 41 43 60 44 42 45
REMARK SMILES IDX 45 46 59 47 78 48 43 49 44 50 58 52 79 53 46 54 30 55 31 56
REMARK SMILES IDX 39 57 32 58 38 59 40 60 37 61 33 62 34 63 35 64 36 65 62 66
REMARK SMILES IDX 63 67 71 68 64 69 70 70 72 71 69 72 65 73 66 74 67 75 68 76
REMARK SMILES IDX 47 77 48 78 56 79 49 80 55 81 57 82 54 83 50 84 51 85 52 86
REMARK SMILES IDX 53 87
REMARK H PARENT 13 7 18 21 77 40 45 51
REMARK Flexibility Score: inf
ROOT
ATOM      1  C   UNL A   1      35.074  21.785  25.835  1.00  0.00     0.023 C 
ENDROOT
BRANCH   1   2
ATOM      2  C   UNL A   1      34.428  22.558  26.970  1.00  0.00     0.023 C 
BRANCH   2   3
ATOM      3  C   UNL A   1      32.914  22.390  27.095  1.00  0.00     0.116 C 
BRANCH   3   4
ATOM      4  N   UNL A   1      32.273  22.628  25.815  1.00  0.00    -0.352 N 
ATOM      5  C   UNL A   1      31.912  23.777  25.184  1.00  0.00     0.247 C 
ATOM      6  O   UNL A   1      30.798  23.774  24.656  1.00  0.00    -0.270 OA
ATOM      7  H   UNL A   1      32.058  21.808  25.313  1.00  0.00     0.163 HD
BRANCH   5   8
ATOM      8  C   UNL A   1      32.791  24.988  25.096  1.00  0.00     0.024 C 
ATOM      9  C   UNL A   1      33.587  25.149  24.014  1.00  0.00     0.102 C 
BRANCH   9  10
ATOM     10  C   UNL A   1      33.808  24.328  22.805  1.00  0.00     0.330 C 
ATOM     11  O   UNL A   1      34.768  23.571  22.735  1.00  0.00    -0.247 OA
BRANCH  10  12
ATOM     12  O   UNL A   1      32.809  24.421  21.904  1.00  0.00    -0.466 OA
ATOM     13  C   UNL A   1      32.682  25.709  21.297  1.00  0.00     0.282 C 
ENDBRANCH  10  12
ENDBRANCH   9  10
BRANCH   8  14
ATOM     14  C   UNL A   1      32.842  26.073  26.145  1.00  0.00     0.044 C 
BRANCH  14  15
ATOM     15  C   UNL A   1      31.553  26.908  26.354  1.00  0.00    -0.013 C 
ATOM     16  C   UNL A   1      31.584  27.970  27.448  1.00  0.00     0.008 C 
ATOM     17  C   UNL A   1      31.158  27.577  25.031  1.00  0.00     0.008 C 
ENDBRANCH  14  15
ENDBRANCH   8  14
ENDBRANCH   5   8
ENDBRANCH   3   4
ENDBRANCH   2   3
ENDBRANCH   1   2
BRANCH   1  18
ATOM     18  C   UNL A   1      36.471  22.252  25.466  1.00  0.00     0.116 C 
BRANCH  18  19
ATOM     19  N   UNL A   1      37.466  21.185  25.435  1.00  0.00    -0.352 N 
ATOM     20  C   UNL A   1      38.768  21.211  25.881  1.00  0.00     0.251 C 
ATOM     21  H   UNL A   1      37.167  20.333  25.043  1.00  0.00     0.163 HD
ATOM     22  O   UNL A   1      39.506  20.250  25.691  1.00  0.00    -0.269 OA
BRANCH  20  23
ATOM     23  C   UNL A   1      39.263  22.435  26.541  1.00  0.00     0.039 A 
ATOM     24  C   UNL A   1      40.313  22.338  27.454  1.00  0.00     0.014 A 
ATOM     25  C   UNL A   1      38.765  23.683  26.162  1.00  0.00     0.014 A 
ATOM     26  C   UNL A   1      40.920  23.506  27.917  1.00  0.00     0.010 A 
ATOM     27  C   UNL A   1      39.458  24.831  26.514  1.00  0.00     0.010 A 
ATOM     28  C   UNL A   1      40.536  24.759  27.408  1.00  0.00    -0.014 A 
BRANCH  28  29
ATOM     29  C   UNL A   1      41.246  26.000  27.809  1.00  0.00     0.031 A 
ATOM     30  C   UNL A   1      42.662  26.239  27.354  1.00  0.00     0.074 A 
ATOM     31  C   UNL A   1      40.628  26.886  28.616  1.00  0.00     0.049 A 
ATOM     32  N   UNL A   1      43.446  27.259  27.592  1.00  0.00    -0.248 NA
ATOM     33  C   UNL A   1      43.297  25.170  26.567  1.00  0.00     0.031 C 
ATOM     34  C   UNL A   1      39.290  26.719  29.193  1.00  0.00     0.029 A 
ATOM     35  N   UNL A   1      41.033  28.110  29.084  1.00  0.00    -0.354 N 
ATOM     36  C   UNL A   1      44.663  26.947  26.993  1.00  0.00     0.074 A 
ATOM     37  C   UNL A   1      44.542  25.605  26.469  1.00  0.00     0.031 C 
ATOM     38  C   UNL A   1      38.963  27.824  29.880  1.00  0.00     0.029 A 
ATOM     39  C   UNL A   1      40.078  28.760  29.834  1.00  0.00     0.049 A 
ATOM     40  H   UNL A   1      41.924  28.488  28.902  1.00  0.00     0.167 HD
ATOM     41  C   UNL A   1      45.766  27.723  26.855  1.00  0.00     0.034 A 
ATOM     42  C   UNL A   1      40.099  29.980  30.405  1.00  0.00     0.034 A 
ATOM     43  C   UNL A   1      45.855  29.067  27.369  1.00  0.00     0.049 A 
ATOM     44  C   UNL A   1      41.327  30.836  30.219  1.00  0.00     0.074 A 
ATOM     45  C   UNL A   1      46.895  29.972  27.247  1.00  0.00     0.029 A 
ATOM     46  N   UNL A   1      44.864  29.701  28.110  1.00  0.00    -0.354 N 
ATOM     47  N   UNL A   1      42.442  30.556  29.583  1.00  0.00    -0.248 NA
ATOM     48  C   UNL A   1      41.287  32.178  30.808  1.00  0.00     0.031 C 
ATOM     49  C   UNL A   1      46.562  31.123  27.969  1.00  0.00     0.029 A 
ATOM     50  C   UNL A   1      45.279  30.973  28.473  1.00  0.00     0.049 A 
ATOM     51  H   UNL A   1      43.994  29.304  28.343  1.00  0.00     0.167 HD
ATOM     52  C   UNL A   1      43.228  31.702  29.675  1.00  0.00     0.074 A 
ATOM     53  C   UNL A   1      42.439  32.682  30.395  1.00  0.00     0.031 C 
ATOM     54  C   UNL A   1      44.485  31.927  29.213  1.00  0.00     0.034 A 
BRANCH  41  55
ATOM     55  C   UNL A   1      46.951  27.124  26.133  1.00  0.00     0.023 A 
ATOM     56  C   UNL A   1      47.955  26.415  26.821  1.00  0.00     0.031 A 
ATOM     57  C   UNL A   1      47.108  27.298  24.748  1.00  0.00     0.131 A 
ATOM     58  C   UNL A   1      49.105  25.986  26.142  1.00  0.00     0.055 A 
ATOM     59  C   UNL A   1      48.212  26.787  24.060  1.00  0.00     0.041 A 
ATOM     60  F   UNL A   1      46.199  27.985  24.037  1.00  0.00    -0.206 F 
ATOM     61  C   UNL A   1      49.227  26.142  24.761  1.00  0.00     0.022 A 
BRANCH  58  62
ATOM     62  S   UNL A   1      50.505  25.368  27.115  1.00  0.00     0.124 S 
ATOM     63  O   UNL A   1      51.454  24.999  26.066  1.00  0.00    -0.237 OA
ATOM     64  O   UNL A   1      50.865  26.528  27.923  1.00  0.00    -0.237 OA
ATOM     65  O   UNL A   1      49.938  24.242  27.856  1.00  0.00    -0.744 OA
ENDBRANCH  58  62
ENDBRANCH  41  55
BRANCH  42  66
ATOM     66  C   UNL A   1      38.927  30.479  31.183  1.00  0.00     0.023 A 
ATOM     67  C   UNL A   1      37.933  31.267  30.576  1.00  0.00     0.031 A 
ATOM     68  C   UNL A   1      38.803  30.213  32.559  1.00  0.00     0.131 A 
ATOM     69  C   UNL A   1      36.892  31.803  31.350  1.00  0.00     0.055 A 
ATOM     70  C   UNL A   1      37.734  30.702  33.312  1.00  0.00     0.041 A 
ATOM     71  F   UNL A   1      39.718  29.460  33.189  1.00  0.00    -0.206 F 
ATOM     72  C   UNL A   1      36.779  31.515  32.710  1.00  0.00     0.022 A 
BRANCH  69  73
ATOM     73  S   UNL A   1      35.737  32.964  30.568  1.00  0.00     0.124 S 
ATOM     74  O   UNL A   1      34.446  32.397  30.939  1.00  0.00    -0.237 OA
ATOM     75  O   UNL A   1      36.093  34.225  31.212  1.00  0.00    -0.237 OA
ATOM     76  O   UNL A   1      36.074  32.874  29.149  1.00  0.00    -0.744 OA
ENDBRANCH  69  73
ENDBRANCH  42  66
BRANCH  54  77
ATOM     77  C   UNL A   1      45.057  33.304  29.455  1.00  0.00     0.023 A 
ATOM     78  C   UNL A   1      44.907  34.339  28.515  1.00  0.00     0.031 A 
ATOM     79  C   UNL A   1      45.808  33.569  30.614  1.00  0.00     0.131 A 
ATOM     80  C   UNL A   1      45.578  35.556  28.702  1.00  0.00     0.055 A 
ATOM     81  C   UNL A   1      46.404  34.812  30.835  1.00  0.00     0.041 A 
ATOM     82  F   UNL A   1      45.986  32.620  31.547  1.00  0.00    -0.206 F 
ATOM     83  C   UNL A   1      46.310  35.805  29.865  1.00  0.00     0.022 A 
BRANCH  80  84
ATOM     84  S   UNL A   1      45.606  36.746  27.335  1.00  0.00     0.124 S 
ATOM     85  O   UNL A   1      46.281  35.986  26.287  1.00  0.00    -0.237 OA
ATOM     86  O   UNL A   1      44.188  37.006  27.119  1.00  0.00    -0.237 OA
ATOM     87  O   UNL A   1      46.370  37.869  27.875  1.00  0.00    -0.744 OA
ENDBRANCH  80  84
ENDBRANCH  54  77
ENDBRANCH  28  29
ENDBRANCH  20  23
ENDBRANCH  18  19
ENDBRANCH   1  18
TORSDOF 18
ENDMDL
MODEL 3
REMARK VINA RESULT:     -10.6      3.017      3.992
REMARK SMILES COC(=O)/C=C(/CC(C)C)C(=O)NCCCCNC(=O)c1ccc(-c2c3nc(c(-c4cc(S(=O)(=O)[O-])ccc4F)c4ccc([nH]4)c(-c4cc(S(=O)(=O)[O-])ccc4F)c4nc(c(-c5cc(S(=O)(=O)[O-])ccc5F)c5ccc2[nH]5)C=C4)C=C3)cc1
REMARK SMILES IDX 16 1 15 2 14 3 13 4 11 5 12 6 6 8 5 9 3 10 4 11 2 12 1 13
REMARK SMILES IDX 7 14 8 15 9 16 10 17 17 18 18 19 19 20 20 22 21 23 22 24
REMARK SMILES IDX 83 25 23 26 82 27 24 28 25 29 26 30 76 31 27 32 81 33 75 34
REMARK SMILES IDX 77 35 28 36 80 37 74 38 73 39 29 41 61 42 41 43 60 44 42 45
REMARK SMILES IDX 45 46 59 47 78 48 43 49 44 50 58 52 79 53 46 54 30 55 31 56
REMARK SMILES IDX 39 57 32 58 38 59 40 60 37 61 33 62 34 63 35 64 36 65 62 66
REMARK SMILES IDX 63 67 71 68 64 69 70 70 72 71 69 72 65 73 66 74 67 75 68 76
REMARK SMILES IDX 47 77 48 78 56 79 49 80 55 81 57 82 54 83 50 84 51 85 52 86
REMARK SMILES IDX 53 87
REMARK H PARENT 13 7 18 21 77 40 45 51
REMARK Flexibility Score: inf
ROOT
ATOM      1  C   UNL A   1      32.133  31.336  26.857  1.00  0.00     0.023 C 
ENDROOT
BRANCH   1   2
ATOM      2  C   UNL A   1      32.416  29.851  26.994  1.00  0.00     0.023 C 
BRANCH   2   3
ATOM      3  C   UNL A   1      33.456  29.293  26.023  1.00  0.00     0.116 C 
BRANCH   3   4
ATOM      4  N   UNL A   1      33.114  29.649  24.658  1.00  0.00    -0.352 N 
ATOM      5  C   UNL A   1      32.587  28.919  23.638  1.00  0.00     0.247 C 
ATOM      6  O   UNL A   1      33.107  29.086  22.534  1.00  0.00    -0.270 OA
ATOM      7  H   UNL A   1      33.298  30.588  24.428  1.00  0.00     0.163 HD
BRANCH   5   8
ATOM      8  C   UNL A   1      31.434  27.975  23.801  1.00  0.00     0.024 C 
ATOM      9  C   UNL A   1      30.200  28.367  23.409  1.00  0.00     0.102 C 
BRANCH   9  10
ATOM     10  C   UNL A   1      29.691  29.621  22.815  1.00  0.00     0.330 C 
ATOM     11  O   UNL A   1      29.466  29.692  21.613  1.00  0.00    -0.247 OA
BRANCH  10  12
ATOM     12  O   UNL A   1      29.404  30.570  23.729  1.00  0.00    -0.466 OA
ATOM     13  C   UNL A   1      28.678  31.686  23.209  1.00  0.00     0.282 C 
ENDBRANCH  10  12
ENDBRANCH   9  10
BRANCH   8  14
ATOM     14  C   UNL A   1      31.557  26.582  24.370  1.00  0.00     0.044 C 
BRANCH  14  15
ATOM     15  C   UNL A   1      32.277  25.527  23.493  1.00  0.00    -0.013 C 
ATOM     16  C   UNL A   1      32.130  25.663  21.981  1.00  0.00     0.008 C 
ATOM     17  C   UNL A   1      33.771  25.508  23.841  1.00  0.00     0.008 C 
ENDBRANCH  14  15
ENDBRANCH   8  14
ENDBRANCH   5   8
ENDBRANCH   3   4
ENDBRANCH   2   3
ENDBRANCH   1   2
BRANCH   1  18
ATOM     18  C   UNL A   1      33.202  32.240  27.444  1.00  0.00     0.116 C 
BRANCH  18  19
ATOM     19  N   UNL A   1      32.747  33.600  27.717  1.00  0.00    -0.352 N 
ATOM     20  C   UNL A   1      33.263  34.516  28.605  1.00  0.00     0.251 C 
ATOM     21  H   UNL A   1      31.969  33.902  27.196  1.00  0.00     0.163 HD
ATOM     22  O   UNL A   1      32.699  35.590  28.781  1.00  0.00    -0.269 OA
BRANCH  20  23
ATOM     23  C   UNL A   1      34.472  34.154  29.370  1.00  0.00     0.039 A 
ATOM     24  C   UNL A   1      34.343  33.368  30.515  1.00  0.00     0.014 A 
ATOM     25  C   UNL A   1      35.735  34.495  28.882  1.00  0.00     0.014 A 
ATOM     26  C   UNL A   1      35.490  32.852  31.117  1.00  0.00     0.010 A 
ATOM     27  C   UNL A   1      36.858  33.867  29.397  1.00  0.00     0.010 A 
ATOM     28  C   UNL A   1      36.753  33.049  30.531  1.00  0.00    -0.014 A 
BRANCH  28  29
ATOM     29  C   UNL A   1      37.970  32.414  31.099  1.00  0.00     0.031 A 
ATOM     30  C   UNL A   1      38.592  32.967  32.354  1.00  0.00     0.074 A 
ATOM     31  C   UNL A   1      38.533  31.369  30.458  1.00  0.00     0.049 A 
ATOM     32  N   UNL A   1      39.647  32.550  33.007  1.00  0.00    -0.248 NA
ATOM     33  C   UNL A   1      37.976  34.174  32.926  1.00  0.00     0.031 C 
ATOM     34  C   UNL A   1      38.070  30.805  29.186  1.00  0.00     0.029 A 
ATOM     35  N   UNL A   1      39.608  30.585  30.791  1.00  0.00    -0.354 N 
ATOM     36  C   UNL A   1      39.822  33.449  34.054  1.00  0.00     0.074 A 
ATOM     37  C   UNL A   1      38.826  34.484  33.890  1.00  0.00     0.031 C 
ATOM     38  C   UNL A   1      38.814  29.731  28.882  1.00  0.00     0.029 A 
ATOM     39  C   UNL A   1      39.834  29.552  29.908  1.00  0.00     0.049 A 
ATOM     40  H   UNL A   1      40.167  30.747  31.585  1.00  0.00     0.167 HD
ATOM     41  C   UNL A   1      40.703  33.395  35.083  1.00  0.00     0.034 A 
ATOM     42  C   UNL A   1      40.752  28.566  29.935  1.00  0.00     0.034 A 
ATOM     43  C   UNL A   1      41.674  32.341  35.236  1.00  0.00     0.049 A 
ATOM     44  C   UNL A   1      41.707  28.512  31.101  1.00  0.00     0.074 A 
ATOM     45  C   UNL A   1      42.583  32.145  36.261  1.00  0.00     0.029 A 
ATOM     46  N   UNL A   1      41.866  31.301  34.333  1.00  0.00    -0.354 N 
ATOM     47  N   UNL A   1      41.810  29.327  32.127  1.00  0.00    -0.248 NA
ATOM     48  C   UNL A   1      42.653  27.391  31.122  1.00  0.00     0.031 C 
ATOM     49  C   UNL A   1      43.367  31.030  35.943  1.00  0.00     0.029 A 
ATOM     50  C   UNL A   1      42.894  30.478  34.763  1.00  0.00     0.049 A 
ATOM     51  H   UNL A   1      41.346  31.169  33.508  1.00  0.00     0.167 HD
ATOM     52  C   UNL A   1      42.817  28.800  32.929  1.00  0.00     0.074 A 
ATOM     53  C   UNL A   1      43.259  27.579  32.284  1.00  0.00     0.031 C 
ATOM     54  C   UNL A   1      43.336  29.277  34.091  1.00  0.00     0.034 A 
BRANCH  41  55
ATOM     55  C   UNL A   1      40.654  34.513  36.100  1.00  0.00     0.023 A 
ATOM     56  C   UNL A   1      41.720  35.419  36.254  1.00  0.00     0.031 A 
ATOM     57  C   UNL A   1      39.550  34.651  36.958  1.00  0.00     0.131 A 
ATOM     58  C   UNL A   1      41.698  36.361  37.293  1.00  0.00     0.055 A 
ATOM     59  C   UNL A   1      39.494  35.651  37.932  1.00  0.00     0.041 A 
ATOM     60  F   UNL A   1      38.512  33.804  36.879  1.00  0.00    -0.206 F 
ATOM     61  C   UNL A   1      40.580  36.502  38.116  1.00  0.00     0.022 A 
BRANCH  58  62
ATOM     62  S   UNL A   1      43.216  37.287  37.655  1.00  0.00     0.124 S 
ATOM     63  O   UNL A   1      42.776  38.161  38.741  1.00  0.00    -0.237 OA
ATOM     64  O   UNL A   1      44.150  36.230  38.025  1.00  0.00    -0.237 OA
ATOM     65  O   UNL A   1      43.510  37.969  36.396  1.00  0.00    -0.744 OA
ENDBRANCH  58  62
ENDBRANCH  41  55
BRANCH  42  66
ATOM     66  C   UNL A   1      40.804  27.543  28.851  1.00  0.00     0.023 A 
ATOM     67  C   UNL A   1      41.756  27.624  27.820  1.00  0.00     0.031 A 
ATOM     68  C   UNL A   1      39.873  26.489  28.802  1.00  0.00     0.131 A 
ATOM     69  C   UNL A   1      41.723  26.704  26.760  1.00  0.00     0.055 A 
ATOM     70  C   UNL A   1      39.881  25.543  27.776  1.00  0.00     0.041 A 
ATOM     71  F   UNL A   1      38.946  26.358  29.764  1.00  0.00    -0.206 F 
ATOM     72  C   UNL A   1      40.801  25.657  26.738  1.00  0.00     0.022 A 
BRANCH  69  73
ATOM     73  S   UNL A   1      42.847  26.953  25.357  1.00  0.00     0.124 S 
ATOM     74  O   UNL A   1      44.123  27.164  26.031  1.00  0.00    -0.237 OA
ATOM     75  O   UNL A   1      42.706  25.696  24.629  1.00  0.00    -0.237 OA
ATOM     76  O   UNL A   1      42.295  28.126  24.684  1.00  0.00    -0.744 OA
ENDBRANCH  69  73
ENDBRANCH  42  66
BRANCH  54  77
ATOM     77  C   UNL A   1      44.418  28.446  34.739  1.00  0.00     0.023 A 
ATOM     78  C   UNL A   1      44.117  27.472  35.707  1.00  0.00     0.031 A 
ATOM     79  C   UNL A   1      45.770  28.669  34.425  1.00  0.00     0.131 A 
ATOM     80  C   UNL A   1      45.154  26.828  36.397  1.00  0.00     0.055 A 
ATOM     81  C   UNL A   1      46.797  27.963  35.055  1.00  0.00     0.041 A 
ATOM     82  F   UNL A   1      46.120  29.586  33.509  1.00  0.00    -0.206 F 
ATOM     83  C   UNL A   1      46.492  27.053  36.063  1.00  0.00     0.022 A 
BRANCH  80  84
ATOM     84  S   UNL A   1      44.733  25.809  37.836  1.00  0.00     0.124 S 
ATOM     85  O   UNL A   1      44.082  24.661  37.213  1.00  0.00    -0.237 OA
ATOM     86  O   UNL A   1      46.040  25.554  38.431  1.00  0.00    -0.237 OA
ATOM     87  O   UNL A   1      43.851  26.673  38.620  1.00  0.00    -0.744 OA
ENDBRANCH  80  84
ENDBRANCH  54  77
ENDBRANCH  28  29
ENDBRANCH  20  23
ENDBRANCH  18  19
ENDBRANCH   1  18
TORSDOF 18
ENDMDL
