MODEL 1
REMARK VINA RESULT:     -11.0      0.000      0.000
REMARK SMILES CCCC[C@H](C(=O)NCCCCNC(=O)c1ccc(-c2c3nc(c(-c4cc(S(=O)(=O)[O-])ccc4F)c4ccc([nH]4)c(-c4cc(S(=O)(=O)[O-])ccc4F)c4nc(c(-c5cc(S(=O)(=O)[O-])ccc5F)c5ccc2[nH]5)C=C4)C=C3)cc1)[C@](C)(O)c1ccc(Cl)c(Cl)c1
REMARK SMILES IDX 10 1 9 2 8 3 6 4 7 5 5 7 4 8 3 9 2 10 1 11 79 12 80 13 81 14
REMARK SMILES IDX 82 16 83 17 89 18 84 19 87 20 85 21 88 22 86 23 11 24 12 25
REMARK SMILES IDX 13 26 14 27 15 29 16 30 17 31 78 32 18 33 77 34 19 35 20 36
REMARK SMILES IDX 21 37 71 38 22 39 76 40 70 41 72 42 23 43 75 44 69 45 68 46
REMARK SMILES IDX 24 48 56 49 36 50 55 51 37 52 40 53 54 54 73 55 38 56 39 57
REMARK SMILES IDX 53 59 74 60 41 61 25 62 26 63 34 64 27 65 33 66 35 67 32 68
REMARK SMILES IDX 28 69 29 70 30 71 31 72 57 73 58 74 66 75 59 76 65 77 67 78
REMARK SMILES IDX 64 79 60 80 61 81 62 82 63 83 42 84 43 85 51 86 44 87 50 88
REMARK SMILES IDX 52 89 49 90 45 91 46 92 47 93 48 94
REMARK H PARENT 8 6 81 15 13 28 72 47 40 58
REMARK Flexibility Score: inf
ROOT
ATOM      1  C   UNL A   1      31.025  31.364  25.738  1.00  0.00     0.023 C 
ENDROOT
BRANCH   1   2
ATOM      2  C   UNL A   1      31.386  30.009  25.130  1.00  0.00     0.116 C 
BRANCH   2   3
ATOM      3  N   UNL A   1      30.846  29.792  23.800  1.00  0.00    -0.356 N 
ATOM      4  C   UNL A   1      30.699  28.653  23.073  1.00  0.00     0.226 C 
ATOM      5  O   UNL A   1      30.088  28.748  22.003  1.00  0.00    -0.275 OA
ATOM      6  H   UNL A   1      30.533  30.608  23.349  1.00  0.00     0.163 HD
BRANCH   4   7
ATOM      7  C   UNL A   1      31.227  27.281  23.517  1.00  0.00     0.114 C 
BRANCH   7   8
ATOM      8  C   UNL A   1      30.064  26.298  23.822  1.00  0.00     0.017 C 
BRANCH   8   9
ATOM      9  C   UNL A   1      29.913  25.879  25.300  1.00  0.00     0.001 C 
BRANCH   9  10
ATOM     10  C   UNL A   1      31.193  25.882  26.139  1.00  0.00    -0.003 C 
ATOM     11  C   UNL A   1      31.673  24.498  26.560  1.00  0.00     0.004 C 
ENDBRANCH   9  10
ENDBRANCH   8   9
ENDBRANCH   7   8
BRANCH   7  12
ATOM     12  C   UNL A   1      32.391  26.755  22.584  1.00  0.00     0.098 C 
ATOM     13  C   UNL A   1      33.460  27.864  22.399  1.00  0.00     0.048 C 
BRANCH  12  14
ATOM     14  O   UNL A   1      31.837  26.424  21.302  1.00  0.00    -0.385 OA
ATOM     15  H   UNL A   1      31.165  25.733  21.409  1.00  0.00     0.211 HD
ENDBRANCH  12  14
BRANCH  12  16
ATOM     16  C   UNL A   1      33.096  25.440  22.990  1.00  0.00    -0.014 A 
ATOM     17  C   UNL A   1      32.635  24.215  22.453  1.00  0.00     0.008 A 
ATOM     18  C   UNL A   1      34.132  25.355  23.934  1.00  0.00     0.028 A 
ATOM     19  C   UNL A   1      33.150  22.980  22.860  1.00  0.00     0.022 A 
ATOM     20  C   UNL A   1      34.615  24.116  24.390  1.00  0.00     0.060 A 
ATOM     21  C   UNL A   1      34.125  22.927  23.850  1.00  0.00     0.059 A 
ATOM     22  Cl  UNL A   1      35.796  24.133  25.655  1.00  0.00    -0.083 Cl
ATOM     23  Cl  UNL A   1      34.669  21.370  24.365  1.00  0.00    -0.083 Cl
ENDBRANCH  12  16
ENDBRANCH   7  12
ENDBRANCH   4   7
ENDBRANCH   2   3
ENDBRANCH   1   2
BRANCH   1  24
ATOM     24  C   UNL A   1      31.640  31.654  27.098  1.00  0.00     0.023 C 
BRANCH  24  25
ATOM     25  C   UNL A   1      32.884  32.523  27.024  1.00  0.00     0.116 C 
BRANCH  25  26
ATOM     26  N   UNL A   1      32.661  33.840  27.610  1.00  0.00    -0.352 N 
ATOM     27  C   UNL A   1      33.260  34.431  28.702  1.00  0.00     0.251 C 
ATOM     28  H   UNL A   1      31.982  34.390  27.156  1.00  0.00     0.163 HD
ATOM     29  O   UNL A   1      32.770  35.434  29.197  1.00  0.00    -0.269 OA
BRANCH  27  30
ATOM     30  C   UNL A   1      34.480  33.820  29.274  1.00  0.00     0.039 A 
ATOM     31  C   UNL A   1      35.734  34.344  28.954  1.00  0.00     0.014 A 
ATOM     32  C   UNL A   1      34.373  32.741  30.150  1.00  0.00     0.014 A 
ATOM     33  C   UNL A   1      36.874  33.834  29.585  1.00  0.00     0.010 A 
ATOM     34  C   UNL A   1      35.484  32.325  30.866  1.00  0.00     0.010 A 
ATOM     35  C   UNL A   1      36.754  32.852  30.581  1.00  0.00    -0.014 A 
BRANCH  35  36
ATOM     36  C   UNL A   1      37.924  32.300  31.312  1.00  0.00     0.031 A 
ATOM     37  C   UNL A   1      38.720  31.186  30.679  1.00  0.00     0.074 A 
ATOM     38  C   UNL A   1      38.207  32.712  32.564  1.00  0.00     0.049 A 
ATOM     39  N   UNL A   1      39.627  30.405  31.207  1.00  0.00    -0.248 NA
ATOM     40  C   UNL A   1      38.402  30.872  29.276  1.00  0.00     0.031 C 
ATOM     41  C   UNL A   1      37.489  33.756  33.299  1.00  0.00     0.029 A 
ATOM     42  N   UNL A   1      39.168  32.289  33.448  1.00  0.00    -0.354 N 
ATOM     43  C   UNL A   1      39.954  29.486  30.216  1.00  0.00     0.074 A 
ATOM     44  C   UNL A   1      39.092  29.759  29.087  1.00  0.00     0.031 C 
ATOM     45  C   UNL A   1      38.054  33.911  34.509  1.00  0.00     0.029 A 
ATOM     46  C   UNL A   1      39.134  32.942  34.660  1.00  0.00     0.049 A 
ATOM     47  H   UNL A   1      39.821  31.583  33.236  1.00  0.00     0.167 HD
ATOM     48  C   UNL A   1      40.908  28.522  30.232  1.00  0.00     0.034 A 
ATOM     49  C   UNL A   1      39.881  32.765  35.768  1.00  0.00     0.034 A 
ATOM     50  C   UNL A   1      41.793  28.301  31.347  1.00  0.00     0.049 A 
ATOM     51  C   UNL A   1      40.947  31.696  35.760  1.00  0.00     0.074 A 
ATOM     52  C   UNL A   1      42.826  27.389  31.464  1.00  0.00     0.029 A 
ATOM     53  N   UNL A   1      41.759  29.019  32.537  1.00  0.00    -0.354 N 
ATOM     54  N   UNL A   1      41.255  30.843  34.810  1.00  0.00    -0.248 NA
ATOM     55  C   UNL A   1      41.773  31.573  36.968  1.00  0.00     0.031 C 
ATOM     56  C   UNL A   1      43.386  27.523  32.739  1.00  0.00     0.029 A 
ATOM     57  C   UNL A   1      42.747  28.564  33.393  1.00  0.00     0.049 A 
ATOM     58  H   UNL A   1      41.124  29.743  32.741  1.00  0.00     0.167 HD
ATOM     59  C   UNL A   1      42.338  30.113  35.291  1.00  0.00     0.074 A 
ATOM     60  C   UNL A   1      42.633  30.632  36.611  1.00  0.00     0.031 C 
ATOM     61  C   UNL A   1      43.032  29.110  34.698  1.00  0.00     0.034 A 
BRANCH  48  62
ATOM     62  C   UNL A   1      41.028  27.644  29.009  1.00  0.00     0.023 A 
ATOM     63  C   UNL A   1      42.039  27.847  28.054  1.00  0.00     0.031 A 
ATOM     64  C   UNL A   1      40.097  26.617  28.772  1.00  0.00     0.131 A 
ATOM     65  C   UNL A   1      42.041  27.102  26.866  1.00  0.00     0.055 A 
ATOM     66  C   UNL A   1      40.161  25.816  27.629  1.00  0.00     0.041 A 
ATOM     67  F   UNL A   1      39.097  26.385  29.636  1.00  0.00    -0.206 F 
ATOM     68  C   UNL A   1      41.127  26.069  26.658  1.00  0.00     0.022 A 
BRANCH  65  69
ATOM     69  S   UNL A   1      43.160  27.610  25.532  1.00  0.00     0.124 S 
ATOM     70  O   UNL A   1      43.695  26.323  25.094  1.00  0.00    -0.237 OA
ATOM     71  O   UNL A   1      42.259  28.277  24.599  1.00  0.00    -0.237 OA
ATOM     72  O   UNL A   1      44.122  28.481  26.204  1.00  0.00    -0.744 OA
ENDBRANCH  65  69
ENDBRANCH  48  62
BRANCH  49  73
ATOM     73  C   UNL A   1      39.665  33.610  36.978  1.00  0.00     0.023 A 
ATOM     74  C   UNL A   1      40.473  34.733  37.221  1.00  0.00     0.031 A 
ATOM     75  C   UNL A   1      38.694  33.279  37.939  1.00  0.00     0.131 A 
ATOM     76  C   UNL A   1      40.339  35.449  38.421  1.00  0.00     0.055 A 
ATOM     77  C   UNL A   1      38.525  34.028  39.106  1.00  0.00     0.041 A 
ATOM     78  F   UNL A   1      37.889  32.221  37.755  1.00  0.00    -0.206 F 
ATOM     79  C   UNL A   1      39.362  35.111  39.360  1.00  0.00     0.022 A 
BRANCH  76  80
ATOM     80  S   UNL A   1      41.535  36.764  38.783  1.00  0.00     0.124 S 
ATOM     81  O   UNL A   1      42.366  36.135  39.803  1.00  0.00    -0.237 OA
ATOM     82  O   UNL A   1      42.159  36.970  37.481  1.00  0.00    -0.237 OA
ATOM     83  O   UNL A   1      40.696  37.865  39.253  1.00  0.00    -0.744 OA
ENDBRANCH  76  80
ENDBRANCH  49  73
BRANCH  61  84
ATOM     84  C   UNL A   1      44.224  28.566  35.443  1.00  0.00     0.023 A 
ATOM     85  C   UNL A   1      44.096  27.560  36.414  1.00  0.00     0.031 A 
ATOM     86  C   UNL A   1      45.509  29.064  35.164  1.00  0.00     0.131 A 
ATOM     87  C   UNL A   1      45.231  27.117  37.111  1.00  0.00     0.055 A 
ATOM     88  C   UNL A   1      46.641  28.580  35.821  1.00  0.00     0.041 A 
ATOM     89  F   UNL A   1      45.684  30.025  34.243  1.00  0.00    -0.206 F 
ATOM     90  C   UNL A   1      46.504  27.609  36.809  1.00  0.00     0.022 A 
BRANCH  87  91
ATOM     91  S   UNL A   1      45.012  25.938  38.471  1.00  0.00     0.124 S 
ATOM     92  O   UNL A   1      44.222  24.887  37.839  1.00  0.00    -0.237 OA
ATOM     93  O   UNL A   1      46.389  25.587  38.804  1.00  0.00    -0.237 OA
ATOM     94  O   UNL A   1      44.309  26.716  39.489  1.00  0.00    -0.744 OA
ENDBRANCH  87  91
ENDBRANCH  61  84
ENDBRANCH  35  36
ENDBRANCH  27  30
ENDBRANCH  25  26
ENDBRANCH  24  25
ENDBRANCH   1  24
TORSDOF 20
ENDMDL
MODEL 2
REMARK VINA RESULT:     -10.8      3.550      8.702
REMARK SMILES CCCC[C@H](C(=O)NCCCCNC(=O)c1ccc(-c2c3nc(c(-c4cc(S(=O)(=O)[O-])ccc4F)c4ccc([nH]4)c(-c4cc(S(=O)(=O)[O-])ccc4F)c4nc(c(-c5cc(S(=O)(=O)[O-])ccc5F)c5ccc2[nH]5)C=C4)C=C3)cc1)[C@](C)(O)c1ccc(Cl)c(Cl)c1
REMARK SMILES IDX 10 1 9 2 8 3 6 4 7 5 5 7 4 8 3 9 2 10 1 11 79 12 80 13 81 14
REMARK SMILES IDX 82 16 83 17 89 18 84 19 87 20 85 21 88 22 86 23 11 24 12 25
REMARK SMILES IDX 13 26 14 27 15 29 16 30 17 31 78 32 18 33 77 34 19 35 20 36
REMARK SMILES IDX 21 37 71 38 22 39 76 40 70 41 72 42 23 43 75 44 69 45 68 46
REMARK SMILES IDX 24 48 56 49 36 50 55 51 37 52 40 53 54 54 73 55 38 56 39 57
REMARK SMILES IDX 53 59 74 60 41 61 25 62 26 63 34 64 27 65 33 66 35 67 32 68
REMARK SMILES IDX 28 69 29 70 30 71 31 72 57 73 58 74 66 75 59 76 65 77 67 78
REMARK SMILES IDX 64 79 60 80 61 81 62 82 63 83 42 84 43 85 51 86 44 87 50 88
REMARK SMILES IDX 52 89 49 90 45 91 46 92 47 93 48 94
REMARK H PARENT 8 6 81 15 13 28 72 47 40 58
REMARK Flexibility Score: inf
ROOT
ATOM      1  C   UNL A   1      33.161  29.319  24.832  1.00  0.00     0.023 C 
ENDROOT
BRANCH   1   2
ATOM      2  C   UNL A   1      31.637  29.430  24.810  1.00  0.00     0.116 C 
BRANCH   2   3
ATOM      3  N   UNL A   1      31.026  28.983  23.571  1.00  0.00    -0.356 N 
ATOM      4  C   UNL A   1      30.882  27.737  23.047  1.00  0.00     0.226 C 
ATOM      5  O   UNL A   1      30.203  27.639  22.018  1.00  0.00    -0.275 OA
ATOM      6  H   UNL A   1      30.654  29.706  23.016  1.00  0.00     0.163 HD
BRANCH   4   7
ATOM      7  C   UNL A   1      31.489  26.472  23.669  1.00  0.00     0.114 C 
BRANCH   7   8
ATOM      8  C   UNL A   1      30.397  25.579  24.317  1.00  0.00     0.017 C 
BRANCH   8   9
ATOM      9  C   UNL A   1      30.495  25.409  25.848  1.00  0.00     0.001 C 
BRANCH   9  10
ATOM     10  C   UNL A   1      30.465  23.971  26.374  1.00  0.00    -0.003 C 
ATOM     11  C   UNL A   1      31.832  23.406  26.737  1.00  0.00     0.004 C 
ENDBRANCH   9  10
ENDBRANCH   8   9
ENDBRANCH   7   8
BRANCH   7  12
ATOM     12  C   UNL A   1      32.521  25.763  22.702  1.00  0.00     0.098 C 
ATOM     13  C   UNL A   1      33.515  26.810  22.134  1.00  0.00     0.048 C 
BRANCH  12  14
ATOM     14  O   UNL A   1      31.796  25.172  21.613  1.00  0.00    -0.385 OA
ATOM     15  H   UNL A   1      30.871  25.042  21.874  1.00  0.00     0.211 HD
ENDBRANCH  12  14
BRANCH  12  16
ATOM     16  C   UNL A   1      33.319  24.563  23.260  1.00  0.00    -0.014 A 
ATOM     17  C   UNL A   1      32.864  23.249  22.998  1.00  0.00     0.008 A 
ATOM     18  C   UNL A   1      34.442  24.678  24.095  1.00  0.00     0.028 A 
ATOM     19  C   UNL A   1      33.470  22.122  23.563  1.00  0.00     0.022 A 
ATOM     20  C   UNL A   1      35.020  23.555  24.712  1.00  0.00     0.060 A 
ATOM     21  C   UNL A   1      34.535  22.274  24.443  1.00  0.00     0.059 A 
ATOM     22  Cl  UNL A   1      36.313  23.831  25.828  1.00  0.00    -0.083 Cl
ATOM     23  Cl  UNL A   1      35.194  20.851  25.168  1.00  0.00    -0.083 Cl
ENDBRANCH  12  16
ENDBRANCH   7  12
ENDBRANCH   4   7
ENDBRANCH   2   3
ENDBRANCH   1   2
BRANCH   1  24
ATOM     24  C   UNL A   1      33.750  28.673  26.075  1.00  0.00     0.023 C 
BRANCH  24  25
ATOM     25  C   UNL A   1      33.175  29.220  27.370  1.00  0.00     0.116 C 
BRANCH  25  26
ATOM     26  N   UNL A   1      33.388  30.657  27.494  1.00  0.00    -0.352 N 
ATOM     27  C   UNL A   1      34.429  31.346  28.080  1.00  0.00     0.251 C 
ATOM     28  H   UNL A   1      32.683  31.220  27.100  1.00  0.00     0.163 HD
ATOM     29  O   UNL A   1      34.316  32.539  28.313  1.00  0.00    -0.269 OA
BRANCH  27  30
ATOM     30  C   UNL A   1      35.664  30.616  28.441  1.00  0.00     0.039 A 
ATOM     31  C   UNL A   1      36.812  30.764  27.659  1.00  0.00     0.014 A 
ATOM     32  C   UNL A   1      35.687  29.804  29.573  1.00  0.00     0.014 A 
ATOM     33  C   UNL A   1      38.006  30.161  28.069  1.00  0.00     0.010 A 
ATOM     34  C   UNL A   1      36.896  29.314  30.043  1.00  0.00     0.010 A 
ATOM     35  C   UNL A   1      38.069  29.470  29.289  1.00  0.00    -0.014 A 
BRANCH  35  36
ATOM     36  C   UNL A   1      39.318  28.842  29.794  1.00  0.00     0.031 A 
ATOM     37  C   UNL A   1      40.034  29.477  30.960  1.00  0.00     0.074 A 
ATOM     38  C   UNL A   1      39.861  27.785  29.157  1.00  0.00     0.049 A 
ATOM     39  N   UNL A   1      41.234  29.248  31.427  1.00  0.00    -0.248 NA
ATOM     40  C   UNL A   1      39.318  30.561  31.653  1.00  0.00     0.031 C 
ATOM     41  C   UNL A   1      39.284  27.104  27.995  1.00  0.00     0.029 A 
ATOM     42  N   UNL A   1      41.032  27.107  29.387  1.00  0.00    -0.354 N 
ATOM     43  C   UNL A   1      41.430  30.185  32.436  1.00  0.00     0.074 A 
ATOM     44  C   UNL A   1      40.258  31.032  32.457  1.00  0.00     0.031 C 
ATOM     45  C   UNL A   1      40.088  26.090  27.634  1.00  0.00     0.029 A 
ATOM     46  C   UNL A   1      41.263  26.082  28.499  1.00  0.00     0.049 A 
ATOM     47  H   UNL A   1      41.650  27.335  30.118  1.00  0.00     0.167 HD
ATOM     48  C   UNL A   1      42.478  30.309  33.288  1.00  0.00     0.034 A 
ATOM     49  C   UNL A   1      42.312  25.242  28.389  1.00  0.00     0.034 A 
ATOM     50  C   UNL A   1      43.611  29.421  33.286  1.00  0.00     0.049 A 
ATOM     51  C   UNL A   1      43.461  25.388  29.358  1.00  0.00     0.074 A 
ATOM     52  C   UNL A   1      44.709  29.417  34.128  1.00  0.00     0.029 A 
ATOM     53  N   UNL A   1      43.783  28.362  32.403  1.00  0.00    -0.354 N 
ATOM     54  N   UNL A   1      43.627  26.270  30.317  1.00  0.00    -0.248 NA
ATOM     55  C   UNL A   1      44.558  24.420  29.237  1.00  0.00     0.031 C 
ATOM     56  C   UNL A   1      45.565  28.386  33.726  1.00  0.00     0.029 A 
ATOM     57  C   UNL A   1      44.970  27.704  32.676  1.00  0.00     0.049 A 
ATOM     58  H   UNL A   1      43.154  28.116  31.686  1.00  0.00     0.167 HD
ATOM     59  C   UNL A   1      44.825  25.934  30.939  1.00  0.00     0.074 A 
ATOM     60  C   UNL A   1      45.335  24.766  30.252  1.00  0.00     0.031 C 
ATOM     61  C   UNL A   1      45.448  26.530  31.987  1.00  0.00     0.034 A 
BRANCH  48  62
ATOM     62  C   UNL A   1      42.433  31.446  34.281  1.00  0.00     0.023 A 
ATOM     63  C   UNL A   1      41.574  31.419  35.394  1.00  0.00     0.031 A 
ATOM     64  C   UNL A   1      43.227  32.591  34.093  1.00  0.00     0.131 A 
ATOM     65  C   UNL A   1      41.459  32.546  36.219  1.00  0.00     0.055 A 
ATOM     66  C   UNL A   1      43.176  33.675  34.974  1.00  0.00     0.041 A 
ATOM     67  F   UNL A   1      44.053  32.687  33.040  1.00  0.00    -0.206 F 
ATOM     68  C   UNL A   1      42.274  33.664  36.034  1.00  0.00     0.022 A 
BRANCH  65  69
ATOM     69  S   UNL A   1      40.119  32.588  37.440  1.00  0.00     0.124 S 
ATOM     70  O   UNL A   1      39.278  31.482  36.989  1.00  0.00    -0.237 OA
ATOM     71  O   UNL A   1      40.828  32.377  38.697  1.00  0.00    -0.237 OA
ATOM     72  O   UNL A   1      39.536  33.916  37.265  1.00  0.00    -0.744 OA
ENDBRANCH  65  69
ENDBRANCH  48  62
BRANCH  49  73
ATOM     73  C   UNL A   1      42.340  24.185  27.337  1.00  0.00     0.023 A 
ATOM     74  C   UNL A   1      41.720  22.943  27.552  1.00  0.00     0.031 A 
ATOM     75  C   UNL A   1      43.031  24.373  26.127  1.00  0.00     0.131 A 
ATOM     76  C   UNL A   1      41.855  21.917  26.605  1.00  0.00     0.055 A 
ATOM     77  C   UNL A   1      43.114  23.368  25.160  1.00  0.00     0.041 A 
ATOM     78  F   UNL A   1      43.635  25.543  25.864  1.00  0.00    -0.206 F 
ATOM     79  C   UNL A   1      42.538  22.125  25.404  1.00  0.00     0.022 A 
BRANCH  76  80
ATOM     80  S   UNL A   1      41.214  20.270  27.014  1.00  0.00     0.124 S 
ATOM     81  O   UNL A   1      42.379  19.429  26.768  1.00  0.00    -0.237 OA
ATOM     82  O   UNL A   1      40.825  20.437  28.410  1.00  0.00    -0.237 OA
ATOM     83  O   UNL A   1      40.107  20.094  26.076  1.00  0.00    -0.744 OA
ENDBRANCH  76  80
ENDBRANCH  49  73
BRANCH  61  84
ATOM     84  C   UNL A   1      46.707  25.878  32.499  1.00  0.00     0.023 A 
ATOM     85  C   UNL A   1      47.947  26.061  31.866  1.00  0.00     0.031 A 
ATOM     86  C   UNL A   1      46.656  25.065  33.644  1.00  0.00     0.131 A 
ATOM     87  C   UNL A   1      49.083  25.397  32.356  1.00  0.00     0.055 A 
ATOM     88  C   UNL A   1      47.800  24.452  34.160  1.00  0.00     0.041 A 
ATOM     89  F   UNL A   1      45.496  24.860  34.286  1.00  0.00    -0.206 F 
ATOM     90  C   UNL A   1      49.019  24.608  33.508  1.00  0.00     0.022 A 
BRANCH  87  91
ATOM     91  S   UNL A   1      50.633  25.521  31.424  1.00  0.00     0.124 S 
ATOM     92  O   UNL A   1      51.492  26.242  32.357  1.00  0.00    -0.237 OA
ATOM     93  O   UNL A   1      50.974  24.120  31.197  1.00  0.00    -0.237 OA
ATOM     94  O   UNL A   1      50.254  26.267  30.226  1.00  0.00    -0.744 OA
ENDBRANCH  87  91
ENDBRANCH  61  84
ENDBRANCH  35  36
ENDBRANCH  27  30
ENDBRANCH  25  26
ENDBRANCH  24  25
ENDBRANCH   1  24
TORSDOF 20
ENDMDL
MODEL 3
REMARK VINA RESULT:     -10.8      1.659      2.136
REMARK SMILES CCCC[C@H](C(=O)NCCCCNC(=O)c1ccc(-c2c3nc(c(-c4cc(S(=O)(=O)[O-])ccc4F)c4ccc([nH]4)c(-c4cc(S(=O)(=O)[O-])ccc4F)c4nc(c(-c5cc(S(=O)(=O)[O-])ccc5F)c5ccc2[nH]5)C=C4)C=C3)cc1)[C@](C)(O)c1ccc(Cl)c(Cl)c1
REMARK SMILES IDX 10 1 9 2 8 3 6 4 7 5 5 7 4 8 3 9 2 10 1 11 79 12 80 13 81 14
REMARK SMILES IDX 82 16 83 17 89 18 84 19 87 20 85 21 88 22 86 23 11 24 12 25
REMARK SMILES IDX 13 26 14 27 15 29 16 30 17 31 78 32 18 33 77 34 19 35 20 36
REMARK SMILES IDX 21 37 71 38 22 39 76 40 70 41 72 42 23 43 75 44 69 45 68 46
REMARK SMILES IDX 24 48 56 49 36 50 55 51 37 52 40 53 54 54 73 55 38 56 39 57
REMARK SMILES IDX 53 59 74 60 41 61 25 62 26 63 34 64 27 65 33 66 35 67 32 68
REMARK SMILES IDX 28 69 29 70 30 71 31 72 57 73 58 74 66 75 59 76 65 77 67 78
REMARK SMILES IDX 64 79 60 80 61 81 62 82 63 83 42 84 43 85 51 86 44 87 50 88
REMARK SMILES IDX 52 89 49 90 45 91 46 92 47 93 48 94
REMARK H PARENT 8 6 81 15 13 28 72 47 40 58
REMARK Flexibility Score: inf
ROOT
ATOM      1  C   UNL A   1      31.580  30.343  26.474  1.00  0.00     0.023 C 
ENDROOT
BRANCH   1   2
ATOM      2  C   UNL A   1      31.439  29.835  25.040  1.00  0.00     0.116 C 
BRANCH   2   3
ATOM      3  N   UNL A   1      32.703  29.542  24.387  1.00  0.00    -0.356 N 
ATOM      4  C   UNL A   1      33.238  28.366  23.967  1.00  0.00     0.226 C 
ATOM      5  O   UNL A   1      34.292  28.429  23.324  1.00  0.00    -0.275 OA
ATOM      6  H   UNL A   1      33.267  30.331  24.220  1.00  0.00     0.163 HD
BRANCH   4   7
ATOM      7  C   UNL A   1      32.600  26.994  24.230  1.00  0.00     0.114 C 
BRANCH   7   8
ATOM      8  C   UNL A   1      32.688  26.079  22.979  1.00  0.00     0.017 C 
BRANCH   8   9
ATOM      9  C   UNL A   1      31.355  25.459  22.509  1.00  0.00     0.001 C 
BRANCH   9  10
ATOM     10  C   UNL A   1      30.327  25.152  23.601  1.00  0.00    -0.003 C 
ATOM     11  C   UNL A   1      29.302  26.257  23.828  1.00  0.00     0.004 C 
ENDBRANCH   9  10
ENDBRANCH   8   9
ENDBRANCH   7   8
BRANCH   7  12
ATOM     12  C   UNL A   1      33.057  26.374  25.612  1.00  0.00     0.098 C 
ATOM     13  C   UNL A   1      31.871  26.387  26.612  1.00  0.00     0.048 C 
BRANCH  12  14
ATOM     14  O   UNL A   1      34.122  27.176  26.144  1.00  0.00    -0.385 OA
ATOM     15  H   UNL A   1      34.929  26.641  26.206  1.00  0.00     0.211 HD
ENDBRANCH  12  14
BRANCH  12  16
ATOM     16  C   UNL A   1      33.683  24.961  25.593  1.00  0.00    -0.014 A 
ATOM     17  C   UNL A   1      35.071  24.824  25.355  1.00  0.00     0.008 A 
ATOM     18  C   UNL A   1      32.952  23.769  25.714  1.00  0.00     0.028 A 
ATOM     19  C   UNL A   1      35.684  23.575  25.212  1.00  0.00     0.022 A 
ATOM     20  C   UNL A   1      33.550  22.512  25.515  1.00  0.00     0.060 A 
ATOM     21  C   UNL A   1      34.919  22.415  25.266  1.00  0.00     0.059 A 
ATOM     22  Cl  UNL A   1      32.523  21.120  25.554  1.00  0.00    -0.083 Cl
ATOM     23  Cl  UNL A   1      35.721  20.907  25.008  1.00  0.00    -0.083 Cl
ENDBRANCH  12  16
ENDBRANCH   7  12
ENDBRANCH   4   7
ENDBRANCH   2   3
ENDBRANCH   1   2
BRANCH   1  24
ATOM     24  C   UNL A   1      31.521  31.854  26.640  1.00  0.00     0.023 C 
BRANCH  24  25
ATOM     25  C   UNL A   1      32.818  32.455  27.153  1.00  0.00     0.116 C 
BRANCH  25  26
ATOM     26  N   UNL A   1      32.618  33.791  27.700  1.00  0.00    -0.352 N 
ATOM     27  C   UNL A   1      33.242  34.411  28.762  1.00  0.00     0.251 C 
ATOM     28  H   UNL A   1      31.935  34.333  27.242  1.00  0.00     0.163 HD
ATOM     29  O   UNL A   1      32.771  35.434  29.234  1.00  0.00    -0.269 OA
BRANCH  27  30
ATOM     30  C   UNL A   1      34.468  33.808  29.331  1.00  0.00     0.039 A 
ATOM     31  C   UNL A   1      35.718  34.337  29.004  1.00  0.00     0.014 A 
ATOM     32  C   UNL A   1      34.370  32.730  30.209  1.00  0.00     0.014 A 
ATOM     33  C   UNL A   1      36.863  33.834  29.631  1.00  0.00     0.010 A 
ATOM     34  C   UNL A   1      35.486  32.320  30.921  1.00  0.00     0.010 A 
ATOM     35  C   UNL A   1      36.752  32.854  30.630  1.00  0.00    -0.014 A 
BRANCH  35  36
ATOM     36  C   UNL A   1      37.928  32.309  31.358  1.00  0.00     0.031 A 
ATOM     37  C   UNL A   1      38.733  31.204  30.720  1.00  0.00     0.074 A 
ATOM     38  C   UNL A   1      38.209  32.719  32.610  1.00  0.00     0.049 A 
ATOM     39  N   UNL A   1      39.647  30.430  31.243  1.00  0.00    -0.248 NA
ATOM     40  C   UNL A   1      38.415  30.893  29.316  1.00  0.00     0.031 C 
ATOM     41  C   UNL A   1      37.483  33.754  33.351  1.00  0.00     0.029 A 
ATOM     42  N   UNL A   1      39.175  32.301  33.492  1.00  0.00    -0.354 N 
ATOM     43  C   UNL A   1      39.981  29.517  30.248  1.00  0.00     0.074 A 
ATOM     44  C   UNL A   1      39.115  29.787  29.121  1.00  0.00     0.031 C 
ATOM     45  C   UNL A   1      38.048  33.909  34.560  1.00  0.00     0.029 A 
ATOM     46  C   UNL A   1      39.136  32.949  34.706  1.00  0.00     0.049 A 
ATOM     47  H   UNL A   1      39.834  31.602  33.277  1.00  0.00     0.167 HD
ATOM     48  C   UNL A   1      40.943  28.561  30.259  1.00  0.00     0.034 A 
ATOM     49  C   UNL A   1      39.887  32.774  35.813  1.00  0.00     0.034 A 
ATOM     50  C   UNL A   1      41.831  28.344  31.372  1.00  0.00     0.049 A 
ATOM     51  C   UNL A   1      40.962  31.715  35.799  1.00  0.00     0.074 A 
ATOM     52  C   UNL A   1      42.873  27.440  31.484  1.00  0.00     0.029 A 
ATOM     53  N   UNL A   1      41.793  29.057  32.564  1.00  0.00    -0.354 N 
ATOM     54  N   UNL A   1      41.276  30.868  34.845  1.00  0.00    -0.248 NA
ATOM     55  C   UNL A   1      41.791  31.594  37.005  1.00  0.00     0.031 C 
ATOM     56  C   UNL A   1      43.433  27.574  32.759  1.00  0.00     0.029 A 
ATOM     57  C   UNL A   1      42.786  28.608  33.418  1.00  0.00     0.049 A 
ATOM     58  H   UNL A   1      41.152  29.774  32.773  1.00  0.00     0.167 HD
ATOM     59  C   UNL A   1      42.366  30.146  35.322  1.00  0.00     0.074 A 
ATOM     60  C   UNL A   1      42.658  30.662  36.643  1.00  0.00     0.031 C 
ATOM     61  C   UNL A   1      43.068  29.151  34.724  1.00  0.00     0.034 A 
BRANCH  48  62
ATOM     62  C   UNL A   1      41.069  27.689  29.033  1.00  0.00     0.023 A 
ATOM     63  C   UNL A   1      42.098  27.883  28.094  1.00  0.00     0.031 A 
ATOM     64  C   UNL A   1      40.127  26.677  28.775  1.00  0.00     0.131 A 
ATOM     65  C   UNL A   1      42.107  27.146  26.902  1.00  0.00     0.055 A 
ATOM     66  C   UNL A   1      40.197  25.882  27.628  1.00  0.00     0.041 A 
ATOM     67  F   UNL A   1      39.111  26.455  29.622  1.00  0.00    -0.206 F 
ATOM     68  C   UNL A   1      41.181  26.127  26.674  1.00  0.00     0.022 A 
BRANCH  65  69
ATOM     69  S   UNL A   1      43.253  27.645  25.589  1.00  0.00     0.124 S 
ATOM     70  O   UNL A   1      44.051  26.432  25.420  1.00  0.00    -0.237 OA
ATOM     71  O   UNL A   1      42.354  27.974  24.490  1.00  0.00    -0.237 OA
ATOM     72  O   UNL A   1      43.970  28.777  26.171  1.00  0.00    -0.744 OA
ENDBRANCH  65  69
ENDBRANCH  48  62
BRANCH  49  73
ATOM     73  C   UNL A   1      39.665  33.612  37.026  1.00  0.00     0.023 A 
ATOM     74  C   UNL A   1      39.085  33.062  38.181  1.00  0.00     0.031 A 
ATOM     75  C   UNL A   1      39.973  34.984  37.036  1.00  0.00     0.131 A 
ATOM     76  C   UNL A   1      38.772  33.888  39.272  1.00  0.00     0.055 A 
ATOM     77  C   UNL A   1      39.714  35.792  38.145  1.00  0.00     0.041 A 
ATOM     78  F   UNL A   1      40.536  35.562  35.963  1.00  0.00    -0.206 F 
ATOM     79  C   UNL A   1      39.094  35.247  39.267  1.00  0.00     0.022 A 
BRANCH  76  80
ATOM     80  S   UNL A   1      37.841  33.178  40.657  1.00  0.00     0.124 S 
ATOM     81  O   UNL A   1      36.497  33.093  40.098  1.00  0.00    -0.237 OA
ATOM     82  O   UNL A   1      38.532  31.910  40.866  1.00  0.00    -0.237 OA
ATOM     83  O   UNL A   1      38.014  34.163  41.723  1.00  0.00    -0.744 OA
ENDBRANCH  76  80
ENDBRANCH  49  73
BRANCH  61  84
ATOM     84  C   UNL A   1      44.266  28.614  35.465  1.00  0.00     0.023 A 
ATOM     85  C   UNL A   1      44.146  27.613  36.442  1.00  0.00     0.031 A 
ATOM     86  C   UNL A   1      45.547  29.116  35.178  1.00  0.00     0.131 A 
ATOM     87  C   UNL A   1      45.287  27.177  37.135  1.00  0.00     0.055 A 
ATOM     88  C   UNL A   1      46.685  28.639  35.831  1.00  0.00     0.041 A 
ATOM     89  F   UNL A   1      45.715  30.072  34.251  1.00  0.00    -0.206 F 
ATOM     90  C   UNL A   1      46.556  27.672  36.824  1.00  0.00     0.022 A 
BRANCH  87  91
ATOM     91  S   UNL A   1      45.079  26.004  38.502  1.00  0.00     0.124 S 
ATOM     92  O   UNL A   1      44.955  24.733  37.797  1.00  0.00    -0.237 OA
ATOM     93  O   UNL A   1      46.309  26.192  39.264  1.00  0.00    -0.237 OA
ATOM     94  O   UNL A   1      43.862  26.466  39.168  1.00  0.00    -0.744 OA
ENDBRANCH  87  91
ENDBRANCH  61  84
ENDBRANCH  35  36
ENDBRANCH  27  30
ENDBRANCH  25  26
ENDBRANCH  24  25
ENDBRANCH   1  24
TORSDOF 20
ENDMDL
