MODEL 1
REMARK VINA RESULT:     -12.6      0.000      0.000
REMARK SMILES CCn1cc(C(=O)NCCCCNC(=O)c2ccc(-c3c4nc(c(-c5cc(S(=O)(=O)[O-])ccc5F)c5ccc([nH]5)c(-c5cc(S(=O)(=O)[O-])ccc5F)c5nc(c(-c6cc(S(=O)(=O)[O-])ccc6F)c6ccc3[nH]6)C=C5)C=C4)cc2)c(=O)c2cc(F)c(NC3CCCCC3)cc21
REMARK SMILES IDX 11 1 10 2 9 3 8 4 6 5 7 6 5 8 3 9 4 10 94 11 81 12 93 13
REMARK SMILES IDX 79 14 82 15 85 16 80 17 83 18 84 19 2 20 1 21 86 22 87 24
REMARK SMILES IDX 88 25 92 26 89 27 91 28 90 29 12 30 13 31 14 32 15 34 16 35
REMARK SMILES IDX 17 36 78 37 18 38 77 39 19 40 20 41 21 42 71 43 22 44 76 45
REMARK SMILES IDX 70 46 72 47 23 48 75 49 69 50 68 51 24 53 56 54 36 55 55 56
REMARK SMILES IDX 37 57 40 58 54 59 73 60 38 61 39 62 53 64 74 65 41 66 25 67
REMARK SMILES IDX 26 68 34 69 27 70 33 71 35 72 32 73 28 74 29 75 30 76 31 77
REMARK SMILES IDX 57 78 58 79 66 80 59 81 65 82 67 83 64 84 60 85 61 86 62 87
REMARK SMILES IDX 63 88 42 89 43 90 51 91 44 92 50 93 52 94 49 95 45 96 46 97
REMARK SMILES IDX 47 98 48 99
REMARK H PARENT 8 7 86 23 13 33 72 52 40 63
REMARK Flexibility Score: inf
ROOT
ATOM      1  C   UNL A   1      32.514  30.905  26.985  1.00  0.00     0.023 C 
ENDROOT
BRANCH   1   2
ATOM      2  C   UNL A   1      32.907  29.474  27.341  1.00  0.00     0.023 C 
BRANCH   2   3
ATOM      3  C   UNL A   1      34.117  28.921  26.573  1.00  0.00     0.116 C 
BRANCH   3   4
ATOM      4  N   UNL A   1      33.883  28.944  25.140  1.00  0.00    -0.352 N 
ATOM      5  C   UNL A   1      33.674  27.973  24.202  1.00  0.00     0.256 C 
ATOM      6  O   UNL A   1      33.559  28.363  23.039  1.00  0.00    -0.269 OA
ATOM      7  H   UNL A   1      33.874  29.855  24.764  1.00  0.00     0.163 HD
BRANCH   5   8
ATOM      8  C   UNL A   1      33.589  26.514  24.526  1.00  0.00     0.104 A 
ATOM      9  N   UNL A   1      34.500  24.240  24.328  1.00  0.00    -0.347 N 
ATOM     10  C   UNL A   1      34.487  25.606  24.118  1.00  0.00     0.104 A 
ATOM     11  C   UNL A   1      33.355  23.660  24.924  1.00  0.00     0.054 A 
ATOM     12  C   UNL A   1      32.279  24.467  25.320  1.00  0.00     0.050 A 
ATOM     13  C   UNL A   1      33.215  22.274  25.094  1.00  0.00     0.055 A 
ATOM     14  C   UNL A   1      32.408  25.946  25.248  1.00  0.00     0.202 A 
ATOM     15  C   UNL A   1      31.088  23.897  25.788  1.00  0.00     0.055 A 
ATOM     16  C   UNL A   1      32.026  21.659  25.499  1.00  0.00     0.073 A 
ATOM     17  O   UNL A   1      31.556  26.637  25.797  1.00  0.00    -0.288 OA
ATOM     18  C   UNL A   1      30.969  22.512  25.849  1.00  0.00     0.147 A 
ATOM     19  F   UNL A   1      29.802  21.980  26.248  1.00  0.00    -0.205 F 
BRANCH   9  20
ATOM     20  C   UNL A   1      35.594  23.327  23.915  1.00  0.00     0.119 C 
ATOM     21  C   UNL A   1      36.943  23.544  24.587  1.00  0.00     0.027 C 
ENDBRANCH   9  20
BRANCH  16  22
ATOM     22  N   UNL A   1      31.861  20.281  25.516  1.00  0.00    -0.380 N 
ATOM     23  H   UNL A   1      31.017  19.952  25.902  1.00  0.00     0.160 HD
BRANCH  22  24
ATOM     24  C   UNL A   1      32.792  19.260  25.027  1.00  0.00     0.079 C 
ATOM     25  C   UNL A   1      32.840  18.034  25.963  1.00  0.00     0.025 C 
ATOM     26  C   UNL A   1      32.549  18.977  23.533  1.00  0.00     0.025 C 
ATOM     27  C   UNL A   1      33.464  16.790  25.338  1.00  0.00     0.002 C 
ATOM     28  C   UNL A   1      33.228  17.711  23.030  1.00  0.00     0.002 C 
ATOM     29  C   UNL A   1      32.931  16.525  23.936  1.00  0.00     0.000 C 
ENDBRANCH  22  24
ENDBRANCH  16  22
ENDBRANCH   5   8
ENDBRANCH   3   4
ENDBRANCH   2   3
ENDBRANCH   1   2
BRANCH   1  30
ATOM     30  C   UNL A   1      33.511  31.963  27.431  1.00  0.00     0.116 C 
BRANCH  30  31
ATOM     31  N   UNL A   1      32.924  33.280  27.629  1.00  0.00    -0.352 N 
ATOM     32  C   UNL A   1      33.298  34.237  28.555  1.00  0.00     0.251 C 
ATOM     33  H   UNL A   1      32.174  33.518  27.035  1.00  0.00     0.163 HD
ATOM     34  O   UNL A   1      32.667  35.268  28.676  1.00  0.00    -0.269 OA
BRANCH  32  35
ATOM     35  C   UNL A   1      34.449  33.928  29.434  1.00  0.00     0.039 A 
ATOM     36  C   UNL A   1      35.727  34.368  29.089  1.00  0.00     0.014 A 
ATOM     37  C   UNL A   1      34.257  33.085  30.531  1.00  0.00     0.014 A 
ATOM     38  C   UNL A   1      36.831  33.815  29.723  1.00  0.00     0.010 A 
ATOM     39  C   UNL A   1      35.369  32.602  31.228  1.00  0.00     0.010 A 
ATOM     40  C   UNL A   1      36.665  32.914  30.790  1.00  0.00    -0.014 A 
BRANCH  40  41
ATOM     41  C   UNL A   1      37.870  32.314  31.419  1.00  0.00     0.031 A 
ATOM     42  C   UNL A   1      38.338  32.757  32.779  1.00  0.00     0.074 A 
ATOM     43  C   UNL A   1      38.498  31.307  30.783  1.00  0.00     0.049 A 
ATOM     44  N   UNL A   1      39.329  32.294  33.496  1.00  0.00    -0.248 NA
ATOM     45  C   UNL A   1      37.606  33.864  33.416  1.00  0.00     0.031 C 
ATOM     46  C   UNL A   1      38.123  30.795  29.464  1.00  0.00     0.029 A 
ATOM     47  N   UNL A   1      39.551  30.513  31.163  1.00  0.00    -0.354 N 
ATOM     48  C   UNL A   1      39.351  33.057  34.659  1.00  0.00     0.074 A 
ATOM     49  C   UNL A   1      38.295  34.037  34.537  1.00  0.00     0.031 C 
ATOM     50  C   UNL A   1      38.885  29.733  29.175  1.00  0.00     0.029 A 
ATOM     51  C   UNL A   1      39.853  29.529  30.250  1.00  0.00     0.049 A 
ATOM     52  H   UNL A   1      40.042  30.635  32.006  1.00  0.00     0.167 HD
ATOM     53  C   UNL A   1      40.169  32.939  35.733  1.00  0.00     0.034 A 
ATOM     54  C   UNL A   1      40.804  28.574  30.267  1.00  0.00     0.034 A 
ATOM     55  C   UNL A   1      41.203  31.942  35.849  1.00  0.00     0.049 A 
ATOM     56  C   UNL A   1      41.710  28.475  31.465  1.00  0.00     0.074 A 
ATOM     57  C   UNL A   1      42.068  31.728  36.908  1.00  0.00     0.029 A 
ATOM     58  N   UNL A   1      41.510  30.991  34.886  1.00  0.00    -0.354 N 
ATOM     59  N   UNL A   1      41.694  29.184  32.569  1.00  0.00    -0.248 NA
ATOM     60  C   UNL A   1      42.764  27.453  31.424  1.00  0.00     0.031 C 
ATOM     61  C   UNL A   1      42.929  30.684  36.565  1.00  0.00     0.029 A 
ATOM     62  C   UNL A   1      42.566  30.204  35.316  1.00  0.00     0.049 A 
ATOM     63  H   UNL A   1      41.045  30.891  34.024  1.00  0.00     0.167 HD
ATOM     64  C   UNL A   1      42.730  28.692  33.356  1.00  0.00     0.074 A 
ATOM     65  C   UNL A   1      43.327  27.598  32.616  1.00  0.00     0.031 C 
ATOM     66  C   UNL A   1      43.154  29.116  34.573  1.00  0.00     0.034 A 
BRANCH  53  67
ATOM     67  C   UNL A   1      39.989  33.894  36.887  1.00  0.00     0.023 A 
ATOM     68  C   UNL A   1      39.382  33.454  38.078  1.00  0.00     0.031 A 
ATOM     69  C   UNL A   1      40.302  35.260  36.765  1.00  0.00     0.131 A 
ATOM     70  C   UNL A   1      39.080  34.377  39.088  1.00  0.00     0.055 A 
ATOM     71  C   UNL A   1      40.029  36.169  37.788  1.00  0.00     0.041 A 
ATOM     72  F   UNL A   1      40.884  35.728  35.649  1.00  0.00    -0.206 F 
ATOM     73  C   UNL A   1      39.404  35.731  38.952  1.00  0.00     0.022 A 
BRANCH  70  74
ATOM     74  S   UNL A   1      38.203  33.870  40.594  1.00  0.00     0.124 S 
ATOM     75  O   UNL A   1      39.193  33.011  41.240  1.00  0.00    -0.237 OA
ATOM     76  O   UNL A   1      37.962  35.150  41.253  1.00  0.00    -0.237 OA
ATOM     77  O   UNL A   1      37.016  33.183  40.095  1.00  0.00    -0.744 OA
ENDBRANCH  70  74
ENDBRANCH  53  67
BRANCH  54  78
ATOM     78  C   UNL A   1      40.890  27.620  29.123  1.00  0.00     0.023 A 
ATOM     79  C   UNL A   1      41.832  27.811  28.095  1.00  0.00     0.031 A 
ATOM     80  C   UNL A   1      39.951  26.587  28.975  1.00  0.00     0.131 A 
ATOM     81  C   UNL A   1      41.758  27.041  26.929  1.00  0.00     0.055 A 
ATOM     82  C   UNL A   1      39.929  25.770  27.844  1.00  0.00     0.041 A 
ATOM     83  F   UNL A   1      39.025  26.374  29.922  1.00  0.00    -0.206 F 
ATOM     84  C   UNL A   1      40.822  26.009  26.803  1.00  0.00     0.022 A 
BRANCH  81  85
ATOM     85  S   UNL A   1      42.763  27.460  25.476  1.00  0.00     0.124 S 
ATOM     86  O   UNL A   1      44.043  27.810  26.082  1.00  0.00    -0.237 OA
ATOM     87  O   UNL A   1      42.740  26.206  24.725  1.00  0.00    -0.237 OA
ATOM     88  O   UNL A   1      42.031  28.561  24.858  1.00  0.00    -0.744 OA
ENDBRANCH  81  85
ENDBRANCH  54  78
BRANCH  66  89
ATOM     89  C   UNL A   1      44.337  28.419  35.200  1.00  0.00     0.023 A 
ATOM     90  C   UNL A   1      44.141  27.456  36.207  1.00  0.00     0.031 A 
ATOM     91  C   UNL A   1      45.653  28.809  34.898  1.00  0.00     0.131 A 
ATOM     92  C   UNL A   1      45.242  26.940  36.902  1.00  0.00     0.055 A 
ATOM     93  C   UNL A   1      46.751  28.261  35.563  1.00  0.00     0.041 A 
ATOM     94  F   UNL A   1      45.890  29.731  33.952  1.00  0.00    -0.206 F 
ATOM     95  C   UNL A   1      46.546  27.333  36.579  1.00  0.00     0.022 A 
BRANCH  92  96
ATOM     96  S   UNL A   1      45.022  25.809  38.303  1.00  0.00     0.124 S 
ATOM     97  O   UNL A   1      44.579  24.587  37.636  1.00  0.00    -0.237 OA
ATOM     98  O   UNL A   1      46.367  25.757  38.871  1.00  0.00    -0.237 OA
ATOM     99  O   UNL A   1      44.017  26.466  39.131  1.00  0.00    -0.744 OA
ENDBRANCH  92  96
ENDBRANCH  66  89
ENDBRANCH  40  41
ENDBRANCH  32  35
ENDBRANCH  30  31
ENDBRANCH   1  30
TORSDOF 17
ENDMDL
MODEL 2
REMARK VINA RESULT:     -12.4      1.866      2.270
REMARK SMILES CCn1cc(C(=O)NCCCCNC(=O)c2ccc(-c3c4nc(c(-c5cc(S(=O)(=O)[O-])ccc5F)c5ccc([nH]5)c(-c5cc(S(=O)(=O)[O-])ccc5F)c5nc(c(-c6cc(S(=O)(=O)[O-])ccc6F)c6ccc3[nH]6)C=C5)C=C4)cc2)c(=O)c2cc(F)c(NC3CCCCC3)cc21
REMARK SMILES IDX 11 1 10 2 9 3 8 4 6 5 7 6 5 8 3 9 4 10 94 11 81 12 93 13
REMARK SMILES IDX 79 14 82 15 85 16 80 17 83 18 84 19 2 20 1 21 86 22 87 24
REMARK SMILES IDX 88 25 92 26 89 27 91 28 90 29 12 30 13 31 14 32 15 34 16 35
REMARK SMILES IDX 17 36 78 37 18 38 77 39 19 40 20 41 21 42 71 43 22 44 76 45
REMARK SMILES IDX 70 46 72 47 23 48 75 49 69 50 68 51 24 53 56 54 36 55 55 56
REMARK SMILES IDX 37 57 40 58 54 59 73 60 38 61 39 62 53 64 74 65 41 66 25 67
REMARK SMILES IDX 26 68 34 69 27 70 33 71 35 72 32 73 28 74 29 75 30 76 31 77
REMARK SMILES IDX 57 78 58 79 66 80 59 81 65 82 67 83 64 84 60 85 61 86 62 87
REMARK SMILES IDX 63 88 42 89 43 90 51 91 44 92 50 93 52 94 49 95 45 96 46 97
REMARK SMILES IDX 47 98 48 99
REMARK H PARENT 8 7 86 23 13 33 72 52 40 63
REMARK Flexibility Score: inf
ROOT
ATOM      1  C   UNL A   1      31.499  32.012  26.821  1.00  0.00     0.023 C 
ENDROOT
BRANCH   1   2
ATOM      2  C   UNL A   1      31.904  30.542  26.894  1.00  0.00     0.023 C 
BRANCH   2   3
ATOM      3  C   UNL A   1      32.379  29.931  25.567  1.00  0.00     0.116 C 
BRANCH   3   4
ATOM      4  N   UNL A   1      31.299  29.881  24.597  1.00  0.00    -0.352 N 
ATOM      5  C   UNL A   1      30.750  28.879  23.846  1.00  0.00     0.256 C 
ATOM      6  O   UNL A   1      29.854  29.216  23.071  1.00  0.00    -0.269 OA
ATOM      7  H   UNL A   1      30.870  30.756  24.448  1.00  0.00     0.163 HD
BRANCH   5   8
ATOM      8  C   UNL A   1      31.187  27.450  23.928  1.00  0.00     0.104 A 
ATOM      9  N   UNL A   1      32.122  25.452  22.844  1.00  0.00    -0.347 N 
ATOM     10  C   UNL A   1      31.711  26.771  22.898  1.00  0.00     0.104 A 
ATOM     11  C   UNL A   1      31.833  24.632  23.960  1.00  0.00     0.054 A 
ATOM     12  C   UNL A   1      31.194  25.171  25.087  1.00  0.00     0.050 A 
ATOM     13  C   UNL A   1      32.112  23.257  23.977  1.00  0.00     0.055 A 
ATOM     14  C   UNL A   1      30.957  26.636  25.162  1.00  0.00     0.202 A 
ATOM     15  C   UNL A   1      30.784  24.348  26.143  1.00  0.00     0.055 A 
ATOM     16  C   UNL A   1      31.668  22.388  24.980  1.00  0.00     0.073 A 
ATOM     17  O   UNL A   1      30.603  27.120  26.233  1.00  0.00    -0.288 OA
ATOM     18  C   UNL A   1      31.003  22.975  26.066  1.00  0.00     0.147 A 
ATOM     19  F   UNL A   1      30.554  22.192  27.061  1.00  0.00    -0.205 F 
BRANCH   9  20
ATOM     20  C   UNL A   1      32.781  24.814  21.678  1.00  0.00     0.119 C 
ATOM     21  C   UNL A   1      32.590  25.506  20.335  1.00  0.00     0.027 C 
ENDBRANCH   9  20
BRANCH  16  22
ATOM     22  N   UNL A   1      31.823  21.012  24.902  1.00  0.00    -0.380 N 
ATOM     23  H   UNL A   1      31.126  20.473  25.343  1.00  0.00     0.160 HD
BRANCH  22  24
ATOM     24  C   UNL A   1      32.898  20.265  24.243  1.00  0.00     0.079 C 
ATOM     25  C   UNL A   1      34.199  20.282  25.074  1.00  0.00     0.025 C 
ATOM     26  C   UNL A   1      32.394  18.885  23.782  1.00  0.00     0.025 C 
ATOM     27  C   UNL A   1      35.219  19.223  24.665  1.00  0.00     0.002 C 
ATOM     28  C   UNL A   1      33.509  17.922  23.397  1.00  0.00     0.002 C 
ATOM     29  C   UNL A   1      34.580  17.854  24.475  1.00  0.00     0.000 C 
ENDBRANCH  22  24
ENDBRANCH  16  22
ENDBRANCH   5   8
ENDBRANCH   3   4
ENDBRANCH   2   3
ENDBRANCH   1   2
BRANCH   1  30
ATOM     30  C   UNL A   1      32.663  32.990  26.841  1.00  0.00     0.116 C 
BRANCH  30  31
ATOM     31  N   UNL A   1      32.478  34.109  27.753  1.00  0.00    -0.352 N 
ATOM     32  C   UNL A   1      33.274  34.456  28.830  1.00  0.00     0.251 C 
ATOM     33  H   UNL A   1      31.697  34.685  27.584  1.00  0.00     0.163 HD
ATOM     34  O   UNL A   1      32.960  35.366  29.569  1.00  0.00    -0.269 OA
BRANCH  32  35
ATOM     35  C   UNL A   1      34.480  33.634  29.084  1.00  0.00     0.039 A 
ATOM     36  C   UNL A   1      34.366  32.419  29.758  1.00  0.00     0.014 A 
ATOM     37  C   UNL A   1      35.735  34.154  28.760  1.00  0.00     0.014 A 
ATOM     38  C   UNL A   1      35.505  31.818  30.275  1.00  0.00     0.010 A 
ATOM     39  C   UNL A   1      36.886  33.496  29.203  1.00  0.00     0.010 A 
ATOM     40  C   UNL A   1      36.777  32.357  30.016  1.00  0.00    -0.014 A 
BRANCH  40  41
ATOM     41  C   UNL A   1      37.971  31.708  30.618  1.00  0.00     0.031 A 
ATOM     42  C   UNL A   1      38.373  31.988  32.040  1.00  0.00     0.074 A 
ATOM     43  C   UNL A   1      38.649  30.800  29.889  1.00  0.00     0.049 A 
ATOM     44  N   UNL A   1      39.346  31.459  32.737  1.00  0.00    -0.248 NA
ATOM     45  C   UNL A   1      37.589  32.993  32.777  1.00  0.00     0.031 C 
ATOM     46  C   UNL A   1      38.339  30.448  28.503  1.00  0.00     0.029 A 
ATOM     47  N   UNL A   1      39.705  29.986  30.213  1.00  0.00    -0.354 N 
ATOM     48  C   UNL A   1      39.303  32.073  33.984  1.00  0.00     0.074 A 
ATOM     49  C   UNL A   1      38.228  33.039  33.938  1.00  0.00     0.031 C 
ATOM     50  C   UNL A   1      39.139  29.445  28.118  1.00  0.00     0.029 A 
ATOM     51  C   UNL A   1      40.068  29.130  29.200  1.00  0.00     0.049 A 
ATOM     52  H   UNL A   1      40.159  30.012  31.086  1.00  0.00     0.167 HD
ATOM     53  C   UNL A   1      40.080  31.840  35.069  1.00  0.00     0.034 A 
ATOM     54  C   UNL A   1      41.041  28.199  29.140  1.00  0.00     0.034 A 
ATOM     55  C   UNL A   1      41.133  30.856  35.106  1.00  0.00     0.049 A 
ATOM     56  C   UNL A   1      41.901  27.970  30.354  1.00  0.00     0.074 A 
ATOM     57  C   UNL A   1      41.961  30.530  36.166  1.00  0.00     0.029 A 
ATOM     58  N   UNL A   1      41.502  30.038  34.047  1.00  0.00    -0.354 N 
ATOM     59  N   UNL A   1      41.823  28.536  31.535  1.00  0.00    -0.248 NA
ATOM     60  C   UNL A   1      42.981  26.982  30.233  1.00  0.00     0.031 C 
ATOM     61  C   UNL A   1      42.861  29.554  35.734  1.00  0.00     0.029 A 
ATOM     62  C   UNL A   1      42.559  29.225  34.422  1.00  0.00     0.049 A 
ATOM     63  H   UNL A   1      41.075  30.036  33.160  1.00  0.00     0.167 HD
ATOM     64  C   UNL A   1      42.839  27.971  32.299  1.00  0.00     0.074 A 
ATOM     65  C   UNL A   1      43.492  26.990  31.457  1.00  0.00     0.031 C 
ATOM     66  C   UNL A   1      43.204  28.249  33.576  1.00  0.00     0.034 A 
BRANCH  53  67
ATOM     67  C   UNL A   1      39.831  32.640  36.323  1.00  0.00     0.023 A 
ATOM     68  C   UNL A   1      38.870  32.208  37.257  1.00  0.00     0.031 A 
ATOM     69  C   UNL A   1      40.449  33.886  36.533  1.00  0.00     0.131 A 
ATOM     70  C   UNL A   1      38.534  33.029  38.341  1.00  0.00     0.055 A 
ATOM     71  C   UNL A   1      40.135  34.685  37.634  1.00  0.00     0.041 A 
ATOM     72  F   UNL A   1      41.374  34.341  35.673  1.00  0.00    -0.206 F 
ATOM     73  C   UNL A   1      39.164  34.262  38.538  1.00  0.00     0.022 A 
BRANCH  70  74
ATOM     74  S   UNL A   1      37.227  32.558  39.507  1.00  0.00     0.124 S 
ATOM     75  O   UNL A   1      37.366  33.581  40.541  1.00  0.00    -0.237 OA
ATOM     76  O   UNL A   1      36.027  32.663  38.682  1.00  0.00    -0.237 OA
ATOM     77  O   UNL A   1      37.593  31.207  39.919  1.00  0.00    -0.744 OA
ENDBRANCH  70  74
ENDBRANCH  53  67
BRANCH  54  78
ATOM     78  C   UNL A   1      41.196  27.396  27.892  1.00  0.00     0.023 A 
ATOM     79  C   UNL A   1      40.885  26.023  27.875  1.00  0.00     0.031 A 
ATOM     80  C   UNL A   1      41.779  27.955  26.744  1.00  0.00     0.131 A 
ATOM     81  C   UNL A   1      41.239  25.241  26.770  1.00  0.00     0.055 A 
ATOM     82  C   UNL A   1      42.060  27.188  25.613  1.00  0.00     0.041 A 
ATOM     83  F   UNL A   1      42.106  29.256  26.717  1.00  0.00    -0.206 F 
ATOM     84  C   UNL A   1      41.810  25.818  25.630  1.00  0.00     0.022 A 
BRANCH  81  85
ATOM     85  S   UNL A   1      41.121  23.431  26.838  1.00  0.00     0.124 S 
ATOM     86  O   UNL A   1      42.240  23.022  25.997  1.00  0.00    -0.237 OA
ATOM     87  O   UNL A   1      41.277  23.175  28.268  1.00  0.00    -0.237 OA
ATOM     88  O   UNL A   1      39.791  23.154  26.304  1.00  0.00    -0.744 OA
ENDBRANCH  81  85
ENDBRANCH  54  78
BRANCH  66  89
ATOM     89  C   UNL A   1      44.378  27.503  34.162  1.00  0.00     0.023 A 
ATOM     90  C   UNL A   1      44.177  26.292  34.850  1.00  0.00     0.031 A 
ATOM     91  C   UNL A   1      45.668  28.063  34.159  1.00  0.00     0.131 A 
ATOM     92  C   UNL A   1      45.243  25.696  35.537  1.00  0.00     0.055 A 
ATOM     93  C   UNL A   1      46.736  27.443  34.808  1.00  0.00     0.041 A 
ATOM     94  F   UNL A   1      45.906  29.221  33.524  1.00  0.00    -0.206 F 
ATOM     95  C   UNL A   1      46.523  26.262  35.512  1.00  0.00     0.022 A 
BRANCH  92  96
ATOM     96  S   UNL A   1      44.992  24.216  36.553  1.00  0.00     0.124 S 
ATOM     97  O   UNL A   1      43.957  23.508  35.804  1.00  0.00    -0.237 OA
ATOM     98  O   UNL A   1      46.315  23.596  36.528  1.00  0.00    -0.237 OA
ATOM     99  O   UNL A   1      44.573  24.744  37.847  1.00  0.00    -0.744 OA
ENDBRANCH  92  96
ENDBRANCH  66  89
ENDBRANCH  40  41
ENDBRANCH  32  35
ENDBRANCH  30  31
ENDBRANCH   1  30
TORSDOF 17
ENDMDL
MODEL 3
REMARK VINA RESULT:     -12.4      5.639      9.293
REMARK SMILES CCn1cc(C(=O)NCCCCNC(=O)c2ccc(-c3c4nc(c(-c5cc(S(=O)(=O)[O-])ccc5F)c5ccc([nH]5)c(-c5cc(S(=O)(=O)[O-])ccc5F)c5nc(c(-c6cc(S(=O)(=O)[O-])ccc6F)c6ccc3[nH]6)C=C5)C=C4)cc2)c(=O)c2cc(F)c(NC3CCCCC3)cc21
REMARK SMILES IDX 11 1 10 2 9 3 8 4 6 5 7 6 5 8 3 9 4 10 94 11 81 12 93 13
REMARK SMILES IDX 79 14 82 15 85 16 80 17 83 18 84 19 2 20 1 21 86 22 87 24
REMARK SMILES IDX 88 25 92 26 89 27 91 28 90 29 12 30 13 31 14 32 15 34 16 35
REMARK SMILES IDX 17 36 78 37 18 38 77 39 19 40 20 41 21 42 71 43 22 44 76 45
REMARK SMILES IDX 70 46 72 47 23 48 75 49 69 50 68 51 24 53 56 54 36 55 55 56
REMARK SMILES IDX 37 57 40 58 54 59 73 60 38 61 39 62 53 64 74 65 41 66 25 67
REMARK SMILES IDX 26 68 34 69 27 70 33 71 35 72 32 73 28 74 29 75 30 76 31 77
REMARK SMILES IDX 57 78 58 79 66 80 59 81 65 82 67 83 64 84 60 85 61 86 62 87
REMARK SMILES IDX 63 88 42 89 43 90 51 91 44 92 50 93 52 94 49 95 45 96 46 97
REMARK SMILES IDX 47 98 48 99
REMARK H PARENT 8 7 86 23 13 33 72 52 40 63
REMARK Flexibility Score: inf
ROOT
ATOM      1  C   UNL A   1      36.450  20.375  25.028  1.00  0.00     0.023 C 
ENDROOT
BRANCH   1   2
ATOM      2  C   UNL A   1      35.294  21.372  25.057  1.00  0.00     0.023 C 
BRANCH   2   3
ATOM      3  C   UNL A   1      35.282  22.319  26.266  1.00  0.00     0.116 C 
BRANCH   3   4
ATOM      4  N   UNL A   1      34.031  22.218  26.997  1.00  0.00    -0.352 N 
ATOM      5  C   UNL A   1      32.915  23.004  27.071  1.00  0.00     0.256 C 
ATOM      6  O   UNL A   1      32.041  22.626  27.854  1.00  0.00    -0.269 OA
ATOM      7  H   UNL A   1      33.975  21.412  27.560  1.00  0.00     0.163 HD
BRANCH   5   8
ATOM      8  C   UNL A   1      32.730  24.256  26.272  1.00  0.00     0.104 A 
ATOM      9  N   UNL A   1      32.364  26.684  26.187  1.00  0.00    -0.347 N 
ATOM     10  C   UNL A   1      32.570  25.470  26.815  1.00  0.00     0.104 A 
ATOM     11  C   UNL A   1      32.139  26.667  24.791  1.00  0.00     0.054 A 
ATOM     12  C   UNL A   1      32.175  25.456  24.084  1.00  0.00     0.050 A 
ATOM     13  C   UNL A   1      31.821  27.825  24.064  1.00  0.00     0.055 A 
ATOM     14  C   UNL A   1      32.596  24.214  24.782  1.00  0.00     0.202 A 
ATOM     15  C   UNL A   1      31.826  25.405  22.728  1.00  0.00     0.055 A 
ATOM     16  C   UNL A   1      31.407  27.812  22.728  1.00  0.00     0.073 A 
ATOM     17  O   UNL A   1      32.834  23.214  24.111  1.00  0.00    -0.288 OA
ATOM     18  C   UNL A   1      31.427  26.570  22.079  1.00  0.00     0.147 A 
ATOM     19  F   UNL A   1      31.042  26.494  20.794  1.00  0.00    -0.205 F 
BRANCH   9  20
ATOM     20  C   UNL A   1      32.293  27.996  26.876  1.00  0.00     0.119 C 
ATOM     21  C   UNL A   1      33.624  28.647  27.224  1.00  0.00     0.027 C 
ENDBRANCH   9  20
BRANCH  16  22
ATOM     22  N   UNL A   1      30.952  28.948  22.073  1.00  0.00    -0.380 N 
ATOM     23  H   UNL A   1      31.637  29.490  21.619  1.00  0.00     0.160 HD
BRANCH  22  24
ATOM     24  C   UNL A   1      29.572  29.435  21.976  1.00  0.00     0.079 C 
ATOM     25  C   UNL A   1      28.624  28.661  22.916  1.00  0.00     0.025 C 
ATOM     26  C   UNL A   1      29.535  30.972  22.075  1.00  0.00     0.025 C 
ATOM     27  C   UNL A   1      27.287  29.350  23.166  1.00  0.00     0.002 C 
ATOM     28  C   UNL A   1      28.142  31.537  22.321  1.00  0.00     0.002 C 
ATOM     29  C   UNL A   1      27.455  30.831  23.480  1.00  0.00     0.000 C 
ENDBRANCH  22  24
ENDBRANCH  16  22
ENDBRANCH   5   8
ENDBRANCH   3   4
ENDBRANCH   2   3
ENDBRANCH   1   2
BRANCH   1  30
ATOM     30  C   UNL A   1      37.824  20.995  25.226  1.00  0.00     0.116 C 
BRANCH  30  31
ATOM     31  N   UNL A   1      38.856  20.037  25.595  1.00  0.00    -0.352 N 
ATOM     32  C   UNL A   1      40.019  20.285  26.301  1.00  0.00     0.251 C 
ATOM     33  H   UNL A   1      38.709  19.106  25.310  1.00  0.00     0.163 HD
ATOM     34  O   UNL A   1      40.844  19.411  26.469  1.00  0.00    -0.269 OA
BRANCH  32  35
ATOM     35  C   UNL A   1      40.249  21.667  26.781  1.00  0.00     0.039 A 
ATOM     36  C   UNL A   1      39.669  22.744  26.110  1.00  0.00     0.014 A 
ATOM     37  C   UNL A   1      41.152  21.882  27.824  1.00  0.00     0.014 A 
ATOM     38  C   UNL A   1      40.135  24.028  26.352  1.00  0.00     0.010 A 
ATOM     39  C   UNL A   1      41.551  23.186  28.129  1.00  0.00     0.010 A 
ATOM     40  C   UNL A   1      41.092  24.263  27.355  1.00  0.00    -0.014 A 
BRANCH  40  41
ATOM     41  C   UNL A   1      41.595  25.646  27.560  1.00  0.00     0.031 A 
ATOM     42  C   UNL A   1      40.814  26.643  28.371  1.00  0.00     0.074 A 
ATOM     43  C   UNL A   1      42.806  25.973  27.070  1.00  0.00     0.049 A 
ATOM     44  N   UNL A   1      41.138  27.868  28.700  1.00  0.00    -0.248 NA
ATOM     45  C   UNL A   1      39.497  26.219  28.876  1.00  0.00     0.031 C 
ATOM     46  C   UNL A   1      43.650  25.080  26.275  1.00  0.00     0.029 A 
ATOM     47  N   UNL A   1      43.552  27.118  27.190  1.00  0.00    -0.354 N 
ATOM     48  C   UNL A   1      40.067  28.365  29.434  1.00  0.00     0.074 A 
ATOM     49  C   UNL A   1      39.066  27.322  29.475  1.00  0.00     0.031 C 
ATOM     50  C   UNL A   1      44.822  25.682  26.038  1.00  0.00     0.029 A 
ATOM     51  C   UNL A   1      44.790  27.031  26.598  1.00  0.00     0.049 A 
ATOM     52  H   UNL A   1      43.233  27.924  27.656  1.00  0.00     0.167 HD
ATOM     53  C   UNL A   1      39.939  29.575  30.030  1.00  0.00     0.034 A 
ATOM     54  C   UNL A   1      45.788  27.932  26.506  1.00  0.00     0.034 A 
ATOM     55  C   UNL A   1      40.955  30.596  30.000  1.00  0.00     0.049 A 
ATOM     56  C   UNL A   1      45.614  29.275  27.163  1.00  0.00     0.074 A 
ATOM     57  C   UNL A   1      40.928  31.847  30.593  1.00  0.00     0.029 A 
ATOM     58  N   UNL A   1      42.178  30.490  29.353  1.00  0.00    -0.354 N 
ATOM     59  N   UNL A   1      44.608  29.716  27.881  1.00  0.00    -0.248 NA
ATOM     60  C   UNL A   1      46.703  30.247  26.999  1.00  0.00     0.031 C 
ATOM     61  C   UNL A   1      42.109  32.514  30.263  1.00  0.00     0.029 A 
ATOM     62  C   UNL A   1      42.903  31.660  29.512  1.00  0.00     0.049 A 
ATOM     63  H   UNL A   1      42.485  29.699  28.853  1.00  0.00     0.167 HD
ATOM     64  C   UNL A   1      44.944  31.012  28.259  1.00  0.00     0.074 A 
ATOM     65  C   UNL A   1      46.264  31.269  27.721  1.00  0.00     0.031 C 
ATOM     66  C   UNL A   1      44.219  31.908  28.974  1.00  0.00     0.034 A 
BRANCH  53  67
ATOM     67  C   UNL A   1      38.668  29.880  30.784  1.00  0.00     0.023 A 
ATOM     68  C   UNL A   1      37.699  30.730  30.219  1.00  0.00     0.031 A 
ATOM     69  C   UNL A   1      38.473  29.432  32.103  1.00  0.00     0.131 A 
ATOM     70  C   UNL A   1      36.594  31.130  30.982  1.00  0.00     0.055 A 
ATOM     71  C   UNL A   1      37.352  29.807  32.846  1.00  0.00     0.041 A 
ATOM     72  F   UNL A   1      39.366  28.617  32.686  1.00  0.00    -0.206 F 
ATOM     73  C   UNL A   1      36.412  30.670  32.290  1.00  0.00     0.022 A 
BRANCH  70  74
ATOM     74  S   UNL A   1      35.378  32.308  30.329  1.00  0.00     0.124 S 
ATOM     75  O   UNL A   1      34.434  32.409  31.440  1.00  0.00    -0.237 OA
ATOM     76  O   UNL A   1      36.196  33.494  30.095  1.00  0.00    -0.237 OA
ATOM     77  O   UNL A   1      34.860  31.652  29.132  1.00  0.00    -0.744 OA
ENDBRANCH  70  74
ENDBRANCH  53  67
BRANCH  54  78
ATOM     78  C   UNL A   1      47.046  27.548  25.801  1.00  0.00     0.023 A 
ATOM     79  C   UNL A   1      47.263  27.921  24.461  1.00  0.00     0.031 A 
ATOM     80  C   UNL A   1      47.981  26.697  26.410  1.00  0.00     0.131 A 
ATOM     81  C   UNL A   1      48.338  27.374  23.751  1.00  0.00     0.055 A 
ATOM     82  C   UNL A   1      49.095  26.216  25.721  1.00  0.00     0.041 A 
ATOM     83  F   UNL A   1      47.810  26.304  27.682  1.00  0.00    -0.206 F 
ATOM     84  C   UNL A   1      49.266  26.536  24.377  1.00  0.00     0.022 A 
BRANCH  81  85
ATOM     85  S   UNL A   1      48.474  27.601  21.955  1.00  0.00     0.124 S 
ATOM     86  O   UNL A   1      47.207  28.250  21.634  1.00  0.00    -0.237 OA
ATOM     87  O   UNL A   1      49.662  28.446  21.849  1.00  0.00    -0.237 OA
ATOM     88  O   UNL A   1      48.636  26.242  21.449  1.00  0.00    -0.744 OA
ENDBRANCH  81  85
ENDBRANCH  54  78
BRANCH  66  89
ATOM     89  C   UNL A   1      44.812  33.274  29.218  1.00  0.00     0.023 A 
ATOM     90  C   UNL A   1      44.650  34.298  28.266  1.00  0.00     0.031 A 
ATOM     91  C   UNL A   1      45.649  33.515  30.321  1.00  0.00     0.131 A 
ATOM     92  C   UNL A   1      45.345  35.505  28.416  1.00  0.00     0.055 A 
ATOM     93  C   UNL A   1      46.305  34.736  30.490  1.00  0.00     0.041 A 
ATOM     94  F   UNL A   1      45.841  32.567  31.251  1.00  0.00    -0.206 F 
ATOM     95  C   UNL A   1      46.164  35.732  29.528  1.00  0.00     0.022 A 
BRANCH  92  96
ATOM     96  S   UNL A   1      45.278  36.791  27.140  1.00  0.00     0.124 S 
ATOM     97  O   UNL A   1      43.853  36.825  26.820  1.00  0.00    -0.237 OA
ATOM     98  O   UNL A   1      45.785  37.961  27.853  1.00  0.00    -0.237 OA
ATOM     99  O   UNL A   1      46.142  36.281  26.080  1.00  0.00    -0.744 OA
ENDBRANCH  92  96
ENDBRANCH  66  89
ENDBRANCH  40  41
ENDBRANCH  32  35
ENDBRANCH  30  31
ENDBRANCH   1  30
TORSDOF 17
ENDMDL
