MODEL 1
REMARK VINA RESULT:     -10.3      0.000      0.000
REMARK SMILES C[C@H](CC(=O)NCCCCNC(=O)c1ccc(-c2c3nc(c(-c4cc(S(=O)(=O)[O-])ccc4F)c4ccc([nH]4)c(-c4cc(S(=O)(=O)[O-])ccc4F)c4nc(c(-c5cc(S(=O)(=O)[O-])ccc5F)c5ccc2[nH]5)C=C4)C=C3)cc1)NC(=O)CS[C@H]1CCS(=O)(=O)C1
REMARK SMILES IDX 7 1 6 2 4 3 5 4 3 6 2 7 1 8 77 9 78 10 79 12 80 13 81 14
REMARK SMILES IDX 82 15 83 16 88 17 84 18 85 19 86 20 87 21 8 22 9 23 10 24
REMARK SMILES IDX 11 25 12 26 13 28 14 29 15 30 76 31 16 32 75 33 17 34 18 35
REMARK SMILES IDX 19 36 69 37 20 38 74 39 68 40 70 41 21 42 73 43 67 44 66 45
REMARK SMILES IDX 22 47 54 48 34 49 53 50 35 51 38 52 52 53 71 54 36 55 37 56
REMARK SMILES IDX 51 58 72 59 39 60 23 61 24 62 32 63 25 64 31 65 33 66 30 67
REMARK SMILES IDX 26 68 27 69 28 70 29 71 55 72 56 73 64 74 57 75 63 76 65 77
REMARK SMILES IDX 62 78 58 79 59 80 60 81 61 82 40 83 41 84 49 85 42 86 48 87
REMARK SMILES IDX 50 88 47 89 43 90 44 91 45 92 46 93
REMARK H PARENT 6 5 77 11 11 27 70 46 38 57
REMARK Flexibility Score: inf
ROOT
ATOM      1  C   UNL A   1      34.515  32.321  29.209  1.00  0.00     0.116 C 
ENDROOT
BRANCH   1   2
ATOM      2  N   UNL A   1      35.384  31.593  28.311  1.00  0.00    -0.356 N 
ATOM      3  C   UNL A   1      35.134  30.432  27.647  1.00  0.00     0.222 C 
ATOM      4  O   UNL A   1      36.083  29.759  27.247  1.00  0.00    -0.275 OA
ATOM      5  H   UNL A   1      36.272  31.990  28.159  1.00  0.00     0.163 HD
BRANCH   3   6
ATOM      6  C   UNL A   1      33.708  30.023  27.347  1.00  0.00     0.124 C 
BRANCH   6   7
ATOM      7  C   UNL A   1      33.316  28.547  27.230  1.00  0.00     0.088 C 
ATOM      8  C   UNL A   1      31.832  28.258  27.430  1.00  0.00     0.031 C 
BRANCH   7   9
ATOM      9  N   UNL A   1      33.846  27.942  26.001  1.00  0.00    -0.352 N 
ATOM     10  C   UNL A   1      33.402  27.976  24.713  1.00  0.00     0.230 C 
ATOM     11  H   UNL A   1      34.669  27.419  26.131  1.00  0.00     0.163 HD
ATOM     12  O   UNL A   1      33.905  27.175  23.922  1.00  0.00    -0.274 OA
BRANCH  10  13
ATOM     13  C   UNL A   1      32.372  28.996  24.266  1.00  0.00     0.169 C 
BRANCH  13  14
ATOM     14  S   UNL A   1      30.787  28.233  23.774  1.00  0.00    -0.148 SA
BRANCH  14  15
ATOM     15  C   UNL A   1      29.964  29.626  22.943  1.00  0.00     0.063 C 
ATOM     16  C   UNL A   1      28.727  29.157  22.162  1.00  0.00     0.031 C 
ATOM     17  C   UNL A   1      29.424  30.643  23.943  1.00  0.00     0.151 C 
ATOM     18  C   UNL A   1      28.028  30.429  21.683  1.00  0.00     0.138 C 
ATOM     19  S   UNL A   1      28.323  31.647  22.956  1.00  0.00     0.151 S 
ATOM     20  O   UNL A   1      29.082  32.730  22.372  1.00  0.00    -0.229 OA
ATOM     21  O   UNL A   1      27.098  31.870  23.695  1.00  0.00    -0.229 OA
ENDBRANCH  14  15
ENDBRANCH  13  14
ENDBRANCH  10  13
ENDBRANCH   7   9
ENDBRANCH   6   7
ENDBRANCH   3   6
ENDBRANCH   1   2
BRANCH   1  22
ATOM     22  C   UNL A   1      34.665  33.828  28.977  1.00  0.00     0.023 C 
BRANCH  22  23
ATOM     23  C   UNL A   1      33.366  34.615  29.127  1.00  0.00     0.023 C 
BRANCH  23  24
ATOM     24  C   UNL A   1      33.568  35.982  29.747  1.00  0.00     0.116 C 
BRANCH  24  25
ATOM     25  N   UNL A   1      32.538  36.275  30.732  1.00  0.00    -0.352 N 
ATOM     26  C   UNL A   1      32.452  35.812  32.020  1.00  0.00     0.251 C 
ATOM     27  H   UNL A   1      31.816  36.877  30.439  1.00  0.00     0.163 HD
ATOM     28  O   UNL A   1      31.420  35.948  32.665  1.00  0.00    -0.269 OA
BRANCH  26  29
ATOM     29  C   UNL A   1      33.627  35.125  32.585  1.00  0.00     0.039 A 
ATOM     30  C   UNL A   1      33.503  33.803  33.011  1.00  0.00     0.014 A 
ATOM     31  C   UNL A   1      34.864  35.776  32.606  1.00  0.00     0.014 A 
ATOM     32  C   UNL A   1      34.642  33.115  33.419  1.00  0.00     0.010 A 
ATOM     33  C   UNL A   1      36.008  35.057  32.917  1.00  0.00     0.010 A 
ATOM     34  C   UNL A   1      35.907  33.725  33.343  1.00  0.00    -0.014 A 
BRANCH  34  35
ATOM     35  C   UNL A   1      37.136  32.994  33.735  1.00  0.00     0.031 A 
ATOM     36  C   UNL A   1      37.882  33.409  34.973  1.00  0.00     0.074 A 
ATOM     37  C   UNL A   1      37.595  31.996  32.955  1.00  0.00     0.049 A 
ATOM     38  N   UNL A   1      38.997  32.935  35.462  1.00  0.00    -0.248 NA
ATOM     39  C   UNL A   1      37.314  34.526  35.743  1.00  0.00     0.031 C 
ATOM     40  C   UNL A   1      36.972  31.541  31.710  1.00  0.00     0.029 A 
ATOM     41  N   UNL A   1      38.691  31.184  33.093  1.00  0.00    -0.354 N 
ATOM     42  C   UNL A   1      39.268  33.702  36.590  1.00  0.00     0.074 A 
ATOM     43  C   UNL A   1      38.244  34.720  36.664  1.00  0.00     0.031 C 
ATOM     44  C   UNL A   1      37.673  30.505  31.222  1.00  0.00     0.029 A 
ATOM     45  C   UNL A   1      38.823  30.258  32.085  1.00  0.00     0.049 A 
ATOM     46  H   UNL A   1      39.324  31.257  33.844  1.00  0.00     0.167 HD
ATOM     47  C   UNL A   1      40.264  33.549  37.498  1.00  0.00     0.034 A 
ATOM     48  C   UNL A   1      39.770  29.322  31.877  1.00  0.00     0.034 A 
ATOM     49  C   UNL A   1      41.270  32.521  37.405  1.00  0.00     0.049 A 
ATOM     50  C   UNL A   1      40.892  29.198  32.879  1.00  0.00     0.074 A 
ATOM     51  C   UNL A   1      42.299  32.241  38.288  1.00  0.00     0.029 A 
ATOM     52  N   UNL A   1      41.383  31.610  36.363  1.00  0.00    -0.354 N 
ATOM     53  N   UNL A   1      41.106  29.895  33.972  1.00  0.00    -0.248 NA
ATOM     54  C   UNL A   1      41.891  28.153  32.625  1.00  0.00     0.031 C 
ATOM     55  C   UNL A   1      43.078  31.219  37.740  1.00  0.00     0.029 A 
ATOM     56  C   UNL A   1      42.486  30.792  36.562  1.00  0.00     0.049 A 
ATOM     57  H   UNL A   1      40.770  31.553  35.593  1.00  0.00     0.167 HD
ATOM     58  C   UNL A   1      42.247  29.348  34.553  1.00  0.00     0.074 A 
ATOM     59  C   UNL A   1      42.661  28.255  33.698  1.00  0.00     0.031 C 
ATOM     60  C   UNL A   1      42.891  29.712  35.693  1.00  0.00     0.034 A 
BRANCH  47  61
ATOM     61  C   UNL A   1      40.316  34.533  38.643  1.00  0.00     0.023 A 
ATOM     62  C   UNL A   1      39.690  34.269  39.875  1.00  0.00     0.031 A 
ATOM     63  C   UNL A   1      40.973  35.767  38.493  1.00  0.00     0.131 A 
ATOM     64  C   UNL A   1      39.660  35.254  40.872  1.00  0.00     0.055 A 
ATOM     65  C   UNL A   1      41.019  36.707  39.524  1.00  0.00     0.041 A 
ATOM     66  F   UNL A   1      41.567  36.088  37.333  1.00  0.00    -0.206 F 
ATOM     67  C   UNL A   1      40.346  36.460  40.718  1.00  0.00     0.022 A 
BRANCH  64  68
ATOM     68  S   UNL A   1      38.581  35.000  42.308  1.00  0.00     0.124 S 
ATOM     69  O   UNL A   1      39.037  33.699  42.791  1.00  0.00    -0.237 OA
ATOM     70  O   UNL A   1      38.903  36.144  43.152  1.00  0.00    -0.237 OA
ATOM     71  O   UNL A   1      37.237  35.006  41.732  1.00  0.00    -0.744 OA
ENDBRANCH  64  68
ENDBRANCH  47  61
BRANCH  48  72
ATOM     72  C   UNL A   1      39.713  28.437  30.679  1.00  0.00     0.023 A 
ATOM     73  C   UNL A   1      40.381  28.779  29.492  1.00  0.00     0.031 A 
ATOM     74  C   UNL A   1      38.951  27.254  30.686  1.00  0.00     0.131 A 
ATOM     75  C   UNL A   1      40.233  27.978  28.348  1.00  0.00     0.055 A 
ATOM     76  C   UNL A   1      38.856  26.429  29.564  1.00  0.00     0.041 A 
ATOM     77  F   UNL A   1      38.293  26.877  31.793  1.00  0.00    -0.206 F 
ATOM     78  C   UNL A   1      39.489  26.798  28.380  1.00  0.00     0.022 A 
BRANCH  75  79
ATOM     79  S   UNL A   1      40.950  28.557  26.786  1.00  0.00     0.124 S 
ATOM     80  O   UNL A   1      42.108  29.311  27.252  1.00  0.00    -0.237 OA
ATOM     81  O   UNL A   1      41.235  27.302  26.099  1.00  0.00    -0.237 OA
ATOM     82  O   UNL A   1      39.878  29.358  26.197  1.00  0.00    -0.744 OA
ENDBRANCH  75  79
ENDBRANCH  48  72
BRANCH  60  83
ATOM     83  C   UNL A   1      44.085  28.882  36.101  1.00  0.00     0.023 A 
ATOM     84  C   UNL A   1      43.958  27.754  36.929  1.00  0.00     0.031 A 
ATOM     85  C   UNL A   1      45.373  29.236  35.658  1.00  0.00     0.131 A 
ATOM     86  C   UNL A   1      45.104  27.057  37.341  1.00  0.00     0.055 A 
ATOM     87  C   UNL A   1      46.501  28.495  36.012  1.00  0.00     0.041 A 
ATOM     88  F   UNL A   1      45.555  30.307  34.870  1.00  0.00    -0.206 F 
ATOM     89  C   UNL A   1      46.372  27.408  36.870  1.00  0.00     0.022 A 
BRANCH  86  90
ATOM     90  S   UNL A   1      44.928  25.754  38.589  1.00  0.00     0.124 S 
ATOM     91  O   UNL A   1      46.316  25.364  38.817  1.00  0.00    -0.237 OA
ATOM     92  O   UNL A   1      44.276  26.459  39.688  1.00  0.00    -0.237 OA
ATOM     93  O   UNL A   1      44.104  24.748  37.920  1.00  0.00    -0.744 OA
ENDBRANCH  86  90
ENDBRANCH  60  83
ENDBRANCH  34  35
ENDBRANCH  26  29
ENDBRANCH  24  25
ENDBRANCH  23  24
ENDBRANCH  22  23
ENDBRANCH   1  22
TORSDOF 19
ENDMDL
MODEL 2
REMARK VINA RESULT:     -10.3      6.870     12.629
REMARK SMILES C[C@H](CC(=O)NCCCCNC(=O)c1ccc(-c2c3nc(c(-c4cc(S(=O)(=O)[O-])ccc4F)c4ccc([nH]4)c(-c4cc(S(=O)(=O)[O-])ccc4F)c4nc(c(-c5cc(S(=O)(=O)[O-])ccc5F)c5ccc2[nH]5)C=C4)C=C3)cc1)NC(=O)CS[C@H]1CCS(=O)(=O)C1
REMARK SMILES IDX 7 1 6 2 4 3 5 4 3 6 2 7 1 8 77 9 78 10 79 12 80 13 81 14
REMARK SMILES IDX 82 15 83 16 88 17 84 18 85 19 86 20 87 21 8 22 9 23 10 24
REMARK SMILES IDX 11 25 12 26 13 28 14 29 15 30 76 31 16 32 75 33 17 34 18 35
REMARK SMILES IDX 19 36 69 37 20 38 74 39 68 40 70 41 21 42 73 43 67 44 66 45
REMARK SMILES IDX 22 47 54 48 34 49 53 50 35 51 38 52 52 53 71 54 36 55 37 56
REMARK SMILES IDX 51 58 72 59 39 60 23 61 24 62 32 63 25 64 31 65 33 66 30 67
REMARK SMILES IDX 26 68 27 69 28 70 29 71 55 72 56 73 64 74 57 75 63 76 65 77
REMARK SMILES IDX 62 78 58 79 59 80 60 81 61 82 40 83 41 84 49 85 42 86 48 87
REMARK SMILES IDX 50 88 47 89 43 90 44 91 45 92 46 93
REMARK H PARENT 6 5 77 11 11 27 70 46 38 57
REMARK Flexibility Score: inf
ROOT
ATOM      1  C   UNL A   1      36.060  20.790  25.089  1.00  0.00     0.116 C 
ENDROOT
BRANCH   1   2
ATOM      2  N   UNL A   1      35.391  21.379  26.228  1.00  0.00    -0.356 N 
ATOM      3  C   UNL A   1      34.373  22.281  26.239  1.00  0.00     0.222 C 
ATOM      4  O   UNL A   1      34.187  22.957  27.249  1.00  0.00    -0.275 OA
ATOM      5  H   UNL A   1      35.715  21.089  27.112  1.00  0.00     0.163 HD
BRANCH   3   6
ATOM      6  C   UNL A   1      33.445  22.389  25.047  1.00  0.00     0.124 C 
BRANCH   6   7
ATOM      7  C   UNL A   1      32.148  21.576  24.978  1.00  0.00     0.088 C 
ATOM      8  C   UNL A   1      32.340  20.078  24.769  1.00  0.00     0.031 C 
BRANCH   7   9
ATOM      9  N   UNL A   1      31.259  21.878  26.107  1.00  0.00    -0.352 N 
ATOM     10  C   UNL A   1      30.675  23.041  26.511  1.00  0.00     0.230 C 
ATOM     11  H   UNL A   1      31.047  21.101  26.673  1.00  0.00     0.163 HD
ATOM     12  O   UNL A   1      30.174  23.059  27.637  1.00  0.00    -0.274 OA
BRANCH  10  13
ATOM     13  C   UNL A   1      30.602  24.243  25.588  1.00  0.00     0.169 C 
BRANCH  13  14
ATOM     14  S   UNL A   1      31.641  25.635  26.152  1.00  0.00    -0.148 SA
BRANCH  14  15
ATOM     15  C   UNL A   1      31.148  26.943  24.989  1.00  0.00     0.063 C 
ATOM     16  C   UNL A   1      31.464  28.337  25.550  1.00  0.00     0.031 C 
ATOM     17  C   UNL A   1      31.934  26.866  23.684  1.00  0.00     0.151 C 
ATOM     18  C   UNL A   1      31.188  29.319  24.412  1.00  0.00     0.138 C 
ATOM     19  S   UNL A   1      31.605  28.443  22.911  1.00  0.00     0.151 S 
ATOM     20  O   UNL A   1      30.406  28.327  22.113  1.00  0.00    -0.229 OA
ATOM     21  O   UNL A   1      32.842  28.975  22.378  1.00  0.00    -0.229 OA
ENDBRANCH  14  15
ENDBRANCH  13  14
ENDBRANCH  10  13
ENDBRANCH   7   9
ENDBRANCH   6   7
ENDBRANCH   3   6
ENDBRANCH   1   2
BRANCH   1  22
ATOM     22  C   UNL A   1      37.525  21.235  25.054  1.00  0.00     0.023 C 
BRANCH  22  23
ATOM     23  C   UNL A   1      38.528  20.092  25.185  1.00  0.00     0.023 C 
BRANCH  23  24
ATOM     24  C   UNL A   1      39.695  20.426  26.091  1.00  0.00     0.116 C 
BRANCH  24  25
ATOM     25  N   UNL A   1      40.705  19.379  26.063  1.00  0.00    -0.352 N 
ATOM     26  C   UNL A   1      42.068  19.528  26.061  1.00  0.00     0.251 C 
ATOM     27  H   UNL A   1      40.370  18.453  26.043  1.00  0.00     0.163 HD
ATOM     28  O   UNL A   1      42.799  18.579  25.803  1.00  0.00    -0.269 OA
BRANCH  26  29
ATOM     29  C   UNL A   1      42.617  20.865  26.348  1.00  0.00     0.039 A 
ATOM     30  C   UNL A   1      42.923  21.717  25.289  1.00  0.00     0.014 A 
ATOM     31  C   UNL A   1      42.740  21.290  27.675  1.00  0.00     0.014 A 
ATOM     32  C   UNL A   1      43.313  23.025  25.564  1.00  0.00     0.010 A 
ATOM     33  C   UNL A   1      43.031  22.619  27.941  1.00  0.00     0.010 A 
ATOM     34  C   UNL A   1      43.337  23.496  26.890  1.00  0.00    -0.014 A 
BRANCH  34  35
ATOM     35  C   UNL A   1      43.712  24.896  27.199  1.00  0.00     0.031 A 
ATOM     36  C   UNL A   1      45.140  25.336  27.030  1.00  0.00     0.074 A 
ATOM     37  C   UNL A   1      42.780  25.747  27.670  1.00  0.00     0.049 A 
ATOM     38  N   UNL A   1      45.683  26.496  27.290  1.00  0.00    -0.248 NA
ATOM     39  C   UNL A   1      46.088  24.326  26.535  1.00  0.00     0.031 C 
ATOM     40  C   UNL A   1      41.374  25.412  27.912  1.00  0.00     0.029 A 
ATOM     41  N   UNL A   1      42.872  27.067  28.030  1.00  0.00    -0.354 N 
ATOM     42  C   UNL A   1      47.035  26.352  26.998  1.00  0.00     0.074 A 
ATOM     43  C   UNL A   1      47.240  24.972  26.619  1.00  0.00     0.031 C 
ATOM     44  C   UNL A   1      40.729  26.508  28.340  1.00  0.00     0.029 A 
ATOM     45  C   UNL A   1      41.682  27.608  28.457  1.00  0.00     0.049 A 
ATOM     46  H   UNL A   1      43.712  27.579  27.985  1.00  0.00     0.167 HD
ATOM     47  C   UNL A   1      48.009  27.295  27.014  1.00  0.00     0.034 A 
ATOM     48  C   UNL A   1      41.396  28.848  28.901  1.00  0.00     0.034 A 
ATOM     49  C   UNL A   1      47.778  28.667  27.390  1.00  0.00     0.049 A 
ATOM     50  C   UNL A   1      42.505  29.869  28.950  1.00  0.00     0.074 A 
ATOM     51  C   UNL A   1      48.676  29.721  27.401  1.00  0.00     0.029 A 
ATOM     52  N   UNL A   1      46.563  29.178  27.833  1.00  0.00    -0.354 N 
ATOM     53  N   UNL A   1      43.770  29.734  28.619  1.00  0.00    -0.248 NA
ATOM     54  C   UNL A   1      42.146  31.212  29.420  1.00  0.00     0.031 C 
ATOM     55  C   UNL A   1      48.027  30.842  27.926  1.00  0.00     0.029 A 
ATOM     56  C   UNL A   1      46.699  30.520  28.155  1.00  0.00     0.049 A 
ATOM     57  H   UNL A   1      45.728  28.661  27.908  1.00  0.00     0.167 HD
ATOM     58  C   UNL A   1      44.347  30.986  28.809  1.00  0.00     0.074 A 
ATOM     59  C   UNL A   1      43.289  31.863  29.266  1.00  0.00     0.031 C 
ATOM     60  C   UNL A   1      45.634  31.378  28.619  1.00  0.00     0.034 A 
BRANCH  47  61
ATOM     61  C   UNL A   1      49.406  26.858  26.641  1.00  0.00     0.023 A 
ATOM     62  C   UNL A   1      50.014  27.269  25.441  1.00  0.00     0.031 A 
ATOM     63  C   UNL A   1      50.129  25.990  27.478  1.00  0.00     0.131 A 
ATOM     64  C   UNL A   1      51.263  26.748  25.074  1.00  0.00     0.055 A 
ATOM     65  C   UNL A   1      51.412  25.549  27.150  1.00  0.00     0.041 A 
ATOM     66  F   UNL A   1      49.593  25.542  28.624  1.00  0.00    -0.206 F 
ATOM     67  C   UNL A   1      51.981  25.914  25.933  1.00  0.00     0.022 A 
BRANCH  64  68
ATOM     68  S   UNL A   1      51.865  27.050  23.388  1.00  0.00     0.124 S 
ATOM     69  O   UNL A   1      52.901  26.028  23.259  1.00  0.00    -0.237 OA
ATOM     70  O   UNL A   1      50.665  26.850  22.584  1.00  0.00    -0.237 OA
ATOM     71  O   UNL A   1      52.359  28.425  23.443  1.00  0.00    -0.744 OA
ENDBRANCH  64  68
ENDBRANCH  47  61
BRANCH  48  72
ATOM     72  C   UNL A   1      40.014  29.196  29.340  1.00  0.00     0.023 A 
ATOM     73  C   UNL A   1      39.693  29.305  30.703  1.00  0.00     0.031 A 
ATOM     74  C   UNL A   1      38.980  29.382  28.405  1.00  0.00     0.131 A 
ATOM     75  C   UNL A   1      38.365  29.539  31.094  1.00  0.00     0.055 A 
ATOM     76  C   UNL A   1      37.673  29.676  28.796  1.00  0.00     0.041 A 
ATOM     77  F   UNL A   1      39.230  29.292  27.089  1.00  0.00    -0.206 F 
ATOM     78  C   UNL A   1      37.356  29.741  30.150  1.00  0.00     0.022 A 
BRANCH  75  79
ATOM     79  S   UNL A   1      37.956  29.477  32.860  1.00  0.00     0.124 S 
ATOM     80  O   UNL A   1      37.425  28.126  32.993  1.00  0.00    -0.237 OA
ATOM     81  O   UNL A   1      39.255  29.720  33.480  1.00  0.00    -0.237 OA
ATOM     82  O   UNL A   1      36.980  30.552  33.021  1.00  0.00    -0.744 OA
ENDBRANCH  75  79
ENDBRANCH  48  72
BRANCH  60  83
ATOM     83  C   UNL A   1      45.950  32.835  28.860  1.00  0.00     0.023 A 
ATOM     84  C   UNL A   1      45.885  33.791  27.832  1.00  0.00     0.031 A 
ATOM     85  C   UNL A   1      46.334  33.269  30.143  1.00  0.00     0.131 A 
ATOM     86  C   UNL A   1      46.258  35.118  28.087  1.00  0.00     0.055 A 
ATOM     87  C   UNL A   1      46.633  34.606  30.407  1.00  0.00     0.041 A 
ATOM     88  F   UNL A   1      46.419  32.400  31.162  1.00  0.00    -0.206 F 
ATOM     89  C   UNL A   1      46.611  35.536  29.373  1.00  0.00     0.022 A 
BRANCH  86  90
ATOM     90  S   UNL A   1      46.384  36.270  26.692  1.00  0.00     0.124 S 
ATOM     91  O   UNL A   1      47.688  36.884  26.923  1.00  0.00    -0.237 OA
ATOM     92  O   UNL A   1      46.295  35.378  25.541  1.00  0.00    -0.237 OA
ATOM     93  O   UNL A   1      45.239  37.160  26.878  1.00  0.00    -0.744 OA
ENDBRANCH  86  90
ENDBRANCH  60  83
ENDBRANCH  34  35
ENDBRANCH  26  29
ENDBRANCH  24  25
ENDBRANCH  23  24
ENDBRANCH  22  23
ENDBRANCH   1  22
TORSDOF 19
ENDMDL
MODEL 3
REMARK VINA RESULT:     -10.2      3.766      9.153
REMARK SMILES C[C@H](CC(=O)NCCCCNC(=O)c1ccc(-c2c3nc(c(-c4cc(S(=O)(=O)[O-])ccc4F)c4ccc([nH]4)c(-c4cc(S(=O)(=O)[O-])ccc4F)c4nc(c(-c5cc(S(=O)(=O)[O-])ccc5F)c5ccc2[nH]5)C=C4)C=C3)cc1)NC(=O)CS[C@H]1CCS(=O)(=O)C1
REMARK SMILES IDX 7 1 6 2 4 3 5 4 3 6 2 7 1 8 77 9 78 10 79 12 80 13 81 14
REMARK SMILES IDX 82 15 83 16 88 17 84 18 85 19 86 20 87 21 8 22 9 23 10 24
REMARK SMILES IDX 11 25 12 26 13 28 14 29 15 30 76 31 16 32 75 33 17 34 18 35
REMARK SMILES IDX 19 36 69 37 20 38 74 39 68 40 70 41 21 42 73 43 67 44 66 45
REMARK SMILES IDX 22 47 54 48 34 49 53 50 35 51 38 52 52 53 71 54 36 55 37 56
REMARK SMILES IDX 51 58 72 59 39 60 23 61 24 62 32 63 25 64 31 65 33 66 30 67
REMARK SMILES IDX 26 68 27 69 28 70 29 71 55 72 56 73 64 74 57 75 63 76 65 77
REMARK SMILES IDX 62 78 58 79 59 80 60 81 61 82 40 83 41 84 49 85 42 86 48 87
REMARK SMILES IDX 50 88 47 89 43 90 44 91 45 92 46 93
REMARK H PARENT 6 5 77 11 11 27 70 46 38 57
REMARK Flexibility Score: inf
ROOT
ATOM      1  C   UNL A   1      31.408  29.377  25.193  1.00  0.00     0.116 C 
ENDROOT
BRANCH   1   2
ATOM      2  N   UNL A   1      32.054  28.786  24.043  1.00  0.00    -0.356 N 
ATOM      3  C   UNL A   1      32.631  27.558  23.932  1.00  0.00     0.222 C 
ATOM      4  O   UNL A   1      33.455  27.366  23.040  1.00  0.00    -0.275 OA
ATOM      5  H   UNL A   1      32.079  29.344  23.232  1.00  0.00     0.163 HD
BRANCH   3   6
ATOM      6  C   UNL A   1      32.202  26.435  24.853  1.00  0.00     0.124 C 
BRANCH   6   7
ATOM      7  C   UNL A   1      32.956  25.102  24.880  1.00  0.00     0.088 C 
ATOM      8  C   UNL A   1      34.364  25.172  25.460  1.00  0.00     0.031 C 
BRANCH   7   9
ATOM      9  N   UNL A   1      32.149  24.035  25.486  1.00  0.00    -0.352 N 
ATOM     10  C   UNL A   1      31.987  22.724  25.152  1.00  0.00     0.230 C 
ATOM     11  H   UNL A   1      31.632  24.318  26.274  1.00  0.00     0.163 HD
ATOM     12  O   UNL A   1      31.057  22.117  25.686  1.00  0.00    -0.274 OA
BRANCH  10  13
ATOM     13  C   UNL A   1      32.949  22.033  24.203  1.00  0.00     0.169 C 
BRANCH  13  14
ATOM     14  S   UNL A   1      34.123  20.929  25.063  1.00  0.00    -0.148 SA
BRANCH  14  15
ATOM     15  C   UNL A   1      33.396  19.298  24.720  1.00  0.00     0.063 C 
ATOM     16  C   UNL A   1      32.558  19.320  23.432  1.00  0.00     0.031 C 
ATOM     17  C   UNL A   1      34.468  18.243  24.463  1.00  0.00     0.151 C 
ATOM     18  C   UNL A   1      32.175  17.866  23.158  1.00  0.00     0.138 C 
ATOM     19  S   UNL A   1      33.549  16.888  23.746  1.00  0.00     0.151 S 
ATOM     20  O   UNL A   1      33.069  16.038  24.812  1.00  0.00    -0.229 OA
ATOM     21  O   UNL A   1      34.284  16.367  22.612  1.00  0.00    -0.229 OA
ENDBRANCH  14  15
ENDBRANCH  13  14
ENDBRANCH  10  13
ENDBRANCH   7   9
ENDBRANCH   6   7
ENDBRANCH   3   6
ENDBRANCH   1   2
BRANCH   1  22
ATOM     22  C   UNL A   1      32.444  30.085  26.070  1.00  0.00     0.023 C 
BRANCH  22  23
ATOM     23  C   UNL A   1      32.023  31.477  26.533  1.00  0.00     0.023 C 
BRANCH  23  24
ATOM     24  C   UNL A   1      33.037  32.131  27.450  1.00  0.00     0.116 C 
BRANCH  24  25
ATOM     25  N   UNL A   1      32.774  33.554  27.601  1.00  0.00    -0.352 N 
ATOM     26  C   UNL A   1      33.286  34.406  28.547  1.00  0.00     0.251 C 
ATOM     27  H   UNL A   1      32.157  33.953  26.947  1.00  0.00     0.163 HD
ATOM     28  O   UNL A   1      32.808  35.523  28.704  1.00  0.00    -0.269 OA
BRANCH  26  29
ATOM     29  C   UNL A   1      34.401  33.922  29.380  1.00  0.00     0.039 A 
ATOM     30  C   UNL A   1      34.130  33.087  30.462  1.00  0.00     0.014 A 
ATOM     31  C   UNL A   1      35.716  34.236  29.023  1.00  0.00     0.014 A 
ATOM     32  C   UNL A   1      35.192  32.524  31.165  1.00  0.00     0.010 A 
ATOM     33  C   UNL A   1      36.767  33.595  29.661  1.00  0.00     0.010 A 
ATOM     34  C   UNL A   1      36.517  32.747  30.749  1.00  0.00    -0.014 A 
BRANCH  34  35
ATOM     35  C   UNL A   1      37.658  32.125  31.461  1.00  0.00     0.031 A 
ATOM     36  C   UNL A   1      38.414  30.999  30.809  1.00  0.00     0.074 A 
ATOM     37  C   UNL A   1      37.978  32.542  32.701  1.00  0.00     0.049 A 
ATOM     38  N   UNL A   1      39.406  30.290  31.278  1.00  0.00    -0.248 NA
ATOM     39  C   UNL A   1      37.971  30.598  29.465  1.00  0.00     0.031 C 
ATOM     40  C   UNL A   1      37.284  33.597  33.443  1.00  0.00     0.029 A 
ATOM     41  N   UNL A   1      38.968  32.131  33.557  1.00  0.00    -0.354 N 
ATOM     42  C   UNL A   1      39.700  29.356  30.292  1.00  0.00     0.074 A 
ATOM     43  C   UNL A   1      38.729  29.538  29.236  1.00  0.00     0.031 C 
ATOM     44  C   UNL A   1      37.895  33.777  34.625  1.00  0.00     0.029 A 
ATOM     45  C   UNL A   1      38.987  32.817  34.749  1.00  0.00     0.049 A 
ATOM     46  H   UNL A   1      39.605  31.414  33.338  1.00  0.00     0.167 HD
ATOM     47  C   UNL A   1      40.708  28.450  30.258  1.00  0.00     0.034 A 
ATOM     48  C   UNL A   1      39.790  32.680  35.823  1.00  0.00     0.034 A 
ATOM     49  C   UNL A   1      41.668  28.291  31.322  1.00  0.00     0.049 A 
ATOM     50  C   UNL A   1      40.879  31.636  35.778  1.00  0.00     0.074 A 
ATOM     51  C   UNL A   1      42.757  27.440  31.379  1.00  0.00     0.029 A 
ATOM     52  N   UNL A   1      41.649  28.991  32.522  1.00  0.00    -0.354 N 
ATOM     53  N   UNL A   1      41.179  30.794  34.816  1.00  0.00    -0.248 NA
ATOM     54  C   UNL A   1      41.742  31.533  36.960  1.00  0.00     0.031 C 
ATOM     55  C   UNL A   1      43.345  27.566  32.641  1.00  0.00     0.029 A 
ATOM     56  C   UNL A   1      42.684  28.564  33.340  1.00  0.00     0.049 A 
ATOM     57  H   UNL A   1      40.994  29.689  32.758  1.00  0.00     0.167 HD
ATOM     58  C   UNL A   1      42.291  30.086  35.265  1.00  0.00     0.074 A 
ATOM     59  C   UNL A   1      42.613  30.612  36.575  1.00  0.00     0.031 C 
ATOM     60  C   UNL A   1      42.985  29.094  34.649  1.00  0.00     0.034 A 
BRANCH  47  61
ATOM     61  C   UNL A   1      40.796  27.553  29.045  1.00  0.00     0.023 A 
ATOM     62  C   UNL A   1      41.747  27.771  28.032  1.00  0.00     0.031 A 
ATOM     63  C   UNL A   1      39.896  26.486  28.880  1.00  0.00     0.131 A 
ATOM     64  C   UNL A   1      41.721  26.991  26.866  1.00  0.00     0.055 A 
ATOM     65  C   UNL A   1      39.936  25.654  27.760  1.00  0.00     0.041 A 
ATOM     66  F   UNL A   1      38.948  26.243  29.800  1.00  0.00    -0.206 F 
ATOM     67  C   UNL A   1      40.842  25.915  26.736  1.00  0.00     0.022 A 
BRANCH  64  68
ATOM     68  S   UNL A   1      42.747  27.503  25.460  1.00  0.00     0.124 S 
ATOM     69  O   UNL A   1      41.975  28.623  24.926  1.00  0.00    -0.237 OA
ATOM     70  O   UNL A   1      44.012  27.845  26.099  1.00  0.00    -0.237 OA
ATOM     71  O   UNL A   1      42.777  26.316  24.608  1.00  0.00    -0.744 OA
ENDBRANCH  64  68
ENDBRANCH  47  61
BRANCH  48  72
ATOM     72  C   UNL A   1      39.597  33.535  37.028  1.00  0.00     0.023 A 
ATOM     73  C   UNL A   1      40.393  34.672  37.244  1.00  0.00     0.031 A 
ATOM     74  C   UNL A   1      38.643  33.206  38.008  1.00  0.00     0.131 A 
ATOM     75  C   UNL A   1      40.258  35.407  38.433  1.00  0.00     0.055 A 
ATOM     76  C   UNL A   1      38.470  33.975  39.160  1.00  0.00     0.041 A 
ATOM     77  F   UNL A   1      37.853  32.131  37.853  1.00  0.00    -0.206 F 
ATOM     78  C   UNL A   1      39.292  35.075  39.385  1.00  0.00     0.022 A 
BRANCH  75  79
ATOM     79  S   UNL A   1      41.434  36.747  38.764  1.00  0.00     0.124 S 
ATOM     80  O   UNL A   1      42.024  36.954  37.446  1.00  0.00    -0.237 OA
ATOM     81  O   UNL A   1      40.558  37.808  39.248  1.00  0.00    -0.237 OA
ATOM     82  O   UNL A   1      42.329  36.174  39.766  1.00  0.00    -0.744 OA
ENDBRANCH  75  79
ENDBRANCH  48  72
BRANCH  60  83
ATOM     83  C   UNL A   1      44.195  28.551  35.373  1.00  0.00     0.023 A 
ATOM     84  C   UNL A   1      44.093  27.519  36.321  1.00  0.00     0.031 A 
ATOM     85  C   UNL A   1      45.470  29.087  35.114  1.00  0.00     0.131 A 
ATOM     86  C   UNL A   1      45.233  27.098  37.021  1.00  0.00     0.055 A 
ATOM     87  C   UNL A   1      46.612  28.613  35.761  1.00  0.00     0.041 A 
ATOM     88  F   UNL A   1      45.627  30.078  34.223  1.00  0.00    -0.206 F 
ATOM     89  C   UNL A   1      46.495  27.624  36.732  1.00  0.00     0.022 A 
BRANCH  86  90
ATOM     90  S   UNL A   1      45.030  25.932  38.395  1.00  0.00     0.124 S 
ATOM     91  O   UNL A   1      46.406  25.757  38.849  1.00  0.00    -0.237 OA
ATOM     92  O   UNL A   1      44.149  26.665  39.299  1.00  0.00    -0.237 OA
ATOM     93  O   UNL A   1      44.431  24.758  37.762  1.00  0.00    -0.744 OA
ENDBRANCH  86  90
ENDBRANCH  60  83
ENDBRANCH  34  35
ENDBRANCH  26  29
ENDBRANCH  24  25
ENDBRANCH  23  24
ENDBRANCH  22  23
ENDBRANCH   1  22
TORSDOF 19
ENDMDL
