MODEL 1
REMARK VINA RESULT:     -13.1      0.000      0.000
REMARK SMILES Cc1c(Cl)cccc1NC(=O)C[C@](C)(C(=O)NCCCCNC(=O)c1ccc(-c2c3nc(c(-c4cc(S(=O)(=O)[O-])ccc4F)c4ccc([nH]4)c(-c4cc(S(=O)(=O)[O-])ccc4F)c4nc(c(-c5cc(S(=O)(=O)[O-])ccc5F)c5ccc2[nH]5)C=C4)C=C3)cc1)c1ccccc1
REMARK SMILES IDX 19 1 18 2 17 3 15 4 16 5 13 7 14 8 12 9 10 10 9 11 11 13
REMARK SMILES IDX 8 14 1 15 2 16 3 17 4 18 5 19 7 20 6 21 88 22 89 23 93 24
REMARK SMILES IDX 90 25 92 26 91 27 20 28 21 29 22 30 23 31 24 33 25 34 26 35
REMARK SMILES IDX 87 36 27 37 86 38 28 39 29 40 30 41 80 42 31 43 85 44 79 45
REMARK SMILES IDX 81 46 32 47 84 48 78 49 77 50 33 52 65 53 45 54 64 55 46 56
REMARK SMILES IDX 49 57 63 58 82 59 47 60 48 61 62 63 83 64 50 65 34 66 35 67
REMARK SMILES IDX 43 68 36 69 42 70 44 71 41 72 37 73 38 74 39 75 40 76 66 77
REMARK SMILES IDX 67 78 75 79 68 80 74 81 76 82 73 83 69 84 70 85 71 86 72 87
REMARK SMILES IDX 51 88 52 89 60 90 53 91 59 92 61 93 58 94 54 95 55 96 56 97
REMARK SMILES IDX 57 98
REMARK H PARENT 17 6 9 12 22 32 81 51 49 62
REMARK Flexibility Score: inf
ROOT
ATOM      1  C   UNL A   1      32.768  29.959  27.367  1.00  0.00     0.023 C 
ENDROOT
BRANCH   1   2
ATOM      2  C   UNL A   1      31.790  28.571  27.684  1.00  0.00     0.116 C 
BRANCH   2   3
ATOM      3  N   UNL A   1      31.146  27.006  26.454  1.00  0.00    -0.355 N 
ATOM      4  C   UNL A   1      30.962  26.357  25.186  1.00  0.00     0.230 C 
ATOM      5  O   UNL A   1      30.466  25.231  25.377  1.00  0.00    -0.274 OA
ATOM      6  H   UNL A   1      30.756  26.366  27.092  1.00  0.00     0.163 HD
BRANCH   4   7
ATOM      7  C   UNL A   1      31.211  26.874  23.668  1.00  0.00     0.080 C 
ATOM      8  C   UNL A   1      32.463  27.830  23.716  1.00  0.00     0.027 C 
BRANCH   7   9
ATOM      9  C   UNL A   1      31.328  25.765  22.561  1.00  0.00     0.121 C 
BRANCH   9  10
ATOM     10  C   UNL A   1      32.690  25.405  21.999  1.00  0.00     0.225 C 
ATOM     11  N   UNL A   1      33.472  24.466  22.604  1.00  0.00    -0.326 N 
ATOM     12  H   UNL A   1      34.442  24.489  22.433  1.00  0.00     0.169 HD
ATOM     13  O   UNL A   1      33.140  25.988  21.010  1.00  0.00    -0.275 OA
BRANCH  11  14
ATOM     14  C   UNL A   1      32.977  23.477  23.452  1.00  0.00     0.045 A 
ATOM     15  C   UNL A   1      33.980  24.836  25.785  1.00  0.00     0.048 C 
ATOM     16  C   UNL A   1      33.672  23.523  25.124  1.00  0.00    -0.009 A 
ATOM     17  C   UNL A   1      33.659  22.028  26.132  1.00  0.00     0.046 A 
ATOM     18  Cl  UNL A   1      34.218  22.060  27.756  1.00  0.00    -0.084 Cl
ATOM     19  C   UNL A   1      33.072  20.469  25.449  1.00  0.00     0.021 A 
ATOM     20  C   UNL A   1      32.252  21.930  22.788  1.00  0.00     0.026 A 
ATOM     21  C   UNL A   1      32.341  20.416  23.788  1.00  0.00     0.004 A 
ENDBRANCH  11  14
ENDBRANCH   9  10
ENDBRANCH   7   9
BRANCH   7  22
ATOM     22  C   UNL A   1      30.119  27.858  23.072  1.00  0.00    -0.032 A 
ATOM     23  C   UNL A   1      30.571  28.970  22.302  1.00  0.00     0.005 A 
ATOM     24  C   UNL A   1      28.739  27.741  23.244  1.00  0.00     0.005 A 
ATOM     25  C   UNL A   1      29.719  29.979  21.863  1.00  0.00     0.000 A 
ATOM     26  C   UNL A   1      27.875  28.749  22.786  1.00  0.00     0.000 A 
ATOM     27  C   UNL A   1      28.364  29.875  22.124  1.00  0.00     0.000 A 
ENDBRANCH   7  22
ENDBRANCH   4   7
ENDBRANCH   2   3
ENDBRANCH   1   2
BRANCH   1  28
ATOM     28  C   UNL A   1      31.993  31.242  27.065  1.00  0.00     0.023 C 
BRANCH  28  29
ATOM     29  C   UNL A   1      32.856  32.422  26.679  1.00  0.00     0.116 C 
BRANCH  29  30
ATOM     30  N   UNL A   1      32.535  33.608  27.461  1.00  0.00    -0.352 N 
ATOM     31  C   UNL A   1      33.180  33.984  28.616  1.00  0.00     0.251 C 
ATOM     32  H   UNL A   1      31.804  34.182  27.139  1.00  0.00     0.163 HD
ATOM     33  O   UNL A   1      32.745  34.856  29.352  1.00  0.00    -0.269 OA
BRANCH  31  34
ATOM     34  C   UNL A   1      34.416  33.241  28.906  1.00  0.00     0.039 A 
ATOM     35  C   UNL A   1      35.641  33.814  28.572  1.00  0.00     0.014 A 
ATOM     36  C   UNL A   1      34.327  32.151  29.781  1.00  0.00     0.014 A 
ATOM     37  C   UNL A   1      36.800  33.276  29.123  1.00  0.00     0.010 A 
ATOM     38  C   UNL A   1      35.474  31.698  30.414  1.00  0.00     0.010 A 
ATOM     39  C   UNL A   1      36.725  32.223  30.055  1.00  0.00    -0.014 A 
BRANCH  39  40
ATOM     40  C   UNL A   1      37.963  31.590  30.572  1.00  0.00     0.031 A 
ATOM     41  C   UNL A   1      38.434  31.953  31.955  1.00  0.00     0.074 A 
ATOM     42  C   UNL A   1      38.631  30.686  29.830  1.00  0.00     0.049 A 
ATOM     43  N   UNL A   1      39.459  31.496  32.626  1.00  0.00    -0.248 NA
ATOM     44  C   UNL A   1      37.666  32.986  32.671  1.00  0.00     0.031 C 
ATOM     45  C   UNL A   1      38.280  30.281  28.467  1.00  0.00     0.029 A 
ATOM     46  N   UNL A   1      39.733  29.924  30.128  1.00  0.00    -0.354 N 
ATOM     47  C   UNL A   1      39.452  32.184  33.834  1.00  0.00     0.074 A 
ATOM     48  C   UNL A   1      38.387  33.155  33.766  1.00  0.00     0.031 C 
ATOM     49  C   UNL A   1      39.114  29.305  28.070  1.00  0.00     0.029 A 
ATOM     50  C   UNL A   1      40.091  29.050  29.126  1.00  0.00     0.049 A 
ATOM     51  H   UNL A   1      40.223  29.996  30.978  1.00  0.00     0.167 HD
ATOM     52  C   UNL A   1      40.236  31.995  34.921  1.00  0.00     0.034 A 
ATOM     53  C   UNL A   1      41.093  28.151  29.069  1.00  0.00     0.034 A 
ATOM     54  C   UNL A   1      41.289  31.016  34.974  1.00  0.00     0.049 A 
ATOM     55  C   UNL A   1      41.999  28.006  30.270  1.00  0.00     0.074 A 
ATOM     56  C   UNL A   1      42.130  30.716  36.030  1.00  0.00     0.029 A 
ATOM     57  N   UNL A   1      41.654  30.186  33.922  1.00  0.00    -0.354 N 
ATOM     58  N   UNL A   1      41.948  28.631  31.425  1.00  0.00    -0.248 NA
ATOM     59  C   UNL A   1      43.089  27.028  30.164  1.00  0.00     0.031 C 
ATOM     60  C   UNL A   1      43.060  29.771  35.587  1.00  0.00     0.029 A 
ATOM     61  C   UNL A   1      42.736  29.404  34.291  1.00  0.00     0.049 A 
ATOM     62  H   UNL A   1      41.210  30.158  33.044  1.00  0.00     0.167 HD
ATOM     63  C   UNL A   1      42.978  28.094  32.193  1.00  0.00     0.074 A 
ATOM     64  C   UNL A   1      43.617  27.083  31.376  1.00  0.00     0.031 C 
ATOM     65  C   UNL A   1      43.363  28.404  33.458  1.00  0.00     0.034 A 
BRANCH  52  66
ATOM     66  C   UNL A   1      39.993  32.885  36.116  1.00  0.00     0.023 A 
ATOM     67  C   UNL A   1      39.222  32.458  37.212  1.00  0.00     0.031 A 
ATOM     68  C   UNL A   1      40.510  34.192  36.145  1.00  0.00     0.131 A 
ATOM     69  C   UNL A   1      38.925  33.353  38.250  1.00  0.00     0.055 A 
ATOM     70  C   UNL A   1      40.290  35.045  37.226  1.00  0.00     0.041 A 
ATOM     71  F   UNL A   1      41.226  34.666  35.112  1.00  0.00    -0.206 F 
ATOM     72  C   UNL A   1      39.480  34.633  38.280  1.00  0.00     0.022 A 
BRANCH  69  73
ATOM     73  S   UNL A   1      37.673  32.876  39.473  1.00  0.00     0.124 S 
ATOM     74  O   UNL A   1      37.711  34.012  40.392  1.00  0.00    -0.237 OA
ATOM     75  O   UNL A   1      36.470  32.751  38.661  1.00  0.00    -0.237 OA
ATOM     76  O   UNL A   1      38.191  31.624  40.022  1.00  0.00    -0.744 OA
ENDBRANCH  69  73
ENDBRANCH  52  66
BRANCH  53  77
ATOM     77  C   UNL A   1      41.315  27.328  27.844  1.00  0.00     0.023 A 
ATOM     78  C   UNL A   1      40.985  25.962  27.812  1.00  0.00     0.031 A 
ATOM     79  C   UNL A   1      41.926  27.879  26.702  1.00  0.00     0.131 A 
ATOM     80  C   UNL A   1      41.323  25.185  26.693  1.00  0.00     0.055 A 
ATOM     81  C   UNL A   1      42.197  27.116  25.564  1.00  0.00     0.041 A 
ATOM     82  F   UNL A   1      42.270  29.176  26.675  1.00  0.00    -0.206 F 
ATOM     83  C   UNL A   1      41.909  25.756  25.562  1.00  0.00     0.022 A 
BRANCH  80  84
ATOM     84  S   UNL A   1      41.098  23.386  26.785  1.00  0.00     0.124 S 
ATOM     85  O   UNL A   1      41.535  23.103  28.146  1.00  0.00    -0.237 OA
ATOM     86  O   UNL A   1      39.668  23.247  26.527  1.00  0.00    -0.237 OA
ATOM     87  O   UNL A   1      41.972  22.880  25.729  1.00  0.00    -0.744 OA
ENDBRANCH  80  84
ENDBRANCH  53  77
BRANCH  65  88
ATOM     88  C   UNL A   1      44.496  27.603  34.053  1.00  0.00     0.023 A 
ATOM     89  C   UNL A   1      44.269  26.414  34.765  1.00  0.00     0.031 A 
ATOM     90  C   UNL A   1      45.825  28.039  33.899  1.00  0.00     0.131 A 
ATOM     91  C   UNL A   1      45.348  25.738  35.355  1.00  0.00     0.055 A 
ATOM     92  C   UNL A   1      46.900  27.318  34.419  1.00  0.00     0.041 A 
ATOM     93  F   UNL A   1      46.102  29.171  33.232  1.00  0.00    -0.206 F 
ATOM     94  C   UNL A   1      46.663  26.169  35.166  1.00  0.00     0.022 A 
BRANCH  91  95
ATOM     95  S   UNL A   1      44.997  24.354  36.472  1.00  0.00     0.124 S 
ATOM     96  O   UNL A   1      46.338  23.951  36.885  1.00  0.00    -0.237 OA
ATOM     97  O   UNL A   1      44.175  24.982  37.502  1.00  0.00    -0.237 OA
ATOM     98  O   UNL A   1      44.297  23.395  35.620  1.00  0.00    -0.744 OA
ENDBRANCH  91  95
ENDBRANCH  65  88
ENDBRANCH  39  40
ENDBRANCH  31  34
ENDBRANCH  29  30
ENDBRANCH  28  29
ENDBRANCH   1  28
TORSDOF 18
ENDMDL
MODEL 2
REMARK VINA RESULT:     -13.0      1.181      2.266
REMARK SMILES Cc1c(Cl)cccc1NC(=O)C[C@](C)(C(=O)NCCCCNC(=O)c1ccc(-c2c3nc(c(-c4cc(S(=O)(=O)[O-])ccc4F)c4ccc([nH]4)c(-c4cc(S(=O)(=O)[O-])ccc4F)c4nc(c(-c5cc(S(=O)(=O)[O-])ccc5F)c5ccc2[nH]5)C=C4)C=C3)cc1)c1ccccc1
REMARK SMILES IDX 19 1 18 2 17 3 15 4 16 5 13 7 14 8 12 9 10 10 9 11 11 13
REMARK SMILES IDX 8 14 1 15 2 16 3 17 4 18 5 19 7 20 6 21 88 22 89 23 93 24
REMARK SMILES IDX 90 25 92 26 91 27 20 28 21 29 22 30 23 31 24 33 25 34 26 35
REMARK SMILES IDX 87 36 27 37 86 38 28 39 29 40 30 41 80 42 31 43 85 44 79 45
REMARK SMILES IDX 81 46 32 47 84 48 78 49 77 50 33 52 65 53 45 54 64 55 46 56
REMARK SMILES IDX 49 57 63 58 82 59 47 60 48 61 62 63 83 64 50 65 34 66 35 67
REMARK SMILES IDX 43 68 36 69 42 70 44 71 41 72 37 73 38 74 39 75 40 76 66 77
REMARK SMILES IDX 67 78 75 79 68 80 74 81 76 82 73 83 69 84 70 85 71 86 72 87
REMARK SMILES IDX 51 88 52 89 60 90 53 91 59 92 61 93 58 94 54 95 55 96 56 97
REMARK SMILES IDX 57 98
REMARK H PARENT 17 6 9 12 22 32 81 51 49 62
REMARK Flexibility Score: inf
ROOT
ATOM      1  C   UNL A   1      33.570  30.139  27.667  1.00  0.00     0.023 C 
ENDROOT
BRANCH   1   2
ATOM      2  C   UNL A   1      32.739  28.691  27.225  1.00  0.00     0.116 C 
BRANCH   2   3
ATOM      3  N   UNL A   1      31.594  28.194  25.547  1.00  0.00    -0.355 N 
ATOM      4  C   UNL A   1      31.134  27.301  24.521  1.00  0.00     0.230 C 
ATOM      5  O   UNL A   1      30.255  27.875  23.849  1.00  0.00    -0.274 OA
ATOM      6  H   UNL A   1      31.102  29.025  25.358  1.00  0.00     0.163 HD
BRANCH   4   7
ATOM      7  C   UNL A   1      31.616  25.810  24.098  1.00  0.00     0.080 C 
ATOM      8  C   UNL A   1      30.400  25.135  23.356  1.00  0.00     0.027 C 
BRANCH   7   9
ATOM      9  C   UNL A   1      32.960  25.710  23.291  1.00  0.00     0.121 C 
BRANCH   9  10
ATOM     10  C   UNL A   1      32.988  24.970  21.966  1.00  0.00     0.225 C 
ATOM     11  N   UNL A   1      33.424  23.681  21.892  1.00  0.00    -0.326 N 
ATOM     12  H   UNL A   1      33.741  23.347  21.022  1.00  0.00     0.169 HD
ATOM     13  O   UNL A   1      32.661  25.536  20.920  1.00  0.00    -0.275 OA
BRANCH  11  14
ATOM     14  C   UNL A   1      33.449  22.809  22.979  1.00  0.00     0.045 A 
ATOM     15  C   UNL A   1      36.080  23.691  23.752  1.00  0.00     0.048 C 
ATOM     16  C   UNL A   1      35.098  22.556  23.684  1.00  0.00    -0.009 A 
ATOM     17  C   UNL A   1      35.439  21.057  24.627  1.00  0.00     0.046 A 
ATOM     18  Cl  UNL A   1      36.960  20.830  25.393  1.00  0.00    -0.084 Cl
ATOM     19  C   UNL A   1      34.195  19.764  24.771  1.00  0.00     0.021 A 
ATOM     20  C   UNL A   1      32.128  21.563  23.230  1.00  0.00     0.026 A 
ATOM     21  C   UNL A   1      32.528  20.019  24.100  1.00  0.00     0.004 A 
ENDBRANCH  11  14
ENDBRANCH   9  10
ENDBRANCH   7   9
BRANCH   7  22
ATOM     22  C   UNL A   1      31.837  24.780  25.284  1.00  0.00    -0.032 A 
ATOM     23  C   UNL A   1      33.142  24.689  25.854  1.00  0.00     0.005 A 
ATOM     24  C   UNL A   1      30.864  23.935  25.819  1.00  0.00     0.005 A 
ATOM     25  C   UNL A   1      33.490  23.717  26.788  1.00  0.00     0.000 A 
ATOM     26  C   UNL A   1      31.209  22.965  26.775  1.00  0.00     0.000 A 
ATOM     27  C   UNL A   1      32.520  22.838  27.237  1.00  0.00     0.000 A 
ENDBRANCH   7  22
ENDBRANCH   4   7
ENDBRANCH   2   3
ENDBRANCH   1   2
BRANCH   1  28
ATOM     28  C   UNL A   1      32.876  31.436  27.251  1.00  0.00     0.023 C 
BRANCH  28  29
ATOM     29  C   UNL A   1      33.772  32.655  27.245  1.00  0.00     0.116 C 
BRANCH  29  30
ATOM     30  N   UNL A   1      33.104  33.822  27.802  1.00  0.00    -0.352 N 
ATOM     31  C   UNL A   1      33.354  34.349  29.048  1.00  0.00     0.251 C 
ATOM     32  H   UNL A   1      32.425  34.268  27.246  1.00  0.00     0.163 HD
ATOM     33  O   UNL A   1      32.629  35.188  29.559  1.00  0.00    -0.269 OA
BRANCH  31  34
ATOM     34  C   UNL A   1      34.545  33.808  29.722  1.00  0.00     0.039 A 
ATOM     35  C   UNL A   1      34.403  32.699  30.554  1.00  0.00     0.014 A 
ATOM     36  C   UNL A   1      35.798  34.224  29.256  1.00  0.00     0.014 A 
ATOM     37  C   UNL A   1      35.546  32.000  30.930  1.00  0.00     0.010 A 
ATOM     38  C   UNL A   1      36.914  33.454  29.542  1.00  0.00     0.010 A 
ATOM     39  C   UNL A   1      36.807  32.364  30.420  1.00  0.00    -0.014 A 
BRANCH  39  40
ATOM     40  C   UNL A   1      38.033  31.677  30.892  1.00  0.00     0.031 A 
ATOM     41  C   UNL A   1      38.544  31.985  32.275  1.00  0.00     0.074 A 
ATOM     42  C   UNL A   1      38.656  30.773  30.112  1.00  0.00     0.049 A 
ATOM     43  N   UNL A   1      39.567  31.476  32.910  1.00  0.00    -0.248 NA
ATOM     44  C   UNL A   1      37.825  33.021  33.036  1.00  0.00     0.031 C 
ATOM     45  C   UNL A   1      38.264  30.420  28.745  1.00  0.00     0.029 A 
ATOM     46  N   UNL A   1      39.738  29.968  30.365  1.00  0.00    -0.354 N 
ATOM     47  C   UNL A   1      39.608  32.130  34.137  1.00  0.00     0.074 A 
ATOM     48  C   UNL A   1      38.573  33.137  34.119  1.00  0.00     0.031 C 
ATOM     49  C   UNL A   1      39.057  29.429  28.305  1.00  0.00     0.029 A 
ATOM     50  C   UNL A   1      40.046  29.112  29.331  1.00  0.00     0.049 A 
ATOM     51  H   UNL A   1      40.247  30.000  31.206  1.00  0.00     0.167 HD
ATOM     52  C   UNL A   1      40.407  31.885  35.202  1.00  0.00     0.034 A 
ATOM     53  C   UNL A   1      41.017  28.183  29.229  1.00  0.00     0.034 A 
ATOM     54  C   UNL A   1      41.427  30.871  35.205  1.00  0.00     0.049 A 
ATOM     55  C   UNL A   1      41.942  27.974  30.405  1.00  0.00     0.074 A 
ATOM     56  C   UNL A   1      42.279  30.514  36.234  1.00  0.00     0.029 A 
ATOM     57  N   UNL A   1      41.744  30.060  34.123  1.00  0.00    -0.354 N 
ATOM     58  N   UNL A   1      41.935  28.568  31.578  1.00  0.00    -0.248 NA
ATOM     59  C   UNL A   1      42.997  26.966  30.249  1.00  0.00     0.031 C 
ATOM     60  C   UNL A   1      43.168  29.553  35.746  1.00  0.00     0.029 A 
ATOM     61  C   UNL A   1      42.806  29.233  34.447  1.00  0.00     0.049 A 
ATOM     62  H   UNL A   1      41.281  30.072  33.254  1.00  0.00     0.167 HD
ATOM     63  C   UNL A   1      42.963  27.976  32.308  1.00  0.00     0.074 A 
ATOM     64  C   UNL A   1      43.551  26.969  31.451  1.00  0.00     0.031 C 
ATOM     65  C   UNL A   1      43.383  28.238  33.573  1.00  0.00     0.034 A 
BRANCH  52  66
ATOM     66  C   UNL A   1      40.217  32.748  36.425  1.00  0.00     0.023 A 
ATOM     67  C   UNL A   1      39.357  32.370  37.472  1.00  0.00     0.031 A 
ATOM     68  C   UNL A   1      40.880  33.983  36.533  1.00  0.00     0.131 A 
ATOM     69  C   UNL A   1      39.121  33.250  38.538  1.00  0.00     0.055 A 
ATOM     70  C   UNL A   1      40.713  34.812  37.643  1.00  0.00     0.041 A 
ATOM     71  F   UNL A   1      41.688  34.413  35.550  1.00  0.00    -0.206 F 
ATOM     72  C   UNL A   1      39.818  34.455  38.647  1.00  0.00     0.022 A 
BRANCH  69  73
ATOM     73  S   UNL A   1      37.773  32.873  39.691  1.00  0.00     0.124 S 
ATOM     74  O   UNL A   1      36.640  32.722  38.778  1.00  0.00    -0.237 OA
ATOM     75  O   UNL A   1      38.240  31.652  40.335  1.00  0.00    -0.237 OA
ATOM     76  O   UNL A   1      37.717  34.054  40.550  1.00  0.00    -0.744 OA
ENDBRANCH  69  73
ENDBRANCH  52  66
BRANCH  53  77
ATOM     77  C   UNL A   1      41.187  27.388  27.976  1.00  0.00     0.023 A 
ATOM     78  C   UNL A   1      40.850  26.025  27.926  1.00  0.00     0.031 A 
ATOM     79  C   UNL A   1      41.754  27.964  26.824  1.00  0.00     0.131 A 
ATOM     80  C   UNL A   1      41.141  25.273  26.776  1.00  0.00     0.055 A 
ATOM     81  C   UNL A   1      41.976  27.228  25.659  1.00  0.00     0.041 A 
ATOM     82  F   UNL A   1      42.101  29.261  26.814  1.00  0.00    -0.206 F 
ATOM     83  C   UNL A   1      41.683  25.868  25.636  1.00  0.00     0.022 A 
BRANCH  80  84
ATOM     84  S   UNL A   1      40.913  23.473  26.835  1.00  0.00     0.124 S 
ATOM     85  O   UNL A   1      39.498  23.343  26.507  1.00  0.00    -0.237 OA
ATOM     86  O   UNL A   1      41.853  23.016  25.817  1.00  0.00    -0.237 OA
ATOM     87  O   UNL A   1      41.270  23.131  28.210  1.00  0.00    -0.744 OA
ENDBRANCH  80  84
ENDBRANCH  53  77
BRANCH  65  88
ATOM     88  C   UNL A   1      44.501  27.384  34.121  1.00  0.00     0.023 A 
ATOM     89  C   UNL A   1      44.249  26.237  34.892  1.00  0.00     0.031 A 
ATOM     90  C   UNL A   1      45.842  27.725  33.863  1.00  0.00     0.131 A 
ATOM     91  C   UNL A   1      45.320  25.511  35.434  1.00  0.00     0.055 A 
ATOM     92  C   UNL A   1      46.901  26.953  34.337  1.00  0.00     0.041 A 
ATOM     93  F   UNL A   1      46.143  28.814  33.137  1.00  0.00    -0.206 F 
ATOM     94  C   UNL A   1      46.643  25.848  35.142  1.00  0.00     0.022 A 
BRANCH  91  95
ATOM     95  S   UNL A   1      44.959  24.191  36.623  1.00  0.00     0.124 S 
ATOM     96  O   UNL A   1      43.970  24.826  37.489  1.00  0.00    -0.237 OA
ATOM     97  O   UNL A   1      44.460  23.122  35.763  1.00  0.00    -0.237 OA
ATOM     98  O   UNL A   1      46.254  23.930  37.248  1.00  0.00    -0.744 OA
ENDBRANCH  91  95
ENDBRANCH  65  88
ENDBRANCH  39  40
ENDBRANCH  31  34
ENDBRANCH  29  30
ENDBRANCH  28  29
ENDBRANCH   1  28
TORSDOF 18
ENDMDL
MODEL 3
REMARK VINA RESULT:     -12.9      6.020      9.401
REMARK SMILES Cc1c(Cl)cccc1NC(=O)C[C@](C)(C(=O)NCCCCNC(=O)c1ccc(-c2c3nc(c(-c4cc(S(=O)(=O)[O-])ccc4F)c4ccc([nH]4)c(-c4cc(S(=O)(=O)[O-])ccc4F)c4nc(c(-c5cc(S(=O)(=O)[O-])ccc5F)c5ccc2[nH]5)C=C4)C=C3)cc1)c1ccccc1
REMARK SMILES IDX 19 1 18 2 17 3 15 4 16 5 13 7 14 8 12 9 10 10 9 11 11 13
REMARK SMILES IDX 8 14 1 15 2 16 3 17 4 18 5 19 7 20 6 21 88 22 89 23 93 24
REMARK SMILES IDX 90 25 92 26 91 27 20 28 21 29 22 30 23 31 24 33 25 34 26 35
REMARK SMILES IDX 87 36 27 37 86 38 28 39 29 40 30 41 80 42 31 43 85 44 79 45
REMARK SMILES IDX 81 46 32 47 84 48 78 49 77 50 33 52 65 53 45 54 64 55 46 56
REMARK SMILES IDX 49 57 63 58 82 59 47 60 48 61 62 63 83 64 50 65 34 66 35 67
REMARK SMILES IDX 43 68 36 69 42 70 44 71 41 72 37 73 38 74 39 75 40 76 66 77
REMARK SMILES IDX 67 78 75 79 68 80 74 81 76 82 73 83 69 84 70 85 71 86 72 87
REMARK SMILES IDX 51 88 52 89 60 90 53 91 59 92 61 93 58 94 54 95 55 96 56 97
REMARK SMILES IDX 57 98
REMARK H PARENT 17 6 9 12 22 32 81 51 49 62
REMARK Flexibility Score: inf
ROOT
ATOM      1  C   UNL A   1      38.971  23.141  26.271  1.00  0.00     0.023 C 
ENDROOT
BRANCH   1   2
ATOM      2  C   UNL A   1      37.395  23.630  25.761  1.00  0.00     0.116 C 
BRANCH   2   3
ATOM      3  N   UNL A   1      35.670  22.535  25.311  1.00  0.00    -0.355 N 
ATOM      4  C   UNL A   1      34.278  22.402  24.984  1.00  0.00     0.230 C 
ATOM      5  O   UNL A   1      34.022  21.199  24.786  1.00  0.00    -0.274 OA
ATOM      6  H   UNL A   1      35.984  21.602  25.337  1.00  0.00     0.163 HD
BRANCH   4   7
ATOM      7  C   UNL A   1      33.079  23.494  24.923  1.00  0.00     0.080 C 
ATOM      8  C   UNL A   1      31.848  22.777  24.251  1.00  0.00     0.027 C 
BRANCH   7   9
ATOM      9  C   UNL A   1      32.712  24.207  26.274  1.00  0.00     0.121 C 
BRANCH   9  10
ATOM     10  C   UNL A   1      31.270  24.229  26.744  1.00  0.00     0.225 C 
ATOM     11  N   UNL A   1      30.484  25.326  26.547  1.00  0.00    -0.326 N 
ATOM     12  H   UNL A   1      29.699  25.445  27.129  1.00  0.00     0.169 HD
ATOM     13  O   UNL A   1      30.791  23.272  27.359  1.00  0.00    -0.275 OA
BRANCH  11  14
ATOM     14  C   UNL A   1      30.730  26.287  25.569  1.00  0.00     0.045 A 
ATOM     15  C   UNL A   1      32.383  27.826  27.357  1.00  0.00     0.048 C 
ATOM     16  C   UNL A   1      31.409  27.838  26.213  1.00  0.00    -0.009 A 
ATOM     17  C   UNL A   1      31.206  29.358  25.264  1.00  0.00     0.046 A 
ATOM     18  Cl  UNL A   1      31.923  30.826  25.795  1.00  0.00    -0.084 Cl
ATOM     19  C   UNL A   1      30.236  29.366  23.747  1.00  0.00     0.021 A 
ATOM     20  C   UNL A   1      29.855  26.252  23.959  1.00  0.00     0.026 A 
ATOM     21  C   UNL A   1      29.580  27.814  23.072  1.00  0.00     0.004 A 
ENDBRANCH  11  14
ENDBRANCH   9  10
ENDBRANCH   7   9
BRANCH   7  22
ATOM     22  C   UNL A   1      33.285  24.710  23.925  1.00  0.00    -0.032 A 
ATOM     23  C   UNL A   1      33.885  25.899  24.437  1.00  0.00     0.005 A 
ATOM     24  C   UNL A   1      32.918  24.728  22.579  1.00  0.00     0.005 A 
ATOM     25  C   UNL A   1      33.973  27.076  23.699  1.00  0.00     0.000 A 
ATOM     26  C   UNL A   1      33.023  25.909  21.827  1.00  0.00     0.000 A 
ATOM     27  C   UNL A   1      33.521  27.084  22.390  1.00  0.00     0.000 A 
ENDBRANCH   7  22
ENDBRANCH   4   7
ENDBRANCH   2   3
ENDBRANCH   1   2
BRANCH   1  28
ATOM     28  C   UNL A   1      39.123  21.648  26.563  1.00  0.00     0.023 C 
BRANCH  28  29
ATOM     29  C   UNL A   1      39.885  20.876  25.509  1.00  0.00     0.116 C 
BRANCH  29  30
ATOM     30  N   UNL A   1      40.495  19.671  26.054  1.00  0.00    -0.352 N 
ATOM     31  C   UNL A   1      41.799  19.577  26.480  1.00  0.00     0.251 C 
ATOM     32  H   UNL A   1      39.933  18.867  26.122  1.00  0.00     0.163 HD
ATOM     33  O   UNL A   1      42.330  18.505  26.724  1.00  0.00    -0.269 OA
BRANCH  31  34
ATOM     34  C   UNL A   1      42.509  20.860  26.594  1.00  0.00     0.039 A 
ATOM     35  C   UNL A   1      42.759  21.599  25.439  1.00  0.00     0.014 A 
ATOM     36  C   UNL A   1      42.617  21.429  27.870  1.00  0.00     0.014 A 
ATOM     37  C   UNL A   1      43.132  22.933  25.570  1.00  0.00     0.010 A 
ATOM     38  C   UNL A   1      42.875  22.786  27.984  1.00  0.00     0.010 A 
ATOM     39  C   UNL A   1      43.182  23.539  26.840  1.00  0.00    -0.014 A 
BRANCH  39  40
ATOM     40  C   UNL A   1      43.668  24.932  26.986  1.00  0.00     0.031 A 
ATOM     41  C   UNL A   1      42.735  25.963  27.567  1.00  0.00     0.074 A 
ATOM     42  C   UNL A   1      44.926  25.260  26.637  1.00  0.00     0.049 A 
ATOM     43  N   UNL A   1      42.956  27.225  27.826  1.00  0.00    -0.248 NA
ATOM     44  C   UNL A   1      41.364  25.522  27.875  1.00  0.00     0.031 C 
ATOM     45  C   UNL A   1      45.905  24.349  26.038  1.00  0.00     0.029 A 
ATOM     46  N   UNL A   1      45.608  26.445  26.757  1.00  0.00    -0.354 N 
ATOM     47  C   UNL A   1      41.756  27.720  28.323  1.00  0.00     0.074 A 
ATOM     48  C   UNL A   1      40.786  26.654  28.239  1.00  0.00     0.031 C 
ATOM     49  C   UNL A   1      47.075  24.993  25.899  1.00  0.00     0.029 A 
ATOM     50  C   UNL A   1      46.920  26.374  26.346  1.00  0.00     0.049 A 
ATOM     51  H   UNL A   1      45.198  27.269  27.104  1.00  0.00     0.167 HD
ATOM     52  C   UNL A   1      41.494  28.941  28.846  1.00  0.00     0.034 A 
ATOM     53  C   UNL A   1      47.882  27.318  26.332  1.00  0.00     0.034 A 
ATOM     54  C   UNL A   1      42.476  29.989  28.929  1.00  0.00     0.049 A 
ATOM     55  C   UNL A   1      47.547  28.695  26.857  1.00  0.00     0.074 A 
ATOM     56  C   UNL A   1      42.333  31.258  29.462  1.00  0.00     0.029 A 
ATOM     57  N   UNL A   1      43.778  29.897  28.456  1.00  0.00    -0.354 N 
ATOM     58  N   UNL A   1      46.419  29.133  27.370  1.00  0.00    -0.248 NA
ATOM     59  C   UNL A   1      48.615  29.701  26.809  1.00  0.00     0.031 C 
ATOM     60  C   UNL A   1      43.519  31.960  29.230  1.00  0.00     0.029 A 
ATOM     61  C   UNL A   1      44.437  31.100  28.647  1.00  0.00     0.049 A 
ATOM     62  H   UNL A   1      44.174  29.095  28.045  1.00  0.00     0.167 HD
ATOM     63  C   UNL A   1      46.658  30.455  27.739  1.00  0.00     0.074 A 
ATOM     64  C   UNL A   1      48.040  30.732  27.406  1.00  0.00     0.031 C 
ATOM     65  C   UNL A   1      45.815  31.359  28.302  1.00  0.00     0.034 A 
BRANCH  52  66
ATOM     66  C   UNL A   1      40.090  29.202  29.334  1.00  0.00     0.023 A 
ATOM     67  C   UNL A   1      39.756  29.132  30.698  1.00  0.00     0.031 A 
ATOM     68  C   UNL A   1      39.062  29.490  28.419  1.00  0.00     0.131 A 
ATOM     69  C   UNL A   1      38.418  29.269  31.099  1.00  0.00     0.055 A 
ATOM     70  C   UNL A   1      37.750  29.719  28.835  1.00  0.00     0.041 A 
ATOM     71  F   UNL A   1      39.314  29.537  27.101  1.00  0.00    -0.206 F 
ATOM     72  C   UNL A   1      37.419  29.594  30.181  1.00  0.00     0.022 A 
BRANCH  69  73
ATOM     73  S   UNL A   1      37.981  28.854  32.810  1.00  0.00     0.124 S 
ATOM     74  O   UNL A   1      36.602  29.333  32.886  1.00  0.00    -0.237 OA
ATOM     75  O   UNL A   1      38.157  27.407  32.839  1.00  0.00    -0.237 OA
ATOM     76  O   UNL A   1      38.943  29.618  33.604  1.00  0.00    -0.744 OA
ENDBRANCH  69  73
ENDBRANCH  52  66
BRANCH  53  77
ATOM     77  C   UNL A   1      49.243  27.018  25.796  1.00  0.00     0.023 A 
ATOM     78  C   UNL A   1      50.303  26.669  26.650  1.00  0.00     0.031 A 
ATOM     79  C   UNL A   1      49.523  27.140  24.423  1.00  0.00     0.131 A 
ATOM     80  C   UNL A   1      51.599  26.518  26.132  1.00  0.00     0.055 A 
ATOM     81  C   UNL A   1      50.800  26.920  23.904  1.00  0.00     0.041 A 
ATOM     82  F   UNL A   1      48.552  27.476  23.558  1.00  0.00    -0.206 F 
ATOM     83  C   UNL A   1      51.852  26.623  24.764  1.00  0.00     0.022 A 
BRANCH  80  84
ATOM     84  S   UNL A   1      52.978  26.305  27.294  1.00  0.00     0.124 S 
ATOM     85  O   UNL A   1      53.626  27.610  27.226  1.00  0.00    -0.237 OA
ATOM     86  O   UNL A   1      52.281  25.997  28.538  1.00  0.00    -0.237 OA
ATOM     87  O   UNL A   1      53.739  25.199  26.717  1.00  0.00    -0.744 OA
ENDBRANCH  80  84
ENDBRANCH  53  77
BRANCH  65  88
ATOM     88  C   UNL A   1      46.383  32.716  28.641  1.00  0.00     0.023 A 
ATOM     89  C   UNL A   1      46.386  33.772  27.715  1.00  0.00     0.031 A 
ATOM     90  C   UNL A   1      46.928  32.954  29.917  1.00  0.00     0.131 A 
ATOM     91  C   UNL A   1      46.983  34.995  28.053  1.00  0.00     0.055 A 
ATOM     92  C   UNL A   1      47.447  34.198  30.274  1.00  0.00     0.041 A 
ATOM     93  F   UNL A   1      46.957  31.981  30.841  1.00  0.00    -0.206 F 
ATOM     94  C   UNL A   1      47.491  35.222  29.334  1.00  0.00     0.022 A 
BRANCH  91  95
ATOM     95  S   UNL A   1      47.192  36.245  26.758  1.00  0.00     0.124 S 
ATOM     96  O   UNL A   1      45.904  36.932  26.789  1.00  0.00    -0.237 OA
ATOM     97  O   UNL A   1      48.334  37.013  27.245  1.00  0.00    -0.237 OA
ATOM     98  O   UNL A   1      47.444  35.454  25.555  1.00  0.00    -0.744 OA
ENDBRANCH  91  95
ENDBRANCH  65  88
ENDBRANCH  39  40
ENDBRANCH  31  34
ENDBRANCH  29  30
ENDBRANCH  28  29
ENDBRANCH   1  28
TORSDOF 18
ENDMDL
