MODEL 1
REMARK VINA RESULT:     -14.1      0.000      0.000
REMARK SMILES O=C(NCCCCNC(=O)c1nccnc1C(=O)Nc1n[nH]c2ncccc12)c1ccc(-c2c3nc(c(-c4cc(S(=O)(=O)[O-])ccc4F)c4ccc([nH]4)c(-c4cc(S(=O)(=O)[O-])ccc4F)c4nc(c(-c5cc(S(=O)(=O)[O-])ccc5F)c5ccc2[nH]5)C=C4)C=C3)cc1
REMARK SMILES IDX 5 1 4 2 3 3 1 4 2 5 29 7 30 8 91 9 31 10 90 11 32 12 33 13
REMARK SMILES IDX 34 14 84 15 35 16 89 17 83 18 85 19 36 20 88 21 82 22 81 23
REMARK SMILES IDX 37 25 69 26 49 27 68 28 50 29 53 30 67 31 86 32 51 33 52 34
REMARK SMILES IDX 66 36 87 37 54 38 38 39 39 40 47 41 40 42 46 43 48 44 45 45
REMARK SMILES IDX 41 46 42 47 43 48 44 49 70 50 71 51 79 52 72 53 78 54 80 55
REMARK SMILES IDX 77 56 73 57 74 58 75 59 76 60 55 61 56 62 64 63 57 64 63 65
REMARK SMILES IDX 65 66 62 67 58 68 59 69 60 70 61 71 6 72 7 73 8 74 9 75
REMARK SMILES IDX 10 77 11 78 12 79 16 80 13 81 15 82 14 83 17 84 18 85 19 86
REMARK SMILES IDX 20 88 21 89 28 90 22 91 23 92 27 93 24 95 26 96 25 97
REMARK H PARENT 3 6 85 24 53 35 8 76 19 87 22 94
REMARK Flexibility Score: inf
ROOT
ATOM      1  C   UNL A   1      36.848  22.423  23.641  1.00  0.00     0.023 C 
ENDROOT
BRANCH   1   2
ATOM      2  C   UNL A   1      37.337  22.123  25.051  1.00  0.00     0.116 C 
BRANCH   2   3
ATOM      3  N   UNL A   1      38.283  21.023  25.204  1.00  0.00    -0.352 N 
ATOM      4  O   UNL A   1      39.997  19.961  26.257  1.00  0.00    -0.269 OA
ATOM      5  C   UNL A   1      39.337  20.980  26.093  1.00  0.00     0.251 C 
ATOM      6  H   UNL A   1      38.159  20.242  24.618  1.00  0.00     0.163 HD
BRANCH   5   7
ATOM      7  C   UNL A   1      39.707  22.254  26.740  1.00  0.00     0.039 A 
ATOM      8  C   UNL A   1      39.224  23.459  26.231  1.00  0.00     0.014 A 
ATOM      9  C   UNL A   1      40.752  22.227  27.665  1.00  0.00     0.014 A 
ATOM     10  C   UNL A   1      39.930  24.623  26.489  1.00  0.00     0.010 A 
ATOM     11  C   UNL A   1      41.364  23.423  28.034  1.00  0.00     0.010 A 
ATOM     12  C   UNL A   1      40.983  24.626  27.419  1.00  0.00    -0.014 A 
BRANCH  12  13
ATOM     13  C   UNL A   1      41.604  25.913  27.817  1.00  0.00     0.031 A 
ATOM     14  C   UNL A   1      40.837  26.958  28.572  1.00  0.00     0.074 A 
ATOM     15  C   UNL A   1      42.879  26.131  27.444  1.00  0.00     0.049 A 
ATOM     16  N   UNL A   1      41.201  28.174  28.888  1.00  0.00    -0.248 NA
ATOM     17  C   UNL A   1      39.481  26.603  29.014  1.00  0.00     0.031 C 
ATOM     18  C   UNL A   1      43.710  25.175  26.702  1.00  0.00     0.029 A 
ATOM     19  N   UNL A   1      43.699  27.212  27.621  1.00  0.00    -0.354 N 
ATOM     20  C   UNL A   1      40.114  28.744  29.541  1.00  0.00     0.074 A 
ATOM     21  C   UNL A   1      39.065  27.744  29.545  1.00  0.00     0.031 C 
ATOM     22  C   UNL A   1      44.927  25.697  26.521  1.00  0.00     0.029 A 
ATOM     23  C   UNL A   1      44.928  27.062  27.022  1.00  0.00     0.049 A 
ATOM     24  H   UNL A   1      43.437  28.015  28.127  1.00  0.00     0.167 HD
ATOM     25  C   UNL A   1      40.011  29.987  30.078  1.00  0.00     0.034 A 
ATOM     26  C   UNL A   1      45.926  27.942  26.829  1.00  0.00     0.034 A 
ATOM     27  C   UNL A   1      41.078  30.961  30.037  1.00  0.00     0.049 A 
ATOM     28  C   UNL A   1      45.761  29.334  27.362  1.00  0.00     0.074 A 
ATOM     29  C   UNL A   1      41.104  32.234  30.581  1.00  0.00     0.029 A 
ATOM     30  N   UNL A   1      42.298  30.785  29.392  1.00  0.00    -0.354 N 
ATOM     31  N   UNL A   1      44.735  29.854  27.996  1.00  0.00    -0.248 NA
ATOM     32  C   UNL A   1      46.883  30.255  27.159  1.00  0.00     0.031 C 
ATOM     33  C   UNL A   1      42.287  32.860  30.175  1.00  0.00     0.029 A 
ATOM     34  C   UNL A   1      43.058  31.942  29.478  1.00  0.00     0.049 A 
ATOM     35  H   UNL A   1      42.581  29.958  28.938  1.00  0.00     0.167 HD
ATOM     36  C   UNL A   1      45.099  31.162  28.292  1.00  0.00     0.074 A 
ATOM     37  C   UNL A   1      46.443  31.344  27.775  1.00  0.00     0.031 C 
ATOM     38  C   UNL A   1      44.391  32.119  28.944  1.00  0.00     0.034 A 
BRANCH  25  39
ATOM     39  C   UNL A   1      38.684  30.381  30.689  1.00  0.00     0.023 A 
ATOM     40  C   UNL A   1      37.689  31.040  29.947  1.00  0.00     0.031 A 
ATOM     41  C   UNL A   1      38.425  30.133  32.050  1.00  0.00     0.131 A 
ATOM     42  C   UNL A   1      36.534  31.516  30.589  1.00  0.00     0.055 A 
ATOM     43  C   UNL A   1      37.228  30.518  32.659  1.00  0.00     0.041 A 
ATOM     44  F   UNL A   1      39.341  29.528  32.823  1.00  0.00    -0.206 F 
ATOM     45  C   UNL A   1      36.283  31.235  31.933  1.00  0.00     0.022 A 
BRANCH  42  46
ATOM     46  S   UNL A   1      35.471  32.683  29.692  1.00  0.00     0.124 S 
ATOM     47  O   UNL A   1      36.316  33.875  29.645  1.00  0.00    -0.237 OA
ATOM     48  O   UNL A   1      35.257  32.001  28.421  1.00  0.00    -0.237 OA
ATOM     49  O   UNL A   1      34.293  32.800  30.548  1.00  0.00    -0.744 OA
ENDBRANCH  42  46
ENDBRANCH  25  39
BRANCH  26  50
ATOM     50  C   UNL A   1      47.118  27.533  26.036  1.00  0.00     0.023 A 
ATOM     51  C   UNL A   1      47.222  27.833  24.672  1.00  0.00     0.031 A 
ATOM     52  C   UNL A   1      48.186  26.850  26.649  1.00  0.00     0.131 A 
ATOM     53  C   UNL A   1      48.358  27.424  23.957  1.00  0.00     0.055 A 
ATOM     54  C   UNL A   1      49.341  26.507  25.950  1.00  0.00     0.041 A 
ATOM     55  F   UNL A   1      48.138  26.546  27.957  1.00  0.00    -0.206 F 
ATOM     56  C   UNL A   1      49.427  26.783  24.591  1.00  0.00     0.022 A 
BRANCH  53  57
ATOM     57  S   UNL A   1      48.381  27.662  22.162  1.00  0.00     0.124 S 
ATOM     58  O   UNL A   1      48.595  26.301  21.686  1.00  0.00    -0.237 OA
ATOM     59  O   UNL A   1      47.059  28.228  21.913  1.00  0.00    -0.237 OA
ATOM     60  O   UNL A   1      49.500  28.580  21.956  1.00  0.00    -0.744 OA
ENDBRANCH  53  57
ENDBRANCH  26  50
BRANCH  38  61
ATOM     61  C   UNL A   1      45.081  33.439  29.188  1.00  0.00     0.023 A 
ATOM     62  C   UNL A   1      45.050  34.484  28.249  1.00  0.00     0.031 A 
ATOM     63  C   UNL A   1      45.771  33.653  30.395  1.00  0.00     0.131 A 
ATOM     64  C   UNL A   1      45.735  35.679  28.514  1.00  0.00     0.055 A 
ATOM     65  C   UNL A   1      46.386  34.871  30.685  1.00  0.00     0.041 A 
ATOM     66  F   UNL A   1      45.846  32.684  31.322  1.00  0.00    -0.206 F 
ATOM     67  C   UNL A   1      46.379  35.888  29.737  1.00  0.00     0.022 A 
BRANCH  64  68
ATOM     68  S   UNL A   1      45.859  36.924  27.201  1.00  0.00     0.124 S 
ATOM     69  O   UNL A   1      46.346  36.128  26.079  1.00  0.00    -0.237 OA
ATOM     70  O   UNL A   1      44.486  37.404  27.095  1.00  0.00    -0.237 OA
ATOM     71  O   UNL A   1      46.816  37.891  27.737  1.00  0.00    -0.744 OA
ENDBRANCH  64  68
ENDBRANCH  38  61
ENDBRANCH  12  13
ENDBRANCH   5   7
ENDBRANCH   2   3
ENDBRANCH   1   2
BRANCH   1  72
ATOM     72  C   UNL A   1      35.349  23.204  23.347  1.00  0.00     0.023 C 
BRANCH  72  73
ATOM     73  C   UNL A   1      33.307  22.496  22.933  1.00  0.00     0.116 C 
BRANCH  73  74
ATOM     74  N   UNL A   1      32.496  21.182  23.400  1.00  0.00    -0.351 N 
ATOM     75  C   UNL A   1      32.345  20.645  24.665  1.00  0.00     0.272 C 
ATOM     76  H   UNL A   1      32.043  20.689  22.678  1.00  0.00     0.163 HD
ATOM     77  O   UNL A   1      31.832  19.551  24.858  1.00  0.00    -0.267 OA
BRANCH  75  78
ATOM     78  C   UNL A   1      32.787  21.486  25.788  1.00  0.00     0.159 A 
ATOM     79  N   UNL A   1      34.090  21.227  26.150  1.00  0.00    -0.247 NA
ATOM     80  C   UNL A   1      31.948  22.321  26.516  1.00  0.00     0.159 A 
ATOM     81  C   UNL A   1      34.526  21.836  27.264  1.00  0.00     0.132 A 
ATOM     82  N   UNL A   1      32.423  22.927  27.655  1.00  0.00    -0.247 NA
ATOM     83  C   UNL A   1      33.708  22.666  28.002  1.00  0.00     0.132 A 
BRANCH  80  84
ATOM     84  C   UNL A   1      30.548  22.719  26.159  1.00  0.00     0.277 C 
ATOM     85  O   UNL A   1      29.627  22.081  26.682  1.00  0.00    -0.267 OA
ATOM     86  N   UNL A   1      30.214  23.766  25.329  1.00  0.00    -0.303 N 
ATOM     87  H   UNL A   1      29.265  24.028  25.350  1.00  0.00     0.172 HD
BRANCH  86  88
ATOM     88  C   UNL A   1      30.997  24.500  24.479  1.00  0.00     0.164 A 
ATOM     89  N   UNL A   1      30.763  24.407  23.159  1.00  0.00    -0.155 NA
ATOM     90  C   UNL A   1      31.959  25.469  24.821  1.00  0.00     0.063 A 
ATOM     91  N   UNL A   1      31.252  25.518  22.532  1.00  0.00    -0.259 N 
ATOM     92  C   UNL A   1      31.994  26.346  23.328  1.00  0.00     0.157 A 
ATOM     93  C   UNL A   1      32.872  26.127  26.214  1.00  0.00     0.017 A 
ATOM     94  H   UNL A   1      31.084  25.709  21.580  1.00  0.00     0.192 HD
ATOM     95  N   UNL A   1      32.731  27.909  23.145  1.00  0.00    -0.237 NA
ATOM     96  C   UNL A   1      33.699  27.700  26.102  1.00  0.00     0.021 A 
ATOM     97  C   UNL A   1      33.636  28.531  24.558  1.00  0.00     0.113 A 
ENDBRANCH  86  88
ENDBRANCH  80  84
ENDBRANCH  75  78
ENDBRANCH  73  74
ENDBRANCH  72  73
ENDBRANCH   1  72
TORSDOF 16
ENDMDL
MODEL 2
REMARK VINA RESULT:     -14.1      5.063     10.040
REMARK SMILES O=C(NCCCCNC(=O)c1nccnc1C(=O)Nc1n[nH]c2ncccc12)c1ccc(-c2c3nc(c(-c4cc(S(=O)(=O)[O-])ccc4F)c4ccc([nH]4)c(-c4cc(S(=O)(=O)[O-])ccc4F)c4nc(c(-c5cc(S(=O)(=O)[O-])ccc5F)c5ccc2[nH]5)C=C4)C=C3)cc1
REMARK SMILES IDX 5 1 4 2 3 3 1 4 2 5 29 7 30 8 91 9 31 10 90 11 32 12 33 13
REMARK SMILES IDX 34 14 84 15 35 16 89 17 83 18 85 19 36 20 88 21 82 22 81 23
REMARK SMILES IDX 37 25 69 26 49 27 68 28 50 29 53 30 67 31 86 32 51 33 52 34
REMARK SMILES IDX 66 36 87 37 54 38 38 39 39 40 47 41 40 42 46 43 48 44 45 45
REMARK SMILES IDX 41 46 42 47 43 48 44 49 70 50 71 51 79 52 72 53 78 54 80 55
REMARK SMILES IDX 77 56 73 57 74 58 75 59 76 60 55 61 56 62 64 63 57 64 63 65
REMARK SMILES IDX 65 66 62 67 58 68 59 69 60 70 61 71 6 72 7 73 8 74 9 75
REMARK SMILES IDX 10 77 11 78 12 79 16 80 13 81 15 82 14 83 17 84 18 85 19 86
REMARK SMILES IDX 20 88 21 89 28 90 22 91 23 92 27 93 24 95 26 96 25 97
REMARK H PARENT 3 6 85 24 53 35 8 76 19 87 22 94
REMARK Flexibility Score: inf
ROOT
ATOM      1  C   UNL A   1      31.627  29.701  26.638  1.00  0.00     0.023 C 
ENDROOT
BRANCH   1   2
ATOM      2  C   UNL A   1      32.593  30.838  26.334  1.00  0.00     0.116 C 
BRANCH   2   3
ATOM      3  N   UNL A   1      32.319  32.125  26.964  1.00  0.00    -0.352 N 
ATOM      4  O   UNL A   1      32.958  34.045  28.002  1.00  0.00    -0.269 OA
ATOM      5  C   UNL A   1      33.237  32.913  27.626  1.00  0.00     0.251 C 
ATOM      6  H   UNL A   1      31.395  32.461  26.911  1.00  0.00     0.163 HD
BRANCH   5   7
ATOM      7  C   UNL A   1      34.524  32.279  27.972  1.00  0.00     0.039 A 
ATOM      8  C   UNL A   1      34.543  30.997  28.520  1.00  0.00     0.014 A 
ATOM      9  C   UNL A   1      35.657  33.093  27.998  1.00  0.00     0.014 A 
ATOM     10  C   UNL A   1      35.634  30.614  29.283  1.00  0.00     0.010 A 
ATOM     11  C   UNL A   1      36.805  32.639  28.644  1.00  0.00     0.010 A 
ATOM     12  C   UNL A   1      36.790  31.412  29.324  1.00  0.00    -0.014 A 
BRANCH  12  13
ATOM     13  C   UNL A   1      38.009  30.899  29.995  1.00  0.00     0.031 A 
ATOM     14  C   UNL A   1      38.913  29.901  29.332  1.00  0.00     0.074 A 
ATOM     15  C   UNL A   1      38.264  31.334  31.243  1.00  0.00     0.049 A 
ATOM     16  N   UNL A   1      39.946  29.272  29.830  1.00  0.00    -0.248 NA
ATOM     17  C   UNL A   1      38.609  29.547  27.938  1.00  0.00     0.031 C 
ATOM     18  C   UNL A   1      37.442  32.304  31.976  1.00  0.00     0.029 A 
ATOM     19  N   UNL A   1      39.267  31.023  32.121  1.00  0.00    -0.354 N 
ATOM     20  C   UNL A   1      40.402  28.425  28.827  1.00  0.00     0.074 A 
ATOM     21  C   UNL A   1      39.508  28.602  27.699  1.00  0.00     0.031 C 
ATOM     22  C   UNL A   1      37.992  32.534  33.172  1.00  0.00     0.029 A 
ATOM     23  C   UNL A   1      39.130  31.644  33.340  1.00  0.00     0.049 A 
ATOM     24  H   UNL A   1      40.011  30.417  31.902  1.00  0.00     0.167 HD
ATOM     25  C   UNL A   1      41.467  27.582  28.855  1.00  0.00     0.034 A 
ATOM     26  C   UNL A   1      39.796  31.471  34.495  1.00  0.00     0.034 A 
ATOM     27  C   UNL A   1      42.324  27.423  30.008  1.00  0.00     0.049 A 
ATOM     28  C   UNL A   1      40.919  30.478  34.528  1.00  0.00     0.074 A 
ATOM     29  C   UNL A   1      43.451  26.632  30.141  1.00  0.00     0.029 A 
ATOM     30  N   UNL A   1      42.134  28.045  31.238  1.00  0.00    -0.354 N 
ATOM     31  N   UNL A   1      41.354  29.698  33.565  1.00  0.00    -0.248 NA
ATOM     32  C   UNL A   1      41.641  30.341  35.796  1.00  0.00     0.031 C 
ATOM     33  C   UNL A   1      43.876  26.693  31.471  1.00  0.00     0.029 A 
ATOM     34  C   UNL A   1      43.089  27.613  32.146  1.00  0.00     0.049 A 
ATOM     35  H   UNL A   1      41.423  28.698  31.436  1.00  0.00     0.167 HD
ATOM     36  C   UNL A   1      42.422  28.993  34.105  1.00  0.00     0.074 A 
ATOM     37  C   UNL A   1      42.569  29.450  35.474  1.00  0.00     0.031 C 
ATOM     38  C   UNL A   1      43.217  28.063  33.516  1.00  0.00     0.034 A 
BRANCH  25  39
ATOM     39  C   UNL A   1      41.715  26.723  27.635  1.00  0.00     0.023 A 
ATOM     40  C   UNL A   1      41.353  25.365  27.594  1.00  0.00     0.031 A 
ATOM     41  C   UNL A   1      42.365  27.258  26.507  1.00  0.00     0.131 A 
ATOM     42  C   UNL A   1      41.734  24.570  26.501  1.00  0.00     0.055 A 
ATOM     43  C   UNL A   1      42.647  26.485  25.378  1.00  0.00     0.041 A 
ATOM     44  F   UNL A   1      42.757  28.541  26.488  1.00  0.00    -0.206 F 
ATOM     45  C   UNL A   1      42.353  25.126  25.380  1.00  0.00     0.022 A 
BRANCH  42  46
ATOM     46  S   UNL A   1      41.592  22.767  26.658  1.00  0.00     0.124 S 
ATOM     47  O   UNL A   1      42.128  22.317  25.375  1.00  0.00    -0.237 OA
ATOM     48  O   UNL A   1      42.417  22.487  27.828  1.00  0.00    -0.237 OA
ATOM     49  O   UNL A   1      40.159  22.550  26.834  1.00  0.00    -0.744 OA
ENDBRANCH  42  46
ENDBRANCH  25  39
BRANCH  26  50
ATOM     50  C   UNL A   1      39.356  32.210  35.710  1.00  0.00     0.023 A 
ATOM     51  C   UNL A   1      38.575  31.591  36.695  1.00  0.00     0.031 A 
ATOM     52  C   UNL A   1      39.736  33.551  35.911  1.00  0.00     0.131 A 
ATOM     53  C   UNL A   1      38.173  32.323  37.822  1.00  0.00     0.055 A 
ATOM     54  C   UNL A   1      39.392  34.252  37.065  1.00  0.00     0.041 A 
ATOM     55  F   UNL A   1      40.491  34.188  34.999  1.00  0.00    -0.206 F 
ATOM     56  C   UNL A   1      38.594  33.641  38.024  1.00  0.00     0.022 A 
BRANCH  53  57
ATOM     57  S   UNL A   1      37.014  31.554  38.983  1.00  0.00     0.124 S 
ATOM     58  O   UNL A   1      35.855  32.431  38.867  1.00  0.00    -0.237 OA
ATOM     59  O   UNL A   1      36.865  30.216  38.422  1.00  0.00    -0.237 OA
ATOM     60  O   UNL A   1      37.721  31.619  40.260  1.00  0.00    -0.744 OA
ENDBRANCH  53  57
ENDBRANCH  26  50
BRANCH  38  61
ATOM     61  C   UNL A   1      44.359  27.516  34.336  1.00  0.00     0.023 A 
ATOM     62  C   UNL A   1      44.246  26.329  35.079  1.00  0.00     0.031 A 
ATOM     63  C   UNL A   1      45.590  28.196  34.359  1.00  0.00     0.131 A 
ATOM     64  C   UNL A   1      45.330  25.882  35.848  1.00  0.00     0.055 A 
ATOM     65  C   UNL A   1      46.688  27.707  35.066  1.00  0.00     0.041 A 
ATOM     66  F   UNL A   1      45.750  29.345  33.680  1.00  0.00    -0.206 F 
ATOM     67  C   UNL A   1      46.558  26.549  35.824  1.00  0.00     0.022 A 
BRANCH  64  68
ATOM     68  S   UNL A   1      45.088  24.471  36.961  1.00  0.00     0.124 S 
ATOM     69  O   UNL A   1      46.449  24.216  37.423  1.00  0.00    -0.237 OA
ATOM     70  O   UNL A   1      44.168  25.010  37.955  1.00  0.00    -0.237 OA
ATOM     71  O   UNL A   1      44.527  23.440  36.089  1.00  0.00    -0.744 OA
ENDBRANCH  64  68
ENDBRANCH  38  61
ENDBRANCH  12  13
ENDBRANCH   5   7
ENDBRANCH   2   3
ENDBRANCH   1   2
BRANCH   1  72
ATOM     72  C   UNL A   1      32.167  28.186  27.232  1.00  0.00     0.023 C 
BRANCH  72  73
ATOM     73  C   UNL A   1      32.211  26.144  26.411  1.00  0.00     0.116 C 
BRANCH  73  74
ATOM     74  N   UNL A   1      31.324  24.831  26.714  1.00  0.00    -0.351 N 
ATOM     75  C   UNL A   1      31.539  23.518  26.338  1.00  0.00     0.272 C 
ATOM     76  H   UNL A   1      30.510  24.988  27.244  1.00  0.00     0.163 HD
ATOM     77  O   UNL A   1      30.701  22.642  26.502  1.00  0.00    -0.267 OA
BRANCH  75  78
ATOM     78  C   UNL A   1      32.861  23.209  25.772  1.00  0.00     0.159 A 
ATOM     79  N   UNL A   1      33.866  23.319  26.707  1.00  0.00    -0.247 NA
ATOM     80  C   UNL A   1      33.103  22.999  24.420  1.00  0.00     0.159 A 
ATOM     81  C   UNL A   1      35.120  23.208  26.244  1.00  0.00     0.132 A 
ATOM     82  N   UNL A   1      34.399  22.893  23.975  1.00  0.00    -0.247 NA
ATOM     83  C   UNL A   1      35.381  23.001  24.905  1.00  0.00     0.132 A 
BRANCH  80  84
ATOM     84  C   UNL A   1      32.077  22.792  23.347  1.00  0.00     0.277 C 
ATOM     85  O   UNL A   1      31.848  21.627  23.000  1.00  0.00    -0.267 OA
ATOM     86  N   UNL A   1      31.342  23.795  22.754  1.00  0.00    -0.303 N 
ATOM     87  H   UNL A   1      30.575  23.488  22.218  1.00  0.00     0.172 HD
BRANCH  86  88
ATOM     88  C   UNL A   1      31.514  25.152  22.793  1.00  0.00     0.164 A 
ATOM     89  N   UNL A   1      32.678  25.659  22.352  1.00  0.00    -0.155 NA
ATOM     90  C   UNL A   1      30.555  26.129  23.123  1.00  0.00     0.063 A 
ATOM     91  N   UNL A   1      32.498  26.967  22.000  1.00  0.00    -0.259 N 
ATOM     92  C   UNL A   1      31.279  27.489  22.332  1.00  0.00     0.157 A 
ATOM     93  C   UNL A   1      28.919  26.325  23.823  1.00  0.00     0.017 A 
ATOM     94  H   UNL A   1      33.193  27.494  21.542  1.00  0.00     0.192 HD
ATOM     95  N   UNL A   1      30.449  28.987  22.037  1.00  0.00    -0.237 NA
ATOM     96  C   UNL A   1      28.012  27.842  23.611  1.00  0.00     0.021 A 
ATOM     97  C   UNL A   1      28.817  29.146  22.754  1.00  0.00     0.113 A 
ENDBRANCH  86  88
ENDBRANCH  80  84
ENDBRANCH  75  78
ENDBRANCH  73  74
ENDBRANCH  72  73
ENDBRANCH   1  72
TORSDOF 16
ENDMDL
MODEL 3
REMARK VINA RESULT:     -14.0      4.931      9.758
REMARK SMILES O=C(NCCCCNC(=O)c1nccnc1C(=O)Nc1n[nH]c2ncccc12)c1ccc(-c2c3nc(c(-c4cc(S(=O)(=O)[O-])ccc4F)c4ccc([nH]4)c(-c4cc(S(=O)(=O)[O-])ccc4F)c4nc(c(-c5cc(S(=O)(=O)[O-])ccc5F)c5ccc2[nH]5)C=C4)C=C3)cc1
REMARK SMILES IDX 5 1 4 2 3 3 1 4 2 5 29 7 30 8 91 9 31 10 90 11 32 12 33 13
REMARK SMILES IDX 34 14 84 15 35 16 89 17 83 18 85 19 36 20 88 21 82 22 81 23
REMARK SMILES IDX 37 25 69 26 49 27 68 28 50 29 53 30 67 31 86 32 51 33 52 34
REMARK SMILES IDX 66 36 87 37 54 38 38 39 39 40 47 41 40 42 46 43 48 44 45 45
REMARK SMILES IDX 41 46 42 47 43 48 44 49 70 50 71 51 79 52 72 53 78 54 80 55
REMARK SMILES IDX 77 56 73 57 74 58 75 59 76 60 55 61 56 62 64 63 57 64 63 65
REMARK SMILES IDX 65 66 62 67 58 68 59 69 60 70 61 71 6 72 7 73 8 74 9 75
REMARK SMILES IDX 10 77 11 78 12 79 16 80 13 81 15 82 14 83 17 84 18 85 19 86
REMARK SMILES IDX 20 88 21 89 28 90 22 91 23 92 27 93 24 95 26 96 25 97
REMARK H PARENT 3 6 85 24 53 35 8 76 19 87 22 94
REMARK Flexibility Score: inf
ROOT
ATOM      1  C   UNL A   1      31.743  28.840  25.905  1.00  0.00     0.023 C 
ENDROOT
BRANCH   1   2
ATOM      2  C   UNL A   1      32.833  29.875  26.148  1.00  0.00     0.116 C 
BRANCH   2   3
ATOM      3  N   UNL A   1      32.418  31.153  26.717  1.00  0.00    -0.352 N 
ATOM      4  O   UNL A   1      32.839  33.180  27.658  1.00  0.00    -0.269 OA
ATOM      5  C   UNL A   1      33.242  32.069  27.336  1.00  0.00     0.251 C 
ATOM      6  H   UNL A   1      31.462  31.381  26.653  1.00  0.00     0.163 HD
BRANCH   5   7
ATOM      7  C   UNL A   1      34.592  31.600  27.704  1.00  0.00     0.039 A 
ATOM      8  C   UNL A   1      34.790  30.268  28.069  1.00  0.00     0.014 A 
ATOM      9  C   UNL A   1      35.568  32.568  27.945  1.00  0.00     0.014 A 
ATOM     10  C   UNL A   1      35.877  29.949  28.866  1.00  0.00     0.010 A 
ATOM     11  C   UNL A   1      36.731  32.206  28.622  1.00  0.00     0.010 A 
ATOM     12  C   UNL A   1      36.877  30.904  29.122  1.00  0.00    -0.014 A 
BRANCH  12  13
ATOM     13  C   UNL A   1      38.118  30.492  29.822  1.00  0.00     0.031 A 
ATOM     14  C   UNL A   1      39.069  29.498  29.222  1.00  0.00     0.074 A 
ATOM     15  C   UNL A   1      38.350  31.017  31.040  1.00  0.00     0.049 A 
ATOM     16  N   UNL A   1      40.130  28.951  29.758  1.00  0.00    -0.248 NA
ATOM     17  C   UNL A   1      38.784  29.042  27.854  1.00  0.00     0.031 C 
ATOM     18  C   UNL A   1      37.482  31.991  31.711  1.00  0.00     0.029 A 
ATOM     19  N   UNL A   1      39.365  30.809  31.934  1.00  0.00    -0.354 N 
ATOM     20  C   UNL A   1      40.628  28.066  28.809  1.00  0.00     0.074 A 
ATOM     21  C   UNL A   1      39.728  28.128  27.674  1.00  0.00     0.031 C 
ATOM     22  C   UNL A   1      38.018  32.322  32.889  1.00  0.00     0.029 A 
ATOM     23  C   UNL A   1      39.197  31.499  33.112  1.00  0.00     0.049 A 
ATOM     24  H   UNL A   1      40.138  30.226  31.753  1.00  0.00     0.167 HD
ATOM     25  C   UNL A   1      41.730  27.277  28.889  1.00  0.00     0.034 A 
ATOM     26  C   UNL A   1      39.869  31.432  34.275  1.00  0.00     0.034 A 
ATOM     27  C   UNL A   1      42.592  27.232  30.048  1.00  0.00     0.049 A 
ATOM     28  C   UNL A   1      41.037  30.497  34.368  1.00  0.00     0.074 A 
ATOM     29  C   UNL A   1      43.756  26.506  30.229  1.00  0.00     0.029 A 
ATOM     30  N   UNL A   1      42.371  27.921  31.237  1.00  0.00    -0.354 N 
ATOM     31  N   UNL A   1      41.510  29.679  33.456  1.00  0.00    -0.248 NA
ATOM     32  C   UNL A   1      41.763  30.474  35.641  1.00  0.00     0.031 C 
ATOM     33  C   UNL A   1      44.175  26.670  31.553  1.00  0.00     0.029 A 
ATOM     34  C   UNL A   1      43.345  27.593  32.169  1.00  0.00     0.049 A 
ATOM     35  H   UNL A   1      41.630  28.550  31.394  1.00  0.00     0.167 HD
ATOM     36  C   UNL A   1      42.610  29.061  34.037  1.00  0.00     0.074 A 
ATOM     37  C   UNL A   1      42.732  29.610  35.375  1.00  0.00     0.031 C 
ATOM     38  C   UNL A   1      43.449  28.134  33.507  1.00  0.00     0.034 A 
BRANCH  25  39
ATOM     39  C   UNL A   1      42.021  26.355  27.726  1.00  0.00     0.023 A 
ATOM     40  C   UNL A   1      41.557  25.029  27.692  1.00  0.00     0.031 A 
ATOM     41  C   UNL A   1      42.814  26.795  26.649  1.00  0.00     0.131 A 
ATOM     42  C   UNL A   1      41.972  24.165  26.665  1.00  0.00     0.055 A 
ATOM     43  C   UNL A   1      43.137  25.960  25.576  1.00  0.00     0.041 A 
ATOM     44  F   UNL A   1      43.309  28.042  26.627  1.00  0.00    -0.206 F 
ATOM     45  C   UNL A   1      42.735  24.629  25.592  1.00  0.00     0.022 A 
BRANCH  42  46
ATOM     46  S   UNL A   1      41.673  22.386  26.864  1.00  0.00     0.124 S 
ATOM     47  O   UNL A   1      41.936  21.891  25.514  1.00  0.00    -0.237 OA
ATOM     48  O   UNL A   1      42.648  22.014  27.882  1.00  0.00    -0.237 OA
ATOM     49  O   UNL A   1      40.274  22.319  27.280  1.00  0.00    -0.744 OA
ENDBRANCH  42  46
ENDBRANCH  25  39
BRANCH  26  50
ATOM     50  C   UNL A   1      39.392  32.224  35.441  1.00  0.00     0.023 A 
ATOM     51  C   UNL A   1      39.805  33.548  35.639  1.00  0.00     0.031 A 
ATOM     52  C   UNL A   1      38.489  31.665  36.366  1.00  0.00     0.131 A 
ATOM     53  C   UNL A   1      39.339  34.259  36.755  1.00  0.00     0.055 A 
ATOM     54  C   UNL A   1      37.977  32.399  37.434  1.00  0.00     0.041 A 
ATOM     55  F   UNL A   1      38.057  30.402  36.216  1.00  0.00    -0.206 F 
ATOM     56  C   UNL A   1      38.412  33.703  37.640  1.00  0.00     0.022 A 
BRANCH  53  57
ATOM     57  S   UNL A   1      40.033  35.900  37.084  1.00  0.00     0.124 S 
ATOM     58  O   UNL A   1      39.705  36.612  35.854  1.00  0.00    -0.237 OA
ATOM     59  O   UNL A   1      39.299  36.307  38.277  1.00  0.00    -0.237 OA
ATOM     60  O   UNL A   1      41.455  35.632  37.289  1.00  0.00    -0.744 OA
ENDBRANCH  53  57
ENDBRANCH  26  50
BRANCH  38  61
ATOM     61  C   UNL A   1      44.614  27.695  34.359  1.00  0.00     0.023 A 
ATOM     62  C   UNL A   1      44.555  26.554  35.177  1.00  0.00     0.031 A 
ATOM     63  C   UNL A   1      45.812  28.431  34.336  1.00  0.00     0.131 A 
ATOM     64  C   UNL A   1      45.659  26.209  35.972  1.00  0.00     0.055 A 
ATOM     65  C   UNL A   1      46.932  28.040  35.070  1.00  0.00     0.041 A 
ATOM     66  F   UNL A   1      45.920  29.540  33.584  1.00  0.00    -0.206 F 
ATOM     67  C   UNL A   1      46.854  26.929  35.902  1.00  0.00     0.022 A 
BRANCH  64  68
ATOM     68  S   UNL A   1      45.481  24.863  37.174  1.00  0.00     0.124 S 
ATOM     69  O   UNL A   1      45.407  23.692  36.306  1.00  0.00    -0.237 OA
ATOM     70  O   UNL A   1      46.696  24.991  37.970  1.00  0.00    -0.237 OA
ATOM     71  O   UNL A   1      44.241  25.193  37.876  1.00  0.00    -0.744 OA
ENDBRANCH  64  68
ENDBRANCH  38  61
ENDBRANCH  12  13
ENDBRANCH   5   7
ENDBRANCH   2   3
ENDBRANCH   1   2
BRANCH   1  72
ATOM     72  C   UNL A   1      31.793  27.284  26.623  1.00  0.00     0.023 C 
BRANCH  72  73
ATOM     73  C   UNL A   1      32.738  25.372  26.077  1.00  0.00     0.116 C 
BRANCH  73  74
ATOM     74  N   UNL A   1      32.377  23.841  26.432  1.00  0.00    -0.351 N 
ATOM     75  C   UNL A   1      32.891  22.671  25.906  1.00  0.00     0.272 C 
ATOM     76  H   UNL A   1      31.688  23.722  27.125  1.00  0.00     0.163 HD
ATOM     77  O   UNL A   1      32.414  21.572  26.154  1.00  0.00    -0.267 OA
BRANCH  75  78
ATOM     78  C   UNL A   1      34.089  22.805  25.063  1.00  0.00     0.159 A 
ATOM     79  N   UNL A   1      35.231  22.995  25.810  1.00  0.00    -0.247 NA
ATOM     80  C   UNL A   1      34.064  22.904  23.678  1.00  0.00     0.159 A 
ATOM     81  C   UNL A   1      36.346  23.283  25.122  1.00  0.00     0.132 A 
ATOM     82  N   UNL A   1      35.222  23.203  23.002  1.00  0.00    -0.247 NA
ATOM     83  C   UNL A   1      36.341  23.387  23.746  1.00  0.00     0.132 A 
BRANCH  80  84
ATOM     84  C   UNL A   1      32.892  22.640  22.782  1.00  0.00     0.277 C 
ATOM     85  O   UNL A   1      32.704  21.471  22.426  1.00  0.00    -0.267 OA
ATOM     86  N   UNL A   1      31.989  23.592  22.363  1.00  0.00    -0.303 N 
ATOM     87  H   UNL A   1      31.170  23.237  21.948  1.00  0.00     0.172 HD
BRANCH  86  88
ATOM     88  C   UNL A   1      32.055  24.958  22.433  1.00  0.00     0.164 A 
ATOM     89  N   UNL A   1      33.099  25.575  21.854  1.00  0.00    -0.155 NA
ATOM     90  C   UNL A   1      31.077  25.839  22.933  1.00  0.00     0.063 A 
ATOM     91  N   UNL A   1      32.766  26.873  21.585  1.00  0.00    -0.259 N 
ATOM     92  C   UNL A   1      31.568  27.278  22.105  1.00  0.00     0.157 A 
ATOM     93  C   UNL A   1      29.547  25.874  23.863  1.00  0.00     0.017 A 
ATOM     94  H   UNL A   1      33.344  27.471  21.056  1.00  0.00     0.192 HD
ATOM     95  N   UNL A   1      30.587  28.707  21.990  1.00  0.00    -0.237 NA
ATOM     96  C   UNL A   1      28.500  27.313  23.842  1.00  0.00     0.021 A 
ATOM     97  C   UNL A   1      29.067  28.705  22.935  1.00  0.00     0.113 A 
ENDBRANCH  86  88
ENDBRANCH  80  84
ENDBRANCH  75  78
ENDBRANCH  73  74
ENDBRANCH  72  73
ENDBRANCH   1  72
TORSDOF 16
ENDMDL
