MODEL 1
REMARK VINA RESULT:      -9.4      0.000      0.000
REMARK SMILES CC(C)CSc1cc2c(cc1Cl)C=C(C(=O)NCCCCNC(=O)c1ccc(-c3c4nc(c(-c5cc(S(=O)(=O)[O-])ccc5F)c5ccc([nH]5)c(-c5cc(S(=O)(=O)[O-])ccc5F)c5nc(c(-c6cc(S(=O)(=O)[O-])ccc6F)c6ccc3[nH]6)C=C5)C=C4)cc1)[C@@H](C(F)(F)F)O2
REMARK SMILES IDX 19 1 18 2 17 3 15 4 16 5 14 7 6 8 7 9 11 10 8 11 10 12 12 13
REMARK SMILES IDX 9 14 93 15 13 16 88 17 5 18 4 19 2 20 1 21 3 22 89 23 90 24
REMARK SMILES IDX 91 25 92 26 20 27 21 28 22 29 23 30 24 32 25 33 26 34 87 35
REMARK SMILES IDX 27 36 86 37 28 38 29 39 30 40 80 41 31 42 85 43 79 44 81 45
REMARK SMILES IDX 32 46 84 47 78 48 77 49 33 51 65 52 45 53 64 54 46 55 49 56
REMARK SMILES IDX 63 57 82 58 47 59 48 60 62 62 83 63 50 64 34 65 35 66 43 67
REMARK SMILES IDX 36 68 42 69 44 70 41 71 37 72 38 73 39 74 40 75 66 76 67 77
REMARK SMILES IDX 75 78 68 79 74 80 76 81 73 82 69 83 70 84 71 85 72 86 51 87
REMARK SMILES IDX 52 88 60 89 53 90 59 91 61 92 58 93 54 94 55 95 56 96 57 97
REMARK H PARENT 17 6 22 31 81 50 49 61
REMARK Flexibility Score: inf
ROOT
ATOM      1  C   UNL A   1      46.773  25.956  37.731  1.00  0.00     0.023 C 
ENDROOT
BRANCH   1   2
ATOM      2  C   UNL A   1      47.736  24.774  37.733  1.00  0.00     0.116 C 
BRANCH   2   3
ATOM      3  N   UNL A   1      47.899  24.192  36.411  1.00  0.00    -0.352 N 
ATOM      4  C   UNL A   1      47.745  22.974  35.840  1.00  0.00     0.251 C 
ATOM      5  O   UNL A   1      47.988  22.917  34.631  1.00  0.00    -0.270 OA
ATOM      6  H   UNL A   1      48.201  24.863  35.756  1.00  0.00     0.163 HD
BRANCH   4   7
ATOM      7  C   UNL A   1      47.322  21.735  36.561  1.00  0.00     0.067 C 
ATOM      8  C   UNL A   1      47.054  17.911  39.868  1.00  0.00     0.030 A 
ATOM      9  C   UNL A   1      46.216  18.429  38.877  1.00  0.00     0.063 A 
ATOM     10  C   UNL A   1      48.357  18.441  39.959  1.00  0.00     0.055 A 
ATOM     11  C   UNL A   1      46.605  19.518  38.100  1.00  0.00     0.129 A 
ATOM     12  C   UNL A   1      48.762  19.510  39.141  1.00  0.00     0.033 A 
ATOM     13  Cl  UNL A   1      49.528  17.844  41.091  1.00  0.00    -0.083 Cl
ATOM     14  C   UNL A   1      47.869  20.073  38.229  1.00  0.00     0.019 A 
ATOM     15  O   UNL A   1      45.638  20.021  37.287  1.00  0.00    -0.475 OA
ATOM     16  C   UNL A   1      48.207  21.261  37.458  1.00  0.00     0.025 C 
ATOM     17  C   UNL A   1      46.022  21.023  36.310  1.00  0.00     0.314 C 
BRANCH   8  18
ATOM     18  S   UNL A   1      46.468  16.642  40.997  1.00  0.00    -0.124 SA
BRANCH  18  19
ATOM     19  C   UNL A   1      44.699  17.046  41.298  1.00  0.00     0.078 C 
BRANCH  19  20
ATOM     20  C   UNL A   1      43.659  16.008  40.829  1.00  0.00    -0.007 C 
ATOM     21  C   UNL A   1      42.766  15.445  41.934  1.00  0.00     0.008 C 
ATOM     22  C   UNL A   1      42.764  16.655  39.764  1.00  0.00     0.008 C 
ENDBRANCH  19  20
ENDBRANCH  18  19
ENDBRANCH   8  18
BRANCH  17  23
ATOM     23  C   UNL A   1      45.950  20.365  34.922  1.00  0.00     0.429 C 
ATOM     24  F   UNL A   1      45.392  21.221  34.027  1.00  0.00    -0.167 F 
ATOM     25  F   UNL A   1      47.162  20.029  34.429  1.00  0.00    -0.167 F 
ATOM     26  F   UNL A   1      45.196  19.243  34.929  1.00  0.00    -0.167 F 
ENDBRANCH  17  23
ENDBRANCH   4   7
ENDBRANCH   2   3
ENDBRANCH   1   2
BRANCH   1  27
ATOM     27  C   UNL A   1      45.404  25.647  38.337  1.00  0.00     0.023 C 
BRANCH  27  28
ATOM     28  C   UNL A   1      44.246  26.482  37.798  1.00  0.00     0.116 C 
BRANCH  28  29
ATOM     29  N   UNL A   1      42.951  25.814  37.849  1.00  0.00    -0.352 N 
ATOM     30  C   UNL A   1      42.291  25.194  36.809  1.00  0.00     0.251 C 
ATOM     31  H   UNL A   1      42.498  25.802  38.723  1.00  0.00     0.163 HD
ATOM     32  O   UNL A   1      41.177  24.708  36.967  1.00  0.00    -0.269 OA
BRANCH  30  33
ATOM     33  C   UNL A   1      42.947  25.192  35.489  1.00  0.00     0.039 A 
ATOM     34  C   UNL A   1      43.892  24.207  35.194  1.00  0.00     0.014 A 
ATOM     35  C   UNL A   1      42.744  26.275  34.632  1.00  0.00     0.014 A 
ATOM     36  C   UNL A   1      44.758  24.399  34.126  1.00  0.00     0.010 A 
ATOM     37  C   UNL A   1      43.568  26.425  33.517  1.00  0.00     0.010 A 
ATOM     38  C   UNL A   1      44.619  25.521  33.290  1.00  0.00    -0.014 A 
BRANCH  38  39
ATOM     39  C   UNL A   1      45.593  25.744  32.194  1.00  0.00     0.031 A 
ATOM     40  C   UNL A   1      45.350  25.174  30.824  1.00  0.00     0.074 A 
ATOM     41  C   UNL A   1      46.675  26.508  32.432  1.00  0.00     0.049 A 
ATOM     42  N   UNL A   1      46.102  25.252  29.757  1.00  0.00    -0.248 NA
ATOM     43  C   UNL A   1      44.103  24.418  30.621  1.00  0.00     0.031 C 
ATOM     44  C   UNL A   1      46.983  27.137  33.716  1.00  0.00     0.029 A 
ATOM     45  N   UNL A   1      47.700  26.901  31.611  1.00  0.00    -0.354 N 
ATOM     46  C   UNL A   1      45.433  24.547  28.763  1.00  0.00     0.074 A 
ATOM     47  C   UNL A   1      44.224  24.023  29.361  1.00  0.00     0.031 C 
ATOM     48  C   UNL A   1      48.091  27.877  33.585  1.00  0.00     0.029 A 
ATOM     49  C   UNL A   1      48.620  27.711  32.234  1.00  0.00     0.049 A 
ATOM     50  H   UNL A   1      47.769  26.632  30.666  1.00  0.00     0.167 HD
ATOM     51  C   UNL A   1      45.792  24.368  27.470  1.00  0.00     0.034 A 
ATOM     52  C   UNL A   1      49.774  28.240  31.781  1.00  0.00     0.034 A 
ATOM     53  C   UNL A   1      46.989  24.916  26.888  1.00  0.00     0.049 A 
ATOM     54  C   UNL A   1      50.185  27.967  30.359  1.00  0.00     0.074 A 
ATOM     55  C   UNL A   1      47.428  24.813  25.579  1.00  0.00     0.029 A 
ATOM     56  N   UNL A   1      47.934  25.670  27.569  1.00  0.00    -0.354 N 
ATOM     57  N   UNL A   1      49.535  27.308  29.429  1.00  0.00    -0.248 NA
ATOM     58  C   UNL A   1      51.487  28.492  29.926  1.00  0.00     0.031 C 
ATOM     59  C   UNL A   1      48.661  25.462  25.480  1.00  0.00     0.029 A 
ATOM     60  C   UNL A   1      48.969  26.014  26.714  1.00  0.00     0.049 A 
ATOM     61  H   UNL A   1      47.878  25.923  28.518  1.00  0.00     0.167 HD
ATOM     62  C   UNL A   1      50.346  27.341  28.299  1.00  0.00     0.074 A 
ATOM     63  C   UNL A   1      51.522  28.109  28.655  1.00  0.00     0.031 C 
ATOM     64  C   UNL A   1      50.137  26.778  27.083  1.00  0.00     0.034 A 
BRANCH  51  65
ATOM     65  C   UNL A   1      44.889  23.557  26.575  1.00  0.00     0.023 A 
ATOM     66  C   UNL A   1      45.195  22.213  26.294  1.00  0.00     0.031 A 
ATOM     67  C   UNL A   1      43.799  24.145  25.909  1.00  0.00     0.131 A 
ATOM     68  C   UNL A   1      44.435  21.508  25.352  1.00  0.00     0.055 A 
ATOM     69  C   UNL A   1      43.027  23.431  24.991  1.00  0.00     0.041 A 
ATOM     70  F   UNL A   1      43.465  25.424  26.148  1.00  0.00    -0.206 F 
ATOM     71  C   UNL A   1      43.351  22.109  24.701  1.00  0.00     0.022 A 
BRANCH  68  72
ATOM     72  S   UNL A   1      44.849  19.802  24.894  1.00  0.00     0.124 S 
ATOM     73  O   UNL A   1      44.529  19.790  23.469  1.00  0.00    -0.237 OA
ATOM     74  O   UNL A   1      46.272  19.736  25.215  1.00  0.00    -0.237 OA
ATOM     75  O   UNL A   1      43.974  18.991  25.735  1.00  0.00    -0.744 OA
ENDBRANCH  68  72
ENDBRANCH  51  65
BRANCH  52  76
ATOM     76  C   UNL A   1      50.582  29.092  32.698  1.00  0.00     0.023 A 
ATOM     77  C   UNL A   1      51.503  28.516  33.593  1.00  0.00     0.031 A 
ATOM     78  C   UNL A   1      50.339  30.471  32.796  1.00  0.00     0.131 A 
ATOM     79  C   UNL A   1      52.073  29.297  34.606  1.00  0.00     0.055 A 
ATOM     80  C   UNL A   1      50.968  31.262  33.760  1.00  0.00     0.041 A 
ATOM     81  F   UNL A   1      49.463  31.063  31.970  1.00  0.00    -0.206 F 
ATOM     82  C   UNL A   1      51.822  30.670  34.686  1.00  0.00     0.022 A 
BRANCH  79  83
ATOM     83  S   UNL A   1      53.023  28.526  35.946  1.00  0.00     0.124 S 
ATOM     84  O   UNL A   1      54.267  29.287  35.914  1.00  0.00    -0.237 OA
ATOM     85  O   UNL A   1      52.162  28.768  37.102  1.00  0.00    -0.237 OA
ATOM     86  O   UNL A   1      53.125  27.129  35.537  1.00  0.00    -0.744 OA
ENDBRANCH  79  83
ENDBRANCH  52  76
BRANCH  64  87
ATOM     87  C   UNL A   1      51.204  26.939  26.031  1.00  0.00     0.023 A 
ATOM     88  C   UNL A   1      51.192  28.056  25.176  1.00  0.00     0.031 A 
ATOM     89  C   UNL A   1      52.128  25.911  25.777  1.00  0.00     0.131 A 
ATOM     90  C   UNL A   1      52.061  28.101  24.080  1.00  0.00     0.055 A 
ATOM     91  C   UNL A   1      53.019  25.979  24.706  1.00  0.00     0.041 A 
ATOM     92  F   UNL A   1      52.169  24.824  26.563  1.00  0.00    -0.206 F 
ATOM     93  C   UNL A   1      52.978  27.071  23.843  1.00  0.00     0.022 A 
BRANCH  90  94
ATOM     94  S   UNL A   1      51.982  29.457  22.878  1.00  0.00     0.124 S 
ATOM     95  O   UNL A   1      53.196  29.238  22.094  1.00  0.00    -0.237 OA
ATOM     96  O   UNL A   1      50.729  29.177  22.182  1.00  0.00    -0.237 OA
ATOM     97  O   UNL A   1      51.987  30.660  23.703  1.00  0.00    -0.744 OA
ENDBRANCH  90  94
ENDBRANCH  64  87
ENDBRANCH  38  39
ENDBRANCH  30  33
ENDBRANCH  28  29
ENDBRANCH  27  28
ENDBRANCH   1  27
TORSDOF 18
ENDMDL
MODEL 2
REMARK VINA RESULT:      -9.3      6.711     13.152
REMARK SMILES CC(C)CSc1cc2c(cc1Cl)C=C(C(=O)NCCCCNC(=O)c1ccc(-c3c4nc(c(-c5cc(S(=O)(=O)[O-])ccc5F)c5ccc([nH]5)c(-c5cc(S(=O)(=O)[O-])ccc5F)c5nc(c(-c6cc(S(=O)(=O)[O-])ccc6F)c6ccc3[nH]6)C=C5)C=C4)cc1)[C@@H](C(F)(F)F)O2
REMARK SMILES IDX 19 1 18 2 17 3 15 4 16 5 14 7 6 8 7 9 11 10 8 11 10 12 12 13
REMARK SMILES IDX 9 14 93 15 13 16 88 17 5 18 4 19 2 20 1 21 3 22 89 23 90 24
REMARK SMILES IDX 91 25 92 26 20 27 21 28 22 29 23 30 24 32 25 33 26 34 87 35
REMARK SMILES IDX 27 36 86 37 28 38 29 39 30 40 80 41 31 42 85 43 79 44 81 45
REMARK SMILES IDX 32 46 84 47 78 48 77 49 33 51 65 52 45 53 64 54 46 55 49 56
REMARK SMILES IDX 63 57 82 58 47 59 48 60 62 62 83 63 50 64 34 65 35 66 43 67
REMARK SMILES IDX 36 68 42 69 44 70 41 71 37 72 38 73 39 74 40 75 66 76 67 77
REMARK SMILES IDX 75 78 68 79 74 80 76 81 73 82 69 83 70 84 71 85 72 86 51 87
REMARK SMILES IDX 52 88 60 89 53 90 59 91 61 92 58 93 54 94 55 95 56 96 57 97
REMARK H PARENT 17 6 22 31 81 50 49 61
REMARK Flexibility Score: inf
ROOT
ATOM      1  C   UNL A   1      46.011  22.980  24.430  1.00  0.00     0.023 C 
ENDROOT
BRANCH   1   2
ATOM      2  C   UNL A   1      44.582  22.942  23.897  1.00  0.00     0.116 C 
BRANCH   2   3
ATOM      3  N   UNL A   1      43.781  21.912  24.538  1.00  0.00    -0.352 N 
ATOM      4  C   UNL A   1      42.834  21.853  25.503  1.00  0.00     0.251 C 
ATOM      5  O   UNL A   1      42.385  20.727  25.743  1.00  0.00    -0.270 OA
ATOM      6  H   UNL A   1      43.981  21.019  24.172  1.00  0.00     0.163 HD
BRANCH   4   7
ATOM      7  C   UNL A   1      42.320  23.024  26.277  1.00  0.00     0.067 C 
ATOM      8  C   UNL A   1      40.563  27.604  27.526  1.00  0.00     0.030 A 
ATOM      9  C   UNL A   1      40.667  26.370  28.171  1.00  0.00     0.063 A 
ATOM     10  C   UNL A   1      41.178  27.732  26.263  1.00  0.00     0.055 A 
ATOM     11  C   UNL A   1      41.237  25.269  27.535  1.00  0.00     0.129 A 
ATOM     12  C   UNL A   1      41.793  26.631  25.645  1.00  0.00     0.033 A 
ATOM     13  Cl  UNL A   1      41.193  29.225  25.381  1.00  0.00    -0.083 Cl
ATOM     14  C   UNL A   1      41.794  25.383  26.270  1.00  0.00     0.019 A 
ATOM     15  O   UNL A   1      41.132  24.094  28.211  1.00  0.00    -0.475 OA
ATOM     16  C   UNL A   1      42.305  24.192  25.607  1.00  0.00     0.025 C 
ATOM     17  C   UNL A   1      41.869  22.950  27.708  1.00  0.00     0.314 C 
BRANCH   8  18
ATOM     18  S   UNL A   1      39.649  28.959  28.273  1.00  0.00    -0.124 SA
BRANCH  18  19
ATOM     19  C   UNL A   1      39.691  28.627  30.081  1.00  0.00     0.078 C 
BRANCH  19  20
ATOM     20  C   UNL A   1      38.386  28.117  30.726  1.00  0.00    -0.007 C 
ATOM     21  C   UNL A   1      38.530  27.613  32.162  1.00  0.00     0.008 C 
ATOM     22  C   UNL A   1      37.352  29.251  30.710  1.00  0.00     0.008 C 
ENDBRANCH  19  20
ENDBRANCH  18  19
ENDBRANCH   8  18
BRANCH  17  23
ATOM     23  C   UNL A   1      43.019  22.674  28.691  1.00  0.00     0.429 C 
ATOM     24  F   UNL A   1      43.274  21.341  28.751  1.00  0.00    -0.167 F 
ATOM     25  F   UNL A   1      44.177  23.272  28.336  1.00  0.00    -0.167 F 
ATOM     26  F   UNL A   1      42.725  23.083  29.946  1.00  0.00    -0.167 F 
ENDBRANCH  17  23
ENDBRANCH   4   7
ENDBRANCH   2   3
ENDBRANCH   1   2
BRANCH   1  27
ATOM     27  C   UNL A   1      46.278  24.116  25.418  1.00  0.00     0.023 C 
BRANCH  27  28
ATOM     28  C   UNL A   1      47.618  24.827  25.250  1.00  0.00     0.116 C 
BRANCH  28  29
ATOM     29  N   UNL A   1      47.573  25.987  24.368  1.00  0.00    -0.352 N 
ATOM     30  C   UNL A   1      47.069  27.237  24.659  1.00  0.00     0.251 C 
ATOM     31  H   UNL A   1      47.944  25.865  23.464  1.00  0.00     0.163 HD
ATOM     32  O   UNL A   1      47.042  28.122  23.812  1.00  0.00    -0.269 OA
BRANCH  30  33
ATOM     33  C   UNL A   1      46.510  27.450  26.006  1.00  0.00     0.039 A 
ATOM     34  C   UNL A   1      45.147  27.239  26.225  1.00  0.00     0.014 A 
ATOM     35  C   UNL A   1      47.317  28.027  26.988  1.00  0.00     0.014 A 
ATOM     36  C   UNL A   1      44.555  27.769  27.365  1.00  0.00     0.010 A 
ATOM     37  C   UNL A   1      46.730  28.491  28.165  1.00  0.00     0.010 A 
ATOM     38  C   UNL A   1      45.337  28.419  28.335  1.00  0.00    -0.014 A 
BRANCH  38  39
ATOM     39  C   UNL A   1      44.681  29.036  29.513  1.00  0.00     0.031 A 
ATOM     40  C   UNL A   1      44.225  30.468  29.475  1.00  0.00     0.074 A 
ATOM     41  C   UNL A   1      44.453  28.278  30.602  1.00  0.00     0.049 A 
ATOM     42  N   UNL A   1      43.653  31.174  30.416  1.00  0.00    -0.248 NA
ATOM     43  C   UNL A   1      44.434  31.208  28.219  1.00  0.00     0.031 C 
ATOM     44  C   UNL A   1      44.825  26.869  30.726  1.00  0.00     0.029 A 
ATOM     45  N   UNL A   1      43.846  28.572  31.795  1.00  0.00    -0.354 N 
ATOM     46  C   UNL A   1      43.449  32.439  29.877  1.00  0.00     0.074 A 
ATOM     47  C   UNL A   1      43.983  32.415  28.533  1.00  0.00     0.031 C 
ATOM     48  C   UNL A   1      44.394  26.406  31.907  1.00  0.00     0.029 A 
ATOM     49  C   UNL A   1      43.791  27.504  32.659  1.00  0.00     0.049 A 
ATOM     50  H   UNL A   1      43.483  29.462  32.012  1.00  0.00     0.167 HD
ATOM     51  C   UNL A   1      42.859  33.514  30.450  1.00  0.00     0.034 A 
ATOM     52  C   UNL A   1      43.332  27.419  33.924  1.00  0.00     0.034 A 
ATOM     53  C   UNL A   1      42.314  33.512  31.783  1.00  0.00     0.049 A 
ATOM     54  C   UNL A   1      42.744  28.648  34.563  1.00  0.00     0.074 A 
ATOM     55  C   UNL A   1      41.672  34.544  32.446  1.00  0.00     0.029 A 
ATOM     56  N   UNL A   1      42.342  32.433  32.655  1.00  0.00    -0.354 N 
ATOM     57  N   UNL A   1      42.547  29.833  34.035  1.00  0.00    -0.248 NA
ATOM     58  C   UNL A   1      42.329  28.538  35.968  1.00  0.00     0.031 C 
ATOM     59  C   UNL A   1      41.355  34.105  33.733  1.00  0.00     0.029 A 
ATOM     60  C   UNL A   1      41.753  32.783  33.860  1.00  0.00     0.049 A 
ATOM     61  H   UNL A   1      42.722  31.550  32.449  1.00  0.00     0.167 HD
ATOM     62  C   UNL A   1      41.984  30.611  35.041  1.00  0.00     0.074 A 
ATOM     63  C   UNL A   1      41.845  29.753  36.201  1.00  0.00     0.031 C 
ATOM     64  C   UNL A   1      41.624  31.919  35.008  1.00  0.00     0.034 A 
BRANCH  51  65
ATOM     65  C   UNL A   1      42.751  34.790  29.654  1.00  0.00     0.023 A 
ATOM     66  C   UNL A   1      43.828  35.696  29.624  1.00  0.00     0.031 A 
ATOM     67  C   UNL A   1      41.548  35.163  29.029  1.00  0.00     0.131 A 
ATOM     68  C   UNL A   1      43.671  36.942  29.002  1.00  0.00     0.055 A 
ATOM     69  C   UNL A   1      41.406  36.394  28.387  1.00  0.00     0.041 A 
ATOM     70  F   UNL A   1      40.495  34.330  29.028  1.00  0.00    -0.206 F 
ATOM     71  C   UNL A   1      42.467  37.295  28.381  1.00  0.00     0.022 A 
BRANCH  68  72
ATOM     72  S   UNL A   1      45.002  38.174  29.015  1.00  0.00     0.124 S 
ATOM     73  O   UNL A   1      46.103  37.430  28.409  1.00  0.00    -0.237 OA
ATOM     74  O   UNL A   1      44.440  39.240  28.190  1.00  0.00    -0.237 OA
ATOM     75  O   UNL A   1      45.171  38.493  30.428  1.00  0.00    -0.744 OA
ENDBRANCH  68  72
ENDBRANCH  51  65
BRANCH  52  76
ATOM     76  C   UNL A   1      43.403  26.107  34.627  1.00  0.00     0.023 A 
ATOM     77  C   UNL A   1      44.641  25.474  34.848  1.00  0.00     0.031 A 
ATOM     78  C   UNL A   1      42.233  25.404  34.953  1.00  0.00     0.131 A 
ATOM     79  C   UNL A   1      44.676  24.145  35.288  1.00  0.00     0.055 A 
ATOM     80  C   UNL A   1      42.275  24.105  35.463  1.00  0.00     0.041 A 
ATOM     81  F   UNL A   1      41.030  25.963  34.751  1.00  0.00    -0.206 F 
ATOM     82  C   UNL A   1      43.500  23.462  35.610  1.00  0.00     0.022 A 
BRANCH  79  83
ATOM     83  S   UNL A   1      46.233  23.213  35.295  1.00  0.00     0.124 S 
ATOM     84  O   UNL A   1      45.954  22.148  34.338  1.00  0.00    -0.237 OA
ATOM     85  O   UNL A   1      47.191  24.225  34.855  1.00  0.00    -0.237 OA
ATOM     86  O   UNL A   1      46.376  22.793  36.685  1.00  0.00    -0.744 OA
ENDBRANCH  79  83
ENDBRANCH  52  76
BRANCH  64  87
ATOM     87  C   UNL A   1      41.060  32.535  36.262  1.00  0.00     0.023 A 
ATOM     88  C   UNL A   1      39.735  32.264  36.649  1.00  0.00     0.031 A 
ATOM     89  C   UNL A   1      41.781  33.506  36.976  1.00  0.00     0.131 A 
ATOM     90  C   UNL A   1      39.156  32.988  37.698  1.00  0.00     0.055 A 
ATOM     91  C   UNL A   1      41.213  34.197  38.047  1.00  0.00     0.041 A 
ATOM     92  F   UNL A   1      43.046  33.801  36.637  1.00  0.00    -0.206 F 
ATOM     93  C   UNL A   1      39.889  33.950  38.401  1.00  0.00     0.022 A 
BRANCH  90  94
ATOM     94  S   UNL A   1      37.410  32.767  38.136  1.00  0.00     0.124 S 
ATOM     95  O   UNL A   1      37.331  33.457  39.423  1.00  0.00    -0.237 OA
ATOM     96  O   UNL A   1      36.729  33.431  37.029  1.00  0.00    -0.237 OA
ATOM     97  O   UNL A   1      37.244  31.319  38.199  1.00  0.00    -0.744 OA
ENDBRANCH  90  94
ENDBRANCH  64  87
ENDBRANCH  38  39
ENDBRANCH  30  33
ENDBRANCH  28  29
ENDBRANCH  27  28
ENDBRANCH   1  27
TORSDOF 18
ENDMDL
MODEL 3
REMARK VINA RESULT:      -9.2     12.947     20.292
REMARK SMILES CC(C)CSc1cc2c(cc1Cl)C=C(C(=O)NCCCCNC(=O)c1ccc(-c3c4nc(c(-c5cc(S(=O)(=O)[O-])ccc5F)c5ccc([nH]5)c(-c5cc(S(=O)(=O)[O-])ccc5F)c5nc(c(-c6cc(S(=O)(=O)[O-])ccc6F)c6ccc3[nH]6)C=C5)C=C4)cc1)[C@@H](C(F)(F)F)O2
REMARK SMILES IDX 19 1 18 2 17 3 15 4 16 5 14 7 6 8 7 9 11 10 8 11 10 12 12 13
REMARK SMILES IDX 9 14 93 15 13 16 88 17 5 18 4 19 2 20 1 21 3 22 89 23 90 24
REMARK SMILES IDX 91 25 92 26 20 27 21 28 22 29 23 30 24 32 25 33 26 34 87 35
REMARK SMILES IDX 27 36 86 37 28 38 29 39 30 40 80 41 31 42 85 43 79 44 81 45
REMARK SMILES IDX 32 46 84 47 78 48 77 49 33 51 65 52 45 53 64 54 46 55 49 56
REMARK SMILES IDX 63 57 82 58 47 59 48 60 62 62 83 63 50 64 34 65 35 66 43 67
REMARK SMILES IDX 36 68 42 69 44 70 41 71 37 72 38 73 39 74 40 75 66 76 67 77
REMARK SMILES IDX 75 78 68 79 74 80 76 81 73 82 69 83 70 84 71 85 72 86 51 87
REMARK SMILES IDX 52 88 60 89 53 90 59 91 61 92 58 93 54 94 55 95 56 96 57 97
REMARK H PARENT 17 6 22 31 81 50 49 61
REMARK Flexibility Score: inf
ROOT
ATOM      1  C   UNL A   1      44.478  39.623  26.733  1.00  0.00     0.023 C 
ENDROOT
BRANCH   1   2
ATOM      2  C   UNL A   1      44.934  40.583  25.639  1.00  0.00     0.116 C 
BRANCH   2   3
ATOM      3  N   UNL A   1      44.921  41.968  26.079  1.00  0.00    -0.352 N 
ATOM      4  C   UNL A   1      44.757  43.185  25.509  1.00  0.00     0.251 C 
ATOM      5  O   UNL A   1      44.808  44.147  26.283  1.00  0.00    -0.270 OA
ATOM      6  H   UNL A   1      45.073  42.040  27.049  1.00  0.00     0.163 HD
BRANCH   4   7
ATOM      7  C   UNL A   1      44.533  43.430  24.052  1.00  0.00     0.067 C 
ATOM      8  C   UNL A   1      44.807  45.317  19.363  1.00  0.00     0.030 A 
ATOM      9  C   UNL A   1      44.250  44.176  19.944  1.00  0.00     0.063 A 
ATOM     10  C   UNL A   1      45.336  46.296  20.230  1.00  0.00     0.055 A 
ATOM     11  C   UNL A   1      44.334  43.950  21.315  1.00  0.00     0.129 A 
ATOM     12  C   UNL A   1      45.377  46.084  21.618  1.00  0.00     0.033 A 
ATOM     13  Cl  UNL A   1      45.991  47.795  19.654  1.00  0.00    -0.083 Cl
ATOM     14  C   UNL A   1      44.904  44.890  22.161  1.00  0.00     0.019 A 
ATOM     15  O   UNL A   1      43.895  42.731  21.728  1.00  0.00    -0.475 OA
ATOM     16  C   UNL A   1      45.048  44.579  23.577  1.00  0.00     0.025 C 
ATOM     17  C   UNL A   1      43.769  42.498  23.155  1.00  0.00     0.314 C 
BRANCH   8  18
ATOM     18  S   UNL A   1      44.871  45.503  17.577  1.00  0.00    -0.124 SA
BRANCH  18  19
ATOM     19  C   UNL A   1      43.463  44.507  16.939  1.00  0.00     0.078 C 
BRANCH  19  20
ATOM     20  C   UNL A   1      42.097  45.216  16.839  1.00  0.00    -0.007 C 
ATOM     21  C   UNL A   1      41.168  44.997  18.033  1.00  0.00     0.008 C 
ATOM     22  C   UNL A   1      42.336  46.723  16.679  1.00  0.00     0.008 C 
ENDBRANCH  19  20
ENDBRANCH  18  19
ENDBRANCH   8  18
BRANCH  17  23
ATOM     23  C   UNL A   1      42.268  42.438  23.481  1.00  0.00     0.429 C 
ATOM     24  F   UNL A   1      41.663  41.483  22.727  1.00  0.00    -0.167 F 
ATOM     25  F   UNL A   1      42.015  42.127  24.770  1.00  0.00    -0.167 F 
ATOM     26  F   UNL A   1      41.643  43.609  23.222  1.00  0.00    -0.167 F 
ENDBRANCH  17  23
ENDBRANCH   4   7
ENDBRANCH   2   3
ENDBRANCH   1   2
BRANCH   1  27
ATOM     27  C   UNL A   1      43.015  39.195  26.618  1.00  0.00     0.023 C 
BRANCH  27  28
ATOM     28  C   UNL A   1      42.731  37.735  26.960  1.00  0.00     0.116 C 
BRANCH  28  29
ATOM     29  N   UNL A   1      43.565  36.779  26.242  1.00  0.00    -0.352 N 
ATOM     30  C   UNL A   1      44.191  35.665  26.759  1.00  0.00     0.251 C 
ATOM     31  H   UNL A   1      43.694  36.947  25.280  1.00  0.00     0.163 HD
ATOM     32  O   UNL A   1      44.910  34.962  26.060  1.00  0.00    -0.269 OA
BRANCH  30  33
ATOM     33  C   UNL A   1      44.011  35.387  28.195  1.00  0.00     0.039 A 
ATOM     34  C   UNL A   1      43.607  34.113  28.603  1.00  0.00     0.014 A 
ATOM     35  C   UNL A   1      44.074  36.447  29.101  1.00  0.00     0.014 A 
ATOM     36  C   UNL A   1      43.097  33.943  29.883  1.00  0.00     0.010 A 
ATOM     37  C   UNL A   1      43.630  36.252  30.409  1.00  0.00     0.010 A 
ATOM     38  C   UNL A   1      43.083  35.015  30.791  1.00  0.00    -0.014 A 
BRANCH  38  39
ATOM     39  C   UNL A   1      42.475  34.833  32.132  1.00  0.00     0.031 A 
ATOM     40  C   UNL A   1      40.995  34.610  32.279  1.00  0.00     0.074 A 
ATOM     41  C   UNL A   1      43.276  34.821  33.213  1.00  0.00     0.049 A 
ATOM     42  N   UNL A   1      40.293  34.453  33.370  1.00  0.00    -0.248 NA
ATOM     43  C   UNL A   1      40.197  34.554  31.042  1.00  0.00     0.031 C 
ATOM     44  C   UNL A   1      44.728  34.993  33.174  1.00  0.00     0.029 A 
ATOM     45  N   UNL A   1      42.994  34.641  34.543  1.00  0.00    -0.354 N 
ATOM     46  C   UNL A   1      38.974  34.296  32.959  1.00  0.00     0.074 A 
ATOM     47  C   UNL A   1      38.968  34.404  31.517  1.00  0.00     0.031 C 
ATOM     48  C   UNL A   1      45.217  34.860  34.414  1.00  0.00     0.029 A 
ATOM     49  C   UNL A   1      44.109  34.678  35.347  1.00  0.00     0.049 A 
ATOM     50  H   UNL A   1      42.083  34.497  34.887  1.00  0.00     0.167 HD
ATOM     51  C   UNL A   1      37.875  34.070  33.718  1.00  0.00     0.034 A 
ATOM     52  C   UNL A   1      44.227  34.600  36.688  1.00  0.00     0.034 A 
ATOM     53  C   UNL A   1      37.906  33.944  35.152  1.00  0.00     0.049 A 
ATOM     54  C   UNL A   1      42.982  34.419  37.514  1.00  0.00     0.074 A 
ATOM     55  C   UNL A   1      36.850  33.689  36.011  1.00  0.00     0.029 A 
ATOM     56  N   UNL A   1      39.043  34.060  35.940  1.00  0.00    -0.354 N 
ATOM     57  N   UNL A   1      41.744  34.260  37.109  1.00  0.00    -0.248 NA
ATOM     58  C   UNL A   1      43.142  34.421  38.974  1.00  0.00     0.031 C 
ATOM     59  C   UNL A   1      37.339  33.698  37.318  1.00  0.00     0.029 A 
ATOM     60  C   UNL A   1      38.709  33.909  37.276  1.00  0.00     0.049 A 
ATOM     61  H   UNL A   1      39.951  34.224  35.600  1.00  0.00     0.167 HD
ATOM     62  C   UNL A   1      40.977  34.140  38.263  1.00  0.00     0.074 A 
ATOM     63  C   UNL A   1      41.894  34.217  39.381  1.00  0.00     0.031 C 
ATOM     64  C   UNL A   1      39.633  33.990  38.381  1.00  0.00     0.034 A 
BRANCH  51  65
ATOM     65  C   UNL A   1      36.540  33.931  33.033  1.00  0.00     0.023 A 
ATOM     66  C   UNL A   1      35.665  35.031  32.961  1.00  0.00     0.031 A 
ATOM     67  C   UNL A   1      36.086  32.687  32.561  1.00  0.00     0.131 A 
ATOM     68  C   UNL A   1      34.371  34.859  32.452  1.00  0.00     0.055 A 
ATOM     69  C   UNL A   1      34.805  32.526  32.030  1.00  0.00     0.041 A 
ATOM     70  F   UNL A   1      36.886  31.609  32.605  1.00  0.00    -0.206 F 
ATOM     71  C   UNL A   1      33.937  33.614  31.984  1.00  0.00     0.022 A 
BRANCH  68  72
ATOM     72  S   UNL A   1      33.182  36.229  32.422  1.00  0.00     0.124 S 
ATOM     73  O   UNL A   1      31.910  35.521  32.532  1.00  0.00    -0.237 OA
ATOM     74  O   UNL A   1      33.572  36.998  33.601  1.00  0.00    -0.237 OA
ATOM     75  O   UNL A   1      33.424  36.876  31.137  1.00  0.00    -0.744 OA
ENDBRANCH  68  72
ENDBRANCH  51  65
BRANCH  52  76
ATOM     76  C   UNL A   1      45.586  34.672  37.294  1.00  0.00     0.023 A 
ATOM     77  C   UNL A   1      46.334  33.502  37.527  1.00  0.00     0.031 A 
ATOM     78  C   UNL A   1      46.091  35.888  37.781  1.00  0.00     0.131 A 
ATOM     79  C   UNL A   1      47.494  33.561  38.309  1.00  0.00     0.055 A 
ATOM     80  C   UNL A   1      47.288  35.953  38.496  1.00  0.00     0.041 A 
ATOM     81  F   UNL A   1      45.409  37.027  37.591  1.00  0.00    -0.206 F 
ATOM     82  C   UNL A   1      47.984  34.781  38.783  1.00  0.00     0.022 A 
BRANCH  79  83
ATOM     83  S   UNL A   1      48.308  32.040  38.873  1.00  0.00     0.124 S 
ATOM     84  O   UNL A   1      49.710  32.442  38.913  1.00  0.00    -0.237 OA
ATOM     85  O   UNL A   1      47.674  31.824  40.171  1.00  0.00    -0.237 OA
ATOM     86  O   UNL A   1      47.960  31.062  37.847  1.00  0.00    -0.744 OA
ENDBRANCH  79  83
ENDBRANCH  52  76
BRANCH  64  87
ATOM     87  C   UNL A   1      39.044  33.918  39.767  1.00  0.00     0.023 A 
ATOM     88  C   UNL A   1      38.610  32.685  40.287  1.00  0.00     0.031 A 
ATOM     89  C   UNL A   1      38.772  35.087  40.497  1.00  0.00     0.131 A 
ATOM     90  C   UNL A   1      37.887  32.653  41.485  1.00  0.00     0.055 A 
ATOM     91  C   UNL A   1      38.087  35.046  41.712  1.00  0.00     0.041 A 
ATOM     92  F   UNL A   1      39.163  36.285  40.035  1.00  0.00    -0.206 F 
ATOM     93  C   UNL A   1      37.628  33.826  42.203  1.00  0.00     0.022 A 
BRANCH  90  94
ATOM     94  S   UNL A   1      37.190  31.103  42.117  1.00  0.00     0.124 S 
ATOM     95  O   UNL A   1      37.152  31.352  43.557  1.00  0.00    -0.237 OA
ATOM     96  O   UNL A   1      35.889  31.058  41.456  1.00  0.00    -0.237 OA
ATOM     97  O   UNL A   1      38.147  30.087  41.691  1.00  0.00    -0.744 OA
ENDBRANCH  90  94
ENDBRANCH  64  87
ENDBRANCH  38  39
ENDBRANCH  30  33
ENDBRANCH  28  29
ENDBRANCH  27  28
ENDBRANCH   1  27
TORSDOF 18
ENDMDL
