MODEL 1
REMARK VINA RESULT:      -9.8      0.000      0.000
REMARK SMILES N#CCCNC(=O)COc1ccc(C(=O)NCCCCNC(=O)c2ccc(-c3c4nc(c(-c5cc(S(=O)(=O)[O-])ccc5F)c5ccc([nH]5)c(-c5cc(S(=O)(=O)[O-])ccc5F)c5nc(c(-c6cc(S(=O)(=O)[O-])ccc6F)c6ccc3[nH]6)C=C5)C=C4)cc2)nc1
REMARK SMILES IDX 17 1 16 2 14 3 15 4 13 6 10 7 11 8 88 9 12 10 87 11 9 12
REMARK SMILES IDX 8 13 6 14 5 15 7 17 4 18 3 19 2 20 1 21 18 22 19 23 20 24
REMARK SMILES IDX 21 25 22 26 23 28 24 29 25 30 86 31 26 32 85 33 27 34 28 35
REMARK SMILES IDX 29 36 79 37 30 38 84 39 78 40 80 41 31 42 83 43 77 44 76 45
REMARK SMILES IDX 32 47 64 48 44 49 63 50 45 51 48 52 62 53 81 54 46 55 47 56
REMARK SMILES IDX 61 58 82 59 49 60 33 61 34 62 42 63 35 64 41 65 43 66 40 67
REMARK SMILES IDX 36 68 37 69 38 70 39 71 65 72 66 73 74 74 67 75 73 76 75 77
REMARK SMILES IDX 72 78 68 79 69 80 70 81 71 82 50 83 51 84 59 85 52 86 58 87
REMARK SMILES IDX 60 88 57 89 53 90 54 91 55 92 56 93
REMARK H PARENT 16 5 5 16 21 27 80 46 48 57
REMARK Flexibility Score: inf
ROOT
ATOM      1  C   UNL A   1      33.709  31.949  27.725  1.00  0.00     0.116 C 
ENDROOT
BRANCH   1   2
ATOM      2  N   UNL A   1      34.808  31.019  27.565  1.00  0.00    -0.351 N 
ATOM      3  C   UNL A   1      34.896  29.670  27.303  1.00  0.00     0.269 C 
ATOM      4  O   UNL A   1      36.042  29.217  27.239  1.00  0.00    -0.268 OA
ATOM      5  H   UNL A   1      35.690  31.447  27.666  1.00  0.00     0.163 HD
BRANCH   3   6
ATOM      6  C   UNL A   1      33.720  28.742  27.097  1.00  0.00     0.128 A 
ATOM      7  C   UNL A   1      31.728  26.854  26.626  1.00  0.00     0.138 A 
ATOM      8  C   UNL A   1      31.433  28.018  27.314  1.00  0.00     0.050 A 
ATOM      9  C   UNL A   1      33.035  26.703  26.189  1.00  0.00     0.158 A 
ATOM     10  C   UNL A   1      32.440  28.949  27.582  1.00  0.00     0.038 A 
ATOM     11  N   UNL A   1      34.016  27.614  26.392  1.00  0.00    -0.247 NA
BRANCH   7  12
ATOM     12  O   UNL A   1      30.885  25.797  26.455  1.00  0.00    -0.482 OA
BRANCH  12  13
ATOM     13  C   UNL A   1      29.903  25.907  25.437  1.00  0.00     0.329 C 
BRANCH  13  14
ATOM     14  C   UNL A   1      30.299  25.812  23.956  1.00  0.00     0.257 C 
ATOM     15  N   UNL A   1      30.304  26.917  23.156  1.00  0.00    -0.352 N 
ATOM     16  H   UNL A   1      30.659  26.776  22.248  1.00  0.00     0.163 HD
ATOM     17  O   UNL A   1      30.625  24.732  23.457  1.00  0.00    -0.271 OA
BRANCH  15  18
ATOM     18  C   UNL A   1      29.860  28.273  23.444  1.00  0.00     0.131 C 
BRANCH  18  19
ATOM     19  C   UNL A   1      30.987  29.227  23.844  1.00  0.00     0.141 C 
BRANCH  19  20
ATOM     20  C   UNL A   1      32.321  28.786  23.264  1.00  0.00     0.064 C 
ATOM     21  N   UNL A   1      33.427  28.421  22.782  1.00  0.00    -0.198 NA
ENDBRANCH  19  20
ENDBRANCH  18  19
ENDBRANCH  15  18
ENDBRANCH  13  14
ENDBRANCH  12  13
ENDBRANCH   7  12
ENDBRANCH   3   6
ENDBRANCH   1   2
BRANCH   1  22
ATOM     22  C   UNL A   1      34.092  33.111  28.645  1.00  0.00     0.023 C 
BRANCH  22  23
ATOM     23  C   UNL A   1      33.260  34.381  28.419  1.00  0.00     0.023 C 
BRANCH  23  24
ATOM     24  C   UNL A   1      33.619  35.553  29.328  1.00  0.00     0.116 C 
BRANCH  24  25
ATOM     25  N   UNL A   1      32.703  35.723  30.443  1.00  0.00    -0.352 N 
ATOM     26  C   UNL A   1      32.849  35.291  31.741  1.00  0.00     0.251 C 
ATOM     27  H   UNL A   1      31.871  36.210  30.244  1.00  0.00     0.163 HD
ATOM     28  O   UNL A   1      31.925  35.416  32.532  1.00  0.00    -0.269 OA
BRANCH  26  29
ATOM     29  C   UNL A   1      34.111  34.633  32.148  1.00  0.00     0.039 A 
ATOM     30  C   UNL A   1      34.074  33.291  32.527  1.00  0.00     0.014 A 
ATOM     31  C   UNL A   1      35.323  35.329  32.139  1.00  0.00     0.014 A 
ATOM     32  C   UNL A   1      35.261  32.635  32.857  1.00  0.00     0.010 A 
ATOM     33  C   UNL A   1      36.513  34.653  32.384  1.00  0.00     0.010 A 
ATOM     34  C   UNL A   1      36.492  33.304  32.767  1.00  0.00    -0.014 A 
BRANCH  34  35
ATOM     35  C   UNL A   1      37.759  32.610  33.113  1.00  0.00     0.031 A 
ATOM     36  C   UNL A   1      38.463  32.926  34.406  1.00  0.00     0.074 A 
ATOM     37  C   UNL A   1      38.298  31.734  32.243  1.00  0.00     0.049 A 
ATOM     38  N   UNL A   1      39.571  32.428  34.890  1.00  0.00    -0.248 NA
ATOM     39  C   UNL A   1      37.859  33.972  35.242  1.00  0.00     0.031 C 
ATOM     40  C   UNL A   1      37.751  31.410  30.924  1.00  0.00     0.029 A 
ATOM     41  N   UNL A   1      39.425  30.960  32.336  1.00  0.00    -0.354 N 
ATOM     42  C   UNL A   1      39.804  33.110  36.080  1.00  0.00     0.074 A 
ATOM     43  C   UNL A   1      38.768  34.114  36.192  1.00  0.00     0.031 C 
ATOM     44  C   UNL A   1      38.528  30.483  30.343  1.00  0.00     0.029 A 
ATOM     45  C   UNL A   1      39.641  30.167  31.233  1.00  0.00     0.049 A 
ATOM     46  H   UNL A   1      40.024  30.970  33.117  1.00  0.00     0.167 HD
ATOM     47  C   UNL A   1      40.771  32.898  37.008  1.00  0.00     0.034 A 
ATOM     48  C   UNL A   1      40.622  29.282  30.972  1.00  0.00     0.034 A 
ATOM     49  C   UNL A   1      41.792  31.884  36.874  1.00  0.00     0.049 A 
ATOM     50  C   UNL A   1      41.667  29.028  32.026  1.00  0.00     0.074 A 
ATOM     51  C   UNL A   1      42.783  31.531  37.771  1.00  0.00     0.029 A 
ATOM     52  N   UNL A   1      41.957  31.067  35.761  1.00  0.00    -0.354 N 
ATOM     53  N   UNL A   1      41.828  29.617  33.189  1.00  0.00    -0.248 NA
ATOM     54  C   UNL A   1      42.641  27.968  31.744  1.00  0.00     0.031 C 
ATOM     55  C   UNL A   1      43.587  30.551  37.174  1.00  0.00     0.029 A 
ATOM     56  C   UNL A   1      43.049  30.230  35.937  1.00  0.00     0.049 A 
ATOM     57  H   UNL A   1      41.380  31.079  34.963  1.00  0.00     0.167 HD
ATOM     58  C   UNL A   1      42.910  28.980  33.791  1.00  0.00     0.074 A 
ATOM     59  C   UNL A   1      43.344  27.950  32.867  1.00  0.00     0.031 C 
ATOM     60  C   UNL A   1      43.487  29.221  34.998  1.00  0.00     0.034 A 
BRANCH  47  61
ATOM     61  C   UNL A   1      40.773  33.807  38.220  1.00  0.00     0.023 A 
ATOM     62  C   UNL A   1      39.971  33.539  39.345  1.00  0.00     0.031 A 
ATOM     63  C   UNL A   1      41.520  34.998  38.222  1.00  0.00     0.131 A 
ATOM     64  C   UNL A   1      39.841  34.499  40.361  1.00  0.00     0.055 A 
ATOM     65  C   UNL A   1      41.467  35.901  39.286  1.00  0.00     0.041 A 
ATOM     66  F   UNL A   1      42.292  35.324  37.173  1.00  0.00    -0.206 F 
ATOM     67  C   UNL A   1      40.605  35.667  40.354  1.00  0.00     0.022 A 
BRANCH  64  68
ATOM     68  S   UNL A   1      38.509  34.292  41.578  1.00  0.00     0.124 S 
ATOM     69  O   UNL A   1      37.811  35.571  41.470  1.00  0.00    -0.237 OA
ATOM     70  O   UNL A   1      37.795  33.128  41.067  1.00  0.00    -0.237 OA
ATOM     71  O   UNL A   1      39.222  34.087  42.836  1.00  0.00    -0.744 OA
ENDBRANCH  64  68
ENDBRANCH  47  61
BRANCH  48  72
ATOM     72  C   UNL A   1      40.647  28.564  29.666  1.00  0.00     0.023 A 
ATOM     73  C   UNL A   1      41.586  28.883  28.673  1.00  0.00     0.031 A 
ATOM     74  C   UNL A   1      39.726  27.534  29.400  1.00  0.00     0.131 A 
ATOM     75  C   UNL A   1      41.566  28.198  27.448  1.00  0.00     0.055 A 
ATOM     76  C   UNL A   1      39.738  26.828  28.197  1.00  0.00     0.041 A 
ATOM     77  F   UNL A   1      38.817  27.183  30.323  1.00  0.00    -0.206 F 
ATOM     78  C   UNL A   1      40.657  27.166  27.208  1.00  0.00     0.022 A 
BRANCH  75  79
ATOM     79  S   UNL A   1      42.724  28.705  26.146  1.00  0.00     0.124 S 
ATOM     80  O   UNL A   1      43.021  30.081  26.530  1.00  0.00    -0.237 OA
ATOM     81  O   UNL A   1      43.809  27.744  26.314  1.00  0.00    -0.237 OA
ATOM     82  O   UNL A   1      41.946  28.553  24.919  1.00  0.00    -0.744 OA
ENDBRANCH  75  79
ENDBRANCH  48  72
BRANCH  60  83
ATOM     83  C   UNL A   1      44.632  28.319  35.397  1.00  0.00     0.023 A 
ATOM     84  C   UNL A   1      44.419  27.100  36.067  1.00  0.00     0.031 A 
ATOM     85  C   UNL A   1      45.960  28.703  35.137  1.00  0.00     0.131 A 
ATOM     86  C   UNL A   1      45.515  26.348  36.519  1.00  0.00     0.055 A 
ATOM     87  C   UNL A   1      47.044  27.917  35.526  1.00  0.00     0.041 A 
ATOM     88  F   UNL A   1      46.225  29.858  34.505  1.00  0.00    -0.206 F 
ATOM     89  C   UNL A   1      46.825  26.741  36.239  1.00  0.00     0.022 A 
BRANCH  86  90
ATOM     90  S   UNL A   1      45.206  24.922  37.597  1.00  0.00     0.124 S 
ATOM     91  O   UNL A   1      44.067  24.288  36.942  1.00  0.00    -0.237 OA
ATOM     92  O   UNL A   1      46.470  24.197  37.521  1.00  0.00    -0.237 OA
ATOM     93  O   UNL A   1      44.917  25.530  38.894  1.00  0.00    -0.744 OA
ENDBRANCH  86  90
ENDBRANCH  60  83
ENDBRANCH  34  35
ENDBRANCH  26  29
ENDBRANCH  24  25
ENDBRANCH  23  24
ENDBRANCH  22  23
ENDBRANCH   1  22
TORSDOF 20
ENDMDL
MODEL 2
REMARK VINA RESULT:      -9.5      1.959      2.200
REMARK SMILES N#CCCNC(=O)COc1ccc(C(=O)NCCCCNC(=O)c2ccc(-c3c4nc(c(-c5cc(S(=O)(=O)[O-])ccc5F)c5ccc([nH]5)c(-c5cc(S(=O)(=O)[O-])ccc5F)c5nc(c(-c6cc(S(=O)(=O)[O-])ccc6F)c6ccc3[nH]6)C=C5)C=C4)cc2)nc1
REMARK SMILES IDX 17 1 16 2 14 3 15 4 13 6 10 7 11 8 88 9 12 10 87 11 9 12
REMARK SMILES IDX 8 13 6 14 5 15 7 17 4 18 3 19 2 20 1 21 18 22 19 23 20 24
REMARK SMILES IDX 21 25 22 26 23 28 24 29 25 30 86 31 26 32 85 33 27 34 28 35
REMARK SMILES IDX 29 36 79 37 30 38 84 39 78 40 80 41 31 42 83 43 77 44 76 45
REMARK SMILES IDX 32 47 64 48 44 49 63 50 45 51 48 52 62 53 81 54 46 55 47 56
REMARK SMILES IDX 61 58 82 59 49 60 33 61 34 62 42 63 35 64 41 65 43 66 40 67
REMARK SMILES IDX 36 68 37 69 38 70 39 71 65 72 66 73 74 74 67 75 73 76 75 77
REMARK SMILES IDX 72 78 68 79 69 80 70 81 71 82 50 83 51 84 59 85 52 86 58 87
REMARK SMILES IDX 60 88 57 89 53 90 54 91 55 92 56 93
REMARK H PARENT 16 5 5 16 21 27 80 46 48 57
REMARK Flexibility Score: inf
ROOT
ATOM      1  C   UNL A   1      33.593  32.098  27.952  1.00  0.00     0.116 C 
ENDROOT
BRANCH   1   2
ATOM      2  N   UNL A   1      34.549  31.010  27.998  1.00  0.00    -0.351 N 
ATOM      3  C   UNL A   1      34.632  29.778  27.388  1.00  0.00     0.269 C 
ATOM      4  O   UNL A   1      35.623  29.106  27.687  1.00  0.00    -0.268 OA
ATOM      5  H   UNL A   1      35.307  31.191  28.600  1.00  0.00     0.163 HD
BRANCH   3   6
ATOM      6  C   UNL A   1      33.623  29.215  26.413  1.00  0.00     0.128 A 
ATOM      7  C   UNL A   1      31.950  28.001  24.548  1.00  0.00     0.138 A 
ATOM      8  C   UNL A   1      31.449  28.962  25.410  1.00  0.00     0.050 A 
ATOM      9  C   UNL A   1      33.299  27.704  24.664  1.00  0.00     0.158 A 
ATOM     10  C   UNL A   1      32.279  29.545  26.369  1.00  0.00     0.038 A 
ATOM     11  N   UNL A   1      34.135  28.292  25.550  1.00  0.00    -0.247 NA
BRANCH   7  12
ATOM     12  O   UNL A   1      31.211  27.238  23.694  1.00  0.00    -0.482 OA
BRANCH  12  13
ATOM     13  C   UNL A   1      30.193  27.890  22.954  1.00  0.00     0.329 C 
BRANCH  13  14
ATOM     14  C   UNL A   1      28.712  27.654  23.287  1.00  0.00     0.257 C 
ATOM     15  N   UNL A   1      27.768  28.599  23.007  1.00  0.00    -0.352 N 
ATOM     16  H   UNL A   1      26.837  28.323  23.170  1.00  0.00     0.163 HD
ATOM     17  O   UNL A   1      28.343  26.603  23.814  1.00  0.00    -0.271 OA
BRANCH  15  18
ATOM     18  C   UNL A   1      27.933  29.955  22.503  1.00  0.00     0.131 C 
BRANCH  18  19
ATOM     19  C   UNL A   1      27.694  31.044  23.550  1.00  0.00     0.141 C 
BRANCH  19  20
ATOM     20  C   UNL A   1      28.129  32.409  23.042  1.00  0.00     0.064 C 
ATOM     21  N   UNL A   1      28.490  33.541  22.621  1.00  0.00    -0.198 NA
ENDBRANCH  19  20
ENDBRANCH  18  19
ENDBRANCH  15  18
ENDBRANCH  13  14
ENDBRANCH  12  13
ENDBRANCH   7  12
ENDBRANCH   3   6
ENDBRANCH   1   2
BRANCH   1  22
ATOM     22  C   UNL A   1      34.098  33.316  28.730  1.00  0.00     0.023 C 
BRANCH  22  23
ATOM     23  C   UNL A   1      33.309  34.602  28.449  1.00  0.00     0.023 C 
BRANCH  23  24
ATOM     24  C   UNL A   1      33.608  35.758  29.399  1.00  0.00     0.116 C 
BRANCH  24  25
ATOM     25  N   UNL A   1      32.655  35.872  30.490  1.00  0.00    -0.352 N 
ATOM     26  C   UNL A   1      32.764  35.385  31.773  1.00  0.00     0.251 C 
ATOM     27  H   UNL A   1      31.825  36.361  30.286  1.00  0.00     0.163 HD
ATOM     28  O   UNL A   1      31.814  35.468  32.538  1.00  0.00    -0.269 OA
BRANCH  26  29
ATOM     29  C   UNL A   1      34.019  34.720  32.190  1.00  0.00     0.039 A 
ATOM     30  C   UNL A   1      33.955  33.411  32.670  1.00  0.00     0.014 A 
ATOM     31  C   UNL A   1      35.249  35.376  32.095  1.00  0.00     0.014 A 
ATOM     32  C   UNL A   1      35.132  32.745  33.013  1.00  0.00     0.010 A 
ATOM     33  C   UNL A   1      36.425  34.683  32.356  1.00  0.00     0.010 A 
ATOM     34  C   UNL A   1      36.378  33.366  32.838  1.00  0.00    -0.014 A 
BRANCH  34  35
ATOM     35  C   UNL A   1      37.635  32.662  33.198  1.00  0.00     0.031 A 
ATOM     36  C   UNL A   1      38.403  33.069  34.427  1.00  0.00     0.074 A 
ATOM     37  C   UNL A   1      38.107  31.689  32.395  1.00  0.00     0.049 A 
ATOM     38  N   UNL A   1      39.514  32.578  34.913  1.00  0.00    -0.248 NA
ATOM     39  C   UNL A   1      37.870  34.210  35.185  1.00  0.00     0.031 C 
ATOM     40  C   UNL A   1      37.494  31.264  31.135  1.00  0.00     0.029 A 
ATOM     41  N   UNL A   1      39.211  30.885  32.516  1.00  0.00    -0.354 N 
ATOM     42  C   UNL A   1      39.820  33.359  36.023  1.00  0.00     0.074 A 
ATOM     43  C   UNL A   1      38.823  34.407  36.080  1.00  0.00     0.031 C 
ATOM     44  C   UNL A   1      38.215  30.259  30.614  1.00  0.00     0.029 A 
ATOM     45  C   UNL A   1      39.353  29.986  31.486  1.00  0.00     0.049 A 
ATOM     46  H   UNL A   1      39.842  30.946  33.269  1.00  0.00     0.167 HD
ATOM     47  C   UNL A   1      40.817  33.198  36.929  1.00  0.00     0.034 A 
ATOM     48  C   UNL A   1      40.292  29.045  31.271  1.00  0.00     0.034 A 
ATOM     49  C   UNL A   1      41.797  32.139  36.851  1.00  0.00     0.049 A 
ATOM     50  C   UNL A   1      41.371  28.852  32.303  1.00  0.00     0.074 A 
ATOM     51  C   UNL A   1      42.813  31.834  37.738  1.00  0.00     0.029 A 
ATOM     52  N   UNL A   1      41.887  31.216  35.815  1.00  0.00    -0.354 N 
ATOM     53  N   UNL A   1      41.602  29.540  33.398  1.00  0.00    -0.248 NA
ATOM     54  C   UNL A   1      42.297  27.735  32.084  1.00  0.00     0.031 C 
ATOM     55  C   UNL A   1      43.557  30.773  37.205  1.00  0.00     0.029 A 
ATOM     56  C   UNL A   1      42.957  30.359  36.026  1.00  0.00     0.049 A 
ATOM     57  H   UNL A   1      41.278  31.176  35.042  1.00  0.00     0.167 HD
ATOM     58  C   UNL A   1      42.686  28.922  34.015  1.00  0.00     0.074 A 
ATOM     59  C   UNL A   1      43.045  27.794  33.176  1.00  0.00     0.031 C 
ATOM     60  C   UNL A   1      43.321  29.251  35.170  1.00  0.00     0.034 A 
BRANCH  47  61
ATOM     61  C   UNL A   1      40.900  34.215  38.048  1.00  0.00     0.023 A 
ATOM     62  C   UNL A   1      41.680  35.381  37.931  1.00  0.00     0.031 A 
ATOM     63  C   UNL A   1      40.258  33.983  39.277  1.00  0.00     0.131 A 
ATOM     64  C   UNL A   1      41.898  36.198  39.051  1.00  0.00     0.055 A 
ATOM     65  C   UNL A   1      40.395  34.857  40.358  1.00  0.00     0.041 A 
ATOM     66  F   UNL A   1      39.513  32.882  39.463  1.00  0.00    -0.206 F 
ATOM     67  C   UNL A   1      41.238  35.960  40.257  1.00  0.00     0.022 A 
BRANCH  64  68
ATOM     68  S   UNL A   1      43.212  37.447  38.965  1.00  0.00     0.124 S 
ATOM     69  O   UNL A   1      43.546  37.427  37.543  1.00  0.00    -0.237 OA
ATOM     70  O   UNL A   1      42.539  38.647  39.448  1.00  0.00    -0.237 OA
ATOM     71  O   UNL A   1      44.250  36.915  39.846  1.00  0.00    -0.744 OA
ENDBRANCH  64  68
ENDBRANCH  47  61
BRANCH  48  72
ATOM     72  C   UNL A   1      40.237  28.209  30.039  1.00  0.00     0.023 A 
ATOM     73  C   UNL A   1      41.064  28.475  28.936  1.00  0.00     0.031 A 
ATOM     74  C   UNL A   1      39.355  27.116  29.956  1.00  0.00     0.131 A 
ATOM     75  C   UNL A   1      40.970  27.677  27.785  1.00  0.00     0.055 A 
ATOM     76  C   UNL A   1      39.296  26.301  28.825  1.00  0.00     0.041 A 
ATOM     77  F   UNL A   1      38.554  26.812  30.989  1.00  0.00    -0.206 F 
ATOM     78  C   UNL A   1      40.101  26.585  27.727  1.00  0.00     0.022 A 
BRANCH  75  79
ATOM     79  S   UNL A   1      41.976  28.111  26.338  1.00  0.00     0.124 S 
ATOM     80  O   UNL A   1      43.291  28.309  26.938  1.00  0.00    -0.237 OA
ATOM     81  O   UNL A   1      41.825  26.929  25.497  1.00  0.00    -0.237 OA
ATOM     82  O   UNL A   1      41.334  29.320  25.828  1.00  0.00    -0.744 OA
ENDBRANCH  75  79
ENDBRANCH  48  72
BRANCH  60  83
ATOM     83  C   UNL A   1      44.451  28.348  35.608  1.00  0.00     0.023 A 
ATOM     84  C   UNL A   1      44.276  27.366  36.600  1.00  0.00     0.031 A 
ATOM     85  C   UNL A   1      45.734  28.499  35.049  1.00  0.00     0.131 A 
ATOM     86  C   UNL A   1      45.379  26.627  37.056  1.00  0.00     0.055 A 
ATOM     87  C   UNL A   1      46.811  27.711  35.456  1.00  0.00     0.041 A 
ATOM     88  F   UNL A   1      45.963  29.422  34.101  1.00  0.00    -0.206 F 
ATOM     89  C   UNL A   1      46.641  26.782  36.479  1.00  0.00     0.022 A 
BRANCH  86  90
ATOM     90  S   UNL A   1      45.169  25.558  38.506  1.00  0.00     0.124 S 
ATOM     91  O   UNL A   1      44.596  24.353  37.915  1.00  0.00    -0.237 OA
ATOM     92  O   UNL A   1      46.537  25.438  39.002  1.00  0.00    -0.237 OA
ATOM     93  O   UNL A   1      44.263  26.319  39.364  1.00  0.00    -0.744 OA
ENDBRANCH  86  90
ENDBRANCH  60  83
ENDBRANCH  34  35
ENDBRANCH  26  29
ENDBRANCH  24  25
ENDBRANCH  23  24
ENDBRANCH  22  23
ENDBRANCH   1  22
TORSDOF 20
ENDMDL
MODEL 3
REMARK VINA RESULT:      -9.4      1.105      7.871
REMARK SMILES N#CCCNC(=O)COc1ccc(C(=O)NCCCCNC(=O)c2ccc(-c3c4nc(c(-c5cc(S(=O)(=O)[O-])ccc5F)c5ccc([nH]5)c(-c5cc(S(=O)(=O)[O-])ccc5F)c5nc(c(-c6cc(S(=O)(=O)[O-])ccc6F)c6ccc3[nH]6)C=C5)C=C4)cc2)nc1
REMARK SMILES IDX 17 1 16 2 14 3 15 4 13 6 10 7 11 8 88 9 12 10 87 11 9 12
REMARK SMILES IDX 8 13 6 14 5 15 7 17 4 18 3 19 2 20 1 21 18 22 19 23 20 24
REMARK SMILES IDX 21 25 22 26 23 28 24 29 25 30 86 31 26 32 85 33 27 34 28 35
REMARK SMILES IDX 29 36 79 37 30 38 84 39 78 40 80 41 31 42 83 43 77 44 76 45
REMARK SMILES IDX 32 47 64 48 44 49 63 50 45 51 48 52 62 53 81 54 46 55 47 56
REMARK SMILES IDX 61 58 82 59 49 60 33 61 34 62 42 63 35 64 41 65 43 66 40 67
REMARK SMILES IDX 36 68 37 69 38 70 39 71 65 72 66 73 74 74 67 75 73 76 75 77
REMARK SMILES IDX 72 78 68 79 69 80 70 81 71 82 50 83 51 84 59 85 52 86 58 87
REMARK SMILES IDX 60 88 57 89 53 90 54 91 55 92 56 93
REMARK H PARENT 16 5 5 16 21 27 80 46 48 57
REMARK Flexibility Score: inf
ROOT
ATOM      1  C   UNL A   1      33.784  31.839  27.917  1.00  0.00     0.116 C 
ENDROOT
BRANCH   1   2
ATOM      2  N   UNL A   1      34.867  30.904  27.683  1.00  0.00    -0.351 N 
ATOM      3  C   UNL A   1      34.929  29.571  27.345  1.00  0.00     0.269 C 
ATOM      4  O   UNL A   1      36.067  29.106  27.233  1.00  0.00    -0.268 OA
ATOM      5  H   UNL A   1      35.756  31.314  27.789  1.00  0.00     0.163 HD
BRANCH   3   6
ATOM      6  C   UNL A   1      33.736  28.671  27.113  1.00  0.00     0.128 A 
ATOM      7  C   UNL A   1      31.710  26.832  26.596  1.00  0.00     0.138 A 
ATOM      8  C   UNL A   1      31.429  28.001  27.282  1.00  0.00     0.050 A 
ATOM      9  C   UNL A   1      33.022  26.652  26.185  1.00  0.00     0.158 A 
ATOM     10  C   UNL A   1      32.452  28.907  27.573  1.00  0.00     0.038 A 
ATOM     11  N   UNL A   1      34.020  27.539  26.409  1.00  0.00    -0.247 NA
BRANCH   7  12
ATOM     12  O   UNL A   1      30.846  25.797  26.404  1.00  0.00    -0.482 OA
BRANCH  12  13
ATOM     13  C   UNL A   1      29.894  25.928  25.361  1.00  0.00     0.329 C 
BRANCH  13  14
ATOM     14  C   UNL A   1      30.328  25.839  23.891  1.00  0.00     0.257 C 
ATOM     15  N   UNL A   1      30.309  26.938  23.082  1.00  0.00    -0.352 N 
ATOM     16  H   UNL A   1      30.691  26.805  22.185  1.00  0.00     0.163 HD
ATOM     17  O   UNL A   1      30.707  24.769  23.408  1.00  0.00    -0.271 OA
BRANCH  15  18
ATOM     18  C   UNL A   1      29.807  28.278  23.350  1.00  0.00     0.131 C 
BRANCH  18  19
ATOM     19  C   UNL A   1      30.875  29.261  23.830  1.00  0.00     0.141 C 
BRANCH  19  20
ATOM     20  C   UNL A   1      32.261  28.851  23.357  1.00  0.00     0.064 C 
ATOM     21  N   UNL A   1      33.410  28.512  22.965  1.00  0.00    -0.198 NA
ENDBRANCH  19  20
ENDBRANCH  18  19
ENDBRANCH  15  18
ENDBRANCH  13  14
ENDBRANCH  12  13
ENDBRANCH   7  12
ENDBRANCH   3   6
ENDBRANCH   1   2
BRANCH   1  22
ATOM     22  C   UNL A   1      34.309  33.182  28.431  1.00  0.00     0.023 C 
BRANCH  22  23
ATOM     23  C   UNL A   1      33.222  34.255  28.581  1.00  0.00     0.023 C 
BRANCH  23  24
ATOM     24  C   UNL A   1      33.636  35.475  29.400  1.00  0.00     0.116 C 
BRANCH  24  25
ATOM     25  N   UNL A   1      32.665  35.847  30.415  1.00  0.00    -0.352 N 
ATOM     26  C   UNL A   1      32.709  35.600  31.768  1.00  0.00     0.251 C 
ATOM     27  H   UNL A   1      31.876  36.340  30.094  1.00  0.00     0.163 HD
ATOM     28  O   UNL A   1      31.748  35.881  32.470  1.00  0.00    -0.269 OA
BRANCH  26  29
ATOM     29  C   UNL A   1      33.905  34.947  32.347  1.00  0.00     0.039 A 
ATOM     30  C   UNL A   1      33.764  33.685  32.925  1.00  0.00     0.014 A 
ATOM     31  C   UNL A   1      35.156  35.567  32.305  1.00  0.00     0.014 A 
ATOM     32  C   UNL A   1      34.889  33.026  33.424  1.00  0.00     0.010 A 
ATOM     33  C   UNL A   1      36.287  34.874  32.723  1.00  0.00     0.010 A 
ATOM     34  C   UNL A   1      36.163  33.605  33.307  1.00  0.00    -0.014 A 
BRANCH  34  35
ATOM     35  C   UNL A   1      37.364  32.908  33.831  1.00  0.00     0.031 A 
ATOM     36  C   UNL A   1      37.990  31.788  33.043  1.00  0.00     0.074 A 
ATOM     37  C   UNL A   1      37.861  33.251  35.035  1.00  0.00     0.049 A 
ATOM     38  N   UNL A   1      39.041  31.061  33.325  1.00  0.00    -0.248 NA
ATOM     39  C   UNL A   1      37.318  31.411  31.792  1.00  0.00     0.031 C 
ATOM     40  C   UNL A   1      37.291  34.262  35.926  1.00  0.00     0.029 A 
ATOM     41  N   UNL A   1      38.955  32.785  35.718  1.00  0.00    -0.354 N 
ATOM     42  C   UNL A   1      39.145  30.132  32.295  1.00  0.00     0.074 A 
ATOM     43  C   UNL A   1      38.000  30.336  31.435  1.00  0.00     0.031 C 
ATOM     44  C   UNL A   1      38.055  34.361  37.025  1.00  0.00     0.029 A 
ATOM     45  C   UNL A   1      39.152  33.403  36.930  1.00  0.00     0.049 A 
ATOM     46  H   UNL A   1      39.543  32.075  35.373  1.00  0.00     0.167 HD
ATOM     47  C   UNL A   1      40.121  29.216  32.070  1.00  0.00     0.034 A 
ATOM     48  C   UNL A   1      40.111  33.220  37.858  1.00  0.00     0.034 A 
ATOM     49  C   UNL A   1      41.258  29.036  32.943  1.00  0.00     0.049 A 
ATOM     50  C   UNL A   1      41.209  32.229  37.577  1.00  0.00     0.074 A 
ATOM     51  C   UNL A   1      42.341  28.190  32.790  1.00  0.00     0.029 A 
ATOM     52  N   UNL A   1      41.450  29.710  34.145  1.00  0.00    -0.354 N 
ATOM     53  N   UNL A   1      41.348  31.415  36.555  1.00  0.00    -0.248 NA
ATOM     54  C   UNL A   1      42.296  32.156  38.561  1.00  0.00     0.031 C 
ATOM     55  C   UNL A   1      43.150  28.302  33.928  1.00  0.00     0.029 A 
ATOM     56  C   UNL A   1      42.619  29.280  34.755  1.00  0.00     0.049 A 
ATOM     57  H   UNL A   1      40.844  30.395  34.509  1.00  0.00     0.167 HD
ATOM     58  C   UNL A   1      42.553  30.750  36.760  1.00  0.00     0.074 A 
ATOM     59  C   UNL A   1      43.107  31.276  37.993  1.00  0.00     0.031 C 
ATOM     60  C   UNL A   1      43.150  29.796  35.998  1.00  0.00     0.034 A 
BRANCH  47  61
ATOM     61  C   UNL A   1      39.966  28.333  30.849  1.00  0.00     0.023 A 
ATOM     62  C   UNL A   1      40.643  28.608  29.647  1.00  0.00     0.031 A 
ATOM     63  C   UNL A   1      39.072  27.248  30.859  1.00  0.00     0.131 A 
ATOM     64  C   UNL A   1      40.326  27.894  28.480  1.00  0.00     0.055 A 
ATOM     65  C   UNL A   1      38.839  26.473  29.719  1.00  0.00     0.041 A 
ATOM     66  F   UNL A   1      38.380  26.940  31.967  1.00  0.00    -0.206 F 
ATOM     67  C   UNL A   1      39.449  26.810  28.514  1.00  0.00     0.022 A 
BRANCH  64  68
ATOM     68  S   UNL A   1      40.916  28.537  26.888  1.00  0.00     0.124 S 
ATOM     69  O   UNL A   1      39.775  29.337  26.452  1.00  0.00    -0.237 OA
ATOM     70  O   UNL A   1      42.110  29.281  27.272  1.00  0.00    -0.237 OA
ATOM     71  O   UNL A   1      41.158  27.331  26.100  1.00  0.00    -0.744 OA
ENDBRANCH  64  68
ENDBRANCH  47  61
BRANCH  48  72
ATOM     72  C   UNL A   1      40.080  34.007  39.123  1.00  0.00     0.023 A 
ATOM     73  C   UNL A   1      39.262  33.629  40.200  1.00  0.00     0.031 A 
ATOM     74  C   UNL A   1      40.884  35.151  39.272  1.00  0.00     0.131 A 
ATOM     75  C   UNL A   1      39.244  34.407  41.368  1.00  0.00     0.055 A 
ATOM     76  C   UNL A   1      40.894  35.895  40.453  1.00  0.00     0.041 A 
ATOM     77  F   UNL A   1      41.694  35.545  38.278  1.00  0.00    -0.206 F 
ATOM     78  C   UNL A   1      40.063  35.529  41.507  1.00  0.00     0.022 A 
BRANCH  75  79
ATOM     79  S   UNL A   1      38.098  33.952  42.700  1.00  0.00     0.124 S 
ATOM     80  O   UNL A   1      39.004  33.385  43.692  1.00  0.00    -0.237 OA
ATOM     81  O   UNL A   1      37.500  35.239  43.039  1.00  0.00    -0.237 OA
ATOM     82  O   UNL A   1      37.195  32.998  42.061  1.00  0.00    -0.744 OA
ENDBRANCH  75  79
ENDBRANCH  48  72
BRANCH  60  83
ATOM     83  C   UNL A   1      44.495  29.292  36.466  1.00  0.00     0.023 A 
ATOM     84  C   UNL A   1      44.615  28.214  37.363  1.00  0.00     0.031 A 
ATOM     85  C   UNL A   1      45.676  29.925  36.037  1.00  0.00     0.131 A 
ATOM     86  C   UNL A   1      45.877  27.852  37.858  1.00  0.00     0.055 A 
ATOM     87  C   UNL A   1      46.934  29.514  36.478  1.00  0.00     0.041 A 
ATOM     88  F   UNL A   1      45.625  30.961  35.184  1.00  0.00    -0.206 F 
ATOM     89  C   UNL A   1      47.039  28.484  37.409  1.00  0.00     0.022 A 
BRANCH  86  90
ATOM     90  S   UNL A   1      45.969  26.636  39.201  1.00  0.00     0.124 S 
ATOM     91  O   UNL A   1      44.864  27.050  40.061  1.00  0.00    -0.237 OA
ATOM     92  O   UNL A   1      45.785  25.375  38.489  1.00  0.00    -0.237 OA
ATOM     93  O   UNL A   1      47.302  26.844  39.761  1.00  0.00    -0.744 OA
ENDBRANCH  86  90
ENDBRANCH  60  83
ENDBRANCH  34  35
ENDBRANCH  26  29
ENDBRANCH  24  25
ENDBRANCH  23  24
ENDBRANCH  22  23
ENDBRANCH   1  22
TORSDOF 20
ENDMDL
