MODEL 1
REMARK VINA RESULT:     -11.8      0.000      0.000
REMARK SMILES C/C(=N\[NH+]=C1/NC(=O)[C@@H](CC(=O)NCCCCNC(=O)c2ccc(-c3c4nc(c(-c5cc(S(=O)(=O)[O-])ccc5F)c5ccc([nH]5)c(-c5cc(S(=O)(=O)[O-])ccc5F)c5nc(c(-c6cc(S(=O)(=O)[O-])ccc6F)c6ccc3[nH]6)C=C5)C=C4)cc2)S1)c1ccc(Br)cc1
REMARK SMILES IDX 15 1 14 2 13 3 11 4 12 5 10 7 9 8 4 9 5 10 6 12 84 13 7 14
REMARK SMILES IDX 8 16 3 17 1 18 2 19 85 20 86 21 91 22 87 23 90 24 88 25
REMARK SMILES IDX 89 26 16 27 17 28 18 29 19 30 20 32 21 33 22 34 83 35 23 36
REMARK SMILES IDX 82 37 24 38 25 39 26 40 76 41 27 42 81 43 75 44 77 45 28 46
REMARK SMILES IDX 80 47 74 48 73 49 29 51 61 52 41 53 60 54 42 55 45 56 59 57
REMARK SMILES IDX 78 58 43 59 44 60 58 62 79 63 46 64 30 65 31 66 39 67 32 68
REMARK SMILES IDX 38 69 40 70 37 71 33 72 34 73 35 74 36 75 62 76 63 77 71 78
REMARK SMILES IDX 64 79 70 80 72 81 69 82 65 83 66 84 67 85 68 86 47 87 48 88
REMARK SMILES IDX 56 89 49 90 55 91 57 92 54 93 50 94 51 95 52 96 53 97
REMARK H PARENT 13 6 4 11 6 15 18 31 77 50 45 61
REMARK Flexibility Score: inf
ROOT
ATOM      1  C   UNL A   1      33.400  26.957  26.131  1.00  0.00     0.023 C 
ENDROOT
BRANCH   1   2
ATOM      2  C   UNL A   1      33.895  25.925  25.113  1.00  0.00     0.116 C 
BRANCH   2   3
ATOM      3  N   UNL A   1      34.416  24.713  25.730  1.00  0.00    -0.356 N 
ATOM      4  C   UNL A   1      34.980  23.593  25.201  1.00  0.00     0.221 C 
ATOM      5  O   UNL A   1      35.453  22.764  25.980  1.00  0.00    -0.275 OA
ATOM      6  H   UNL A   1      34.349  24.703  26.712  1.00  0.00     0.163 HD
BRANCH   4   7
ATOM      7  C   UNL A   1      35.017  23.342  23.703  1.00  0.00     0.127 C 
BRANCH   7   8
ATOM      8  C   UNL A   1      33.837  22.545  23.144  1.00  0.00     0.183 C 
ATOM      9  N   UNL A   1      30.317  23.892  23.927  1.00  0.00    -0.142 N 
ATOM     10  C   UNL A   1      31.482  23.511  23.529  1.00  0.00     0.337 C 
ATOM     11  H   UNL A   1      29.779  23.353  24.550  1.00  0.00     0.343 HD
ATOM     12  N   UNL A   1      32.112  23.982  22.434  1.00  0.00    -0.202 N 
ATOM     13  S   UNL A   1      32.421  22.250  24.275  1.00  0.00    -0.020 SA
ATOM     14  C   UNL A   1      33.219  23.312  22.012  1.00  0.00     0.322 C 
ATOM     15  H   UNL A   1      31.783  24.778  21.957  1.00  0.00     0.316 HD
ATOM     16  O   UNL A   1      33.662  23.348  20.873  1.00  0.00    -0.246 OA
BRANCH   9  17
ATOM     17  N   UNL A   1      29.862  25.117  23.426  1.00  0.00    -0.090 NA
ATOM     18  C   UNL A   1      29.715  26.135  25.699  1.00  0.00     0.071 C 
ATOM     19  C   UNL A   1      29.686  26.159  24.186  1.00  0.00     0.088 C 
BRANCH  19  20
ATOM     20  C   UNL A   1      29.334  27.455  23.498  1.00  0.00    -0.000 A 
ATOM     21  C   UNL A   1      27.991  27.870  23.481  1.00  0.00     0.011 A 
ATOM     22  C   UNL A   1      30.292  28.245  22.850  1.00  0.00     0.011 A 
ATOM     23  C   UNL A   1      27.609  29.041  22.819  1.00  0.00     0.016 A 
ATOM     24  C   UNL A   1      29.908  29.415  22.180  1.00  0.00     0.016 A 
ATOM     25  C   UNL A   1      28.569  29.804  22.166  1.00  0.00     0.018 A 
ATOM     26  Br  UNL A   1      28.055  31.371  21.243  1.00  0.00    -0.051 Br
ENDBRANCH  19  20
ENDBRANCH   9  17
ENDBRANCH   7   8
ENDBRANCH   4   7
ENDBRANCH   2   3
ENDBRANCH   1   2
BRANCH   1  27
ATOM     27  C   UNL A   1      32.588  28.119  25.567  1.00  0.00     0.023 C 
BRANCH  27  28
ATOM     28  C   UNL A   1      33.431  29.327  25.202  1.00  0.00     0.116 C 
BRANCH  28  29
ATOM     29  N   UNL A   1      32.899  30.553  25.780  1.00  0.00    -0.352 N 
ATOM     30  C   UNL A   1      33.277  31.233  26.909  1.00  0.00     0.251 C 
ATOM     31  H   UNL A   1      32.151  30.956  25.284  1.00  0.00     0.163 HD
ATOM     32  O   UNL A   1      32.557  32.132  27.334  1.00  0.00    -0.269 OA
BRANCH  30  33
ATOM     33  C   UNL A   1      34.525  30.872  27.611  1.00  0.00     0.039 A 
ATOM     34  C   UNL A   1      35.546  31.821  27.697  1.00  0.00     0.014 A 
ATOM     35  C   UNL A   1      34.702  29.601  28.165  1.00  0.00     0.014 A 
ATOM     36  C   UNL A   1      36.724  31.506  28.373  1.00  0.00     0.010 A 
ATOM     37  C   UNL A   1      35.830  29.323  28.924  1.00  0.00     0.010 A 
ATOM     38  C   UNL A   1      36.864  30.264  29.014  1.00  0.00    -0.014 A 
BRANCH  38  39
ATOM     39  C   UNL A   1      38.104  29.926  29.750  1.00  0.00     0.031 A 
ATOM     40  C   UNL A   1      38.334  30.480  31.129  1.00  0.00     0.074 A 
ATOM     41  C   UNL A   1      39.029  29.150  29.155  1.00  0.00     0.049 A 
ATOM     42  N   UNL A   1      39.348  30.300  31.936  1.00  0.00    -0.248 NA
ATOM     43  C   UNL A   1      37.306  31.391  31.657  1.00  0.00     0.031 C 
ATOM     44  C   UNL A   1      38.937  28.621  27.790  1.00  0.00     0.029 A 
ATOM     45  N   UNL A   1      40.224  28.665  29.616  1.00  0.00    -0.354 N 
ATOM     46  C   UNL A   1      39.087  31.083  33.056  1.00  0.00     0.074 A 
ATOM     47  C   UNL A   1      37.858  31.798  32.789  1.00  0.00     0.031 C 
ATOM     48  C   UNL A   1      40.006  27.847  27.545  1.00  0.00     0.029 A 
ATOM     49  C   UNL A   1      40.873  27.851  28.718  1.00  0.00     0.049 A 
ATOM     50  H   UNL A   1      40.583  28.878  30.508  1.00  0.00     0.167 HD
ATOM     51  C   UNL A   1      39.789  31.171  34.212  1.00  0.00     0.034 A 
ATOM     52  C   UNL A   1      42.031  27.175  28.837  1.00  0.00     0.034 A 
ATOM     53  C   UNL A   1      41.001  30.428  34.459  1.00  0.00     0.049 A 
ATOM     54  C   UNL A   1      42.774  27.254  30.146  1.00  0.00     0.074 A 
ATOM     55  C   UNL A   1      41.776  30.392  35.605  1.00  0.00     0.029 A 
ATOM     56  N   UNL A   1      41.617  29.589  33.538  1.00  0.00    -0.354 N 
ATOM     57  N   UNL A   1      42.480  27.946  31.224  1.00  0.00    -0.248 NA
ATOM     58  C   UNL A   1      43.989  26.441  30.262  1.00  0.00     0.031 C 
ATOM     59  C   UNL A   1      42.886  29.575  35.357  1.00  0.00     0.029 A 
ATOM     60  C   UNL A   1      42.771  29.046  34.082  1.00  0.00     0.049 A 
ATOM     61  H   UNL A   1      41.283  29.406  32.631  1.00  0.00     0.167 HD
ATOM     62  C   UNL A   1      43.464  27.632  32.155  1.00  0.00     0.074 A 
ATOM     63  C   UNL A   1      44.337  26.665  31.520  1.00  0.00     0.031 C 
ATOM     64  C   UNL A   1      43.637  28.098  33.419  1.00  0.00     0.034 A 
BRANCH  51  65
ATOM     65  C   UNL A   1      39.266  32.113  35.272  1.00  0.00     0.023 A 
ATOM     66  C   UNL A   1      39.678  33.457  35.336  1.00  0.00     0.031 A 
ATOM     67  C   UNL A   1      38.379  31.653  36.262  1.00  0.00     0.131 A 
ATOM     68  C   UNL A   1      39.274  34.265  36.410  1.00  0.00     0.055 A 
ATOM     69  C   UNL A   1      37.912  32.488  37.280  1.00  0.00     0.041 A 
ATOM     70  F   UNL A   1      37.965  30.375  36.269  1.00  0.00    -0.206 F 
ATOM     71  C   UNL A   1      38.373  33.798  37.368  1.00  0.00     0.022 A 
BRANCH  68  72
ATOM     72  S   UNL A   1      40.067  35.885  36.621  1.00  0.00     0.124 S 
ATOM     73  O   UNL A   1      39.732  36.542  35.360  1.00  0.00    -0.237 OA
ATOM     74  O   UNL A   1      39.405  36.408  37.810  1.00  0.00    -0.237 OA
ATOM     75  O   UNL A   1      41.481  35.555  36.786  1.00  0.00    -0.744 OA
ENDBRANCH  68  72
ENDBRANCH  51  65
BRANCH  52  76
ATOM     76  C   UNL A   1      42.543  26.347  27.709  1.00  0.00     0.023 A 
ATOM     77  C   UNL A   1      42.083  25.036  27.507  1.00  0.00     0.031 A 
ATOM     78  C   UNL A   1      43.519  26.846  26.830  1.00  0.00     0.131 A 
ATOM     79  C   UNL A   1      42.634  24.250  26.483  1.00  0.00     0.055 A 
ATOM     80  C   UNL A   1      44.028  26.078  25.780  1.00  0.00     0.041 A 
ATOM     81  F   UNL A   1      43.984  28.098  26.970  1.00  0.00    -0.206 F 
ATOM     82  C   UNL A   1      43.595  24.767  25.611  1.00  0.00     0.022 A 
BRANCH  79  83
ATOM     83  S   UNL A   1      42.130  22.513  26.355  1.00  0.00     0.124 S 
ATOM     84  O   UNL A   1      42.836  22.084  25.153  1.00  0.00    -0.237 OA
ATOM     85  O   UNL A   1      42.615  21.963  27.616  1.00  0.00    -0.237 OA
ATOM     86  O   UNL A   1      40.676  22.590  26.231  1.00  0.00    -0.744 OA
ENDBRANCH  79  83
ENDBRANCH  52  76
BRANCH  64  87
ATOM     87  C   UNL A   1      44.804  27.534  34.191  1.00  0.00     0.023 A 
ATOM     88  C   UNL A   1      46.074  28.136  34.147  1.00  0.00     0.031 A 
ATOM     89  C   UNL A   1      44.657  26.353  34.940  1.00  0.00     0.131 A 
ATOM     90  C   UNL A   1      47.164  27.513  34.771  1.00  0.00     0.055 A 
ATOM     91  C   UNL A   1      45.730  25.776  35.618  1.00  0.00     0.041 A 
ATOM     92  F   UNL A   1      43.467  25.736  35.017  1.00  0.00    -0.206 F 
ATOM     93  C   UNL A   1      46.998  26.345  35.519  1.00  0.00     0.022 A 
BRANCH  90  94
ATOM     94  S   UNL A   1      48.825  28.181  34.482  1.00  0.00     0.124 S 
ATOM     95  O   UNL A   1      48.530  29.482  33.889  1.00  0.00    -0.237 OA
ATOM     96  O   UNL A   1      49.389  28.208  35.827  1.00  0.00    -0.237 OA
ATOM     97  O   UNL A   1      49.432  27.208  33.574  1.00  0.00    -0.744 OA
ENDBRANCH  90  94
ENDBRANCH  64  87
ENDBRANCH  38  39
ENDBRANCH  30  33
ENDBRANCH  28  29
ENDBRANCH  27  28
ENDBRANCH   1  27
TORSDOF 17
ENDMDL
MODEL 2
REMARK VINA RESULT:     -11.7      2.956      4.529
REMARK SMILES C/C(=N\[NH+]=C1/NC(=O)[C@@H](CC(=O)NCCCCNC(=O)c2ccc(-c3c4nc(c(-c5cc(S(=O)(=O)[O-])ccc5F)c5ccc([nH]5)c(-c5cc(S(=O)(=O)[O-])ccc5F)c5nc(c(-c6cc(S(=O)(=O)[O-])ccc6F)c6ccc3[nH]6)C=C5)C=C4)cc2)S1)c1ccc(Br)cc1
REMARK SMILES IDX 15 1 14 2 13 3 11 4 12 5 10 7 9 8 4 9 5 10 6 12 84 13 7 14
REMARK SMILES IDX 8 16 3 17 1 18 2 19 85 20 86 21 91 22 87 23 90 24 88 25
REMARK SMILES IDX 89 26 16 27 17 28 18 29 19 30 20 32 21 33 22 34 83 35 23 36
REMARK SMILES IDX 82 37 24 38 25 39 26 40 76 41 27 42 81 43 75 44 77 45 28 46
REMARK SMILES IDX 80 47 74 48 73 49 29 51 61 52 41 53 60 54 42 55 45 56 59 57
REMARK SMILES IDX 78 58 43 59 44 60 58 62 79 63 46 64 30 65 31 66 39 67 32 68
REMARK SMILES IDX 38 69 40 70 37 71 33 72 34 73 35 74 36 75 62 76 63 77 71 78
REMARK SMILES IDX 64 79 70 80 72 81 69 82 65 83 66 84 67 85 68 86 47 87 48 88
REMARK SMILES IDX 56 89 49 90 55 91 57 92 54 93 50 94 51 95 52 96 53 97
REMARK H PARENT 13 6 4 11 6 15 18 31 77 50 45 61
REMARK Flexibility Score: inf
ROOT
ATOM      1  C   UNL A   1      31.681  26.581  26.699  1.00  0.00     0.023 C 
ENDROOT
BRANCH   1   2
ATOM      2  C   UNL A   1      30.720  26.442  25.515  1.00  0.00     0.116 C 
BRANCH   2   3
ATOM      3  N   UNL A   1      30.524  27.688  24.786  1.00  0.00    -0.356 N 
ATOM      4  C   UNL A   1      30.625  27.993  23.463  1.00  0.00     0.221 C 
ATOM      5  O   UNL A   1      30.275  29.118  23.103  1.00  0.00    -0.275 OA
ATOM      6  H   UNL A   1      30.271  28.450  25.355  1.00  0.00     0.163 HD
BRANCH   4   7
ATOM      7  C   UNL A   1      31.169  27.001  22.448  1.00  0.00     0.127 C 
BRANCH   7   8
ATOM      8  C   UNL A   1      32.685  27.035  22.248  1.00  0.00     0.183 C 
ATOM      9  N   UNL A   1      34.774  24.705  24.490  1.00  0.00    -0.142 N 
ATOM     10  C   UNL A   1      34.086  25.376  23.632  1.00  0.00     0.337 C 
ATOM     11  H   UNL A   1      35.327  25.148  25.173  1.00  0.00     0.343 HD
ATOM     12  N   UNL A   1      33.611  24.881  22.472  1.00  0.00    -0.202 N 
ATOM     13  S   UNL A   1      33.724  27.074  23.761  1.00  0.00    -0.020 SA
ATOM     14  C   UNL A   1      33.118  25.770  21.566  1.00  0.00     0.322 C 
ATOM     15  H   UNL A   1      33.620  23.914  22.287  1.00  0.00     0.316 HD
ATOM     16  O   UNL A   1      33.020  25.558  20.367  1.00  0.00    -0.246 OA
BRANCH   9  17
ATOM     17  N   UNL A   1      34.688  23.311  24.399  1.00  0.00    -0.090 NA
ATOM     18  C   UNL A   1      33.174  23.149  26.376  1.00  0.00     0.071 C 
ATOM     19  C   UNL A   1      33.901  22.609  25.163  1.00  0.00     0.088 C 
BRANCH  19  20
ATOM     20  C   UNL A   1      33.793  21.135  24.861  1.00  0.00    -0.000 A 
ATOM     21  C   UNL A   1      34.946  20.336  24.966  1.00  0.00     0.011 A 
ATOM     22  C   UNL A   1      32.594  20.538  24.454  1.00  0.00     0.011 A 
ATOM     23  C   UNL A   1      34.905  18.974  24.655  1.00  0.00     0.016 A 
ATOM     24  C   UNL A   1      32.556  19.173  24.135  1.00  0.00     0.016 A 
ATOM     25  C   UNL A   1      33.711  18.400  24.234  1.00  0.00     0.018 A 
ATOM     26  Br  UNL A   1      33.658  16.566  23.783  1.00  0.00    -0.051 Br
ENDBRANCH  19  20
ENDBRANCH   9  17
ENDBRANCH   7   8
ENDBRANCH   4   7
ENDBRANCH   2   3
ENDBRANCH   1   2
BRANCH   1  27
ATOM     27  C   UNL A   1      31.851  27.989  27.263  1.00  0.00     0.023 C 
BRANCH  27  28
ATOM     28  C   UNL A   1      33.272  28.514  27.164  1.00  0.00     0.116 C 
BRANCH  28  29
ATOM     29  N   UNL A   1      33.314  29.969  27.181  1.00  0.00    -0.352 N 
ATOM     30  C   UNL A   1      34.244  30.819  27.721  1.00  0.00     0.251 C 
ATOM     31  H   UNL A   1      32.556  30.412  26.736  1.00  0.00     0.163 HD
ATOM     32  O   UNL A   1      33.980  32.015  27.809  1.00  0.00    -0.269 OA
BRANCH  30  33
ATOM     33  C   UNL A   1      35.536  30.295  28.206  1.00  0.00     0.039 A 
ATOM     34  C   UNL A   1      36.648  30.368  27.364  1.00  0.00     0.014 A 
ATOM     35  C   UNL A   1      35.652  29.717  29.473  1.00  0.00     0.014 A 
ATOM     36  C   UNL A   1      37.881  29.896  27.811  1.00  0.00     0.010 A 
ATOM     37  C   UNL A   1      36.899  29.342  29.956  1.00  0.00     0.010 A 
ATOM     38  C   UNL A   1      38.022  29.404  29.120  1.00  0.00    -0.014 A 
BRANCH  38  39
ATOM     39  C   UNL A   1      39.332  28.918  29.611  1.00  0.00     0.031 A 
ATOM     40  C   UNL A   1      39.990  29.587  30.787  1.00  0.00     0.074 A 
ATOM     41  C   UNL A   1      39.935  27.899  28.971  1.00  0.00     0.049 A 
ATOM     42  N   UNL A   1      41.128  29.309  31.368  1.00  0.00    -0.248 NA
ATOM     43  C   UNL A   1      39.294  30.750  31.361  1.00  0.00     0.031 C 
ATOM     44  C   UNL A   1      39.417  27.228  27.774  1.00  0.00     0.029 A 
ATOM     45  N   UNL A   1      41.108  27.243  29.234  1.00  0.00    -0.354 N 
ATOM     46  C   UNL A   1      41.290  30.267  32.364  1.00  0.00     0.074 A 
ATOM     47  C   UNL A   1      40.172  31.178  32.255  1.00  0.00     0.031 C 
ATOM     48  C   UNL A   1      40.245  26.226  27.438  1.00  0.00     0.029 A 
ATOM     49  C   UNL A   1      41.366  26.204  28.371  1.00  0.00     0.049 A 
ATOM     50  H   UNL A   1      41.710  27.492  29.973  1.00  0.00     0.167 HD
ATOM     51  C   UNL A   1      42.265  30.358  33.302  1.00  0.00     0.034 A 
ATOM     52  C   UNL A   1      42.387  25.327  28.348  1.00  0.00     0.034 A 
ATOM     53  C   UNL A   1      43.358  29.421  33.401  1.00  0.00     0.049 A 
ATOM     54  C   UNL A   1      43.436  25.421  29.425  1.00  0.00     0.074 A 
ATOM     55  C   UNL A   1      44.376  29.376  34.336  1.00  0.00     0.029 A 
ATOM     56  N   UNL A   1      43.573  28.362  32.528  1.00  0.00    -0.354 N 
ATOM     57  N   UNL A   1      43.541  26.292  30.403  1.00  0.00    -0.248 NA
ATOM     58  C   UNL A   1      44.487  24.398  29.409  1.00  0.00     0.031 C 
ATOM     59  C   UNL A   1      45.237  28.324  33.995  1.00  0.00     0.029 A 
ATOM     60  C   UNL A   1      44.718  27.669  32.889  1.00  0.00     0.049 A 
ATOM     61  H   UNL A   1      42.997  28.136  31.763  1.00  0.00     0.167 HD
ATOM     62  C   UNL A   1      44.660  25.906  31.134  1.00  0.00     0.074 A 
ATOM     63  C   UNL A   1      45.171  24.707  30.500  1.00  0.00     0.031 C 
ATOM     64  C   UNL A   1      45.219  26.487  32.228  1.00  0.00     0.034 A 
BRANCH  51  65
ATOM     65  C   UNL A   1      42.189  31.516  34.271  1.00  0.00     0.023 A 
ATOM     66  C   UNL A   1      41.327  31.496  35.382  1.00  0.00     0.031 A 
ATOM     67  C   UNL A   1      42.955  32.677  34.058  1.00  0.00     0.131 A 
ATOM     68  C   UNL A   1      41.185  32.639  36.184  1.00  0.00     0.055 A 
ATOM     69  C   UNL A   1      42.874  33.781  34.911  1.00  0.00     0.041 A 
ATOM     70  F   UNL A   1      43.780  32.768  33.004  1.00  0.00    -0.206 F 
ATOM     71  C   UNL A   1      41.972  33.772  35.972  1.00  0.00     0.022 A 
BRANCH  68  72
ATOM     72  S   UNL A   1      39.848  32.678  37.411  1.00  0.00     0.124 S 
ATOM     73  O   UNL A   1      40.579  32.433  38.651  1.00  0.00    -0.237 OA
ATOM     74  O   UNL A   1      39.304  34.021  37.243  1.00  0.00    -0.237 OA
ATOM     75  O   UNL A   1      38.966  31.590  36.990  1.00  0.00    -0.744 OA
ENDBRANCH  68  72
ENDBRANCH  51  65
BRANCH  52  76
ATOM     76  C   UNL A   1      42.453  24.273  27.296  1.00  0.00     0.023 A 
ATOM     77  C   UNL A   1      41.625  23.140  27.354  1.00  0.00     0.031 A 
ATOM     78  C   UNL A   1      43.364  24.370  26.231  1.00  0.00     0.131 A 
ATOM     79  C   UNL A   1      41.759  22.126  26.393  1.00  0.00     0.055 A 
ATOM     80  C   UNL A   1      43.458  23.382  25.248  1.00  0.00     0.041 A 
ATOM     81  F   UNL A   1      44.170  25.439  26.120  1.00  0.00    -0.206 F 
ATOM     82  C   UNL A   1      42.662  22.245  25.334  1.00  0.00     0.022 A 
BRANCH  79  83
ATOM     83  S   UNL A   1      40.785  20.609  26.593  1.00  0.00     0.124 S 
ATOM     84  O   UNL A   1      40.836  20.409  28.037  1.00  0.00    -0.237 OA
ATOM     85  O   UNL A   1      39.493  21.004  26.045  1.00  0.00    -0.237 OA
ATOM     86  O   UNL A   1      41.521  19.626  25.800  1.00  0.00    -0.744 OA
ENDBRANCH  79  83
ENDBRANCH  52  76
BRANCH  64  87
ATOM     87  C   UNL A   1      46.431  25.800  32.808  1.00  0.00     0.023 A 
ATOM     88  C   UNL A   1      47.724  26.047  32.312  1.00  0.00     0.031 A 
ATOM     89  C   UNL A   1      46.286  24.853  33.837  1.00  0.00     0.131 A 
ATOM     90  C   UNL A   1      48.808  25.296  32.787  1.00  0.00     0.055 A 
ATOM     91  C   UNL A   1      47.380  24.160  34.356  1.00  0.00     0.041 A 
ATOM     92  F   UNL A   1      45.075  24.579  34.348  1.00  0.00    -0.206 F 
ATOM     93  C   UNL A   1      48.648  24.366  33.817  1.00  0.00     0.022 A 
BRANCH  90  94
ATOM     94  S   UNL A   1      50.408  25.462  31.950  1.00  0.00     0.124 S 
ATOM     95  O   UNL A   1      50.121  26.482  30.946  1.00  0.00    -0.237 OA
ATOM     96  O   UNL A   1      51.289  25.870  33.039  1.00  0.00    -0.237 OA
ATOM     97  O   UNL A   1      50.657  24.122  31.420  1.00  0.00    -0.744 OA
ENDBRANCH  90  94
ENDBRANCH  64  87
ENDBRANCH  38  39
ENDBRANCH  30  33
ENDBRANCH  28  29
ENDBRANCH  27  28
ENDBRANCH   1  27
TORSDOF 17
ENDMDL
MODEL 3
REMARK VINA RESULT:     -11.7      3.376      8.914
REMARK SMILES C/C(=N\[NH+]=C1/NC(=O)[C@@H](CC(=O)NCCCCNC(=O)c2ccc(-c3c4nc(c(-c5cc(S(=O)(=O)[O-])ccc5F)c5ccc([nH]5)c(-c5cc(S(=O)(=O)[O-])ccc5F)c5nc(c(-c6cc(S(=O)(=O)[O-])ccc6F)c6ccc3[nH]6)C=C5)C=C4)cc2)S1)c1ccc(Br)cc1
REMARK SMILES IDX 15 1 14 2 13 3 11 4 12 5 10 7 9 8 4 9 5 10 6 12 84 13 7 14
REMARK SMILES IDX 8 16 3 17 1 18 2 19 85 20 86 21 91 22 87 23 90 24 88 25
REMARK SMILES IDX 89 26 16 27 17 28 18 29 19 30 20 32 21 33 22 34 83 35 23 36
REMARK SMILES IDX 82 37 24 38 25 39 26 40 76 41 27 42 81 43 75 44 77 45 28 46
REMARK SMILES IDX 80 47 74 48 73 49 29 51 61 52 41 53 60 54 42 55 45 56 59 57
REMARK SMILES IDX 78 58 43 59 44 60 58 62 79 63 46 64 30 65 31 66 39 67 32 68
REMARK SMILES IDX 38 69 40 70 37 71 33 72 34 73 35 74 36 75 62 76 63 77 71 78
REMARK SMILES IDX 64 79 70 80 72 81 69 82 65 83 66 84 67 85 68 86 47 87 48 88
REMARK SMILES IDX 56 89 49 90 55 91 57 92 54 93 50 94 51 95 52 96 53 97
REMARK H PARENT 13 6 4 11 6 15 18 31 77 50 45 61
REMARK Flexibility Score: inf
ROOT
ATOM      1  C   UNL A   1      31.410  31.160  26.176  1.00  0.00     0.023 C 
ENDROOT
BRANCH   1   2
ATOM      2  C   UNL A   1      30.430  30.823  25.049  1.00  0.00     0.116 C 
BRANCH   2   3
ATOM      3  N   UNL A   1      29.998  31.992  24.295  1.00  0.00    -0.356 N 
ATOM      4  C   UNL A   1      28.804  32.318  23.728  1.00  0.00     0.221 C 
ATOM      5  O   UNL A   1      28.683  33.447  23.251  1.00  0.00    -0.275 OA
ATOM      6  H   UNL A   1      30.698  32.673  24.175  1.00  0.00     0.163 HD
BRANCH   4   7
ATOM      7  C   UNL A   1      27.652  31.330  23.654  1.00  0.00     0.127 C 
BRANCH   7   8
ATOM      8  C   UNL A   1      27.689  30.368  22.465  1.00  0.00     0.183 C 
ATOM      9  N   UNL A   1      30.865  28.228  22.077  1.00  0.00    -0.142 N 
ATOM     10  C   UNL A   1      29.739  28.821  22.274  1.00  0.00     0.337 C 
ATOM     11  H   UNL A   1      31.443  28.450  21.311  1.00  0.00     0.343 HD
ATOM     12  N   UNL A   1      28.746  28.347  23.052  1.00  0.00    -0.202 N 
ATOM     13  S   UNL A   1      29.249  30.301  21.498  1.00  0.00    -0.020 SA
ATOM     14  C   UNL A   1      27.535  28.962  22.966  1.00  0.00     0.322 C 
ATOM     15  H   UNL A   1      28.890  27.584  23.657  1.00  0.00     0.316 HD
ATOM     16  O   UNL A   1      26.470  28.449  23.277  1.00  0.00    -0.246 OA
BRANCH   9  17
ATOM     17  N   UNL A   1      31.222  27.250  23.012  1.00  0.00    -0.090 NA
ATOM     18  C   UNL A   1      33.479  26.925  21.999  1.00  0.00     0.071 C 
ATOM     19  C   UNL A   1      32.416  26.732  23.059  1.00  0.00     0.088 C 
BRANCH  19  20
ATOM     20  C   UNL A   1      32.711  25.799  24.207  1.00  0.00    -0.000 A 
ATOM     21  C   UNL A   1      33.860  24.990  24.145  1.00  0.00     0.011 A 
ATOM     22  C   UNL A   1      31.868  25.687  25.320  1.00  0.00     0.011 A 
ATOM     23  C   UNL A   1      34.153  24.079  25.163  1.00  0.00     0.016 A 
ATOM     24  C   UNL A   1      32.158  24.767  26.337  1.00  0.00     0.016 A 
ATOM     25  C   UNL A   1      33.296  23.967  26.252  1.00  0.00     0.018 A 
ATOM     26  Br  UNL A   1      33.671  22.715  27.617  1.00  0.00    -0.051 Br
ENDBRANCH  19  20
ENDBRANCH   9  17
ENDBRANCH   7   8
ENDBRANCH   4   7
ENDBRANCH   2   3
ENDBRANCH   1   2
BRANCH   1  27
ATOM     27  C   UNL A   1      31.468  32.625  26.598  1.00  0.00     0.023 C 
BRANCH  27  28
ATOM     28  C   UNL A   1      32.766  33.007  27.286  1.00  0.00     0.116 C 
BRANCH  28  29
ATOM     29  N   UNL A   1      32.739  34.381  27.769  1.00  0.00    -0.352 N 
ATOM     30  C   UNL A   1      33.391  34.957  28.828  1.00  0.00     0.251 C 
ATOM     31  H   UNL A   1      32.162  34.990  27.255  1.00  0.00     0.163 HD
ATOM     32  O   UNL A   1      33.064  36.083  29.190  1.00  0.00    -0.269 OA
BRANCH  30  33
ATOM     33  C   UNL A   1      34.460  34.220  29.533  1.00  0.00     0.039 A 
ATOM     34  C   UNL A   1      35.780  34.380  29.105  1.00  0.00     0.014 A 
ATOM     35  C   UNL A   1      34.166  33.360  30.595  1.00  0.00     0.014 A 
ATOM     36  C   UNL A   1      36.804  33.708  29.770  1.00  0.00     0.010 A 
ATOM     37  C   UNL A   1      35.194  32.773  31.320  1.00  0.00     0.010 A 
ATOM     38  C   UNL A   1      36.522  32.921  30.899  1.00  0.00    -0.014 A 
BRANCH  38  39
ATOM     39  C   UNL A   1      37.606  32.218  31.623  1.00  0.00     0.031 A 
ATOM     40  C   UNL A   1      38.379  31.123  30.940  1.00  0.00     0.074 A 
ATOM     41  C   UNL A   1      37.861  32.548  32.903  1.00  0.00     0.049 A 
ATOM     42  N   UNL A   1      39.363  30.394  31.399  1.00  0.00    -0.248 NA
ATOM     43  C   UNL A   1      37.965  30.774  29.572  1.00  0.00     0.031 C 
ATOM     44  C   UNL A   1      37.119  33.544  33.682  1.00  0.00     0.029 A 
ATOM     45  N   UNL A   1      38.813  32.090  33.774  1.00  0.00    -0.354 N 
ATOM     46  C   UNL A   1      39.676  29.494  30.385  1.00  0.00     0.074 A 
ATOM     47  C   UNL A   1      38.724  29.719  29.319  1.00  0.00     0.031 C 
ATOM     48  C   UNL A   1      37.676  33.655  34.899  1.00  0.00     0.029 A 
ATOM     49  C   UNL A   1      38.789  32.718  34.998  1.00  0.00     0.049 A 
ATOM     50  H   UNL A   1      39.455  31.379  33.546  1.00  0.00     0.167 HD
ATOM     51  C   UNL A   1      40.682  28.587  30.335  1.00  0.00     0.034 A 
ATOM     52  C   UNL A   1      39.587  32.560  36.071  1.00  0.00     0.034 A 
ATOM     53  C   UNL A   1      41.630  28.400  31.406  1.00  0.00     0.049 A 
ATOM     54  C   UNL A   1      40.725  31.577  35.978  1.00  0.00     0.074 A 
ATOM     55  C   UNL A   1      42.723  27.552  31.456  1.00  0.00     0.029 A 
ATOM     56  N   UNL A   1      41.596  29.073  32.622  1.00  0.00    -0.354 N 
ATOM     57  N   UNL A   1      41.051  30.780  34.986  1.00  0.00    -0.248 NA
ATOM     58  C   UNL A   1      41.617  31.494  37.140  1.00  0.00     0.031 C 
ATOM     59  C   UNL A   1      43.314  27.673  32.720  1.00  0.00     0.029 A 
ATOM     60  C   UNL A   1      42.634  28.647  33.435  1.00  0.00     0.049 A 
ATOM     61  H   UNL A   1      40.930  29.754  32.870  1.00  0.00     0.167 HD
ATOM     62  C   UNL A   1      42.202  30.115  35.397  1.00  0.00     0.074 A 
ATOM     63  C   UNL A   1      42.527  30.632  36.712  1.00  0.00     0.031 C 
ATOM     64  C   UNL A   1      42.925  29.163  34.752  1.00  0.00     0.034 A 
BRANCH  51  65
ATOM     65  C   UNL A   1      40.785  27.732  29.093  1.00  0.00     0.023 A 
ATOM     66  C   UNL A   1      41.700  28.027  28.066  1.00  0.00     0.031 A 
ATOM     67  C   UNL A   1      39.928  26.633  28.909  1.00  0.00     0.131 A 
ATOM     68  C   UNL A   1      41.677  27.291  26.871  1.00  0.00     0.055 A 
ATOM     69  C   UNL A   1      39.969  25.850  27.753  1.00  0.00     0.041 A 
ATOM     70  F   UNL A   1      39.017  26.312  29.843  1.00  0.00    -0.206 F 
ATOM     71  C   UNL A   1      40.836  26.188  26.718  1.00  0.00     0.022 A 
BRANCH  68  72
ATOM     72  S   UNL A   1      42.653  27.894  25.464  1.00  0.00     0.124 S 
ATOM     73  O   UNL A   1      43.914  28.245  26.109  1.00  0.00    -0.237 OA
ATOM     74  O   UNL A   1      42.687  26.732  24.583  1.00  0.00    -0.237 OA
ATOM     75  O   UNL A   1      41.877  29.029  24.970  1.00  0.00    -0.744 OA
ENDBRANCH  68  72
ENDBRANCH  51  65
BRANCH  52  76
ATOM     76  C   UNL A   1      39.361  33.365  37.305  1.00  0.00     0.023 A 
ATOM     77  C   UNL A   1      40.007  34.597  37.494  1.00  0.00     0.031 A 
ATOM     78  C   UNL A   1      38.514  32.900  38.326  1.00  0.00     0.131 A 
ATOM     79  C   UNL A   1      39.836  35.299  38.697  1.00  0.00     0.055 A 
ATOM     80  C   UNL A   1      38.307  33.628  39.500  1.00  0.00     0.041 A 
ATOM     81  F   UNL A   1      37.860  31.735  38.191  1.00  0.00    -0.206 F 
ATOM     82  C   UNL A   1      38.981  34.829  39.696  1.00  0.00     0.022 A 
BRANCH  79  83
ATOM     83  S   UNL A   1      40.811  36.805  38.968  1.00  0.00     0.124 S 
ATOM     84  O   UNL A   1      39.777  37.834  38.973  1.00  0.00    -0.237 OA
ATOM     85  O   UNL A   1      41.446  36.527  40.251  1.00  0.00    -0.237 OA
ATOM     86  O   UNL A   1      41.715  36.834  37.820  1.00  0.00    -0.744 OA
ENDBRANCH  79  83
ENDBRANCH  52  76
BRANCH  64  87
ATOM     87  C   UNL A   1      44.153  28.654  35.467  1.00  0.00     0.023 A 
ATOM     88  C   UNL A   1      44.083  27.578  36.371  1.00  0.00     0.031 A 
ATOM     89  C   UNL A   1      45.397  29.280  35.278  1.00  0.00     0.131 A 
ATOM     90  C   UNL A   1      45.217  27.215  37.112  1.00  0.00     0.055 A 
ATOM     91  C   UNL A   1      46.538  28.868  35.966  1.00  0.00     0.041 A 
ATOM     92  F   UNL A   1      45.521  30.311  34.426  1.00  0.00    -0.206 F 
ATOM     93  C   UNL A   1      46.447  27.843  36.904  1.00  0.00     0.022 A 
BRANCH  90  94
ATOM     94  S   UNL A   1      45.027  26.000  38.444  1.00  0.00     0.124 S 
ATOM     95  O   UNL A   1      46.368  25.969  39.019  1.00  0.00    -0.237 OA
ATOM     96  O   UNL A   1      43.991  26.605  39.273  1.00  0.00    -0.237 OA
ATOM     97  O   UNL A   1      44.625  24.782  37.741  1.00  0.00    -0.744 OA
ENDBRANCH  90  94
ENDBRANCH  64  87
ENDBRANCH  38  39
ENDBRANCH  30  33
ENDBRANCH  28  29
ENDBRANCH  27  28
ENDBRANCH   1  27
TORSDOF 17
ENDMDL
