MODEL 1
REMARK VINA RESULT:     -12.1      0.000      0.000
REMARK SMILES Cc1ncn(CC[C@@H]2CCC[C@@]2([NH3+])C(=O)NCCCCNC(=O)c2ccc(-c3c4nc(c(-c5cc(S(=O)(=O)[O-])ccc5F)c5ccc([nH]5)c(-c5cc(S(=O)(=O)[O-])ccc5F)c5nc(c(-c6cc(S(=O)(=O)[O-])ccc6F)c6ccc3[nH]6)C=C5)C=C4)cc2)c1C
REMARK SMILES IDX 18 1 17 2 16 3 14 4 15 5 12 7 8 8 9 9 10 10 11 11 7 12 6 13
REMARK SMILES IDX 5 14 1 15 2 16 3 17 87 18 4 19 88 20 13 21 19 25 20 26 21 27
REMARK SMILES IDX 22 28 23 30 24 31 25 32 86 33 26 34 85 35 27 36 28 37 29 38
REMARK SMILES IDX 79 39 30 40 84 41 78 42 80 43 31 44 83 45 77 46 76 47 32 49
REMARK SMILES IDX 64 50 44 51 63 52 45 53 48 54 62 55 81 56 46 57 47 58 61 60
REMARK SMILES IDX 82 61 49 62 33 63 34 64 42 65 35 66 41 67 43 68 40 69 36 70
REMARK SMILES IDX 37 71 38 72 39 73 65 74 66 75 74 76 67 77 73 78 75 79 72 80
REMARK SMILES IDX 68 81 69 82 70 83 71 84 50 85 51 86 59 87 52 88 58 89 60 90
REMARK SMILES IDX 57 91 53 92 54 93 55 94 56 95
REMARK H PARENT 16 6 13 22 13 23 13 24 21 29 80 48 48 59
REMARK Flexibility Score: inf
ROOT
ATOM      1  C   UNL A   1      32.353  28.352  27.237  1.00  0.00     0.023 C 
ENDROOT
BRANCH   1   2
ATOM      2  C   UNL A   1      32.689  27.012  26.589  1.00  0.00     0.116 C 
BRANCH   2   3
ATOM      3  N   UNL A   1      31.715  25.965  26.863  1.00  0.00    -0.351 N 
ATOM      4  C   UNL A   1      31.669  24.626  26.623  1.00  0.00     0.281 C 
ATOM      5  O   UNL A   1      30.697  24.030  27.116  1.00  0.00    -0.268 OA
ATOM      6  H   UNL A   1      30.912  26.300  27.324  1.00  0.00     0.163 HD
BRANCH   4   7
ATOM      7  C   UNL A   1      32.703  23.799  25.772  1.00  0.00     0.176 C 
ATOM      8  C   UNL A   1      32.957  24.345  24.348  1.00  0.00     0.062 C 
ATOM      9  C   UNL A   1      34.246  23.628  23.936  1.00  0.00     0.011 C 
ATOM     10  C   UNL A   1      35.101  23.719  25.195  1.00  0.00     0.008 C 
ATOM     11  C   UNL A   1      34.121  23.738  26.379  1.00  0.00     0.079 C 
BRANCH   8  12
ATOM     12  C   UNL A   1      31.812  24.199  23.330  1.00  0.00     0.032 C 
BRANCH  12  13
ATOM     13  C   UNL A   1      31.730  25.318  22.272  1.00  0.00     0.124 C 
BRANCH  13  14
ATOM     14  N   UNL A   1      31.714  26.681  22.762  1.00  0.00    -0.335 N 
ATOM     15  C   UNL A   1      30.617  29.749  24.382  1.00  0.00     0.069 C 
ATOM     16  C   UNL A   1      31.232  28.628  23.634  1.00  0.00     0.058 A 
ATOM     17  N   UNL A   1      32.446  28.766  23.013  1.00  0.00    -0.242 NA
ATOM     18  C   UNL A   1      30.721  27.357  23.437  1.00  0.00     0.037 A 
ATOM     19  C   UNL A   1      32.693  27.595  22.475  1.00  0.00     0.199 A 
ATOM     20  C   UNL A   1      29.405  26.823  23.848  1.00  0.00     0.066 C 
ENDBRANCH  13  14
ENDBRANCH  12  13
ENDBRANCH   8  12
BRANCH   7  21
ATOM     21  N   UNL A   1      32.179  22.399  25.643  1.00  0.00    -0.345 N 
ATOM     22  H   UNL A   1      31.913  22.050  26.563  1.00  0.00     0.345 HD
ATOM     23  H   UNL A   1      32.905  21.800  25.248  1.00  0.00     0.345 HD
ATOM     24  H   UNL A   1      31.364  22.396  25.030  1.00  0.00     0.345 HD
ENDBRANCH   7  21
ENDBRANCH   4   7
ENDBRANCH   2   3
ENDBRANCH   1   2
BRANCH   1  25
ATOM     25  C   UNL A   1      33.344  29.512  27.141  1.00  0.00     0.023 C 
BRANCH  25  26
ATOM     26  C   UNL A   1      34.737  29.195  27.667  1.00  0.00     0.116 C 
BRANCH  26  27
ATOM     27  N   UNL A   1      35.237  30.177  28.639  1.00  0.00    -0.352 N 
ATOM     28  C   UNL A   1      36.444  30.149  29.317  1.00  0.00     0.251 C 
ATOM     29  H   UNL A   1      34.646  30.942  28.830  1.00  0.00     0.163 HD
ATOM     30  O   UNL A   1      36.653  30.855  30.296  1.00  0.00    -0.269 OA
BRANCH  28  31
ATOM     31  C   UNL A   1      37.465  29.224  28.805  1.00  0.00     0.039 A 
ATOM     32  C   UNL A   1      38.178  29.532  27.645  1.00  0.00     0.014 A 
ATOM     33  C   UNL A   1      37.891  28.234  29.683  1.00  0.00     0.014 A 
ATOM     34  C   UNL A   1      39.422  28.935  27.448  1.00  0.00     0.010 A 
ATOM     35  C   UNL A   1      39.175  27.750  29.543  1.00  0.00     0.010 A 
ATOM     36  C   UNL A   1      39.961  28.091  28.434  1.00  0.00    -0.014 A 
BRANCH  36  37
ATOM     37  C   UNL A   1      41.381  27.703  28.383  1.00  0.00     0.031 A 
ATOM     38  C   UNL A   1      41.750  26.481  27.593  1.00  0.00     0.074 A 
ATOM     39  C   UNL A   1      42.401  28.490  28.792  1.00  0.00     0.049 A 
ATOM     40  N   UNL A   1      42.280  25.385  28.033  1.00  0.00    -0.248 NA
ATOM     41  C   UNL A   1      41.469  26.451  26.151  1.00  0.00     0.031 C 
ATOM     42  C   UNL A   1      42.352  29.851  29.336  1.00  0.00     0.029 A 
ATOM     43  N   UNL A   1      43.740  28.265  28.670  1.00  0.00    -0.354 N 
ATOM     44  C   UNL A   1      42.588  24.601  26.920  1.00  0.00     0.074 A 
ATOM     45  C   UNL A   1      41.946  25.251  25.805  1.00  0.00     0.031 C 
ATOM     46  C   UNL A   1      43.570  30.424  29.233  1.00  0.00     0.029 A 
ATOM     47  C   UNL A   1      44.516  29.404  28.827  1.00  0.00     0.049 A 
ATOM     48  H   UNL A   1      44.121  27.376  28.488  1.00  0.00     0.167 HD
ATOM     49  C   UNL A   1      43.488  23.574  26.986  1.00  0.00     0.034 A 
ATOM     50  C   UNL A   1      45.853  29.523  28.659  1.00  0.00     0.034 A 
ATOM     51  C   UNL A   1      43.783  23.221  28.355  1.00  0.00     0.049 A 
ATOM     52  C   UNL A   1      46.436  28.181  28.884  1.00  0.00     0.074 A 
ATOM     53  C   UNL A   1      43.027  22.840  29.449  1.00  0.00     0.029 A 
ATOM     54  N   UNL A   1      45.003  23.585  28.882  1.00  0.00    -0.354 N 
ATOM     55  N   UNL A   1      46.365  27.559  30.030  1.00  0.00    -0.248 NA
ATOM     56  C   UNL A   1      46.704  27.330  27.737  1.00  0.00     0.031 C 
ATOM     57  C   UNL A   1      43.615  23.534  30.550  1.00  0.00     0.029 A 
ATOM     58  C   UNL A   1      44.728  24.225  30.065  1.00  0.00     0.049 A 
ATOM     59  H   UNL A   1      45.890  23.420  28.489  1.00  0.00     0.167 HD
ATOM     60  C   UNL A   1      46.135  26.233  29.706  1.00  0.00     0.074 A 
ATOM     61  C   UNL A   1      46.480  26.133  28.288  1.00  0.00     0.031 C 
ATOM     62  C   UNL A   1      45.426  25.406  30.531  1.00  0.00     0.034 A 
BRANCH  49  63
ATOM     63  C   UNL A   1      44.347  23.050  25.850  1.00  0.00     0.023 A 
ATOM     64  C   UNL A   1      44.406  21.652  25.659  1.00  0.00     0.031 A 
ATOM     65  C   UNL A   1      45.312  23.801  25.146  1.00  0.00     0.131 A 
ATOM     66  C   UNL A   1      45.428  21.059  24.893  1.00  0.00     0.055 A 
ATOM     67  C   UNL A   1      46.282  23.213  24.324  1.00  0.00     0.041 A 
ATOM     68  F   UNL A   1      45.432  25.127  25.289  1.00  0.00    -0.206 F 
ATOM     69  C   UNL A   1      46.366  21.834  24.219  1.00  0.00     0.022 A 
BRANCH  66  70
ATOM     70  S   UNL A   1      45.634  19.257  24.965  1.00  0.00     0.124 S 
ATOM     71  O   UNL A   1      44.484  18.859  25.771  1.00  0.00    -0.237 OA
ATOM     72  O   UNL A   1      45.588  18.894  23.552  1.00  0.00    -0.237 OA
ATOM     73  O   UNL A   1      46.934  19.090  25.610  1.00  0.00    -0.744 OA
ENDBRANCH  66  70
ENDBRANCH  49  63
BRANCH  50  74
ATOM     74  C   UNL A   1      46.560  30.686  28.074  1.00  0.00     0.023 A 
ATOM     75  C   UNL A   1      45.938  31.578  27.185  1.00  0.00     0.031 A 
ATOM     76  C   UNL A   1      47.834  31.055  28.567  1.00  0.00     0.131 A 
ATOM     77  C   UNL A   1      46.589  32.776  26.817  1.00  0.00     0.055 A 
ATOM     78  C   UNL A   1      48.477  32.235  28.193  1.00  0.00     0.041 A 
ATOM     79  F   UNL A   1      48.462  30.312  29.495  1.00  0.00    -0.206 F 
ATOM     80  C   UNL A   1      47.850  33.107  27.319  1.00  0.00     0.022 A 
BRANCH  77  81
ATOM     81  S   UNL A   1      45.736  33.983  25.756  1.00  0.00     0.124 S 
ATOM     82  O   UNL A   1      44.942  34.732  26.721  1.00  0.00    -0.237 OA
ATOM     83  O   UNL A   1      46.847  34.696  25.134  1.00  0.00    -0.237 OA
ATOM     84  O   UNL A   1      44.964  33.140  24.842  1.00  0.00    -0.744 OA
ENDBRANCH  77  81
ENDBRANCH  50  74
BRANCH  62  85
ATOM     85  C   UNL A   1      45.113  25.864  31.942  1.00  0.00     0.023 A 
ATOM     86  C   UNL A   1      43.922  26.521  32.324  1.00  0.00     0.031 A 
ATOM     87  C   UNL A   1      45.996  25.476  32.966  1.00  0.00     0.131 A 
ATOM     88  C   UNL A   1      43.656  26.774  33.683  1.00  0.00     0.055 A 
ATOM     89  C   UNL A   1      45.722  25.712  34.314  1.00  0.00     0.041 A 
ATOM     90  F   UNL A   1      47.129  24.815  32.674  1.00  0.00    -0.206 F 
ATOM     91  C   UNL A   1      44.552  26.368  34.677  1.00  0.00     0.022 A 
BRANCH  88  92
ATOM     92  S   UNL A   1      42.134  27.643  34.183  1.00  0.00     0.124 S 
ATOM     93  O   UNL A   1      42.613  28.685  35.084  1.00  0.00    -0.237 OA
ATOM     94  O   UNL A   1      41.596  28.101  32.905  1.00  0.00    -0.237 OA
ATOM     95  O   UNL A   1      41.344  26.595  34.833  1.00  0.00    -0.744 OA
ENDBRANCH  88  92
ENDBRANCH  62  85
ENDBRANCH  36  37
ENDBRANCH  28  31
ENDBRANCH  26  27
ENDBRANCH  25  26
ENDBRANCH   1  25
TORSDOF 18
ENDMDL
MODEL 2
REMARK VINA RESULT:     -11.9      1.167      2.884
REMARK SMILES Cc1ncn(CC[C@@H]2CCC[C@@]2([NH3+])C(=O)NCCCCNC(=O)c2ccc(-c3c4nc(c(-c5cc(S(=O)(=O)[O-])ccc5F)c5ccc([nH]5)c(-c5cc(S(=O)(=O)[O-])ccc5F)c5nc(c(-c6cc(S(=O)(=O)[O-])ccc6F)c6ccc3[nH]6)C=C5)C=C4)cc2)c1C
REMARK SMILES IDX 18 1 17 2 16 3 14 4 15 5 12 7 8 8 9 9 10 10 11 11 7 12 6 13
REMARK SMILES IDX 5 14 1 15 2 16 3 17 87 18 4 19 88 20 13 21 19 25 20 26 21 27
REMARK SMILES IDX 22 28 23 30 24 31 25 32 86 33 26 34 85 35 27 36 28 37 29 38
REMARK SMILES IDX 79 39 30 40 84 41 78 42 80 43 31 44 83 45 77 46 76 47 32 49
REMARK SMILES IDX 64 50 44 51 63 52 45 53 48 54 62 55 81 56 46 57 47 58 61 60
REMARK SMILES IDX 82 61 49 62 33 63 34 64 42 65 35 66 41 67 43 68 40 69 36 70
REMARK SMILES IDX 37 71 38 72 39 73 65 74 66 75 74 76 67 77 73 78 75 79 72 80
REMARK SMILES IDX 68 81 69 82 70 83 71 84 50 85 51 86 59 87 52 88 58 89 60 90
REMARK SMILES IDX 57 91 53 92 54 93 55 94 56 95
REMARK H PARENT 16 6 13 22 13 23 13 24 21 29 80 48 48 59
REMARK Flexibility Score: inf
ROOT
ATOM      1  C   UNL A   1      32.409  30.086  27.006  1.00  0.00     0.023 C 
ENDROOT
BRANCH   1   2
ATOM      2  C   UNL A   1      31.800  30.112  25.607  1.00  0.00     0.116 C 
BRANCH   2   3
ATOM      3  N   UNL A   1      32.717  29.687  24.558  1.00  0.00    -0.351 N 
ATOM      4  C   UNL A   1      32.602  28.879  23.469  1.00  0.00     0.281 C 
ATOM      5  O   UNL A   1      33.596  28.843  22.725  1.00  0.00    -0.268 OA
ATOM      6  H   UNL A   1      33.619  30.067  24.660  1.00  0.00     0.163 HD
BRANCH   4   7
ATOM      7  C   UNL A   1      31.356  27.990  23.099  1.00  0.00     0.176 C 
ATOM      8  C   UNL A   1      30.922  26.992  24.196  1.00  0.00     0.062 C 
ATOM      9  C   UNL A   1      29.513  26.591  23.749  1.00  0.00     0.011 C 
ATOM     10  C   UNL A   1      28.901  27.921  23.325  1.00  0.00     0.008 C 
ATOM     11  C   UNL A   1      30.064  28.789  22.824  1.00  0.00     0.079 C 
BRANCH   8  12
ATOM     12  C   UNL A   1      31.854  25.797  24.463  1.00  0.00     0.032 C 
BRANCH  12  13
ATOM     13  C   UNL A   1      31.347  24.440  23.936  1.00  0.00     0.124 C 
BRANCH  13  14
ATOM     14  N   UNL A   1      32.025  23.256  24.421  1.00  0.00    -0.335 N 
ATOM     15  C   UNL A   1      34.531  20.656  24.862  1.00  0.00     0.069 C 
ATOM     16  C   UNL A   1      33.375  21.579  24.808  1.00  0.00     0.058 A 
ATOM     17  N   UNL A   1      32.256  21.365  25.569  1.00  0.00    -0.242 NA
ATOM     18  C   UNL A   1      33.231  22.716  24.032  1.00  0.00     0.037 A 
ATOM     19  C   UNL A   1      31.454  22.367  25.294  1.00  0.00     0.199 A 
ATOM     20  C   UNL A   1      34.153  23.248  23.005  1.00  0.00     0.066 C 
ENDBRANCH  13  14
ENDBRANCH  12  13
ENDBRANCH   8  12
BRANCH   7  21
ATOM     21  N   UNL A   1      31.701  27.203  21.869  1.00  0.00    -0.345 N 
ATOM     22  H   UNL A   1      30.874  26.702  21.544  1.00  0.00     0.345 HD
ATOM     23  H   UNL A   1      32.440  26.535  22.089  1.00  0.00     0.345 HD
ATOM     24  H   UNL A   1      32.022  27.838  21.138  1.00  0.00     0.345 HD
ENDBRANCH   7  21
ENDBRANCH   4   7
ENDBRANCH   2   3
ENDBRANCH   1   2
BRANCH   1  25
ATOM     25  C   UNL A   1      33.405  28.988  27.381  1.00  0.00     0.023 C 
BRANCH  25  26
ATOM     26  C   UNL A   1      34.866  29.412  27.309  1.00  0.00     0.116 C 
BRANCH  26  27
ATOM     27  N   UNL A   1      35.297  30.233  28.449  1.00  0.00    -0.352 N 
ATOM     28  C   UNL A   1      36.433  30.066  29.222  1.00  0.00     0.251 C 
ATOM     29  H   UNL A   1      34.712  30.987  28.690  1.00  0.00     0.163 HD
ATOM     30  O   UNL A   1      36.567  30.624  30.305  1.00  0.00    -0.269 OA
BRANCH  28  31
ATOM     31  C   UNL A   1      37.473  29.179  28.681  1.00  0.00     0.039 A 
ATOM     32  C   UNL A   1      38.189  29.545  27.540  1.00  0.00     0.014 A 
ATOM     33  C   UNL A   1      37.909  28.161  29.522  1.00  0.00     0.014 A 
ATOM     34  C   UNL A   1      39.445  28.977  27.329  1.00  0.00     0.010 A 
ATOM     35  C   UNL A   1      39.201  27.704  29.372  1.00  0.00     0.010 A 
ATOM     36  C   UNL A   1      39.990  28.102  28.285  1.00  0.00    -0.014 A 
BRANCH  36  37
ATOM     37  C   UNL A   1      41.417  27.740  28.229  1.00  0.00     0.031 A 
ATOM     38  C   UNL A   1      41.801  26.503  27.469  1.00  0.00     0.074 A 
ATOM     39  C   UNL A   1      42.425  28.557  28.605  1.00  0.00     0.049 A 
ATOM     40  N   UNL A   1      42.356  25.430  27.934  1.00  0.00    -0.248 NA
ATOM     41  C   UNL A   1      41.505  26.427  26.031  1.00  0.00     0.031 C 
ATOM     42  C   UNL A   1      42.356  29.931  29.111  1.00  0.00     0.029 A 
ATOM     43  N   UNL A   1      43.767  28.354  28.474  1.00  0.00    -0.354 N 
ATOM     44  C   UNL A   1      42.667  24.621  26.840  1.00  0.00     0.074 A 
ATOM     45  C   UNL A   1      42.001  25.227  25.714  1.00  0.00     0.031 C 
ATOM     46  C   UNL A   1      43.561  30.524  28.979  1.00  0.00     0.029 A 
ATOM     47  C   UNL A   1      44.523  29.511  28.591  1.00  0.00     0.049 A 
ATOM     48  H   UNL A   1      44.164  27.468  28.313  1.00  0.00     0.167 HD
ATOM     49  C   UNL A   1      43.587  23.613  26.924  1.00  0.00     0.034 A 
ATOM     50  C   UNL A   1      45.856  29.651  28.405  1.00  0.00     0.034 A 
ATOM     51  C   UNL A   1      43.903  23.305  28.299  1.00  0.00     0.049 A 
ATOM     52  C   UNL A   1      46.466  28.326  28.661  1.00  0.00     0.074 A 
ATOM     53  C   UNL A   1      43.166  22.940  29.411  1.00  0.00     0.029 A 
ATOM     54  N   UNL A   1      45.121  23.706  28.802  1.00  0.00    -0.354 N 
ATOM     55  N   UNL A   1      46.419  27.736  29.825  1.00  0.00    -0.248 NA
ATOM     56  C   UNL A   1      46.739  27.449  27.535  1.00  0.00     0.031 C 
ATOM     57  C   UNL A   1      43.752  23.676  30.486  1.00  0.00     0.029 A 
ATOM     58  C   UNL A   1      44.846  24.374  29.970  1.00  0.00     0.049 A 
ATOM     59  H   UNL A   1      46.008  23.546  28.405  1.00  0.00     0.167 HD
ATOM     60  C   UNL A   1      46.211  26.397  29.540  1.00  0.00     0.074 A 
ATOM     61  C   UNL A   1      46.543  26.264  28.122  1.00  0.00     0.031 C 
ATOM     62  C   UNL A   1      45.526  25.580  30.396  1.00  0.00     0.034 A 
BRANCH  49  63
ATOM     63  C   UNL A   1      44.445  23.074  25.794  1.00  0.00     0.023 A 
ATOM     64  C   UNL A   1      44.489  21.674  25.610  1.00  0.00     0.031 A 
ATOM     65  C   UNL A   1      45.420  23.811  25.090  1.00  0.00     0.131 A 
ATOM     66  C   UNL A   1      45.507  21.067  24.851  1.00  0.00     0.055 A 
ATOM     67  C   UNL A   1      46.387  23.208  24.274  1.00  0.00     0.041 A 
ATOM     68  F   UNL A   1      45.555  25.136  25.226  1.00  0.00    -0.206 F 
ATOM     69  C   UNL A   1      46.456  21.827  24.176  1.00  0.00     0.022 A 
BRANCH  66  70
ATOM     70  S   UNL A   1      45.691  19.262  24.932  1.00  0.00     0.124 S 
ATOM     71  O   UNL A   1      46.995  19.126  25.573  1.00  0.00    -0.237 OA
ATOM     72  O   UNL A   1      44.535  18.878  25.735  1.00  0.00    -0.237 OA
ATOM     73  O   UNL A   1      45.642  18.854  23.530  1.00  0.00    -0.744 OA
ENDBRANCH  66  70
ENDBRANCH  49  63
BRANCH  50  74
ATOM     74  C   UNL A   1      46.534  30.810  27.781  1.00  0.00     0.023 A 
ATOM     75  C   UNL A   1      45.836  31.798  27.067  1.00  0.00     0.031 A 
ATOM     76  C   UNL A   1      47.894  31.068  28.071  1.00  0.00     0.131 A 
ATOM     77  C   UNL A   1      46.499  32.980  26.667  1.00  0.00     0.055 A 
ATOM     78  C   UNL A   1      48.547  32.232  27.666  1.00  0.00     0.041 A 
ATOM     79  F   UNL A   1      48.615  30.226  28.831  1.00  0.00    -0.206 F 
ATOM     80  C   UNL A   1      47.845  33.201  26.966  1.00  0.00     0.022 A 
BRANCH  77  81
ATOM     81  S   UNL A   1      45.566  34.306  25.842  1.00  0.00     0.124 S 
ATOM     82  O   UNL A   1      46.617  35.265  25.522  1.00  0.00    -0.237 OA
ATOM     83  O   UNL A   1      44.957  33.609  24.715  1.00  0.00    -0.237 OA
ATOM     84  O   UNL A   1      44.622  34.745  26.871  1.00  0.00    -0.744 OA
ENDBRANCH  77  81
ENDBRANCH  50  74
BRANCH  62  85
ATOM     85  C   UNL A   1      45.219  26.072  31.797  1.00  0.00     0.023 A 
ATOM     86  C   UNL A   1      44.010  26.695  32.179  1.00  0.00     0.031 A 
ATOM     87  C   UNL A   1      46.134  25.751  32.816  1.00  0.00     0.131 A 
ATOM     88  C   UNL A   1      43.757  26.981  33.534  1.00  0.00     0.055 A 
ATOM     89  C   UNL A   1      45.874  26.020  34.161  1.00  0.00     0.041 A 
ATOM     90  F   UNL A   1      47.287  25.125  32.526  1.00  0.00    -0.206 F 
ATOM     91  C   UNL A   1      44.685  26.642  34.524  1.00  0.00     0.022 A 
BRANCH  88  92
ATOM     92  S   UNL A   1      42.212  27.807  34.033  1.00  0.00     0.124 S 
ATOM     93  O   UNL A   1      41.571  28.135  32.764  1.00  0.00    -0.237 OA
ATOM     94  O   UNL A   1      41.550  26.782  34.836  1.00  0.00    -0.237 OA
ATOM     95  O   UNL A   1      42.678  28.967  34.795  1.00  0.00    -0.744 OA
ENDBRANCH  88  92
ENDBRANCH  62  85
ENDBRANCH  36  37
ENDBRANCH  28  31
ENDBRANCH  26  27
ENDBRANCH  25  26
ENDBRANCH   1  25
TORSDOF 18
ENDMDL
MODEL 3
REMARK VINA RESULT:     -11.8      4.327     10.139
REMARK SMILES Cc1ncn(CC[C@@H]2CCC[C@@]2([NH3+])C(=O)NCCCCNC(=O)c2ccc(-c3c4nc(c(-c5cc(S(=O)(=O)[O-])ccc5F)c5ccc([nH]5)c(-c5cc(S(=O)(=O)[O-])ccc5F)c5nc(c(-c6cc(S(=O)(=O)[O-])ccc6F)c6ccc3[nH]6)C=C5)C=C4)cc2)c1C
REMARK SMILES IDX 18 1 17 2 16 3 14 4 15 5 12 7 8 8 9 9 10 10 11 11 7 12 6 13
REMARK SMILES IDX 5 14 1 15 2 16 3 17 87 18 4 19 88 20 13 21 19 25 20 26 21 27
REMARK SMILES IDX 22 28 23 30 24 31 25 32 86 33 26 34 85 35 27 36 28 37 29 38
REMARK SMILES IDX 79 39 30 40 84 41 78 42 80 43 31 44 83 45 77 46 76 47 32 49
REMARK SMILES IDX 64 50 44 51 63 52 45 53 48 54 62 55 81 56 46 57 47 58 61 60
REMARK SMILES IDX 82 61 49 62 33 63 34 64 42 65 35 66 41 67 43 68 40 69 36 70
REMARK SMILES IDX 37 71 38 72 39 73 65 74 66 75 74 76 67 77 73 78 75 79 72 80
REMARK SMILES IDX 68 81 69 82 70 83 71 84 50 85 51 86 59 87 52 88 58 89 60 90
REMARK SMILES IDX 57 91 53 92 54 93 55 94 56 95
REMARK H PARENT 16 6 13 22 13 23 13 24 21 29 80 48 48 59
REMARK Flexibility Score: inf
ROOT
ATOM      1  C   UNL A   1      37.390  22.125  24.606  1.00  0.00     0.023 C 
ENDROOT
BRANCH   1   2
ATOM      2  C   UNL A   1      36.456  21.017  25.089  1.00  0.00     0.116 C 
BRANCH   2   3
ATOM      3  N   UNL A   1      35.715  21.357  26.296  1.00  0.00    -0.351 N 
ATOM      4  C   UNL A   1      34.396  21.525  26.582  1.00  0.00     0.281 C 
ATOM      5  O   UNL A   1      34.130  21.707  27.782  1.00  0.00    -0.268 OA
ATOM      6  H   UNL A   1      36.298  21.496  27.077  1.00  0.00     0.163 HD
BRANCH   4   7
ATOM      7  C   UNL A   1      33.214  21.535  25.542  1.00  0.00     0.176 C 
ATOM      8  C   UNL A   1      33.442  22.438  24.308  1.00  0.00     0.062 C 
ATOM      9  C   UNL A   1      32.374  21.944  23.327  1.00  0.00     0.011 C 
ATOM     10  C   UNL A   1      32.456  20.428  23.472  1.00  0.00     0.008 C 
ATOM     11  C   UNL A   1      32.907  20.158  24.915  1.00  0.00     0.079 C 
BRANCH   8  12
ATOM     12  C   UNL A   1      33.418  23.958  24.540  1.00  0.00     0.032 C 
BRANCH  12  13
ATOM     13  C   UNL A   1      33.147  24.809  23.283  1.00  0.00     0.124 C 
BRANCH  13  14
ATOM     14  N   UNL A   1      32.305  25.975  23.453  1.00  0.00    -0.335 N 
ATOM     15  C   UNL A   1      31.124  29.250  24.510  1.00  0.00     0.069 C 
ATOM     16  C   UNL A   1      31.389  27.881  24.010  1.00  0.00     0.058 A 
ATOM     17  N   UNL A   1      30.452  27.194  23.284  1.00  0.00    -0.242 NA
ATOM     18  C   UNL A   1      32.530  27.119  24.187  1.00  0.00     0.037 A 
ATOM     19  C   UNL A   1      31.016  26.046  22.991  1.00  0.00     0.199 A 
ATOM     20  C   UNL A   1      33.733  27.439  24.985  1.00  0.00     0.066 C 
ENDBRANCH  13  14
ENDBRANCH  12  13
ENDBRANCH   8  12
BRANCH   7  21
ATOM     21  N   UNL A   1      31.983  22.022  26.249  1.00  0.00    -0.345 N 
ATOM     22  H   UNL A   1      31.424  21.223  26.547  1.00  0.00     0.345 HD
ATOM     23  H   UNL A   1      31.435  22.603  25.614  1.00  0.00     0.345 HD
ATOM     24  H   UNL A   1      32.253  22.571  27.065  1.00  0.00     0.345 HD
ENDBRANCH   7  21
ENDBRANCH   4   7
ENDBRANCH   2   3
ENDBRANCH   1   2
BRANCH   1  25
ATOM     25  C   UNL A   1      37.297  23.520  25.225  1.00  0.00     0.023 C 
BRANCH  25  26
ATOM     26  C   UNL A   1      38.073  23.684  26.525  1.00  0.00     0.116 C 
BRANCH  26  27
ATOM     27  N   UNL A   1      39.526  23.792  26.333  1.00  0.00    -0.352 N 
ATOM     28  C   UNL A   1      40.321  24.906  26.542  1.00  0.00     0.251 C 
ATOM     29  H   UNL A   1      39.986  22.979  26.021  1.00  0.00     0.163 HD
ATOM     30  O   UNL A   1      41.462  24.979  26.100  1.00  0.00    -0.269 OA
BRANCH  28  31
ATOM     31  C   UNL A   1      39.725  26.003  27.317  1.00  0.00     0.039 A 
ATOM     32  C   UNL A   1      39.298  25.789  28.629  1.00  0.00     0.014 A 
ATOM     33  C   UNL A   1      39.910  27.284  26.808  1.00  0.00     0.014 A 
ATOM     34  C   UNL A   1      39.203  26.884  29.487  1.00  0.00     0.010 A 
ATOM     35  C   UNL A   1      39.937  28.338  27.697  1.00  0.00     0.010 A 
ATOM     36  C   UNL A   1      39.591  28.160  29.044  1.00  0.00    -0.014 A 
BRANCH  36  37
ATOM     37  C   UNL A   1      39.785  29.254  30.012  1.00  0.00     0.031 A 
ATOM     38  C   UNL A   1      38.592  30.088  30.380  1.00  0.00     0.074 A 
ATOM     39  C   UNL A   1      40.894  29.413  30.768  1.00  0.00     0.049 A 
ATOM     40  N   UNL A   1      38.421  31.355  30.178  1.00  0.00    -0.248 NA
ATOM     41  C   UNL A   1      37.438  29.441  31.020  1.00  0.00     0.031 C 
ATOM     42  C   UNL A   1      42.097  28.578  30.825  1.00  0.00     0.029 A 
ATOM     43  N   UNL A   1      41.109  30.315  31.768  1.00  0.00    -0.354 N 
ATOM     44  C   UNL A   1      37.240  31.719  30.828  1.00  0.00     0.074 A 
ATOM     45  C   UNL A   1      36.616  30.477  31.212  1.00  0.00     0.031 C 
ATOM     46  C   UNL A   1      42.769  28.830  31.967  1.00  0.00     0.029 A 
ATOM     47  C   UNL A   1      42.168  29.987  32.600  1.00  0.00     0.049 A 
ATOM     48  H   UNL A   1      40.562  31.126  31.887  1.00  0.00     0.167 HD
ATOM     49  C   UNL A   1      36.960  33.019  31.143  1.00  0.00     0.034 A 
ATOM     50  C   UNL A   1      42.558  30.619  33.731  1.00  0.00     0.034 A 
ATOM     51  C   UNL A   1      37.834  33.930  30.441  1.00  0.00     0.049 A 
ATOM     52  C   UNL A   1      42.097  32.022  33.620  1.00  0.00     0.074 A 
ATOM     53  C   UNL A   1      38.146  34.153  29.112  1.00  0.00     0.029 A 
ATOM     54  N   UNL A   1      38.837  34.558  31.147  1.00  0.00    -0.354 N 
ATOM     55  N   UNL A   1      42.527  32.838  32.696  1.00  0.00    -0.248 NA
ATOM     56  C   UNL A   1      40.839  32.400  34.240  1.00  0.00     0.031 C 
ATOM     57  C   UNL A   1      39.558  34.372  29.108  1.00  0.00     0.029 A 
ATOM     58  C   UNL A   1      39.991  34.343  30.436  1.00  0.00     0.049 A 
ATOM     59  H   UNL A   1      38.744  35.058  31.989  1.00  0.00     0.167 HD
ATOM     60  C   UNL A   1      41.412  33.563  32.311  1.00  0.00     0.074 A 
ATOM     61  C   UNL A   1      40.438  33.341  33.379  1.00  0.00     0.031 C 
ATOM     62  C   UNL A   1      41.274  34.047  31.040  1.00  0.00     0.034 A 
BRANCH  49  63
ATOM     63  C   UNL A   1      36.103  33.506  32.297  1.00  0.00     0.023 A 
ATOM     64  C   UNL A   1      35.097  34.458  32.016  1.00  0.00     0.031 A 
ATOM     65  C   UNL A   1      36.393  33.314  33.664  1.00  0.00     0.131 A 
ATOM     66  C   UNL A   1      34.508  35.225  33.038  1.00  0.00     0.055 A 
ATOM     67  C   UNL A   1      35.750  34.027  34.686  1.00  0.00     0.041 A 
ATOM     68  F   UNL A   1      37.374  32.505  34.082  1.00  0.00    -0.206 F 
ATOM     69  C   UNL A   1      34.825  35.011  34.375  1.00  0.00     0.022 A 
BRANCH  66  70
ATOM     70  S   UNL A   1      33.478  36.646  32.574  1.00  0.00     0.124 S 
ATOM     71  O   UNL A   1      34.026  37.700  33.421  1.00  0.00    -0.237 OA
ATOM     72  O   UNL A   1      33.750  36.760  31.145  1.00  0.00    -0.237 OA
ATOM     73  O   UNL A   1      32.126  36.211  32.919  1.00  0.00    -0.744 OA
ENDBRANCH  66  70
ENDBRANCH  49  63
BRANCH  50  74
ATOM     74  C   UNL A   1      43.072  29.973  34.960  1.00  0.00     0.023 A 
ATOM     75  C   UNL A   1      42.549  28.766  35.454  1.00  0.00     0.031 A 
ATOM     76  C   UNL A   1      44.261  30.450  35.561  1.00  0.00     0.131 A 
ATOM     77  C   UNL A   1      43.204  28.092  36.508  1.00  0.00     0.055 A 
ATOM     78  C   UNL A   1      44.899  29.786  36.608  1.00  0.00     0.041 A 
ATOM     79  F   UNL A   1      44.886  31.543  35.092  1.00  0.00    -0.206 F 
ATOM     80  C   UNL A   1      44.375  28.594  37.082  1.00  0.00     0.022 A 
BRANCH  77  81
ATOM     81  S   UNL A   1      42.590  26.474  37.070  1.00  0.00     0.124 S 
ATOM     82  O   UNL A   1      41.146  26.642  36.965  1.00  0.00    -0.237 OA
ATOM     83  O   UNL A   1      43.208  25.556  36.119  1.00  0.00    -0.237 OA
ATOM     84  O   UNL A   1      43.103  26.375  38.436  1.00  0.00    -0.744 OA
ENDBRANCH  77  81
ENDBRANCH  50  74
BRANCH  62  85
ATOM     85  C   UNL A   1      42.471  34.023  30.109  1.00  0.00     0.023 A 
ATOM     86  C   UNL A   1      42.873  32.901  29.350  1.00  0.00     0.031 A 
ATOM     87  C   UNL A   1      43.135  35.240  29.867  1.00  0.00     0.131 A 
ATOM     88  C   UNL A   1      43.906  33.019  28.401  1.00  0.00     0.055 A 
ATOM     89  C   UNL A   1      44.147  35.359  28.914  1.00  0.00     0.041 A 
ATOM     90  F   UNL A   1      42.777  36.354  30.528  1.00  0.00    -0.206 F 
ATOM     91  C   UNL A   1      44.540  34.245  28.180  1.00  0.00     0.022 A 
BRANCH  88  92
ATOM     92  S   UNL A   1      44.447  31.571  27.437  1.00  0.00     0.124 S 
ATOM     93  O   UNL A   1      44.310  32.008  26.052  1.00  0.00    -0.237 OA
ATOM     94  O   UNL A   1      45.813  31.367  27.910  1.00  0.00    -0.237 OA
ATOM     95  O   UNL A   1      43.504  30.524  27.838  1.00  0.00    -0.744 OA
ENDBRANCH  88  92
ENDBRANCH  62  85
ENDBRANCH  36  37
ENDBRANCH  28  31
ENDBRANCH  26  27
ENDBRANCH  25  26
ENDBRANCH   1  25
TORSDOF 18
ENDMDL
