MODEL 1
REMARK VINA RESULT:     -13.0      0.000      0.000
REMARK SMILES O=C(CSc1nnc2sc3ccccc3n12)N[C@H](Cc1c[nH]c2ccccc12)C(=O)NCCCCNC(=O)c1ccc(-c2c3nc(c(-c4cc(S(=O)(=O)[O-])ccc4F)c4ccc([nH]4)c(-c4cc(S(=O)(=O)[O-])ccc4F)c4nc(c(-c5cc(S(=O)(=O)[O-])ccc5F)c5ccc2[nH]5)C=C4)C=C3)cc1
REMARK SMILES IDX 33 1 32 2 31 3 29 4 30 5 18 7 17 8 1 9 2 10 3 12 4 13 5 14
REMARK SMILES IDX 6 15 16 16 7 17 8 18 15 19 9 20 10 21 14 22 11 23 13 24
REMARK SMILES IDX 12 25 19 26 20 27 21 28 28 29 22 30 23 31 27 32 24 34 26 35
REMARK SMILES IDX 25 36 34 37 35 38 36 39 37 40 38 42 39 43 40 44 101 45 41 46
REMARK SMILES IDX 100 47 42 48 43 49 44 50 94 51 45 52 99 53 93 54 95 55 46 56
REMARK SMILES IDX 98 57 92 58 91 59 47 61 79 62 59 63 78 64 60 65 63 66 77 67
REMARK SMILES IDX 96 68 61 69 62 70 76 72 97 73 64 74 48 75 49 76 57 77 50 78
REMARK SMILES IDX 56 79 58 80 55 81 51 82 52 83 53 84 54 85 80 86 81 87 89 88
REMARK SMILES IDX 82 89 88 90 90 91 87 92 83 93 84 94 85 95 86 96 65 97 66 98
REMARK SMILES IDX 74 99 67 100 73 101 75 102 72 103 68 104 69 105 70 106
REMARK SMILES IDX 71 107
REMARK H PARENT 31 6 17 11 22 33 36 41 95 60 63 71
REMARK Flexibility Score: inf
ROOT
ATOM      1  C   UNL A   1      33.604  29.880  27.628  1.00  0.00     0.023 C 
ENDROOT
BRANCH   1   2
ATOM      2  C   UNL A   1      32.904  29.231  26.449  1.00  0.00     0.116 C 
BRANCH   2   3
ATOM      3  N   UNL A   1      33.702  28.239  25.760  1.00  0.00    -0.354 N 
ATOM      4  C   UNL A   1      33.286  27.146  25.054  1.00  0.00     0.242 C 
ATOM      5  O   UNL A   1      34.084  26.625  24.266  1.00  0.00    -0.273 OA
ATOM      6  H   UNL A   1      34.676  28.370  25.807  1.00  0.00     0.163 HD
BRANCH   4   7
ATOM      7  C   UNL A   1      31.824  26.659  25.096  1.00  0.00     0.175 C 
BRANCH   7   8
ATOM      8  N   UNL A   1      31.828  25.498  26.002  1.00  0.00    -0.343 N 
ATOM      9  O   UNL A   1      29.610  25.225  26.468  1.00  0.00    -0.274 OA
ATOM     10  C   UNL A   1      30.752  24.773  26.430  1.00  0.00     0.231 C 
ATOM     11  H   UNL A   1      32.708  25.212  26.339  1.00  0.00     0.164 HD
BRANCH  10  12
ATOM     12  C   UNL A   1      31.018  23.327  26.834  1.00  0.00     0.178 C 
BRANCH  12  13
ATOM     13  S   UNL A   1      31.325  22.182  25.458  1.00  0.00    -0.076 SA
BRANCH  13  14
ATOM     14  C   UNL A   1      33.052  22.190  25.349  1.00  0.00     0.197 A 
ATOM     15  N   UNL A   1      33.832  23.185  25.732  1.00  0.00    -0.122 NA
ATOM     16  N   UNL A   1      33.830  21.110  25.044  1.00  0.00    -0.260 N 
ATOM     17  N   UNL A   1      35.153  22.744  25.703  1.00  0.00    -0.118 NA
ATOM     18  C   UNL A   1      35.109  21.506  25.295  1.00  0.00     0.217 A 
ATOM     19  C   UNL A   1      33.678  19.787  24.643  1.00  0.00     0.068 A 
ATOM     20  S   UNL A   1      36.279  20.253  25.070  1.00  0.00    -0.094 S 
ATOM     21  C   UNL A   1      34.931  19.148  24.632  1.00  0.00     0.055 A 
ATOM     22  C   UNL A   1      32.508  19.128  24.318  1.00  0.00     0.028 A 
ATOM     23  C   UNL A   1      35.021  17.801  24.333  1.00  0.00     0.021 A 
ATOM     24  C   UNL A   1      32.602  17.771  24.009  1.00  0.00     0.002 A 
ATOM     25  C   UNL A   1      33.843  17.110  24.028  1.00  0.00     0.002 A 
ENDBRANCH  13  14
ENDBRANCH  12  13
ENDBRANCH  10  12
ENDBRANCH   7   8
BRANCH   7  26
ATOM     26  C   UNL A   1      31.122  26.583  23.733  1.00  0.00     0.072 C 
BRANCH  26  27
ATOM     27  C   UNL A   1      30.865  27.901  23.032  1.00  0.00    -0.020 A 
ATOM     28  C   UNL A   1      31.862  28.644  22.419  1.00  0.00     0.087 A 
ATOM     29  C   UNL A   1      29.642  28.644  22.849  1.00  0.00     0.003 A 
ATOM     30  N   UNL A   1      31.312  29.784  21.902  1.00  0.00    -0.361 N 
ATOM     31  C   UNL A   1      29.963  29.813  22.150  1.00  0.00     0.046 A 
ATOM     32  C   UNL A   1      28.291  28.467  23.220  1.00  0.00     0.010 A 
ATOM     33  H   UNL A   1      31.813  30.482  21.422  1.00  0.00     0.166 HD
ATOM     34  C   UNL A   1      29.017  30.794  21.819  1.00  0.00     0.026 A 
ATOM     35  C   UNL A   1      27.336  29.447  22.917  1.00  0.00     0.001 A 
ATOM     36  C   UNL A   1      27.697  30.594  22.225  1.00  0.00     0.002 A 
ENDBRANCH  26  27
ENDBRANCH   7  26
ENDBRANCH   4   7
ENDBRANCH   2   3
ENDBRANCH   1   2
BRANCH   1  37
ATOM     37  C   UNL A   1      34.745  30.832  27.276  1.00  0.00     0.023 C 
BRANCH  37  38
ATOM     38  C   UNL A   1      34.694  32.207  27.943  1.00  0.00     0.116 C 
BRANCH  38  39
ATOM     39  N   UNL A   1      34.409  32.205  29.365  1.00  0.00    -0.352 N 
ATOM     40  C   UNL A   1      35.171  32.001  30.484  1.00  0.00     0.251 C 
ATOM     41  H   UNL A   1      33.463  32.389  29.569  1.00  0.00     0.163 HD
ATOM     42  O   UNL A   1      34.687  32.403  31.547  1.00  0.00    -0.269 OA
BRANCH  40  43
ATOM     43  C   UNL A   1      36.454  31.248  30.506  1.00  0.00     0.039 A 
ATOM     44  C   UNL A   1      37.720  31.823  30.427  1.00  0.00     0.014 A 
ATOM     45  C   UNL A   1      36.356  29.841  30.505  1.00  0.00     0.014 A 
ATOM     46  C   UNL A   1      38.836  31.029  30.197  1.00  0.00     0.010 A 
ATOM     47  C   UNL A   1      37.477  29.038  30.309  1.00  0.00     0.010 A 
ATOM     48  C   UNL A   1      38.710  29.638  30.098  1.00  0.00    -0.014 A 
BRANCH  48  49
ATOM     49  C   UNL A   1      39.944  28.870  29.944  1.00  0.00     0.031 A 
ATOM     50  C   UNL A   1      40.611  28.591  31.247  1.00  0.00     0.074 A 
ATOM     51  C   UNL A   1      40.435  28.407  28.776  1.00  0.00     0.049 A 
ATOM     52  N   UNL A   1      41.695  29.124  31.702  1.00  0.00    -0.248 NA
ATOM     53  C   UNL A   1      39.880  27.785  32.237  1.00  0.00     0.031 C 
ATOM     54  C   UNL A   1      39.763  28.353  27.476  1.00  0.00     0.029 A 
ATOM     55  N   UNL A   1      41.633  27.802  28.520  1.00  0.00    -0.354 N 
ATOM     56  C   UNL A   1      41.906  28.552  32.956  1.00  0.00     0.074 A 
ATOM     57  C   UNL A   1      40.675  27.889  33.301  1.00  0.00     0.031 C 
ATOM     58  C   UNL A   1      40.459  27.541  26.644  1.00  0.00     0.029 A 
ATOM     59  C   UNL A   1      41.700  27.150  27.293  1.00  0.00     0.049 A 
ATOM     60  H   UNL A   1      42.388  27.826  29.153  1.00  0.00     0.167 HD
ATOM     61  C   UNL A   1      43.156  28.483  33.496  1.00  0.00     0.034 A 
ATOM     62  C   UNL A   1      42.678  26.310  26.860  1.00  0.00     0.034 A 
ATOM     63  C   UNL A   1      44.061  29.347  32.787  1.00  0.00     0.049 A 
ATOM     64  C   UNL A   1      43.881  26.540  27.687  1.00  0.00     0.074 A 
ATOM     65  C   UNL A   1      44.192  30.707  32.614  1.00  0.00     0.029 A 
ATOM     66  N   UNL A   1      44.813  28.751  31.807  1.00  0.00    -0.354 N 
ATOM     67  N   UNL A   1      44.618  27.609  27.624  1.00  0.00    -0.248 NA
ATOM     68  C   UNL A   1      44.034  25.739  28.890  1.00  0.00     0.031 C 
ATOM     69  C   UNL A   1      44.690  30.867  31.291  1.00  0.00     0.029 A 
ATOM     70  C   UNL A   1      44.912  29.600  30.742  1.00  0.00     0.049 A 
ATOM     71  H   UNL A   1      45.216  27.855  31.861  1.00  0.00     0.167 HD
ATOM     72  C   UNL A   1      44.936  27.875  28.945  1.00  0.00     0.074 A 
ATOM     73  C   UNL A   1      44.668  26.627  29.658  1.00  0.00     0.031 C 
ATOM     74  C   UNL A   1      45.099  29.158  29.374  1.00  0.00     0.034 A 
BRANCH  61  75
ATOM     75  C   UNL A   1      43.652  27.337  34.358  1.00  0.00     0.023 A 
ATOM     76  C   UNL A   1      43.820  26.025  33.882  1.00  0.00     0.031 A 
ATOM     77  C   UNL A   1      44.215  27.602  35.627  1.00  0.00     0.131 A 
ATOM     78  C   UNL A   1      44.527  25.060  34.613  1.00  0.00     0.055 A 
ATOM     79  C   UNL A   1      44.975  26.659  36.330  1.00  0.00     0.041 A 
ATOM     80  F   UNL A   1      44.108  28.814  36.195  1.00  0.00    -0.206 F 
ATOM     81  C   UNL A   1      45.141  25.380  35.819  1.00  0.00     0.022 A 
BRANCH  78  82
ATOM     82  S   UNL A   1      44.686  23.367  33.984  1.00  0.00     0.124 S 
ATOM     83  O   UNL A   1      44.229  23.506  32.610  1.00  0.00    -0.237 OA
ATOM     84  O   UNL A   1      46.114  23.122  34.160  1.00  0.00    -0.237 OA
ATOM     85  O   UNL A   1      43.813  22.591  34.869  1.00  0.00    -0.744 OA
ENDBRANCH  78  82
ENDBRANCH  61  75
BRANCH  62  86
ATOM     86  C   UNL A   1      42.521  25.034  26.116  1.00  0.00     0.023 A 
ATOM     87  C   UNL A   1      41.567  24.099  26.550  1.00  0.00     0.031 A 
ATOM     88  C   UNL A   1      43.528  24.574  25.244  1.00  0.00     0.131 A 
ATOM     89  C   UNL A   1      41.677  22.751  26.183  1.00  0.00     0.055 A 
ATOM     90  C   UNL A   1      43.621  23.230  24.859  1.00  0.00     0.041 A 
ATOM     91  F   UNL A   1      44.495  25.402  24.821  1.00  0.00    -0.206 F 
ATOM     92  C   UNL A   1      42.701  22.306  25.345  1.00  0.00     0.022 A 
BRANCH  89  93
ATOM     93  S   UNL A   1      40.550  21.519  26.892  1.00  0.00     0.124 S 
ATOM     94  O   UNL A   1      39.245  22.003  26.449  1.00  0.00    -0.237 OA
ATOM     95  O   UNL A   1      41.015  20.291  26.254  1.00  0.00    -0.237 OA
ATOM     96  O   UNL A   1      40.791  21.621  28.327  1.00  0.00    -0.744 OA
ENDBRANCH  89  93
ENDBRANCH  62  86
BRANCH  74  97
ATOM     97  C   UNL A   1      45.288  30.253  28.352  1.00  0.00     0.023 A 
ATOM     98  C   UNL A   1      46.599  30.739  28.212  1.00  0.00     0.031 A 
ATOM     99  C   UNL A   1      44.256  30.963  27.710  1.00  0.00     0.131 A 
ATOM    100  C   UNL A   1      46.845  31.929  27.525  1.00  0.00     0.055 A 
ATOM    101  C   UNL A   1      44.519  32.108  26.948  1.00  0.00     0.041 A 
ATOM    102  F   UNL A   1      42.966  30.632  27.869  1.00  0.00    -0.206 F 
ATOM    103  C   UNL A   1      45.816  32.611  26.875  1.00  0.00     0.022 A 
BRANCH 100 104
ATOM    104  S   UNL A   1      48.476  32.709  27.637  1.00  0.00     0.124 S 
ATOM    105  O   UNL A   1      49.003  32.144  28.876  1.00  0.00    -0.237 OA
ATOM    106  O   UNL A   1      49.126  32.249  26.411  1.00  0.00    -0.237 OA
ATOM    107  O   UNL A   1      48.183  34.140  27.677  1.00  0.00    -0.744 OA
ENDBRANCH 100 104
ENDBRANCH  74  97
ENDBRANCH  48  49
ENDBRANCH  40  43
ENDBRANCH  38  39
ENDBRANCH  37  38
ENDBRANCH   1  37
TORSDOF 20
ENDMDL
MODEL 2
REMARK VINA RESULT:     -12.9      1.690      2.102
REMARK SMILES O=C(CSc1nnc2sc3ccccc3n12)N[C@H](Cc1c[nH]c2ccccc12)C(=O)NCCCCNC(=O)c1ccc(-c2c3nc(c(-c4cc(S(=O)(=O)[O-])ccc4F)c4ccc([nH]4)c(-c4cc(S(=O)(=O)[O-])ccc4F)c4nc(c(-c5cc(S(=O)(=O)[O-])ccc5F)c5ccc2[nH]5)C=C4)C=C3)cc1
REMARK SMILES IDX 33 1 32 2 31 3 29 4 30 5 18 7 17 8 1 9 2 10 3 12 4 13 5 14
REMARK SMILES IDX 6 15 16 16 7 17 8 18 15 19 9 20 10 21 14 22 11 23 13 24
REMARK SMILES IDX 12 25 19 26 20 27 21 28 28 29 22 30 23 31 27 32 24 34 26 35
REMARK SMILES IDX 25 36 34 37 35 38 36 39 37 40 38 42 39 43 40 44 101 45 41 46
REMARK SMILES IDX 100 47 42 48 43 49 44 50 94 51 45 52 99 53 93 54 95 55 46 56
REMARK SMILES IDX 98 57 92 58 91 59 47 61 79 62 59 63 78 64 60 65 63 66 77 67
REMARK SMILES IDX 96 68 61 69 62 70 76 72 97 73 64 74 48 75 49 76 57 77 50 78
REMARK SMILES IDX 56 79 58 80 55 81 51 82 52 83 53 84 54 85 80 86 81 87 89 88
REMARK SMILES IDX 82 89 88 90 90 91 87 92 83 93 84 94 85 95 86 96 65 97 66 98
REMARK SMILES IDX 74 99 67 100 73 101 75 102 72 103 68 104 69 105 70 106
REMARK SMILES IDX 71 107
REMARK H PARENT 31 6 17 11 22 33 36 41 95 60 63 71
REMARK Flexibility Score: inf
ROOT
ATOM      1  C   UNL A   1      34.862  30.193  27.062  1.00  0.00     0.023 C 
ENDROOT
BRANCH   1   2
ATOM      2  C   UNL A   1      34.130  28.877  26.877  1.00  0.00     0.116 C 
BRANCH   2   3
ATOM      3  N   UNL A   1      32.999  28.698  27.762  1.00  0.00    -0.354 N 
ATOM      4  C   UNL A   1      31.738  28.267  27.462  1.00  0.00     0.242 C 
ATOM      5  O   UNL A   1      31.027  27.860  28.389  1.00  0.00    -0.273 OA
ATOM      6  H   UNL A   1      33.160  28.917  28.708  1.00  0.00     0.163 HD
BRANCH   4   7
ATOM      7  C   UNL A   1      31.251  28.127  26.006  1.00  0.00     0.175 C 
BRANCH   7   8
ATOM      8  N   UNL A   1      31.535  26.731  25.635  1.00  0.00    -0.343 N 
ATOM      9  O   UNL A   1      29.701  25.625  26.422  1.00  0.00    -0.274 OA
ATOM     10  C   UNL A   1      30.679  25.667  25.680  1.00  0.00     0.231 C 
ATOM     11  H   UNL A   1      32.448  26.543  25.317  1.00  0.00     0.164 HD
BRANCH  10  12
ATOM     12  C   UNL A   1      30.967  24.515  24.725  1.00  0.00     0.178 C 
BRANCH  12  13
ATOM     13  S   UNL A   1      32.212  24.860  23.449  1.00  0.00    -0.076 SA
BRANCH  13  14
ATOM     14  C   UNL A   1      33.681  24.374  24.224  1.00  0.00     0.197 A 
ATOM     15  N   UNL A   1      34.516  25.187  24.845  1.00  0.00    -0.122 NA
ATOM     16  N   UNL A   1      34.059  23.083  24.464  1.00  0.00    -0.260 N 
ATOM     17  N   UNL A   1      35.453  24.416  25.530  1.00  0.00    -0.118 NA
ATOM     18  C   UNL A   1      35.144  23.173  25.283  1.00  0.00     0.217 A 
ATOM     19  C   UNL A   1      33.628  21.793  24.177  1.00  0.00     0.068 A 
ATOM     20  S   UNL A   1      35.746  21.639  25.806  1.00  0.00    -0.094 S 
ATOM     21  C   UNL A   1      34.428  20.862  24.863  1.00  0.00     0.055 A 
ATOM     22  C   UNL A   1      32.569  21.411  23.375  1.00  0.00     0.028 A 
ATOM     23  C   UNL A   1      34.141  19.511  24.788  1.00  0.00     0.021 A 
ATOM     24  C   UNL A   1      32.287  20.048  23.294  1.00  0.00     0.002 A 
ATOM     25  C   UNL A   1      33.056  19.107  24.003  1.00  0.00     0.002 A 
ENDBRANCH  13  14
ENDBRANCH  12  13
ENDBRANCH  10  12
ENDBRANCH   7   8
BRANCH   7  26
ATOM     26  C   UNL A   1      31.647  29.279  25.073  1.00  0.00     0.072 C 
BRANCH  26  27
ATOM     27  C   UNL A   1      30.886  29.380  23.766  1.00  0.00    -0.020 A 
ATOM     28  C   UNL A   1      31.144  28.572  22.671  1.00  0.00     0.087 A 
ATOM     29  C   UNL A   1      29.812  30.259  23.371  1.00  0.00     0.003 A 
ATOM     30  N   UNL A   1      30.308  28.926  21.649  1.00  0.00    -0.361 N 
ATOM     31  C   UNL A   1      29.486  29.952  22.045  1.00  0.00     0.046 A 
ATOM     32  C   UNL A   1      29.087  31.304  23.985  1.00  0.00     0.010 A 
ATOM     33  H   UNL A   1      30.297  28.506  20.759  1.00  0.00     0.166 HD
ATOM     34  C   UNL A   1      28.498  30.632  21.320  1.00  0.00     0.026 A 
ATOM     35  C   UNL A   1      28.111  32.009  23.269  1.00  0.00     0.001 A 
ATOM     36  C   UNL A   1      27.821  31.675  21.953  1.00  0.00     0.002 A 
ENDBRANCH  26  27
ENDBRANCH   7  26
ENDBRANCH   4   7
ENDBRANCH   2   3
ENDBRANCH   1   2
BRANCH   1  37
ATOM     37  C   UNL A   1      34.080  31.285  27.788  1.00  0.00     0.023 C 
BRANCH  37  38
ATOM     38  C   UNL A   1      34.793  32.631  27.932  1.00  0.00     0.116 C 
BRANCH  38  39
ATOM     39  N   UNL A   1      35.122  33.025  29.289  1.00  0.00    -0.352 N 
ATOM     40  C   UNL A   1      36.245  32.906  30.064  1.00  0.00     0.251 C 
ATOM     41  H   UNL A   1      34.378  33.472  29.753  1.00  0.00     0.163 HD
ATOM     42  O   UNL A   1      36.299  33.646  31.051  1.00  0.00    -0.269 OA
BRANCH  40  43
ATOM     43  C   UNL A   1      37.314  31.892  29.853  1.00  0.00     0.039 A 
ATOM     44  C   UNL A   1      37.107  30.518  29.773  1.00  0.00     0.014 A 
ATOM     45  C   UNL A   1      38.640  32.372  29.836  1.00  0.00     0.014 A 
ATOM     46  C   UNL A   1      38.184  29.643  29.833  1.00  0.00     0.010 A 
ATOM     47  C   UNL A   1      39.725  31.500  29.862  1.00  0.00     0.010 A 
ATOM     48  C   UNL A   1      39.493  30.133  29.918  1.00  0.00    -0.014 A 
BRANCH  48  49
ATOM     49  C   UNL A   1      40.572  29.149  29.887  1.00  0.00     0.031 A 
ATOM     50  C   UNL A   1      40.970  28.691  31.247  1.00  0.00     0.074 A 
ATOM     51  C   UNL A   1      41.142  28.650  28.770  1.00  0.00     0.049 A 
ATOM     52  N   UNL A   1      42.051  28.986  31.888  1.00  0.00    -0.248 NA
ATOM     53  C   UNL A   1      39.961  28.001  32.065  1.00  0.00     0.031 C 
ATOM     54  C   UNL A   1      40.678  28.781  27.388  1.00  0.00     0.029 A 
ATOM     55  N   UNL A   1      42.233  27.836  28.644  1.00  0.00    -0.354 N 
ATOM     56  C   UNL A   1      41.960  28.332  33.116  1.00  0.00     0.074 A 
ATOM     57  C   UNL A   1      40.590  27.905  33.236  1.00  0.00     0.031 C 
ATOM     58  C   UNL A   1      41.330  27.886  26.607  1.00  0.00     0.029 A 
ATOM     59  C   UNL A   1      42.364  27.236  27.397  1.00  0.00     0.049 A 
ATOM     60  H   UNL A   1      42.874  27.688  29.378  1.00  0.00     0.167 HD
ATOM     61  C   UNL A   1      43.079  28.000  33.821  1.00  0.00     0.034 A 
ATOM     62  C   UNL A   1      43.225  26.242  27.048  1.00  0.00     0.034 A 
ATOM     63  C   UNL A   1      44.225  28.702  33.310  1.00  0.00     0.049 A 
ATOM     64  C   UNL A   1      44.310  26.201  28.051  1.00  0.00     0.074 A 
ATOM     65  C   UNL A   1      44.629  30.018  33.254  1.00  0.00     0.029 A 
ATOM     66  N   UNL A   1      44.995  28.015  32.407  1.00  0.00    -0.354 N 
ATOM     67  N   UNL A   1      45.233  27.110  28.169  1.00  0.00    -0.248 NA
ATOM     68  C   UNL A   1      44.127  25.335  29.205  1.00  0.00     0.031 C 
ATOM     69  C   UNL A   1      45.344  30.135  32.029  1.00  0.00     0.029 A 
ATOM     70  C   UNL A   1      45.410  28.873  31.430  1.00  0.00     0.049 A 
ATOM     71  H   UNL A   1      45.212  27.056  32.455  1.00  0.00     0.167 HD
ATOM     72  C   UNL A   1      45.389  27.253  29.537  1.00  0.00     0.074 A 
ATOM     73  C   UNL A   1      44.790  26.052  30.115  1.00  0.00     0.031 C 
ATOM     74  C   UNL A   1      45.718  28.462  30.074  1.00  0.00     0.034 A 
BRANCH  61  75
ATOM     75  C   UNL A   1      43.218  26.745  34.662  1.00  0.00     0.023 A 
ATOM     76  C   UNL A   1      43.920  25.602  34.240  1.00  0.00     0.031 A 
ATOM     77  C   UNL A   1      42.856  26.767  36.028  1.00  0.00     0.131 A 
ATOM     78  C   UNL A   1      44.259  24.574  35.130  1.00  0.00     0.055 A 
ATOM     79  C   UNL A   1      43.248  25.772  36.931  1.00  0.00     0.041 A 
ATOM     80  F   UNL A   1      42.169  27.797  36.547  1.00  0.00    -0.206 F 
ATOM     81  C   UNL A   1      43.962  24.670  36.485  1.00  0.00     0.022 A 
BRANCH  78  82
ATOM     82  S   UNL A   1      45.130  23.098  34.537  1.00  0.00     0.124 S 
ATOM     83  O   UNL A   1      44.633  22.068  35.436  1.00  0.00    -0.237 OA
ATOM     84  O   UNL A   1      44.665  23.018  33.156  1.00  0.00    -0.237 OA
ATOM     85  O   UNL A   1      46.544  23.450  34.694  1.00  0.00    -0.744 OA
ENDBRANCH  78  82
ENDBRANCH  61  75
BRANCH  62  86
ATOM     86  C   UNL A   1      42.951  25.053  26.202  1.00  0.00     0.023 A 
ATOM     87  C   UNL A   1      41.931  24.163  26.578  1.00  0.00     0.031 A 
ATOM     88  C   UNL A   1      43.901  24.592  25.269  1.00  0.00     0.131 A 
ATOM     89  C   UNL A   1      41.924  22.847  26.094  1.00  0.00     0.055 A 
ATOM     90  C   UNL A   1      43.876  23.283  24.767  1.00  0.00     0.041 A 
ATOM     91  F   UNL A   1      44.925  25.374  24.894  1.00  0.00    -0.206 F 
ATOM     92  C   UNL A   1      42.893  22.397  25.195  1.00  0.00     0.022 A 
BRANCH  89  93
ATOM     93  S   UNL A   1      40.713  21.652  26.722  1.00  0.00     0.124 S 
ATOM     94  O   UNL A   1      40.963  21.687  28.161  1.00  0.00    -0.237 OA
ATOM     95  O   UNL A   1      39.455  22.250  26.288  1.00  0.00    -0.237 OA
ATOM     96  O   UNL A   1      41.088  20.407  26.060  1.00  0.00    -0.744 OA
ENDBRANCH  89  93
ENDBRANCH  62  86
BRANCH  74  97
ATOM     97  C   UNL A   1      46.259  29.541  29.168  1.00  0.00     0.023 A 
ATOM     98  C   UNL A   1      45.296  30.356  28.547  1.00  0.00     0.031 A 
ATOM     99  C   UNL A   1      47.591  29.653  28.728  1.00  0.00     0.131 A 
ATOM    100  C   UNL A   1      45.649  31.182  27.479  1.00  0.00     0.055 A 
ATOM    101  C   UNL A   1      47.955  30.549  27.716  1.00  0.00     0.041 A 
ATOM    102  F   UNL A   1      48.557  28.847  29.193  1.00  0.00    -0.206 F 
ATOM    103  C   UNL A   1      46.978  31.300  27.068  1.00  0.00     0.022 A 
BRANCH 100 104
ATOM    104  S   UNL A   1      44.354  31.964  26.483  1.00  0.00     0.124 S 
ATOM    105  O   UNL A   1      43.849  32.993  27.387  1.00  0.00    -0.237 OA
ATOM    106  O   UNL A   1      45.103  32.456  25.329  1.00  0.00    -0.237 OA
ATOM    107  O   UNL A   1      43.423  30.876  26.192  1.00  0.00    -0.744 OA
ENDBRANCH 100 104
ENDBRANCH  74  97
ENDBRANCH  48  49
ENDBRANCH  40  43
ENDBRANCH  38  39
ENDBRANCH  37  38
ENDBRANCH   1  37
TORSDOF 20
ENDMDL
MODEL 3
REMARK VINA RESULT:     -12.7      1.720      2.175
REMARK SMILES O=C(CSc1nnc2sc3ccccc3n12)N[C@H](Cc1c[nH]c2ccccc12)C(=O)NCCCCNC(=O)c1ccc(-c2c3nc(c(-c4cc(S(=O)(=O)[O-])ccc4F)c4ccc([nH]4)c(-c4cc(S(=O)(=O)[O-])ccc4F)c4nc(c(-c5cc(S(=O)(=O)[O-])ccc5F)c5ccc2[nH]5)C=C4)C=C3)cc1
REMARK SMILES IDX 33 1 32 2 31 3 29 4 30 5 18 7 17 8 1 9 2 10 3 12 4 13 5 14
REMARK SMILES IDX 6 15 16 16 7 17 8 18 15 19 9 20 10 21 14 22 11 23 13 24
REMARK SMILES IDX 12 25 19 26 20 27 21 28 28 29 22 30 23 31 27 32 24 34 26 35
REMARK SMILES IDX 25 36 34 37 35 38 36 39 37 40 38 42 39 43 40 44 101 45 41 46
REMARK SMILES IDX 100 47 42 48 43 49 44 50 94 51 45 52 99 53 93 54 95 55 46 56
REMARK SMILES IDX 98 57 92 58 91 59 47 61 79 62 59 63 78 64 60 65 63 66 77 67
REMARK SMILES IDX 96 68 61 69 62 70 76 72 97 73 64 74 48 75 49 76 57 77 50 78
REMARK SMILES IDX 56 79 58 80 55 81 51 82 52 83 53 84 54 85 80 86 81 87 89 88
REMARK SMILES IDX 82 89 88 90 90 91 87 92 83 93 84 94 85 95 86 96 65 97 66 98
REMARK SMILES IDX 74 99 67 100 73 101 75 102 72 103 68 104 69 105 70 106
REMARK SMILES IDX 71 107
REMARK H PARENT 31 6 17 11 22 33 36 41 95 60 63 71
REMARK Flexibility Score: inf
ROOT
ATOM      1  C   UNL A   1      32.804  29.597  24.917  1.00  0.00     0.023 C 
ENDROOT
BRANCH   1   2
ATOM      2  C   UNL A   1      33.176  29.058  23.548  1.00  0.00     0.116 C 
BRANCH   2   3
ATOM      3  N   UNL A   1      33.941  27.829  23.584  1.00  0.00    -0.354 N 
ATOM      4  C   UNL A   1      33.500  26.551  23.777  1.00  0.00     0.242 C 
ATOM      5  O   UNL A   1      34.242  25.623  23.436  1.00  0.00    -0.273 OA
ATOM      6  H   UNL A   1      34.912  27.929  23.450  1.00  0.00     0.163 HD
BRANCH   4   7
ATOM      7  C   UNL A   1      32.063  26.250  24.248  1.00  0.00     0.175 C 
BRANCH   7   8
ATOM      8  N   UNL A   1      32.208  25.247  25.317  1.00  0.00    -0.343 N 
ATOM      9  O   UNL A   1      30.380  25.645  26.622  1.00  0.00    -0.274 OA
ATOM     10  C   UNL A   1      31.285  24.898  26.261  1.00  0.00     0.231 C 
ATOM     11  H   UNL A   1      33.071  24.774  25.355  1.00  0.00     0.164 HD
BRANCH  10  12
ATOM     12  C   UNL A   1      31.397  23.492  26.842  1.00  0.00     0.178 C 
BRANCH  12  13
ATOM     13  S   UNL A   1      31.575  22.162  25.619  1.00  0.00    -0.076 SA
BRANCH  13  14
ATOM     14  C   UNL A   1      33.293  22.053  25.440  1.00  0.00     0.197 A 
ATOM     15  N   UNL A   1      34.155  22.985  25.806  1.00  0.00    -0.122 NA
ATOM     16  N   UNL A   1      33.982  20.927  25.087  1.00  0.00    -0.260 N 
ATOM     17  N   UNL A   1      35.440  22.455  25.715  1.00  0.00    -0.118 NA
ATOM     18  C   UNL A   1      35.295  21.231  25.291  1.00  0.00     0.217 A 
ATOM     19  C   UNL A   1      33.723  19.626  24.672  1.00  0.00     0.068 A 
ATOM     20  S   UNL A   1      36.365  19.904  24.999  1.00  0.00    -0.094 S 
ATOM     21  C   UNL A   1      34.928  18.903  24.600  1.00  0.00     0.055 A 
ATOM     22  C   UNL A   1      32.498  19.054  24.385  1.00  0.00     0.028 A 
ATOM     23  C   UNL A   1      34.912  17.558  24.277  1.00  0.00     0.021 A 
ATOM     24  C   UNL A   1      32.485  17.700  24.052  1.00  0.00     0.002 A 
ATOM     25  C   UNL A   1      33.677  16.955  24.011  1.00  0.00     0.002 A 
ENDBRANCH  13  14
ENDBRANCH  12  13
ENDBRANCH  10  12
ENDBRANCH   7   8
BRANCH   7  26
ATOM     26  C   UNL A   1      31.037  26.050  23.125  1.00  0.00     0.072 C 
BRANCH  26  27
ATOM     27  C   UNL A   1      29.734  26.813  23.258  1.00  0.00    -0.020 A 
ATOM     28  C   UNL A   1      28.580  26.260  23.789  1.00  0.00     0.087 A 
ATOM     29  C   UNL A   1      29.400  28.169  22.897  1.00  0.00     0.003 A 
ATOM     30  N   UNL A   1      27.582  27.193  23.749  1.00  0.00    -0.361 N 
ATOM     31  C   UNL A   1      28.050  28.365  23.208  1.00  0.00     0.046 A 
ATOM     32  C   UNL A   1      30.090  29.255  22.314  1.00  0.00     0.010 A 
ATOM     33  H   UNL A   1      26.660  27.045  24.062  1.00  0.00     0.166 HD
ATOM     34  C   UNL A   1      27.372  29.567  22.963  1.00  0.00     0.026 A 
ATOM     35  C   UNL A   1      29.422  30.457  22.042  1.00  0.00     0.001 A 
ATOM     36  C   UNL A   1      28.080  30.608  22.364  1.00  0.00     0.002 A 
ENDBRANCH  26  27
ENDBRANCH   7  26
ENDBRANCH   4   7
ENDBRANCH   2   3
ENDBRANCH   1   2
BRANCH   1  37
ATOM     37  C   UNL A   1      33.819  29.334  26.027  1.00  0.00     0.023 C 
BRANCH  37  38
ATOM     38  C   UNL A   1      33.382  29.737  27.437  1.00  0.00     0.116 C 
BRANCH  38  39
ATOM     39  N   UNL A   1      33.850  31.032  27.893  1.00  0.00    -0.352 N 
ATOM     40  C   UNL A   1      35.090  31.597  28.029  1.00  0.00     0.251 C 
ATOM     41  H   UNL A   1      33.120  31.634  28.163  1.00  0.00     0.163 HD
ATOM     42  O   UNL A   1      35.115  32.828  28.124  1.00  0.00    -0.269 OA
BRANCH  40  43
ATOM     43  C   UNL A   1      36.357  30.829  28.179  1.00  0.00     0.039 A 
ATOM     44  C   UNL A   1      36.489  29.459  27.969  1.00  0.00     0.014 A 
ATOM     45  C   UNL A   1      37.470  31.542  28.668  1.00  0.00     0.014 A 
ATOM     46  C   UNL A   1      37.639  28.796  28.379  1.00  0.00     0.010 A 
ATOM     47  C   UNL A   1      38.638  30.888  29.050  1.00  0.00     0.010 A 
ATOM     48  C   UNL A   1      38.699  29.505  28.957  1.00  0.00    -0.014 A 
BRANCH  48  49
ATOM     49  C   UNL A   1      39.906  28.746  29.280  1.00  0.00     0.031 A 
ATOM     50  C   UNL A   1      40.270  28.834  30.721  1.00  0.00     0.074 A 
ATOM     51  C   UNL A   1      40.615  27.999  28.408  1.00  0.00     0.049 A 
ATOM     52  N   UNL A   1      41.253  29.489  31.243  1.00  0.00    -0.248 NA
ATOM     53  C   UNL A   1      39.314  28.306  31.707  1.00  0.00     0.031 C 
ATOM     54  C   UNL A   1      40.232  27.590  27.055  1.00  0.00     0.029 A 
ATOM     55  N   UNL A   1      41.814  27.370  28.583  1.00  0.00    -0.354 N 
ATOM     56  C   UNL A   1      41.171  29.274  32.617  1.00  0.00     0.074 A 
ATOM     57  C   UNL A   1      39.870  28.703  32.852  1.00  0.00     0.031 C 
ATOM     58  C   UNL A   1      41.055  26.600  26.635  1.00  0.00     0.029 A 
ATOM     59  C   UNL A   1      42.114  26.418  27.614  1.00  0.00     0.049 A 
ATOM     60  H   UNL A   1      42.418  27.575  29.334  1.00  0.00     0.167 HD
ATOM     61  C   UNL A   1      42.274  29.373  33.412  1.00  0.00     0.034 A 
ATOM     62  C   UNL A   1      43.127  25.511  27.638  1.00  0.00     0.034 A 
ATOM     63  C   UNL A   1      43.343  30.034  32.713  1.00  0.00     0.049 A 
ATOM     64  C   UNL A   1      44.137  25.974  28.614  1.00  0.00     0.074 A 
ATOM     65  C   UNL A   1      43.561  31.303  32.221  1.00  0.00     0.029 A 
ATOM     66  N   UNL A   1      44.261  29.215  32.109  1.00  0.00    -0.354 N 
ATOM     67  N   UNL A   1      44.912  27.002  28.432  1.00  0.00    -0.248 NA
ATOM     68  C   UNL A   1      43.999  25.524  29.989  1.00  0.00     0.031 C 
ATOM     69  C   UNL A   1      44.334  31.115  31.041  1.00  0.00     0.029 A 
ATOM     70  C   UNL A   1      44.617  29.753  30.906  1.00  0.00     0.049 A 
ATOM     71  H   UNL A   1      44.608  28.372  32.482  1.00  0.00     0.167 HD
ATOM     72  C   UNL A   1      44.953  27.613  29.673  1.00  0.00     0.074 A 
ATOM     73  C   UNL A   1      44.491  26.595  30.614  1.00  0.00     0.031 C 
ATOM     74  C   UNL A   1      45.072  28.968  29.775  1.00  0.00     0.034 A 
BRANCH  61  75
ATOM     75  C   UNL A   1      42.531  28.506  34.630  1.00  0.00     0.023 A 
ATOM     76  C   UNL A   1      42.602  27.103  34.583  1.00  0.00     0.031 A 
ATOM     77  C   UNL A   1      42.968  29.097  35.837  1.00  0.00     0.131 A 
ATOM     78  C   UNL A   1      43.102  26.352  35.656  1.00  0.00     0.055 A 
ATOM     79  C   UNL A   1      43.526  28.355  36.885  1.00  0.00     0.041 A 
ATOM     80  F   UNL A   1      42.935  30.428  36.010  1.00  0.00    -0.206 F 
ATOM     81  C   UNL A   1      43.604  26.973  36.795  1.00  0.00     0.022 A 
BRANCH  78  82
ATOM     82  S   UNL A   1      43.137  24.541  35.571  1.00  0.00     0.124 S 
ATOM     83  O   UNL A   1      43.574  24.306  34.204  1.00  0.00    -0.237 OA
ATOM     84  O   UNL A   1      44.106  24.218  36.615  1.00  0.00    -0.237 OA
ATOM     85  O   UNL A   1      41.755  24.158  35.872  1.00  0.00    -0.744 OA
ENDBRANCH  78  82
ENDBRANCH  61  75
BRANCH  62  86
ATOM     86  C   UNL A   1      43.081  24.082  27.239  1.00  0.00     0.023 A 
ATOM     87  C   UNL A   1      44.069  23.576  26.378  1.00  0.00     0.031 A 
ATOM     88  C   UNL A   1      41.900  23.325  27.383  1.00  0.00     0.131 A 
ATOM     89  C   UNL A   1      43.837  22.407  25.640  1.00  0.00     0.055 A 
ATOM     90  C   UNL A   1      41.681  22.144  26.663  1.00  0.00     0.041 A 
ATOM     91  F   UNL A   1      40.898  23.766  28.158  1.00  0.00    -0.206 F 
ATOM     92  C   UNL A   1      42.646  21.689  25.770  1.00  0.00     0.022 A 
BRANCH  89  93
ATOM     93  S   UNL A   1      45.039  21.860  24.397  1.00  0.00     0.124 S 
ATOM     94  O   UNL A   1      44.519  20.548  24.020  1.00  0.00    -0.237 OA
ATOM     95  O   UNL A   1      44.912  22.902  23.383  1.00  0.00    -0.237 OA
ATOM     96  O   UNL A   1      46.301  21.836  25.130  1.00  0.00    -0.744 OA
ENDBRANCH  89  93
ENDBRANCH  62  86
BRANCH  74  97
ATOM     97  C   UNL A   1      45.516  29.756  28.566  1.00  0.00     0.023 A 
ATOM     98  C   UNL A   1      46.882  30.081  28.517  1.00  0.00     0.031 A 
ATOM     99  C   UNL A   1      44.665  30.368  27.627  1.00  0.00     0.131 A 
ATOM    100  C   UNL A   1      47.352  31.040  27.618  1.00  0.00     0.055 A 
ATOM    101  C   UNL A   1      45.155  31.263  26.669  1.00  0.00     0.041 A 
ATOM    102  F   UNL A   1      43.336  30.194  27.662  1.00  0.00    -0.206 F 
ATOM    103  C   UNL A   1      46.500  31.622  26.678  1.00  0.00     0.022 A 
BRANCH 100 104
ATOM    104  S   UNL A   1      49.035  31.685  27.791  1.00  0.00     0.124 S 
ATOM    105  O   UNL A   1      49.613  31.392  26.483  1.00  0.00    -0.237 OA
ATOM    106  O   UNL A   1      48.799  33.101  28.070  1.00  0.00    -0.237 OA
ATOM    107  O   UNL A   1      49.594  30.925  28.906  1.00  0.00    -0.744 OA
ENDBRANCH 100 104
ENDBRANCH  74  97
ENDBRANCH  48  49
ENDBRANCH  40  43
ENDBRANCH  38  39
ENDBRANCH  37  38
ENDBRANCH   1  37
TORSDOF 20
ENDMDL
