MODEL 1
REMARK VINA RESULT:     -11.4      0.000      0.000
REMARK SMILES O=C(NCCCCNC(=O)c1ccc(OCc2sccc2Br)cn1)c1ccc(-c2c3nc(c(-c4cc(S(=O)(=O)[O-])ccc4F)c4ccc([nH]4)c(-c4cc(S(=O)(=O)[O-])ccc4F)c4nc(c(-c5cc(S(=O)(=O)[O-])ccc5F)c5ccc2[nH]5)C=C4)C=C3)cc1
REMARK SMILES IDX 5 1 4 2 3 3 1 4 2 5 25 7 26 8 87 9 27 10 86 11 28 12 29 13
REMARK SMILES IDX 30 14 80 15 31 16 85 17 79 18 81 19 32 20 84 21 78 22 77 23
REMARK SMILES IDX 33 25 65 26 45 27 64 28 46 29 49 30 63 31 82 32 47 33 48 34
REMARK SMILES IDX 62 36 83 37 50 38 34 39 35 40 43 41 36 42 42 43 44 44 41 45
REMARK SMILES IDX 37 46 38 47 39 48 40 49 66 50 67 51 75 52 68 53 74 54 76 55
REMARK SMILES IDX 73 56 69 57 70 58 71 59 72 60 51 61 52 62 60 63 53 64 59 65
REMARK SMILES IDX 61 66 58 67 54 68 55 69 56 70 57 71 6 72 7 73 8 74 9 75
REMARK SMILES IDX 10 77 11 78 12 79 24 80 13 81 23 82 14 83 15 84 16 85 17 86
REMARK SMILES IDX 18 87 21 88 19 89 20 90 22 91
REMARK H PARENT 3 6 81 24 49 35 8 76
REMARK Flexibility Score: inf
ROOT
ATOM      1  C   UNL A   1      31.614  32.202  26.626  1.00  0.00     0.023 C 
ENDROOT
BRANCH   1   2
ATOM      2  C   UNL A   1      32.793  32.871  27.323  1.00  0.00     0.116 C 
BRANCH   2   3
ATOM      3  N   UNL A   1      32.495  34.215  27.794  1.00  0.00    -0.352 N 
ATOM      4  O   UNL A   1      32.621  36.016  29.146  1.00  0.00    -0.269 OA
ATOM      5  C   UNL A   1      33.088  34.931  28.810  1.00  0.00     0.251 C 
ATOM      6  H   UNL A   1      31.767  34.679  27.319  1.00  0.00     0.163 HD
BRANCH   5   7
ATOM      7  C   UNL A   1      34.270  34.379  29.510  1.00  0.00     0.039 A 
ATOM      8  C   UNL A   1      35.559  34.608  29.025  1.00  0.00     0.014 A 
ATOM      9  C   UNL A   1      34.084  33.612  30.666  1.00  0.00     0.014 A 
ATOM     10  C   UNL A   1      36.642  33.951  29.601  1.00  0.00     0.010 A 
ATOM     11  C   UNL A   1      35.185  33.020  31.294  1.00  0.00     0.010 A 
ATOM     12  C   UNL A   1      36.470  33.156  30.747  1.00  0.00    -0.014 A 
BRANCH  12  13
ATOM     13  C   UNL A   1      37.659  32.514  31.368  1.00  0.00     0.031 A 
ATOM     14  C   UNL A   1      38.173  32.961  32.710  1.00  0.00     0.074 A 
ATOM     15  C   UNL A   1      38.246  31.484  30.727  1.00  0.00     0.049 A 
ATOM     16  N   UNL A   1      39.181  32.496  33.404  1.00  0.00    -0.248 NA
ATOM     17  C   UNL A   1      37.470  34.081  33.352  1.00  0.00     0.031 C 
ATOM     18  C   UNL A   1      37.835  30.965  29.420  1.00  0.00     0.029 A 
ATOM     19  N   UNL A   1      39.293  30.676  31.089  1.00  0.00    -0.354 N 
ATOM     20  C   UNL A   1      39.239  33.265  34.562  1.00  0.00     0.074 A 
ATOM     21  C   UNL A   1      38.188  34.255  34.453  1.00  0.00     0.031 C 
ATOM     22  C   UNL A   1      38.590  29.901  29.111  1.00  0.00     0.029 A 
ATOM     23  C   UNL A   1      39.580  29.699  30.163  1.00  0.00     0.049 A 
ATOM     24  H   UNL A   1      39.792  30.784  31.930  1.00  0.00     0.167 HD
ATOM     25  C   UNL A   1      40.083  33.148  35.618  1.00  0.00     0.034 A 
ATOM     26  C   UNL A   1      40.542  28.758  30.149  1.00  0.00     0.034 A 
ATOM     27  C   UNL A   1      41.131  32.157  35.708  1.00  0.00     0.049 A 
ATOM     28  C   UNL A   1      41.490  28.675  31.314  1.00  0.00     0.074 A 
ATOM     29  C   UNL A   1      42.038  31.947  36.733  1.00  0.00     0.029 A 
ATOM     30  N   UNL A   1      41.416  31.208  34.733  1.00  0.00    -0.354 N 
ATOM     31  N   UNL A   1      41.527  29.412  32.401  1.00  0.00    -0.248 NA
ATOM     32  C   UNL A   1      42.521  27.633  31.255  1.00  0.00     0.031 C 
ATOM     33  C   UNL A   1      42.904  30.915  36.354  1.00  0.00     0.029 A 
ATOM     34  C   UNL A   1      42.497  30.431  35.121  1.00  0.00     0.049 A 
ATOM     35  H   UNL A   1      40.922  31.104  33.887  1.00  0.00     0.167 HD
ATOM     36  C   UNL A   1      42.577  28.910  33.162  1.00  0.00     0.074 A 
ATOM     37  C   UNL A   1      43.127  27.791  32.422  1.00  0.00     0.031 C 
ATOM     38  C   UNL A   1      43.047  29.333  34.363  1.00  0.00     0.034 A 
BRANCH  25  39
ATOM     39  C   UNL A   1      39.929  34.143  36.745  1.00  0.00     0.023 A 
ATOM     40  C   UNL A   1      39.478  33.753  38.019  1.00  0.00     0.031 A 
ATOM     41  C   UNL A   1      40.225  35.503  36.540  1.00  0.00     0.131 A 
ATOM     42  C   UNL A   1      39.276  34.719  39.017  1.00  0.00     0.055 A 
ATOM     43  C   UNL A   1      40.092  36.449  37.560  1.00  0.00     0.041 A 
ATOM     44  F   UNL A   1      40.642  35.939  35.341  1.00  0.00    -0.206 F 
ATOM     45  C   UNL A   1      39.602  36.061  38.804  1.00  0.00     0.022 A 
BRANCH  42  46
ATOM     46  S   UNL A   1      38.459  34.219  40.556  1.00  0.00     0.124 S 
ATOM     47  O   UNL A   1      37.263  33.546  40.052  1.00  0.00    -0.237 OA
ATOM     48  O   UNL A   1      39.459  33.362  41.181  1.00  0.00    -0.237 OA
ATOM     49  O   UNL A   1      38.209  35.486  41.241  1.00  0.00    -0.744 OA
ENDBRANCH  42  46
ENDBRANCH  25  39
BRANCH  26  50
ATOM     50  C   UNL A   1      40.682  27.845  28.980  1.00  0.00     0.023 A 
ATOM     51  C   UNL A   1      41.609  28.106  27.959  1.00  0.00     0.031 A 
ATOM     52  C   UNL A   1      39.862  26.709  28.852  1.00  0.00     0.131 A 
ATOM     53  C   UNL A   1      41.664  27.267  26.836  1.00  0.00     0.055 A 
ATOM     54  C   UNL A   1      39.958  25.847  27.761  1.00  0.00     0.041 A 
ATOM     55  F   UNL A   1      38.961  26.412  29.804  1.00  0.00    -0.206 F 
ATOM     56  C   UNL A   1      40.855  26.132  26.736  1.00  0.00     0.022 A 
BRANCH  53  57
ATOM     57  S   UNL A   1      42.749  27.730  25.458  1.00  0.00     0.124 S 
ATOM     58  O   UNL A   1      41.933  28.712  24.753  1.00  0.00    -0.237 OA
ATOM     59  O   UNL A   1      43.917  28.252  26.158  1.00  0.00    -0.237 OA
ATOM     60  O   UNL A   1      42.958  26.469  24.752  1.00  0.00    -0.744 OA
ENDBRANCH  53  57
ENDBRANCH  26  50
BRANCH  38  61
ATOM     61  C   UNL A   1      44.195  28.551  34.951  1.00  0.00     0.023 A 
ATOM     62  C   UNL A   1      43.987  27.555  35.920  1.00  0.00     0.031 A 
ATOM     63  C   UNL A   1      45.516  28.835  34.564  1.00  0.00     0.131 A 
ATOM     64  C   UNL A   1      45.086  26.922  36.518  1.00  0.00     0.055 A 
ATOM     65  C   UNL A   1      46.604  28.162  35.121  1.00  0.00     0.041 A 
ATOM     66  F   UNL A   1      45.770  29.779  33.644  1.00  0.00    -0.206 F 
ATOM     67  C   UNL A   1      46.393  27.209  36.114  1.00  0.00     0.022 A 
BRANCH  64  68
ATOM     68  S   UNL A   1      44.792  25.785  37.901  1.00  0.00     0.124 S 
ATOM     69  O   UNL A   1      45.961  26.023  38.742  1.00  0.00    -0.237 OA
ATOM     70  O   UNL A   1      43.519  26.262  38.431  1.00  0.00    -0.237 OA
ATOM     71  O   UNL A   1      44.744  24.472  37.263  1.00  0.00    -0.744 OA
ENDBRANCH  64  68
ENDBRANCH  38  61
ENDBRANCH  12  13
ENDBRANCH   5   7
ENDBRANCH   2   3
ENDBRANCH   1   2
BRANCH   1  72
ATOM     72  C   UNL A   1      31.695  30.681  26.503  1.00  0.00     0.023 C 
BRANCH  72  73
ATOM     73  C   UNL A   1      33.019  30.134  25.979  1.00  0.00     0.116 C 
BRANCH  73  74
ATOM     74  N   UNL A   1      32.952  29.699  24.593  1.00  0.00    -0.351 N 
ATOM     75  C   UNL A   1      32.707  28.431  24.107  1.00  0.00     0.269 C 
ATOM     76  H   UNL A   1      33.101  30.398  23.916  1.00  0.00     0.163 HD
ATOM     77  O   UNL A   1      32.661  28.220  22.900  1.00  0.00    -0.268 OA
BRANCH  75  78
ATOM     78  C   UNL A   1      32.465  27.335  25.077  1.00  0.00     0.128 A 
ATOM     79  C   UNL A   1      33.521  26.509  25.444  1.00  0.00     0.038 A 
ATOM     80  N   UNL A   1      31.182  27.143  25.464  1.00  0.00    -0.247 NA
ATOM     81  C   UNL A   1      33.239  25.377  26.208  1.00  0.00     0.050 A 
ATOM     82  C   UNL A   1      30.950  26.046  26.217  1.00  0.00     0.158 A 
ATOM     83  C   UNL A   1      31.922  25.117  26.580  1.00  0.00     0.138 A 
BRANCH  83  84
ATOM     84  O   UNL A   1      31.467  24.012  27.240  1.00  0.00    -0.486 OA
BRANCH  84  85
ATOM     85  C   UNL A   1      30.786  22.994  26.493  1.00  0.00     0.277 C 
BRANCH  85  86
ATOM     86  C   UNL A   1      31.672  22.387  25.439  1.00  0.00     0.056 A 
ATOM     87  S   UNL A   1      32.845  21.192  25.846  1.00  0.00    -0.144 S 
ATOM     88  C   UNL A   1      31.732  22.670  24.090  1.00  0.00     0.035 A 
ATOM     89  C   UNL A   1      33.331  21.009  24.217  1.00  0.00     0.066 A 
ATOM     90  C   UNL A   1      32.668  21.879  23.379  1.00  0.00     0.028 A 
ATOM     91  Br  UNL A   1      30.696  23.969  23.185  1.00  0.00    -0.049 Br
ENDBRANCH  85  86
ENDBRANCH  84  85
ENDBRANCH  83  84
ENDBRANCH  75  78
ENDBRANCH  73  74
ENDBRANCH  72  73
ENDBRANCH   1  72
TORSDOF 17
ENDMDL
MODEL 2
REMARK VINA RESULT:     -11.3      1.293      7.960
REMARK SMILES O=C(NCCCCNC(=O)c1ccc(OCc2sccc2Br)cn1)c1ccc(-c2c3nc(c(-c4cc(S(=O)(=O)[O-])ccc4F)c4ccc([nH]4)c(-c4cc(S(=O)(=O)[O-])ccc4F)c4nc(c(-c5cc(S(=O)(=O)[O-])ccc5F)c5ccc2[nH]5)C=C4)C=C3)cc1
REMARK SMILES IDX 5 1 4 2 3 3 1 4 2 5 25 7 26 8 87 9 27 10 86 11 28 12 29 13
REMARK SMILES IDX 30 14 80 15 31 16 85 17 79 18 81 19 32 20 84 21 78 22 77 23
REMARK SMILES IDX 33 25 65 26 45 27 64 28 46 29 49 30 63 31 82 32 47 33 48 34
REMARK SMILES IDX 62 36 83 37 50 38 34 39 35 40 43 41 36 42 42 43 44 44 41 45
REMARK SMILES IDX 37 46 38 47 39 48 40 49 66 50 67 51 75 52 68 53 74 54 76 55
REMARK SMILES IDX 73 56 69 57 70 58 71 59 72 60 51 61 52 62 60 63 53 64 59 65
REMARK SMILES IDX 61 66 58 67 54 68 55 69 56 70 57 71 6 72 7 73 8 74 9 75
REMARK SMILES IDX 10 77 11 78 12 79 24 80 13 81 23 82 14 83 15 84 16 85 17 86
REMARK SMILES IDX 18 87 21 88 19 89 20 90 22 91
REMARK H PARENT 3 6 81 24 49 35 8 76
REMARK Flexibility Score: inf
ROOT
ATOM      1  C   UNL A   1      31.687  31.703  26.649  1.00  0.00     0.023 C 
ENDROOT
BRANCH   1   2
ATOM      2  C   UNL A   1      32.907  32.405  27.230  1.00  0.00     0.116 C 
BRANCH   2   3
ATOM      3  N   UNL A   1      32.649  33.786  27.609  1.00  0.00    -0.352 N 
ATOM      4  O   UNL A   1      32.798  35.658  28.860  1.00  0.00    -0.269 OA
ATOM      5  C   UNL A   1      33.230  34.536  28.608  1.00  0.00     0.251 C 
ATOM      6  H   UNL A   1      31.962  34.250  27.078  1.00  0.00     0.163 HD
BRANCH   5   7
ATOM      7  C   UNL A   1      34.357  33.978  29.390  1.00  0.00     0.039 A 
ATOM      8  C   UNL A   1      35.678  34.288  29.059  1.00  0.00     0.014 A 
ATOM      9  C   UNL A   1      34.087  33.125  30.465  1.00  0.00     0.014 A 
ATOM     10  C   UNL A   1      36.723  33.631  29.701  1.00  0.00     0.010 A 
ATOM     11  C   UNL A   1      35.143  32.530  31.164  1.00  0.00     0.010 A 
ATOM     12  C   UNL A   1      36.470  32.750  30.766  1.00  0.00    -0.014 A 
BRANCH  12  13
ATOM     13  C   UNL A   1      37.615  32.109  31.465  1.00  0.00     0.031 A 
ATOM     14  C   UNL A   1      38.410  31.011  30.811  1.00  0.00     0.074 A 
ATOM     15  C   UNL A   1      37.964  32.563  32.685  1.00  0.00     0.049 A 
ATOM     16  N   UNL A   1      39.450  30.360  31.269  1.00  0.00    -0.248 NA
ATOM     17  C   UNL A   1      37.977  30.582  29.474  1.00  0.00     0.031 C 
ATOM     18  C   UNL A   1      37.265  33.622  33.418  1.00  0.00     0.029 A 
ATOM     19  N   UNL A   1      38.997  32.214  33.516  1.00  0.00    -0.354 N 
ATOM     20  C   UNL A   1      39.795  29.442  30.283  1.00  0.00     0.074 A 
ATOM     21  C   UNL A   1      38.824  29.594  29.219  1.00  0.00     0.031 C 
ATOM     22  C   UNL A   1      37.914  33.867  34.565  1.00  0.00     0.029 A 
ATOM     23  C   UNL A   1      39.035  32.942  34.683  1.00  0.00     0.049 A 
ATOM     24  H   UNL A   1      39.650  31.510  33.298  1.00  0.00     0.167 HD
ATOM     25  C   UNL A   1      40.830  28.565  30.263  1.00  0.00     0.034 A 
ATOM     26  C   UNL A   1      39.865  32.863  35.740  1.00  0.00     0.034 A 
ATOM     27  C   UNL A   1      41.788  28.423  31.337  1.00  0.00     0.049 A 
ATOM     28  C   UNL A   1      40.981  31.854  35.710  1.00  0.00     0.074 A 
ATOM     29  C   UNL A   1      42.876  27.570  31.418  1.00  0.00     0.029 A 
ATOM     30  N   UNL A   1      41.772  29.151  32.521  1.00  0.00    -0.354 N 
ATOM     31  N   UNL A   1      41.291  30.995  34.766  1.00  0.00    -0.248 NA
ATOM     32  C   UNL A   1      41.860  31.807  36.883  1.00  0.00     0.031 C 
ATOM     33  C   UNL A   1      43.480  27.740  32.669  1.00  0.00     0.029 A 
ATOM     34  C   UNL A   1      42.812  28.749  33.345  1.00  0.00     0.049 A 
ATOM     35  H   UNL A   1      41.115  29.851  32.742  1.00  0.00     0.167 HD
ATOM     36  C   UNL A   1      42.413  30.316  35.228  1.00  0.00     0.074 A 
ATOM     37  C   UNL A   1      42.739  30.885  36.520  1.00  0.00     0.031 C 
ATOM     38  C   UNL A   1      43.112  29.312  34.639  1.00  0.00     0.034 A 
BRANCH  25  39
ATOM     39  C   UNL A   1      40.956  27.664  29.057  1.00  0.00     0.023 A 
ATOM     40  C   UNL A   1      41.928  27.888  28.066  1.00  0.00     0.031 A 
ATOM     41  C   UNL A   1      40.084  26.574  28.888  1.00  0.00     0.131 A 
ATOM     42  C   UNL A   1      41.964  27.074  26.922  1.00  0.00     0.055 A 
ATOM     43  C   UNL A   1      40.172  25.722  27.783  1.00  0.00     0.041 A 
ATOM     44  F   UNL A   1      39.122  26.320  29.790  1.00  0.00    -0.206 F 
ATOM     45  C   UNL A   1      41.107  25.978  26.785  1.00  0.00     0.022 A 
BRANCH  42  46
ATOM     46  S   UNL A   1      43.060  27.544  25.556  1.00  0.00     0.124 S 
ATOM     47  O   UNL A   1      44.093  28.306  26.255  1.00  0.00    -0.237 OA
ATOM     48  O   UNL A   1      43.470  26.252  25.020  1.00  0.00    -0.237 OA
ATOM     49  O   UNL A   1      42.198  28.337  24.681  1.00  0.00    -0.744 OA
ENDBRANCH  42  46
ENDBRANCH  25  39
BRANCH  26  50
ATOM     50  C   UNL A   1      39.653  33.737  36.928  1.00  0.00     0.023 A 
ATOM     51  C   UNL A   1      39.056  33.242  38.098  1.00  0.00     0.031 A 
ATOM     52  C   UNL A   1      40.015  35.095  36.895  1.00  0.00     0.131 A 
ATOM     53  C   UNL A   1      38.802  34.109  39.172  1.00  0.00     0.055 A 
ATOM     54  C   UNL A   1      39.812  35.941  37.985  1.00  0.00     0.041 A 
ATOM     55  F   UNL A   1      40.593  35.618  35.801  1.00  0.00    -0.206 F 
ATOM     56  C   UNL A   1      39.188  35.451  39.128  1.00  0.00     0.022 A 
BRANCH  53  57
ATOM     57  S   UNL A   1      37.876  33.478  40.597  1.00  0.00     0.124 S 
ATOM     58  O   UNL A   1      36.763  32.791  39.949  1.00  0.00    -0.237 OA
ATOM     59  O   UNL A   1      38.866  32.624  41.245  1.00  0.00    -0.237 OA
ATOM     60  O   UNL A   1      37.519  34.688  41.333  1.00  0.00    -0.744 OA
ENDBRANCH  53  57
ENDBRANCH  26  50
BRANCH  38  61
ATOM     61  C   UNL A   1      44.315  28.799  35.390  1.00  0.00     0.023 A 
ATOM     62  C   UNL A   1      44.209  27.753  36.324  1.00  0.00     0.031 A 
ATOM     63  C   UNL A   1      45.575  29.390  35.197  1.00  0.00     0.131 A 
ATOM     64  C   UNL A   1      45.328  27.373  37.077  1.00  0.00     0.055 A 
ATOM     65  C   UNL A   1      46.699  28.969  35.909  1.00  0.00     0.041 A 
ATOM     66  F   UNL A   1      45.731  30.394  34.320  1.00  0.00    -0.206 F 
ATOM     67  C   UNL A   1      46.577  27.965  36.865  1.00  0.00     0.022 A 
BRANCH  64  68
ATOM     68  S   UNL A   1      45.113  26.159  38.408  1.00  0.00     0.124 S 
ATOM     69  O   UNL A   1      46.467  26.048  38.940  1.00  0.00    -0.237 OA
ATOM     70  O   UNL A   1      44.141  26.816  39.276  1.00  0.00    -0.237 OA
ATOM     71  O   UNL A   1      44.620  24.971  37.714  1.00  0.00    -0.744 OA
ENDBRANCH  64  68
ENDBRANCH  38  61
ENDBRANCH  12  13
ENDBRANCH   5   7
ENDBRANCH   2   3
ENDBRANCH   1   2
BRANCH   1  72
ATOM     72  C   UNL A   1      31.738  30.175  26.653  1.00  0.00     0.023 C 
BRANCH  72  73
ATOM     73  C   UNL A   1      31.807  29.517  25.278  1.00  0.00     0.116 C 
BRANCH  73  74
ATOM     74  N   UNL A   1      30.850  30.066  24.330  1.00  0.00    -0.351 N 
ATOM     75  C   UNL A   1      30.139  29.400  23.353  1.00  0.00     0.269 C 
ATOM     76  H   UNL A   1      30.690  31.035  24.394  1.00  0.00     0.163 HD
ATOM     77  O   UNL A   1      29.346  30.000  22.635  1.00  0.00    -0.268 OA
BRANCH  75  78
ATOM     78  C   UNL A   1      30.329  27.935  23.212  1.00  0.00     0.128 A 
ATOM     79  C   UNL A   1      29.577  27.076  24.005  1.00  0.00     0.038 A 
ATOM     80  N   UNL A   1      31.317  27.531  22.381  1.00  0.00    -0.247 NA
ATOM     81  C   UNL A   1      29.896  25.718  23.993  1.00  0.00     0.050 A 
ATOM     82  C   UNL A   1      31.588  26.208  22.384  1.00  0.00     0.158 A 
ATOM     83  C   UNL A   1      30.944  25.272  23.191  1.00  0.00     0.138 A 
BRANCH  83  84
ATOM     84  O   UNL A   1      31.443  24.002  23.138  1.00  0.00    -0.486 OA
BRANCH  84  85
ATOM     85  C   UNL A   1      31.271  23.146  24.275  1.00  0.00     0.277 C 
BRANCH  85  86
ATOM     86  C   UNL A   1      32.505  22.328  24.550  1.00  0.00     0.056 A 
ATOM     87  S   UNL A   1      32.474  20.609  24.438  1.00  0.00    -0.144 S 
ATOM     88  C   UNL A   1      33.757  22.756  24.938  1.00  0.00     0.035 A 
ATOM     89  C   UNL A   1      34.138  20.482  24.809  1.00  0.00     0.066 A 
ATOM     90  C   UNL A   1      34.703  21.709  25.077  1.00  0.00     0.028 A 
ATOM     91  Br  UNL A   1      34.262  24.549  25.270  1.00  0.00    -0.049 Br
ENDBRANCH  85  86
ENDBRANCH  84  85
ENDBRANCH  83  84
ENDBRANCH  75  78
ENDBRANCH  73  74
ENDBRANCH  72  73
ENDBRANCH   1  72
TORSDOF 17
ENDMDL
MODEL 3
REMARK VINA RESULT:     -11.3      6.082     10.325
REMARK SMILES O=C(NCCCCNC(=O)c1ccc(OCc2sccc2Br)cn1)c1ccc(-c2c3nc(c(-c4cc(S(=O)(=O)[O-])ccc4F)c4ccc([nH]4)c(-c4cc(S(=O)(=O)[O-])ccc4F)c4nc(c(-c5cc(S(=O)(=O)[O-])ccc5F)c5ccc2[nH]5)C=C4)C=C3)cc1
REMARK SMILES IDX 5 1 4 2 3 3 1 4 2 5 25 7 26 8 87 9 27 10 86 11 28 12 29 13
REMARK SMILES IDX 30 14 80 15 31 16 85 17 79 18 81 19 32 20 84 21 78 22 77 23
REMARK SMILES IDX 33 25 65 26 45 27 64 28 46 29 49 30 63 31 82 32 47 33 48 34
REMARK SMILES IDX 62 36 83 37 50 38 34 39 35 40 43 41 36 42 42 43 44 44 41 45
REMARK SMILES IDX 37 46 38 47 39 48 40 49 66 50 67 51 75 52 68 53 74 54 76 55
REMARK SMILES IDX 73 56 69 57 70 58 71 59 72 60 51 61 52 62 60 63 53 64 59 65
REMARK SMILES IDX 61 66 58 67 54 68 55 69 56 70 57 71 6 72 7 73 8 74 9 75
REMARK SMILES IDX 10 77 11 78 12 79 24 80 13 81 23 82 14 83 15 84 16 85 17 86
REMARK SMILES IDX 18 87 21 88 19 89 20 90 22 91
REMARK H PARENT 3 6 81 24 49 35 8 76
REMARK Flexibility Score: inf
ROOT
ATOM      1  C   UNL A   1      38.308  19.714  25.144  1.00  0.00     0.023 C 
ENDROOT
BRANCH   1   2
ATOM      2  C   UNL A   1      39.512  20.095  25.996  1.00  0.00     0.116 C 
BRANCH   2   3
ATOM      3  N   UNL A   1      40.561  19.086  25.993  1.00  0.00    -0.352 N 
ATOM      4  O   UNL A   1      42.668  18.282  25.939  1.00  0.00    -0.269 OA
ATOM      5  C   UNL A   1      41.925  19.251  26.078  1.00  0.00     0.251 C 
ATOM      6  H   UNL A   1      40.251  18.154  25.920  1.00  0.00     0.163 HD
BRANCH   5   7
ATOM      7  C   UNL A   1      42.493  20.598  26.311  1.00  0.00     0.039 A 
ATOM      8  C   UNL A   1      42.620  21.105  27.606  1.00  0.00     0.014 A 
ATOM      9  C   UNL A   1      42.896  21.369  25.215  1.00  0.00     0.014 A 
ATOM     10  C   UNL A   1      43.005  22.429  27.795  1.00  0.00     0.010 A 
ATOM     11  C   UNL A   1      43.363  22.673  25.415  1.00  0.00     0.010 A 
ATOM     12  C   UNL A   1      43.388  23.227  26.704  1.00  0.00    -0.014 A 
BRANCH  12  13
ATOM     13  C   UNL A   1      43.846  24.620  26.950  1.00  0.00     0.031 A 
ATOM     14  C   UNL A   1      42.909  25.663  27.498  1.00  0.00     0.074 A 
ATOM     15  C   UNL A   1      45.139  24.926  26.718  1.00  0.00     0.049 A 
ATOM     16  N   UNL A   1      43.151  26.916  27.792  1.00  0.00    -0.248 NA
ATOM     17  C   UNL A   1      41.520  25.248  27.739  1.00  0.00     0.031 C 
ATOM     18  C   UNL A   1      46.138  23.996  26.185  1.00  0.00     0.029 A 
ATOM     19  N   UNL A   1      45.840  26.087  26.917  1.00  0.00    -0.354 N 
ATOM     20  C   UNL A   1      41.947  27.443  28.248  1.00  0.00     0.074 A 
ATOM     21  C   UNL A   1      40.967  26.381  28.150  1.00  0.00     0.031 C 
ATOM     22  C   UNL A   1      47.330  24.608  26.142  1.00  0.00     0.029 A 
ATOM     23  C   UNL A   1      47.171  25.990  26.581  1.00  0.00     0.049 A 
ATOM     24  H   UNL A   1      45.431  26.912  27.266  1.00  0.00     0.167 HD
ATOM     25  C   UNL A   1      41.688  28.691  28.714  1.00  0.00     0.034 A 
ATOM     26  C   UNL A   1      48.152  26.912  26.603  1.00  0.00     0.034 A 
ATOM     27  C   UNL A   1      42.677  29.741  28.800  1.00  0.00     0.049 A 
ATOM     28  C   UNL A   1      47.828  28.300  27.086  1.00  0.00     0.074 A 
ATOM     29  C   UNL A   1      42.523  31.039  29.260  1.00  0.00     0.029 A 
ATOM     30  N   UNL A   1      44.006  29.618  28.414  1.00  0.00    -0.354 N 
ATOM     31  N   UNL A   1      46.682  28.778  27.515  1.00  0.00    -0.248 NA
ATOM     32  C   UNL A   1      48.929  29.269  27.094  1.00  0.00     0.031 C 
ATOM     33  C   UNL A   1      43.739  31.713  29.098  1.00  0.00     0.029 A 
ATOM     34  C   UNL A   1      44.674  30.819  28.602  1.00  0.00     0.049 A 
ATOM     35  H   UNL A   1      44.415  28.795  28.058  1.00  0.00     0.167 HD
ATOM     36  C   UNL A   1      46.931  30.103  27.858  1.00  0.00     0.074 A 
ATOM     37  C   UNL A   1      48.340  30.337  27.613  1.00  0.00     0.031 C 
ATOM     38  C   UNL A   1      46.074  31.042  28.333  1.00  0.00     0.034 A 
BRANCH  25  39
ATOM     39  C   UNL A   1      40.268  28.997  29.130  1.00  0.00     0.023 A 
ATOM     40  C   UNL A   1      39.874  28.978  30.480  1.00  0.00     0.031 A 
ATOM     41  C   UNL A   1      39.292  29.300  28.165  1.00  0.00     0.131 A 
ATOM     42  C   UNL A   1      38.529  29.194  30.821  1.00  0.00     0.055 A 
ATOM     43  C   UNL A   1      37.970  29.586  28.516  1.00  0.00     0.041 A 
ATOM     44  F   UNL A   1      39.603  29.315  26.859  1.00  0.00    -0.206 F 
ATOM     45  C   UNL A   1      37.579  29.521  29.850  1.00  0.00     0.022 A 
BRANCH  42  46
ATOM     46  S   UNL A   1      38.013  28.914  32.537  1.00  0.00     0.124 S 
ATOM     47  O   UNL A   1      38.989  29.714  33.274  1.00  0.00    -0.237 OA
ATOM     48  O   UNL A   1      36.643  29.415  32.540  1.00  0.00    -0.237 OA
ATOM     49  O   UNL A   1      38.148  27.469  32.705  1.00  0.00    -0.744 OA
ENDBRANCH  42  46
ENDBRANCH  25  39
BRANCH  26  50
ATOM     50  C   UNL A   1      49.518  26.567  26.121  1.00  0.00     0.023 A 
ATOM     51  C   UNL A   1      49.987  27.019  24.878  1.00  0.00     0.031 A 
ATOM     52  C   UNL A   1      50.365  25.746  26.888  1.00  0.00     0.131 A 
ATOM     53  C   UNL A   1      51.251  26.614  24.420  1.00  0.00     0.055 A 
ATOM     54  C   UNL A   1      51.642  25.392  26.453  1.00  0.00     0.041 A 
ATOM     55  F   UNL A   1      49.966  25.290  28.087  1.00  0.00    -0.206 F 
ATOM     56  C   UNL A   1      52.086  25.815  25.205  1.00  0.00     0.022 A 
BRANCH  53  57
ATOM     57  S   UNL A   1      51.754  27.074  22.740  1.00  0.00     0.124 S 
ATOM     58  O   UNL A   1      52.224  28.441  22.932  1.00  0.00    -0.237 OA
ATOM     59  O   UNL A   1      52.780  26.078  22.450  1.00  0.00    -0.237 OA
ATOM     60  O   UNL A   1      50.521  26.940  21.967  1.00  0.00    -0.744 OA
ENDBRANCH  53  57
ENDBRANCH  26  50
BRANCH  38  61
ATOM     61  C   UNL A   1      46.663  32.396  28.641  1.00  0.00     0.023 A 
ATOM     62  C   UNL A   1      46.767  33.395  27.658  1.00  0.00     0.031 A 
ATOM     63  C   UNL A   1      47.161  32.675  29.926  1.00  0.00     0.131 A 
ATOM     64  C   UNL A   1      47.413  34.603  27.955  1.00  0.00     0.055 A 
ATOM     65  C   UNL A   1      47.752  33.901  30.232  1.00  0.00     0.041 A 
ATOM     66  F   UNL A   1      47.089  31.755  30.901  1.00  0.00    -0.206 F 
ATOM     67  C   UNL A   1      47.894  34.868  29.241  1.00  0.00     0.022 A 
BRANCH  64  68
ATOM     68  S   UNL A   1      47.705  35.789  26.613  1.00  0.00     0.124 S 
ATOM     69  O   UNL A   1      48.939  36.438  27.046  1.00  0.00    -0.237 OA
ATOM     70  O   UNL A   1      47.818  34.919  25.447  1.00  0.00    -0.237 OA
ATOM     71  O   UNL A   1      46.516  36.638  26.640  1.00  0.00    -0.744 OA
ENDBRANCH  64  68
ENDBRANCH  38  61
ENDBRANCH  12  13
ENDBRANCH   5   7
ENDBRANCH   2   3
ENDBRANCH   1   2
BRANCH   1  72
ATOM     72  C   UNL A   1      37.484  20.882  24.602  1.00  0.00     0.023 C 
BRANCH  72  73
ATOM     73  C   UNL A   1      36.972  21.865  25.649  1.00  0.00     0.116 C 
BRANCH  73  74
ATOM     74  N   UNL A   1      35.778  21.400  26.337  1.00  0.00    -0.351 N 
ATOM     75  C   UNL A   1      34.467  21.772  26.116  1.00  0.00     0.269 C 
ATOM     76  H   UNL A   1      35.922  20.737  27.050  1.00  0.00     0.163 HD
ATOM     77  O   UNL A   1      33.555  21.274  26.769  1.00  0.00    -0.268 OA
BRANCH  75  78
ATOM     78  C   UNL A   1      34.180  22.761  25.048  1.00  0.00     0.128 A 
ATOM     79  C   UNL A   1      33.852  22.307  23.776  1.00  0.00     0.038 A 
ATOM     80  N   UNL A   1      34.367  24.063  25.364  1.00  0.00    -0.247 NA
ATOM     81  C   UNL A   1      33.766  23.242  22.744  1.00  0.00     0.050 A 
ATOM     82  C   UNL A   1      34.261  24.940  24.343  1.00  0.00     0.158 A 
ATOM     83  C   UNL A   1      34.006  24.585  23.020  1.00  0.00     0.138 A 
BRANCH  83  84
ATOM     84  O   UNL A   1      34.057  25.605  22.114  1.00  0.00    -0.486 OA
BRANCH  84  85
ATOM     85  C   UNL A   1      32.828  26.110  21.575  1.00  0.00     0.277 C 
BRANCH  85  86
ATOM     86  C   UNL A   1      32.102  26.983  22.563  1.00  0.00     0.056 A 
ATOM     87  S   UNL A   1      32.525  28.641  22.761  1.00  0.00    -0.144 S 
ATOM     88  C   UNL A   1      31.088  26.645  23.434  1.00  0.00     0.035 A 
ATOM     89  C   UNL A   1      31.292  28.893  23.919  1.00  0.00     0.066 A 
ATOM     90  C   UNL A   1      30.608  27.733  24.205  1.00  0.00     0.028 A 
ATOM     91  Br  UNL A   1      30.337  24.921  23.643  1.00  0.00    -0.049 Br
ENDBRANCH  85  86
ENDBRANCH  84  85
ENDBRANCH  83  84
ENDBRANCH  75  78
ENDBRANCH  73  74
ENDBRANCH  72  73
ENDBRANCH   1  72
TORSDOF 17
ENDMDL
