MODEL 1
REMARK VINA RESULT:     -12.5      0.000      0.000
REMARK SMILES C[C@H]1N=c2ccc(OC(F)(F)F)cc2=C1CCN1C(=O)c2ccc(C(=O)NCCCCNC(=O)c3ccc(-c4c5nc(c(-c6cc(S(=O)(=O)[O-])ccc6F)c6ccc([nH]6)c(-c6cc(S(=O)(=O)[O-])ccc6F)c6nc(c(-c7cc(S(=O)(=O)[O-])ccc7F)c7ccc4[nH]7)C=C6)C=C5)cc3)cc2C1=O
REMARK SMILES IDX 28 1 27 2 25 3 26 4 24 6 18 7 19 8 100 9 20 10 21 11 99 12
REMARK SMILES IDX 101 13 22 14 98 15 23 16 17 17 16 18 15 19 1 20 2 21 3 22
REMARK SMILES IDX 4 23 14 24 5 25 13 26 6 27 7 28 8 29 9 30 10 31 11 32 12 33
REMARK SMILES IDX 29 34 30 35 31 36 32 37 33 38 34 40 35 41 36 42 97 43 37 44
REMARK SMILES IDX 96 45 38 46 39 47 40 48 90 49 41 50 95 51 89 52 91 53 42 54
REMARK SMILES IDX 94 55 88 56 87 57 43 59 75 60 55 61 74 62 56 63 59 64 73 65
REMARK SMILES IDX 92 66 57 67 58 68 72 70 93 71 60 72 44 73 45 74 53 75 46 76
REMARK SMILES IDX 52 77 54 78 51 79 47 80 48 81 49 82 50 83 76 84 77 85 85 86
REMARK SMILES IDX 78 87 84 88 86 89 83 90 79 91 80 92 81 93 82 94 61 95 62 96
REMARK SMILES IDX 70 97 63 98 69 99 71 100 68 101 64 102 65 103 66 104 67 105
REMARK H PARENT 27 5 32 39 91 58 59 69
REMARK Flexibility Score: inf
ROOT
ATOM      1  C   UNL A   1      44.101  19.591  24.765  1.00  0.00     0.116 C 
ENDROOT
BRANCH   1   2
ATOM      2  N   UNL A   1      43.814  18.879  26.000  1.00  0.00    -0.352 N 
ATOM      3  C   UNL A   1      42.820  19.042  26.927  1.00  0.00     0.251 C 
ATOM      4  O   UNL A   1      42.641  18.186  27.789  1.00  0.00    -0.269 OA
ATOM      5  H   UNL A   1      44.446  18.153  26.206  1.00  0.00     0.163 HD
BRANCH   3   6
ATOM      6  C   UNL A   1      41.911  20.205  26.902  1.00  0.00     0.040 A 
ATOM      7  N   UNL A   1      38.229  22.835  26.204  1.00  0.00    -0.274 N 
ATOM      8  C   UNL A   1      39.268  23.449  26.859  1.00  0.00     0.261 C 
ATOM      9  C   UNL A   1      38.615  21.630  25.681  1.00  0.00     0.261 C 
ATOM     10  O   UNL A   1      39.319  24.558  27.348  1.00  0.00    -0.269 OA
ATOM     11  C   UNL A   1      40.364  22.481  26.897  1.00  0.00     0.053 A 
ATOM     12  C   UNL A   1      39.958  21.354  26.199  1.00  0.00     0.054 A 
ATOM     13  O   UNL A   1      37.997  20.869  24.959  1.00  0.00    -0.269 OA
ATOM     14  C   UNL A   1      41.564  22.537  27.575  1.00  0.00     0.015 A 
ATOM     15  C   UNL A   1      40.708  20.189  26.182  1.00  0.00     0.028 A 
ATOM     16  C   UNL A   1      42.348  21.380  27.564  1.00  0.00     0.015 A 
BRANCH   7  17
ATOM     17  C   UNL A   1      36.934  23.468  26.032  1.00  0.00     0.134 C 
BRANCH  17  18
ATOM     18  C   UNL A   1      35.696  22.560  26.161  1.00  0.00     0.056 C 
BRANCH  18  19
ATOM     19  C   UNL A   1      34.762  22.390  24.987  1.00  0.00    -0.035 C 
ATOM     20  C   UNL A   1      35.154  24.029  23.048  1.00  0.00     0.038 C 
ATOM     21  C   UNL A   1      34.238  23.566  24.183  1.00  0.00     0.129 C 
ATOM     22  N   UNL A   1      33.033  23.055  23.485  1.00  0.00    -0.277 NA
ATOM     23  C   UNL A   1      33.085  21.782  23.702  1.00  0.00     0.066 A 
ATOM     24  C   UNL A   1      34.103  21.277  24.634  1.00  0.00     0.005 A 
ATOM     25  C   UNL A   1      32.177  20.799  23.096  1.00  0.00     0.032 A 
ATOM     26  C   UNL A   1      34.098  19.899  25.033  1.00  0.00     0.057 A 
ATOM     27  C   UNL A   1      32.284  19.508  23.449  1.00  0.00     0.049 A 
ATOM     28  C   UNL A   1      33.226  19.040  24.464  1.00  0.00     0.130 A 
BRANCH  28  29
ATOM     29  O   UNL A   1      33.243  17.719  24.865  1.00  0.00    -0.406 OA
BRANCH  29  30
ATOM     30  C   UNL A   1      34.052  16.779  24.175  1.00  0.00     0.573 C 
ATOM     31  F   UNL A   1      34.112  17.057  22.854  1.00  0.00    -0.132 F 
ATOM     32  F   UNL A   1      35.301  16.755  24.686  1.00  0.00    -0.132 F 
ATOM     33  F   UNL A   1      33.514  15.549  24.320  1.00  0.00    -0.132 F 
ENDBRANCH  29  30
ENDBRANCH  28  29
ENDBRANCH  18  19
ENDBRANCH  17  18
ENDBRANCH   7  17
ENDBRANCH   3   6
ENDBRANCH   1   2
BRANCH   1  34
ATOM     34  C   UNL A   1      45.073  20.755  24.975  1.00  0.00     0.023 C 
BRANCH  34  35
ATOM     35  C   UNL A   1      44.488  22.158  24.771  1.00  0.00     0.023 C 
BRANCH  35  36
ATOM     36  C   UNL A   1      45.001  23.243  25.716  1.00  0.00     0.116 C 
BRANCH  36  37
ATOM     37  N   UNL A   1      45.766  24.282  25.042  1.00  0.00    -0.352 N 
ATOM     38  C   UNL A   1      45.692  25.656  25.156  1.00  0.00     0.251 C 
ATOM     39  H   UNL A   1      46.441  23.954  24.405  1.00  0.00     0.163 HD
ATOM     40  O   UNL A   1      46.358  26.358  24.400  1.00  0.00    -0.269 OA
BRANCH  38  41
ATOM     41  C   UNL A   1      44.784  26.287  26.147  1.00  0.00     0.039 A 
ATOM     42  C   UNL A   1      44.692  27.673  26.266  1.00  0.00     0.014 A 
ATOM     43  C   UNL A   1      44.020  25.470  26.987  1.00  0.00     0.014 A 
ATOM     44  C   UNL A   1      44.000  28.234  27.338  1.00  0.00     0.010 A 
ATOM     45  C   UNL A   1      43.254  26.039  28.013  1.00  0.00     0.010 A 
ATOM     46  C   UNL A   1      43.288  27.424  28.240  1.00  0.00    -0.014 A 
BRANCH  46  47
ATOM     47  C   UNL A   1      42.614  28.044  29.415  1.00  0.00     0.031 A 
ATOM     48  C   UNL A   1      43.289  28.080  30.764  1.00  0.00     0.074 A 
ATOM     49  C   UNL A   1      41.408  28.627  29.261  1.00  0.00     0.049 A 
ATOM     50  N   UNL A   1      42.867  28.620  31.880  1.00  0.00    -0.248 NA
ATOM     51  C   UNL A   1      44.602  27.426  30.882  1.00  0.00     0.031 C 
ATOM     52  C   UNL A   1      40.648  28.650  28.011  1.00  0.00     0.029 A 
ATOM     53  N   UNL A   1      40.616  29.321  30.144  1.00  0.00    -0.354 N 
ATOM     54  C   UNL A   1      43.847  28.356  32.831  1.00  0.00     0.074 A 
ATOM     55  C   UNL A   1      44.874  27.580  32.171  1.00  0.00     0.031 C 
ATOM     56  C   UNL A   1      39.524  29.356  28.194  1.00  0.00     0.029 A 
ATOM     57  C   UNL A   1      39.443  29.783  29.590  1.00  0.00     0.049 A 
ATOM     58  H   UNL A   1      40.864  29.475  31.084  1.00  0.00     0.167 HD
ATOM     59  C   UNL A   1      43.894  28.741  34.129  1.00  0.00     0.034 A 
ATOM     60  C   UNL A   1      38.410  30.458  30.136  1.00  0.00     0.034 A 
ATOM     61  C   UNL A   1      42.886  29.547  34.769  1.00  0.00     0.049 A 
ATOM     62  C   UNL A   1      38.487  30.871  31.584  1.00  0.00     0.074 A 
ATOM     63  C   UNL A   1      42.884  30.033  36.065  1.00  0.00     0.029 A 
ATOM     64  N   UNL A   1      41.713  29.987  34.176  1.00  0.00    -0.354 N 
ATOM     65  N   UNL A   1      39.460  30.677  32.443  1.00  0.00    -0.248 NA
ATOM     66  C   UNL A   1      37.338  31.600  32.140  1.00  0.00     0.031 C 
ATOM     67  C   UNL A   1      41.682  30.705  36.277  1.00  0.00     0.029 A 
ATOM     68  C   UNL A   1      40.966  30.710  35.092  1.00  0.00     0.049 A 
ATOM     69  H   UNL A   1      41.449  29.811  33.244  1.00  0.00     0.167 HD
ATOM     70  C   UNL A   1      39.047  31.275  33.632  1.00  0.00     0.074 A 
ATOM     71  C   UNL A   1      37.752  31.865  33.373  1.00  0.00     0.031 C 
ATOM     72  C   UNL A   1      39.684  31.319  34.830  1.00  0.00     0.034 A 
BRANCH  59  73
ATOM     73  C   UNL A   1      45.076  28.332  34.975  1.00  0.00     0.023 A 
ATOM     74  C   UNL A   1      45.000  27.168  35.764  1.00  0.00     0.031 A 
ATOM     75  C   UNL A   1      46.187  29.177  35.140  1.00  0.00     0.131 A 
ATOM     76  C   UNL A   1      45.989  26.910  36.721  1.00  0.00     0.055 A 
ATOM     77  C   UNL A   1      47.192  28.891  36.065  1.00  0.00     0.041 A 
ATOM     78  F   UNL A   1      46.303  30.300  34.412  1.00  0.00    -0.206 F 
ATOM     79  C   UNL A   1      47.088  27.762  36.872  1.00  0.00     0.022 A 
BRANCH  76  80
ATOM     80  S   UNL A   1      45.849  25.504  37.860  1.00  0.00     0.124 S 
ATOM     81  O   UNL A   1      44.475  25.065  37.627  1.00  0.00    -0.237 OA
ATOM     82  O   UNL A   1      46.885  24.604  37.362  1.00  0.00    -0.237 OA
ATOM     83  O   UNL A   1      46.097  26.090  39.173  1.00  0.00    -0.744 OA
ENDBRANCH  76  80
ENDBRANCH  59  73
BRANCH  60  84
ATOM     84  C   UNL A   1      37.235  30.801  29.280  1.00  0.00     0.023 A 
ATOM     85  C   UNL A   1      36.837  32.141  29.112  1.00  0.00     0.031 A 
ATOM     86  C   UNL A   1      36.436  29.800  28.705  1.00  0.00     0.131 A 
ATOM     87  C   UNL A   1      35.634  32.438  28.460  1.00  0.00     0.055 A 
ATOM     88  C   UNL A   1      35.278  30.106  27.986  1.00  0.00     0.041 A 
ATOM     89  F   UNL A   1      36.765  28.507  28.845  1.00  0.00    -0.206 F 
ATOM     90  C   UNL A   1      34.862  31.429  27.879  1.00  0.00     0.022 A 
BRANCH  87  91
ATOM     91  S   UNL A   1      34.957  34.121  28.487  1.00  0.00     0.124 S 
ATOM     92  O   UNL A   1      33.681  33.923  29.168  1.00  0.00    -0.237 OA
ATOM     93  O   UNL A   1      35.975  34.841  29.249  1.00  0.00    -0.237 OA
ATOM     94  O   UNL A   1      34.872  34.480  27.076  1.00  0.00    -0.744 OA
ENDBRANCH  87  91
ENDBRANCH  60  84
BRANCH  72  95
ATOM     95  C   UNL A   1      39.019  32.030  35.984  1.00  0.00     0.023 A 
ATOM     96  C   UNL A   1      38.379  31.286  36.995  1.00  0.00     0.031 A 
ATOM     97  C   UNL A   1      38.869  33.428  35.994  1.00  0.00     0.131 A 
ATOM     98  C   UNL A   1      37.580  31.937  37.943  1.00  0.00     0.055 A 
ATOM     99  C   UNL A   1      38.112  34.077  36.971  1.00  0.00     0.041 A 
ATOM    100  F   UNL A   1      39.448  34.182  35.046  1.00  0.00    -0.206 F 
ATOM    101  C   UNL A   1      37.450  33.330  37.940  1.00  0.00     0.022 A 
BRANCH  98 102
ATOM    102  S   UNL A   1      36.602  30.998  39.148  1.00  0.00     0.124 S 
ATOM    103  O   UNL A   1      37.512  30.933  40.289  1.00  0.00    -0.237 OA
ATOM    104  O   UNL A   1      35.433  31.854  39.331  1.00  0.00    -0.237 OA
ATOM    105  O   UNL A   1      36.349  29.724  38.482  1.00  0.00    -0.744 OA
ENDBRANCH  98 102
ENDBRANCH  72  95
ENDBRANCH  46  47
ENDBRANCH  38  41
ENDBRANCH  36  37
ENDBRANCH  35  36
ENDBRANCH  34  35
ENDBRANCH   1  34
TORSDOF 19
ENDMDL
MODEL 2
REMARK VINA RESULT:     -12.3      6.723     12.888
REMARK SMILES C[C@H]1N=c2ccc(OC(F)(F)F)cc2=C1CCN1C(=O)c2ccc(C(=O)NCCCCNC(=O)c3ccc(-c4c5nc(c(-c6cc(S(=O)(=O)[O-])ccc6F)c6ccc([nH]6)c(-c6cc(S(=O)(=O)[O-])ccc6F)c6nc(c(-c7cc(S(=O)(=O)[O-])ccc7F)c7ccc4[nH]7)C=C6)C=C5)cc3)cc2C1=O
REMARK SMILES IDX 28 1 27 2 25 3 26 4 24 6 18 7 19 8 100 9 20 10 21 11 99 12
REMARK SMILES IDX 101 13 22 14 98 15 23 16 17 17 16 18 15 19 1 20 2 21 3 22
REMARK SMILES IDX 4 23 14 24 5 25 13 26 6 27 7 28 8 29 9 30 10 31 11 32 12 33
REMARK SMILES IDX 29 34 30 35 31 36 32 37 33 38 34 40 35 41 36 42 97 43 37 44
REMARK SMILES IDX 96 45 38 46 39 47 40 48 90 49 41 50 95 51 89 52 91 53 42 54
REMARK SMILES IDX 94 55 88 56 87 57 43 59 75 60 55 61 74 62 56 63 59 64 73 65
REMARK SMILES IDX 92 66 57 67 58 68 72 70 93 71 60 72 44 73 45 74 53 75 46 76
REMARK SMILES IDX 52 77 54 78 51 79 47 80 48 81 49 82 50 83 76 84 77 85 85 86
REMARK SMILES IDX 78 87 84 88 86 89 83 90 79 91 80 92 81 93 82 94 61 95 62 96
REMARK SMILES IDX 70 97 63 98 69 99 71 100 68 101 64 102 65 103 66 104 67 105
REMARK H PARENT 27 5 32 39 91 58 59 69
REMARK Flexibility Score: inf
ROOT
ATOM      1  C   UNL A   1      33.804  34.900  31.284  1.00  0.00     0.116 C 
ENDROOT
BRANCH   1   2
ATOM      2  N   UNL A   1      34.057  35.674  30.079  1.00  0.00    -0.352 N 
ATOM      3  C   UNL A   1      34.353  35.285  28.801  1.00  0.00     0.251 C 
ATOM      4  O   UNL A   1      34.316  36.104  27.887  1.00  0.00    -0.269 OA
ATOM      5  H   UNL A   1      34.007  36.649  30.205  1.00  0.00     0.163 HD
BRANCH   3   6
ATOM      6  C   UNL A   1      34.678  33.884  28.466  1.00  0.00     0.040 A 
ATOM      7  N   UNL A   1      34.308  29.564  26.997  1.00  0.00    -0.274 N 
ATOM      8  C   UNL A   1      35.556  29.924  27.438  1.00  0.00     0.261 C 
ATOM      9  C   UNL A   1      33.374  30.511  27.322  1.00  0.00     0.261 C 
ATOM     10  O   UNL A   1      36.590  29.290  27.420  1.00  0.00    -0.269 OA
ATOM     11  C   UNL A   1      35.439  31.291  27.944  1.00  0.00     0.053 A 
ATOM     12  C   UNL A   1      34.108  31.666  27.849  1.00  0.00     0.054 A 
ATOM     13  O   UNL A   1      32.164  30.482  27.183  1.00  0.00    -0.269 OA
ATOM     14  C   UNL A   1      36.425  32.169  28.345  1.00  0.00     0.015 A 
ATOM     15  C   UNL A   1      33.687  32.962  28.100  1.00  0.00     0.028 A 
ATOM     16  C   UNL A   1      36.028  33.481  28.619  1.00  0.00     0.015 A 
BRANCH   7  17
ATOM     17  C   UNL A   1      34.045  28.286  26.359  1.00  0.00     0.134 C 
BRANCH  17  18
ATOM     18  C   UNL A   1      33.384  28.329  24.969  1.00  0.00     0.056 C 
BRANCH  18  19
ATOM     19  C   UNL A   1      32.006  27.743  24.771  1.00  0.00    -0.035 C 
ATOM     20  C   UNL A   1      31.348  25.935  26.473  1.00  0.00     0.038 C 
ATOM     21  C   UNL A   1      31.697  26.279  25.025  1.00  0.00     0.129 C 
ATOM     22  N   UNL A   1      30.443  26.011  24.280  1.00  0.00    -0.277 NA
ATOM     23  C   UNL A   1      30.055  27.191  23.922  1.00  0.00     0.066 A 
ATOM     24  C   UNL A   1      30.963  28.322  24.161  1.00  0.00     0.005 A 
ATOM     25  C   UNL A   1      28.772  27.480  23.267  1.00  0.00     0.032 A 
ATOM     26  C   UNL A   1      30.652  29.621  23.638  1.00  0.00     0.057 A 
ATOM     27  C   UNL A   1      28.508  28.738  22.880  1.00  0.00     0.049 A 
ATOM     28  C   UNL A   1      29.469  29.829  23.021  1.00  0.00     0.130 A 
BRANCH  28  29
ATOM     29  O   UNL A   1      29.195  31.090  22.528  1.00  0.00    -0.406 OA
BRANCH  29  30
ATOM     30  C   UNL A   1      28.626  32.074  23.377  1.00  0.00     0.573 C 
ATOM     31  F   UNL A   1      28.944  33.322  22.969  1.00  0.00    -0.132 F 
ATOM     32  F   UNL A   1      27.282  31.946  23.426  1.00  0.00    -0.132 F 
ATOM     33  F   UNL A   1      29.109  31.907  24.628  1.00  0.00    -0.132 F 
ENDBRANCH  29  30
ENDBRANCH  28  29
ENDBRANCH  18  19
ENDBRANCH  17  18
ENDBRANCH   7  17
ENDBRANCH   3   6
ENDBRANCH   1   2
BRANCH   1  34
ATOM     34  C   UNL A   1      34.900  33.866  31.554  1.00  0.00     0.023 C 
BRANCH  34  35
ATOM     35  C   UNL A   1      35.497  33.880  32.967  1.00  0.00     0.023 C 
BRANCH  35  36
ATOM     36  C   UNL A   1      36.734  33.011  33.182  1.00  0.00     0.116 C 
BRANCH  36  37
ATOM     37  N   UNL A   1      36.445  31.584  33.182  1.00  0.00    -0.352 N 
ATOM     38  C   UNL A   1      37.141  30.536  32.615  1.00  0.00     0.251 C 
ATOM     39  H   UNL A   1      35.624  31.327  33.660  1.00  0.00     0.163 HD
ATOM     40  O   UNL A   1      36.652  29.410  32.636  1.00  0.00    -0.269 OA
BRANCH  38  41
ATOM     41  C   UNL A   1      38.445  30.766  31.944  1.00  0.00     0.039 A 
ATOM     42  C   UNL A   1      39.600  31.039  32.677  1.00  0.00     0.014 A 
ATOM     43  C   UNL A   1      38.508  30.722  30.547  1.00  0.00     0.014 A 
ATOM     44  C   UNL A   1      40.755  31.459  32.020  1.00  0.00     0.010 A 
ATOM     45  C   UNL A   1      39.698  31.060  29.887  1.00  0.00     0.010 A 
ATOM     46  C   UNL A   1      40.815  31.496  30.616  1.00  0.00    -0.014 A 
BRANCH  46  47
ATOM     47  C   UNL A   1      42.040  32.012  29.943  1.00  0.00     0.031 A 
ATOM     48  C   UNL A   1      42.230  33.491  29.711  1.00  0.00     0.074 A 
ATOM     49  C   UNL A   1      43.015  31.153  29.583  1.00  0.00     0.049 A 
ATOM     50  N   UNL A   1      43.253  34.115  29.183  1.00  0.00    -0.248 NA
ATOM     51  C   UNL A   1      41.135  34.386  30.118  1.00  0.00     0.031 C 
ATOM     52  C   UNL A   1      42.947  29.701  29.744  1.00  0.00     0.029 A 
ATOM     53  N   UNL A   1      44.253  31.368  29.025  1.00  0.00    -0.354 N 
ATOM     54  C   UNL A   1      42.919  35.466  29.178  1.00  0.00     0.074 A 
ATOM     55  C   UNL A   1      41.585  35.571  29.725  1.00  0.00     0.031 C 
ATOM     56  C   UNL A   1      44.102  29.159  29.335  1.00  0.00     0.029 A 
ATOM     57  C   UNL A   1      44.974  30.214  28.819  1.00  0.00     0.049 A 
ATOM     58  H   UNL A   1      44.592  32.263  28.795  1.00  0.00     0.167 HD
ATOM     59  C   UNL A   1      43.664  36.521  28.769  1.00  0.00     0.034 A 
ATOM     60  C   UNL A   1      46.190  30.014  28.267  1.00  0.00     0.034 A 
ATOM     61  C   UNL A   1      45.008  36.411  28.261  1.00  0.00     0.049 A 
ATOM     62  C   UNL A   1      46.996  31.206  27.818  1.00  0.00     0.074 A 
ATOM     63  C   UNL A   1      45.858  37.436  27.880  1.00  0.00     0.029 A 
ATOM     64  N   UNL A   1      45.699  35.226  28.062  1.00  0.00    -0.354 N 
ATOM     65  N   UNL A   1      46.691  32.480  27.894  1.00  0.00    -0.248 NA
ATOM     66  C   UNL A   1      48.312  30.943  27.218  1.00  0.00     0.031 C 
ATOM     67  C   UNL A   1      47.032  36.869  27.387  1.00  0.00     0.029 A 
ATOM     68  C   UNL A   1      46.951  35.494  27.533  1.00  0.00     0.049 A 
ATOM     69  H   UNL A   1      45.351  34.328  28.265  1.00  0.00     0.167 HD
ATOM     70  C   UNL A   1      47.783  33.168  27.369  1.00  0.00     0.074 A 
ATOM     71  C   UNL A   1      48.768  32.172  27.009  1.00  0.00     0.031 C 
ATOM     72  C   UNL A   1      47.944  34.504  27.194  1.00  0.00     0.034 A 
BRANCH  59  73
ATOM     73  C   UNL A   1      43.084  37.911  28.862  1.00  0.00     0.023 A 
ATOM     74  C   UNL A   1      42.353  38.437  27.779  1.00  0.00     0.031 A 
ATOM     75  C   UNL A   1      43.404  38.770  29.928  1.00  0.00     0.131 A 
ATOM     76  C   UNL A   1      42.014  39.795  27.761  1.00  0.00     0.055 A 
ATOM     77  C   UNL A   1      43.025  40.113  29.925  1.00  0.00     0.041 A 
ATOM     78  F   UNL A   1      44.101  38.316  30.983  1.00  0.00    -0.206 F 
ATOM     79  C   UNL A   1      42.342  40.635  28.830  1.00  0.00     0.022 A 
BRANCH  76  80
ATOM     80  S   UNL A   1      41.208  40.542  26.317  1.00  0.00     0.124 S 
ATOM     81  O   UNL A   1      40.763  39.363  25.578  1.00  0.00    -0.237 OA
ATOM     82  O   UNL A   1      40.146  41.330  26.935  1.00  0.00    -0.237 OA
ATOM     83  O   UNL A   1      42.273  41.307  25.677  1.00  0.00    -0.744 OA
ENDBRANCH  76  80
ENDBRANCH  59  73
BRANCH  60  84
ATOM     84  C   UNL A   1      46.710  28.619  28.146  1.00  0.00     0.023 A 
ATOM     85  C   UNL A   1      46.579  27.908  26.938  1.00  0.00     0.031 A 
ATOM     86  C   UNL A   1      47.245  27.942  29.254  1.00  0.00     0.131 A 
ATOM     87  C   UNL A   1      46.903  26.546  26.889  1.00  0.00     0.055 A 
ATOM     88  C   UNL A   1      47.642  26.605  29.178  1.00  0.00     0.041 A 
ATOM     89  F   UNL A   1      47.380  28.571  30.432  1.00  0.00    -0.206 F 
ATOM     90  C   UNL A   1      47.452  25.896  27.997  1.00  0.00     0.022 A 
BRANCH  87  91
ATOM     91  S   UNL A   1      46.472  25.544  25.439  1.00  0.00     0.124 S 
ATOM     92  O   UNL A   1      47.776  25.330  24.820  1.00  0.00    -0.237 OA
ATOM     93  O   UNL A   1      45.866  24.367  26.058  1.00  0.00    -0.237 OA
ATOM     94  O   UNL A   1      45.550  26.395  24.694  1.00  0.00    -0.744 OA
ENDBRANCH  87  91
ENDBRANCH  60  84
BRANCH  72  95
ATOM     95  C   UNL A   1      49.232  35.011  26.589  1.00  0.00     0.023 A 
ATOM     96  C   UNL A   1      50.331  35.308  27.420  1.00  0.00     0.031 A 
ATOM     97  C   UNL A   1      49.313  35.362  25.231  1.00  0.00     0.131 A 
ATOM     98  C   UNL A   1      51.442  35.980  26.896  1.00  0.00     0.055 A 
ATOM     99  C   UNL A   1      50.444  35.987  24.702  1.00  0.00     0.041 A 
ATOM    100  F   UNL A   1      48.289  35.113  24.399  1.00  0.00    -0.206 F 
ATOM    101  C   UNL A   1      51.508  36.314  25.539  1.00  0.00     0.022 A 
BRANCH  98 102
ATOM    102  S   UNL A   1      52.795  36.534  27.970  1.00  0.00     0.124 S 
ATOM    103  O   UNL A   1      52.410  35.963  29.258  1.00  0.00    -0.237 OA
ATOM    104  O   UNL A   1      53.960  35.922  27.339  1.00  0.00    -0.237 OA
ATOM    105  O   UNL A   1      52.733  37.991  27.893  1.00  0.00    -0.744 OA
ENDBRANCH  98 102
ENDBRANCH  72  95
ENDBRANCH  46  47
ENDBRANCH  38  41
ENDBRANCH  36  37
ENDBRANCH  35  36
ENDBRANCH  34  35
ENDBRANCH   1  34
TORSDOF 19
ENDMDL
MODEL 3
REMARK VINA RESULT:     -11.9      4.364     11.240
REMARK SMILES C[C@H]1N=c2ccc(OC(F)(F)F)cc2=C1CCN1C(=O)c2ccc(C(=O)NCCCCNC(=O)c3ccc(-c4c5nc(c(-c6cc(S(=O)(=O)[O-])ccc6F)c6ccc([nH]6)c(-c6cc(S(=O)(=O)[O-])ccc6F)c6nc(c(-c7cc(S(=O)(=O)[O-])ccc7F)c7ccc4[nH]7)C=C6)C=C5)cc3)cc2C1=O
REMARK SMILES IDX 28 1 27 2 25 3 26 4 24 6 18 7 19 8 100 9 20 10 21 11 99 12
REMARK SMILES IDX 101 13 22 14 98 15 23 16 17 17 16 18 15 19 1 20 2 21 3 22
REMARK SMILES IDX 4 23 14 24 5 25 13 26 6 27 7 28 8 29 9 30 10 31 11 32 12 33
REMARK SMILES IDX 29 34 30 35 31 36 32 37 33 38 34 40 35 41 36 42 97 43 37 44
REMARK SMILES IDX 96 45 38 46 39 47 40 48 90 49 41 50 95 51 89 52 91 53 42 54
REMARK SMILES IDX 94 55 88 56 87 57 43 59 75 60 55 61 74 62 56 63 59 64 73 65
REMARK SMILES IDX 92 66 57 67 58 68 72 70 93 71 60 72 44 73 45 74 53 75 46 76
REMARK SMILES IDX 52 77 54 78 51 79 47 80 48 81 49 82 50 83 76 84 77 85 85 86
REMARK SMILES IDX 78 87 84 88 86 89 83 90 79 91 80 92 81 93 82 94 61 95 62 96
REMARK SMILES IDX 70 97 63 98 69 99 71 100 68 101 64 102 65 103 66 104 67 105
REMARK H PARENT 27 5 32 39 91 58 59 69
REMARK Flexibility Score: inf
ROOT
ATOM      1  C   UNL A   1      34.578  29.459  27.803  1.00  0.00     0.116 C 
ENDROOT
BRANCH   1   2
ATOM      2  N   UNL A   1      33.416  30.238  27.403  1.00  0.00    -0.352 N 
ATOM      3  C   UNL A   1      32.506  30.051  26.398  1.00  0.00     0.251 C 
ATOM      4  O   UNL A   1      31.475  30.717  26.375  1.00  0.00    -0.269 OA
ATOM      5  H   UNL A   1      33.257  31.040  27.951  1.00  0.00     0.163 HD
BRANCH   3   6
ATOM      6  C   UNL A   1      32.698  29.030  25.349  1.00  0.00     0.040 A 
ATOM      7  N   UNL A   1      32.353  25.159  22.930  1.00  0.00    -0.274 N 
ATOM      8  C   UNL A   1      33.155  26.124  22.373  1.00  0.00     0.261 C 
ATOM      9  C   UNL A   1      32.020  25.473  24.220  1.00  0.00     0.261 C 
ATOM     10  O   UNL A   1      33.718  26.129  21.299  1.00  0.00    -0.269 OA
ATOM     11  C   UNL A   1      33.205  27.226  23.334  1.00  0.00     0.053 A 
ATOM     12  C   UNL A   1      32.488  26.843  24.456  1.00  0.00     0.054 A 
ATOM     13  O   UNL A   1      31.417  24.811  25.045  1.00  0.00    -0.269 OA
ATOM     14  C   UNL A   1      33.734  28.492  23.194  1.00  0.00     0.015 A 
ATOM     15  C   UNL A   1      32.209  27.724  25.489  1.00  0.00     0.028 A 
ATOM     16  C   UNL A   1      33.481  29.399  24.226  1.00  0.00     0.015 A 
BRANCH   7  17
ATOM     17  C   UNL A   1      32.011  23.932  22.232  1.00  0.00     0.134 C 
BRANCH  17  18
ATOM     18  C   UNL A   1      33.021  22.773  22.330  1.00  0.00     0.056 C 
BRANCH  18  19
ATOM     19  C   UNL A   1      33.170  22.013  23.626  1.00  0.00    -0.035 C 
ATOM     20  C   UNL A   1      32.452  19.549  23.521  1.00  0.00     0.038 C 
ATOM     21  C   UNL A   1      32.181  20.951  24.069  1.00  0.00     0.129 C 
ATOM     22  N   UNL A   1      32.387  20.811  25.531  1.00  0.00    -0.277 NA
ATOM     23  C   UNL A   1      33.461  21.499  25.743  1.00  0.00     0.066 A 
ATOM     24  C   UNL A   1      34.007  22.294  24.635  1.00  0.00     0.005 A 
ATOM     25  C   UNL A   1      34.166  21.560  27.031  1.00  0.00     0.032 A 
ATOM     26  C   UNL A   1      35.098  23.198  24.862  1.00  0.00     0.057 A 
ATOM     27  C   UNL A   1      35.235  22.363  27.150  1.00  0.00     0.049 A 
ATOM     28  C   UNL A   1      35.696  23.235  26.071  1.00  0.00     0.130 A 
BRANCH  28  29
ATOM     29  O   UNL A   1      36.744  24.113  26.263  1.00  0.00    -0.406 OA
BRANCH  29  30
ATOM     30  C   UNL A   1      38.081  23.671  26.083  1.00  0.00     0.573 C 
ATOM     31  F   UNL A   1      38.528  22.997  27.164  1.00  0.00    -0.132 F 
ATOM     32  F   UNL A   1      38.181  22.884  24.990  1.00  0.00    -0.132 F 
ATOM     33  F   UNL A   1      38.877  24.747  25.901  1.00  0.00    -0.132 F 
ENDBRANCH  29  30
ENDBRANCH  28  29
ENDBRANCH  18  19
ENDBRANCH  17  18
ENDBRANCH   7  17
ENDBRANCH   3   6
ENDBRANCH   1   2
BRANCH   1  34
ATOM     34  C   UNL A   1      35.883  30.247  27.663  1.00  0.00     0.023 C 
BRANCH  34  35
ATOM     35  C   UNL A   1      36.695  30.427  28.953  1.00  0.00     0.023 C 
BRANCH  35  36
ATOM     36  C   UNL A   1      36.204  29.644  30.170  1.00  0.00     0.116 C 
BRANCH  36  37
ATOM     37  N   UNL A   1      36.207  30.424  31.398  1.00  0.00    -0.352 N 
ATOM     38  C   UNL A   1      37.178  30.544  32.372  1.00  0.00     0.251 C 
ATOM     39  H   UNL A   1      35.389  30.947  31.560  1.00  0.00     0.163 HD
ATOM     40  O   UNL A   1      36.926  31.172  33.397  1.00  0.00    -0.269 OA
BRANCH  38  41
ATOM     41  C   UNL A   1      38.499  29.886  32.212  1.00  0.00     0.039 A 
ATOM     42  C   UNL A   1      38.632  28.499  32.289  1.00  0.00     0.014 A 
ATOM     43  C   UNL A   1      39.631  30.677  31.994  1.00  0.00     0.014 A 
ATOM     44  C   UNL A   1      39.901  27.926  32.348  1.00  0.00     0.010 A 
ATOM     45  C   UNL A   1      40.904  30.089  31.965  1.00  0.00     0.010 A 
ATOM     46  C   UNL A   1      41.056  28.715  32.209  1.00  0.00    -0.014 A 
BRANCH  46  47
ATOM     47  C   UNL A   1      42.401  28.086  32.343  1.00  0.00     0.031 A 
ATOM     48  C   UNL A   1      43.228  27.762  31.123  1.00  0.00     0.074 A 
ATOM     49  C   UNL A   1      42.908  27.852  33.570  1.00  0.00     0.049 A 
ATOM     50  N   UNL A   1      44.434  27.258  31.059  1.00  0.00    -0.248 NA
ATOM     51  C   UNL A   1      42.628  28.034  29.807  1.00  0.00     0.031 C 
ATOM     52  C   UNL A   1      42.204  28.111  34.826  1.00  0.00     0.029 A 
ATOM     53  N   UNL A   1      44.128  27.361  33.968  1.00  0.00    -0.354 N 
ATOM     54  C   UNL A   1      44.729  27.135  29.704  1.00  0.00     0.074 A 
ATOM     55  C   UNL A   1      43.563  27.587  28.978  1.00  0.00     0.031 C 
ATOM     56  C   UNL A   1      43.014  27.817  35.851  1.00  0.00     0.029 A 
ATOM     57  C   UNL A   1      44.274  27.284  35.335  1.00  0.00     0.049 A 
ATOM     58  H   UNL A   1      44.832  27.089  33.336  1.00  0.00     0.167 HD
ATOM     59  C   UNL A   1      45.872  26.701  29.122  1.00  0.00     0.034 A 
ATOM     60  C   UNL A   1      45.292  26.826  36.094  1.00  0.00     0.034 A 
ATOM     61  C   UNL A   1      47.044  26.288  29.853  1.00  0.00     0.049 A 
ATOM     62  C   UNL A   1      46.551  26.346  35.420  1.00  0.00     0.074 A 
ATOM     63  C   UNL A   1      48.267  25.890  29.341  1.00  0.00     0.029 A 
ATOM     64  N   UNL A   1      47.148  26.219  31.233  1.00  0.00    -0.354 N 
ATOM     65  N   UNL A   1      46.836  26.311  34.140  1.00  0.00    -0.248 NA
ATOM     66  C   UNL A   1      47.632  25.851  36.284  1.00  0.00     0.031 C 
ATOM     67  C   UNL A   1      49.085  25.515  30.405  1.00  0.00     0.029 A 
ATOM     68  C   UNL A   1      48.404  25.753  31.587  1.00  0.00     0.049 A 
ATOM     69  H   UNL A   1      46.435  26.463  31.867  1.00  0.00     0.167 HD
ATOM     70  C   UNL A   1      48.132  25.809  34.048  1.00  0.00     0.074 A 
ATOM     71  C   UNL A   1      48.588  25.585  35.402  1.00  0.00     0.031 C 
ATOM     72  C   UNL A   1      48.869  25.550  32.938  1.00  0.00     0.034 A 
BRANCH  59  73
ATOM     73  C   UNL A   1      45.961  26.657  27.616  1.00  0.00     0.023 A 
ATOM     74  C   UNL A   1      45.818  25.427  26.943  1.00  0.00     0.031 A 
ATOM     75  C   UNL A   1      46.361  27.780  26.871  1.00  0.00     0.131 A 
ATOM     76  C   UNL A   1      46.128  25.339  25.581  1.00  0.00     0.055 A 
ATOM     77  C   UNL A   1      46.625  27.695  25.504  1.00  0.00     0.041 A 
ATOM     78  F   UNL A   1      46.512  28.974  27.468  1.00  0.00    -0.206 F 
ATOM     79  C   UNL A   1      46.525  26.467  24.856  1.00  0.00     0.022 A 
BRANCH  76  80
ATOM     80  S   UNL A   1      46.104  23.745  24.715  1.00  0.00     0.124 S 
ATOM     81  O   UNL A   1      47.147  23.934  23.709  1.00  0.00    -0.237 OA
ATOM     82  O   UNL A   1      46.433  22.810  25.787  1.00  0.00    -0.237 OA
ATOM     83  O   UNL A   1      44.746  23.651  24.189  1.00  0.00    -0.744 OA
ENDBRANCH  76  80
ENDBRANCH  59  73
BRANCH  60  84
ATOM     84  C   UNL A   1      45.148  26.839  37.581  1.00  0.00     0.023 A 
ATOM     85  C   UNL A   1      45.562  27.955  38.332  1.00  0.00     0.031 A 
ATOM     86  C   UNL A   1      44.698  25.707  38.279  1.00  0.00     0.131 A 
ATOM     87  C   UNL A   1      45.593  27.886  39.730  1.00  0.00     0.055 A 
ATOM     88  C   UNL A   1      44.654  25.672  39.675  1.00  0.00     0.041 A 
ATOM     89  F   UNL A   1      44.302  24.612  37.611  1.00  0.00    -0.206 F 
ATOM     90  C   UNL A   1      45.123  26.758  40.407  1.00  0.00     0.022 A 
BRANCH  87  91
ATOM     91  S   UNL A   1      46.392  29.192  40.704  1.00  0.00     0.124 S 
ATOM     92  O   UNL A   1      45.245  29.955  41.187  1.00  0.00    -0.237 OA
ATOM     93  O   UNL A   1      47.106  28.417  41.716  1.00  0.00    -0.237 OA
ATOM     94  O   UNL A   1      47.242  29.874  39.734  1.00  0.00    -0.744 OA
ENDBRANCH  87  91
ENDBRANCH  60  84
BRANCH  72  95
ATOM     95  C   UNL A   1      50.264  24.994  33.101  1.00  0.00     0.023 A 
ATOM     96  C   UNL A   1      50.493  23.612  32.950  1.00  0.00     0.031 A 
ATOM     97  C   UNL A   1      51.320  25.795  33.571  1.00  0.00     0.131 A 
ATOM     98  C   UNL A   1      51.730  23.066  33.313  1.00  0.00     0.055 A 
ATOM     99  C   UNL A   1      52.567  25.252  33.884  1.00  0.00     0.041 A 
ATOM    100  F   UNL A   1      51.149  27.115  33.745  1.00  0.00    -0.206 F 
ATOM    101  C   UNL A   1      52.771  23.880  33.771  1.00  0.00     0.022 A 
BRANCH  98 102
ATOM    102  S   UNL A   1      52.003  21.272  33.299  1.00  0.00     0.124 S 
ATOM    103  O   UNL A   1      50.639  20.761  33.180  1.00  0.00    -0.237 OA
ATOM    104  O   UNL A   1      52.840  21.096  32.116  1.00  0.00    -0.237 OA
ATOM    105  O   UNL A   1      52.656  21.004  34.577  1.00  0.00    -0.744 OA
ENDBRANCH  98 102
ENDBRANCH  72  95
ENDBRANCH  46  47
ENDBRANCH  38  41
ENDBRANCH  36  37
ENDBRANCH  35  36
ENDBRANCH  34  35
ENDBRANCH   1  34
TORSDOF 19
ENDMDL
