MODEL 1
REMARK VINA RESULT:     -12.3      0.000      0.000
REMARK SMILES Cc1cc(C[N@@H+]2C[C@H](C)[C@H](C(=O)NCCCCNC(=O)c3ccc(-c4c5nc(c(-c6cc(S(=O)(=O)[O-])ccc6F)c6ccc([nH]6)c(-c6cc(S(=O)(=O)[O-])ccc6F)c6nc(c(-c7cc(S(=O)(=O)[O-])ccc7F)c7ccc4[nH]7)C=C6)C=C5)cc3)C2)ccc1Br
REMARK SMILES IDX 16 1 15 2 14 3 13 4 11 5 12 6 10 8 6 9 7 10 84 11 8 13 9 14
REMARK SMILES IDX 5 15 4 16 1 17 2 18 3 19 87 20 86 21 88 22 85 23 17 24 18 25
REMARK SMILES IDX 19 26 20 28 21 29 22 30 83 31 23 32 82 33 24 34 25 35 26 36
REMARK SMILES IDX 76 37 27 38 81 39 75 40 77 41 28 42 80 43 74 44 73 45 29 47
REMARK SMILES IDX 61 48 41 49 60 50 42 51 45 52 59 53 78 54 43 55 44 56 58 58
REMARK SMILES IDX 79 59 46 60 30 61 31 62 39 63 32 64 38 65 40 66 37 67 33 68
REMARK SMILES IDX 34 69 35 70 36 71 62 72 63 73 71 74 64 75 70 76 72 77 69 78
REMARK SMILES IDX 65 79 66 80 67 81 68 82 47 83 48 84 56 85 49 86 55 87 57 88
REMARK SMILES IDX 54 89 50 90 51 91 52 92 53 93
REMARK H PARENT 13 7 6 12 18 27 77 46 45 57
REMARK Flexibility Score: inf
ROOT
ATOM      1  C   UNL A   1      36.032  21.462  25.647  1.00  0.00     0.023 C 
ENDROOT
BRANCH   1   2
ATOM      2  C   UNL A   1      35.460  22.726  26.281  1.00  0.00     0.023 C 
BRANCH   2   3
ATOM      3  C   UNL A   1      33.960  22.705  26.560  1.00  0.00     0.116 C 
BRANCH   3   4
ATOM      4  N   UNL A   1      33.342  21.442  26.201  1.00  0.00    -0.356 N 
ATOM      5  C   UNL A   1      32.597  21.072  25.128  1.00  0.00     0.229 C 
ATOM      6  O   UNL A   1      32.181  19.906  25.123  1.00  0.00    -0.275 OA
ATOM      7  H   UNL A   1      33.491  20.722  26.856  1.00  0.00     0.163 HD
BRANCH   5   8
ATOM      8  C   UNL A   1      32.218  21.996  23.976  1.00  0.00     0.142 C 
ATOM      9  N   UNL A   1      32.681  23.995  22.780  1.00  0.00    -0.330 N 
ATOM     10  C   UNL A   1      31.269  24.032  23.126  1.00  0.00     0.266 C 
ATOM     11  C   UNL A   1      33.330  22.810  23.327  1.00  0.00     0.276 C 
ATOM     12  H   UNL A   1      32.703  23.875  21.767  1.00  0.00     0.348 HD
ATOM     13  C   UNL A   1      31.029  22.943  24.173  1.00  0.00     0.059 C 
ATOM     14  C   UNL A   1      30.817  23.534  25.558  1.00  0.00     0.015 C 
BRANCH   9  15
ATOM     15  C   UNL A   1      33.427  25.245  22.771  1.00  0.00     0.299 C 
BRANCH  15  16
ATOM     16  C   UNL A   1      33.095  26.252  23.853  1.00  0.00     0.007 A 
ATOM     17  C   UNL A   1      30.872  29.328  24.219  1.00  0.00     0.045 C 
ATOM     18  C   UNL A   1      31.844  28.241  24.591  1.00  0.00    -0.036 A 
ATOM     19  C   UNL A   1      32.188  27.298  23.601  1.00  0.00     0.014 A 
ATOM     20  C   UNL A   1      32.459  28.139  25.846  1.00  0.00     0.020 A 
ATOM     21  C   UNL A   1      33.352  27.098  26.113  1.00  0.00     0.016 A 
ATOM     22  Br  UNL A   1      32.153  29.377  27.251  1.00  0.00    -0.051 Br
ATOM     23  C   UNL A   1      33.654  26.154  25.132  1.00  0.00     0.011 A 
ENDBRANCH  15  16
ENDBRANCH   9  15
ENDBRANCH   5   8
ENDBRANCH   3   4
ENDBRANCH   2   3
ENDBRANCH   1   2
BRANCH   1  24
ATOM     24  C   UNL A   1      37.367  21.625  24.932  1.00  0.00     0.116 C 
BRANCH  24  25
ATOM     25  N   UNL A   1      38.381  20.655  25.322  1.00  0.00    -0.352 N 
ATOM     26  C   UNL A   1      39.481  20.845  26.128  1.00  0.00     0.251 C 
ATOM     27  H   UNL A   1      38.265  19.746  24.963  1.00  0.00     0.163 HD
ATOM     28  O   UNL A   1      40.239  19.915  26.386  1.00  0.00    -0.269 OA
BRANCH  26  29
ATOM     29  C   UNL A   1      39.776  22.200  26.629  1.00  0.00     0.039 A 
ATOM     30  C   UNL A   1      40.794  22.353  27.575  1.00  0.00     0.014 A 
ATOM     31  C   UNL A   1      39.125  23.314  26.094  1.00  0.00     0.014 A 
ATOM     32  C   UNL A   1      41.234  23.634  27.907  1.00  0.00     0.010 A 
ATOM     33  C   UNL A   1      39.614  24.584  26.372  1.00  0.00     0.010 A 
ATOM     34  C   UNL A   1      40.686  24.753  27.263  1.00  0.00    -0.014 A 
BRANCH  34  35
ATOM     35  C   UNL A   1      41.234  26.115  27.477  1.00  0.00     0.031 A 
ATOM     36  C   UNL A   1      42.581  26.469  26.921  1.00  0.00     0.074 A 
ATOM     37  C   UNL A   1      40.564  26.982  28.261  1.00  0.00     0.049 A 
ATOM     38  N   UNL A   1      43.310  27.534  27.126  1.00  0.00    -0.248 NA
ATOM     39  C   UNL A   1      43.210  25.465  26.049  1.00  0.00     0.031 C 
ATOM     40  C   UNL A   1      39.268  26.724  28.897  1.00  0.00     0.029 A 
ATOM     41  N   UNL A   1      40.888  28.248  28.677  1.00  0.00    -0.354 N 
ATOM     42  C   UNL A   1      44.496  27.318  26.435  1.00  0.00     0.074 A 
ATOM     43  C   UNL A   1      44.404  25.997  25.847  1.00  0.00     0.031 C 
ATOM     44  C   UNL A   1      38.904  27.804  29.609  1.00  0.00     0.029 A 
ATOM     45  C   UNL A   1      39.955  28.810  29.517  1.00  0.00     0.049 A 
ATOM     46  H   UNL A   1      41.712  28.711  28.400  1.00  0.00     0.167 HD
ATOM     47  C   UNL A   1      45.555  28.151  26.292  1.00  0.00     0.034 A 
ATOM     48  C   UNL A   1      39.958  29.997  30.154  1.00  0.00     0.034 A 
ATOM     49  C   UNL A   1      45.614  29.473  26.866  1.00  0.00     0.049 A 
ATOM     50  C   UNL A   1      41.133  30.918  29.961  1.00  0.00     0.074 A 
ATOM     51  C   UNL A   1      46.611  30.425  26.751  1.00  0.00     0.029 A 
ATOM     52  N   UNL A   1      44.625  30.029  27.670  1.00  0.00    -0.354 N 
ATOM     53  N   UNL A   1      42.235  30.714  29.278  1.00  0.00    -0.248 NA
ATOM     54  C   UNL A   1      41.061  32.231  30.617  1.00  0.00     0.031 C 
ATOM     55  C   UNL A   1      46.245  31.539  27.516  1.00  0.00     0.029 A 
ATOM     56  C   UNL A   1      44.995  31.304  28.067  1.00  0.00     0.049 A 
ATOM     57  H   UNL A   1      43.785  29.582  27.921  1.00  0.00     0.167 HD
ATOM     58  C   UNL A   1      42.978  31.882  29.402  1.00  0.00     0.074 A 
ATOM     59  C   UNL A   1      42.195  32.789  30.218  1.00  0.00     0.031 C 
ATOM     60  C   UNL A   1      44.195  32.184  28.883  1.00  0.00     0.034 A 
BRANCH  47  61
ATOM     61  C   UNL A   1      46.736  27.632  25.508  1.00  0.00     0.023 A 
ATOM     62  C   UNL A   1      47.000  28.071  24.199  1.00  0.00     0.031 A 
ATOM     63  C   UNL A   1      47.568  26.637  26.048  1.00  0.00     0.131 A 
ATOM     64  C   UNL A   1      48.006  27.453  23.442  1.00  0.00     0.055 A 
ATOM     65  C   UNL A   1      48.625  26.086  25.319  1.00  0.00     0.041 A 
ATOM     66  F   UNL A   1      47.353  26.163  27.285  1.00  0.00    -0.206 F 
ATOM     67  C   UNL A   1      48.836  26.480  24.001  1.00  0.00     0.022 A 
BRANCH  64  68
ATOM     68  S   UNL A   1      48.105  27.828  21.670  1.00  0.00     0.124 S 
ATOM     69  O   UNL A   1      46.779  28.383  21.413  1.00  0.00    -0.237 OA
ATOM     70  O   UNL A   1      49.217  28.770  21.607  1.00  0.00    -0.237 OA
ATOM     71  O   UNL A   1      48.357  26.525  21.058  1.00  0.00    -0.744 OA
ENDBRANCH  64  68
ENDBRANCH  47  61
BRANCH  48  72
ATOM     72  C   UNL A   1      38.822  30.381  31.037  1.00  0.00     0.023 A 
ATOM     73  C   UNL A   1      37.728  31.100  30.532  1.00  0.00     0.031 A 
ATOM     74  C   UNL A   1      38.824  30.053  32.404  1.00  0.00     0.131 A 
ATOM     75  C   UNL A   1      36.697  31.502  31.394  1.00  0.00     0.055 A 
ATOM     76  C   UNL A   1      37.778  30.420  33.251  1.00  0.00     0.041 A 
ATOM     77  F   UNL A   1      39.841  29.354  32.932  1.00  0.00    -0.206 F 
ATOM     78  C   UNL A   1      36.710  31.159  32.749  1.00  0.00     0.022 A 
BRANCH  75  79
ATOM     79  S   UNL A   1      35.363  32.535  30.731  1.00  0.00     0.124 S 
ATOM     80  O   UNL A   1      34.352  32.428  31.778  1.00  0.00    -0.237 OA
ATOM     81  O   UNL A   1      36.020  33.832  30.604  1.00  0.00    -0.237 OA
ATOM     82  O   UNL A   1      35.024  31.885  29.467  1.00  0.00    -0.744 OA
ENDBRANCH  75  79
ENDBRANCH  48  72
BRANCH  60  83
ATOM     83  C   UNL A   1      44.720  33.569  29.150  1.00  0.00     0.023 A 
ATOM     84  C   UNL A   1      44.386  34.656  28.324  1.00  0.00     0.031 A 
ATOM     85  C   UNL A   1      45.571  33.798  30.245  1.00  0.00     0.131 A 
ATOM     86  C   UNL A   1      44.935  35.920  28.584  1.00  0.00     0.055 A 
ATOM     87  C   UNL A   1      46.078  35.066  30.524  1.00  0.00     0.041 A 
ATOM     88  F   UNL A   1      45.918  32.791  31.061  1.00  0.00    -0.206 F 
ATOM     89  C   UNL A   1      45.769  36.135  29.686  1.00  0.00     0.022 A 
BRANCH  86  90
ATOM     90  S   UNL A   1      44.589  37.274  27.428  1.00  0.00     0.124 S 
ATOM     91  O   UNL A   1      43.415  36.776  26.719  1.00  0.00    -0.237 OA
ATOM     92  O   UNL A   1      44.363  38.403  28.324  1.00  0.00    -0.237 OA
ATOM     93  O   UNL A   1      45.808  37.358  26.625  1.00  0.00    -0.744 OA
ENDBRANCH  86  90
ENDBRANCH  60  83
ENDBRANCH  34  35
ENDBRANCH  26  29
ENDBRANCH  24  25
ENDBRANCH   1  24
TORSDOF 16
ENDMDL
MODEL 2
REMARK VINA RESULT:     -12.3      1.434      7.762
REMARK SMILES Cc1cc(C[N@@H+]2C[C@H](C)[C@H](C(=O)NCCCCNC(=O)c3ccc(-c4c5nc(c(-c6cc(S(=O)(=O)[O-])ccc6F)c6ccc([nH]6)c(-c6cc(S(=O)(=O)[O-])ccc6F)c6nc(c(-c7cc(S(=O)(=O)[O-])ccc7F)c7ccc4[nH]7)C=C6)C=C5)cc3)C2)ccc1Br
REMARK SMILES IDX 16 1 15 2 14 3 13 4 11 5 12 6 10 8 6 9 7 10 84 11 8 13 9 14
REMARK SMILES IDX 5 15 4 16 1 17 2 18 3 19 87 20 86 21 88 22 85 23 17 24 18 25
REMARK SMILES IDX 19 26 20 28 21 29 22 30 83 31 23 32 82 33 24 34 25 35 26 36
REMARK SMILES IDX 76 37 27 38 81 39 75 40 77 41 28 42 80 43 74 44 73 45 29 47
REMARK SMILES IDX 61 48 41 49 60 50 42 51 45 52 59 53 78 54 43 55 44 56 58 58
REMARK SMILES IDX 79 59 46 60 30 61 31 62 39 63 32 64 38 65 40 66 37 67 33 68
REMARK SMILES IDX 34 69 35 70 36 71 62 72 63 73 71 74 64 75 70 76 72 77 69 78
REMARK SMILES IDX 65 79 66 80 67 81 68 82 47 83 48 84 56 85 49 86 55 87 57 88
REMARK SMILES IDX 54 89 50 90 51 91 52 92 53 93
REMARK H PARENT 13 7 6 12 18 27 77 46 45 57
REMARK Flexibility Score: inf
ROOT
ATOM      1  C   UNL A   1      35.449  21.023  25.226  1.00  0.00     0.023 C 
ENDROOT
BRANCH   1   2
ATOM      2  C   UNL A   1      34.615  21.658  24.118  1.00  0.00     0.023 C 
BRANCH   2   3
ATOM      3  C   UNL A   1      33.265  22.223  24.549  1.00  0.00     0.116 C 
BRANCH   3   4
ATOM      4  N   UNL A   1      33.056  22.139  25.983  1.00  0.00    -0.356 N 
ATOM      5  C   UNL A   1      32.565  23.032  26.879  1.00  0.00     0.229 C 
ATOM      6  O   UNL A   1      32.539  22.667  28.062  1.00  0.00    -0.275 OA
ATOM      7  H   UNL A   1      33.318  21.275  26.376  1.00  0.00     0.163 HD
BRANCH   5   8
ATOM      8  C   UNL A   1      32.095  24.440  26.531  1.00  0.00     0.142 C 
ATOM      9  N   UNL A   1      31.261  25.917  24.868  1.00  0.00    -0.330 N 
ATOM     10  C   UNL A   1      32.412  26.570  25.468  1.00  0.00     0.266 C 
ATOM     11  C   UNL A   1      31.055  24.586  25.427  1.00  0.00     0.276 C 
ATOM     12  H   UNL A   1      30.456  26.466  25.168  1.00  0.00     0.348 HD
ATOM     13  C   UNL A   1      33.159  25.516  26.286  1.00  0.00     0.059 C 
ATOM     14  C   UNL A   1      34.451  25.091  25.606  1.00  0.00     0.015 C 
BRANCH   9  15
ATOM     15  C   UNL A   1      31.015  26.109  23.445  1.00  0.00     0.299 C 
BRANCH  15  16
ATOM     16  C   UNL A   1      30.325  27.394  23.035  1.00  0.00     0.007 A 
ATOM     17  C   UNL A   1      26.818  28.874  23.252  1.00  0.00     0.045 C 
ATOM     18  C   UNL A   1      28.287  28.773  22.940  1.00  0.00    -0.036 A 
ATOM     19  C   UNL A   1      28.955  27.584  23.294  1.00  0.00     0.014 A 
ATOM     20  C   UNL A   1      29.016  29.772  22.281  1.00  0.00     0.020 A 
ATOM     21  C   UNL A   1      30.380  29.602  22.029  1.00  0.00     0.016 A 
ATOM     22  Br  UNL A   1      28.237  31.394  21.679  1.00  0.00    -0.051 Br
ATOM     23  C   UNL A   1      31.031  28.432  22.417  1.00  0.00     0.011 A 
ENDBRANCH  15  16
ENDBRANCH   9  15
ENDBRANCH   5   8
ENDBRANCH   3   4
ENDBRANCH   2   3
ENDBRANCH   1   2
BRANCH   1  24
ATOM     24  C   UNL A   1      36.850  21.593  25.410  1.00  0.00     0.116 C 
BRANCH  24  25
ATOM     25  N   UNL A   1      37.913  20.599  25.389  1.00  0.00    -0.352 N 
ATOM     26  C   UNL A   1      39.181  20.690  25.919  1.00  0.00     0.251 C 
ATOM     27  H   UNL A   1      37.698  19.751  24.938  1.00  0.00     0.163 HD
ATOM     28  O   UNL A   1      39.964  19.749  25.840  1.00  0.00    -0.269 OA
BRANCH  26  29
ATOM     29  C   UNL A   1      39.611  21.961  26.529  1.00  0.00     0.039 A 
ATOM     30  C   UNL A   1      40.607  21.925  27.510  1.00  0.00     0.014 A 
ATOM     31  C   UNL A   1      39.111  23.179  26.064  1.00  0.00     0.014 A 
ATOM     32  C   UNL A   1      41.179  23.118  27.950  1.00  0.00     0.010 A 
ATOM     33  C   UNL A   1      39.733  24.360  26.450  1.00  0.00     0.010 A 
ATOM     34  C   UNL A   1      40.786  24.338  27.378  1.00  0.00    -0.014 A 
BRANCH  34  35
ATOM     35  C   UNL A   1      41.478  25.606  27.710  1.00  0.00     0.031 A 
ATOM     36  C   UNL A   1      40.754  26.665  28.488  1.00  0.00     0.074 A 
ATOM     37  C   UNL A   1      42.710  25.838  27.215  1.00  0.00     0.049 A 
ATOM     38  N   UNL A   1      41.109  27.897  28.744  1.00  0.00    -0.248 NA
ATOM     39  C   UNL A   1      39.430  26.296  29.012  1.00  0.00     0.031 C 
ATOM     40  C   UNL A   1      43.488  24.899  26.402  1.00  0.00     0.029 A 
ATOM     41  N   UNL A   1      43.517  26.943  27.304  1.00  0.00    -0.354 N 
ATOM     42  C   UNL A   1      40.042  28.461  29.432  1.00  0.00     0.074 A 
ATOM     43  C   UNL A   1      39.009  27.449  29.507  1.00  0.00     0.031 C 
ATOM     44  C   UNL A   1      44.664  25.463  26.080  1.00  0.00     0.029 A 
ATOM     45  C   UNL A   1      44.706  26.816  26.624  1.00  0.00     0.049 A 
ATOM     46  H   UNL A   1      43.269  27.753  27.808  1.00  0.00     0.167 HD
ATOM     47  C   UNL A   1      39.941  29.704  29.963  1.00  0.00     0.034 A 
ATOM     48  C   UNL A   1      45.709  27.698  26.446  1.00  0.00     0.034 A 
ATOM     49  C   UNL A   1      40.994  30.688  29.897  1.00  0.00     0.049 A 
ATOM     50  C   UNL A   1      45.588  29.064  27.067  1.00  0.00     0.074 A 
ATOM     51  C   UNL A   1      41.026  31.961  30.438  1.00  0.00     0.029 A 
ATOM     52  N   UNL A   1      42.207  30.504  29.243  1.00  0.00    -0.354 N 
ATOM     53  N   UNL A   1      44.585  29.575  27.743  1.00  0.00    -0.248 NA
ATOM     54  C   UNL A   1      46.734  29.969  26.908  1.00  0.00     0.031 C 
ATOM     55  C   UNL A   1      42.239  32.560  30.079  1.00  0.00     0.029 A 
ATOM     56  C   UNL A   1      42.987  31.643  29.357  1.00  0.00     0.049 A 
ATOM     57  H   UNL A   1      42.472  29.684  28.768  1.00  0.00     0.167 HD
ATOM     58  C   UNL A   1      44.990  30.853  28.112  1.00  0.00     0.074 A 
ATOM     59  C   UNL A   1      46.331  31.031  27.590  1.00  0.00     0.031 C 
ATOM     60  C   UNL A   1      44.319  31.794  28.823  1.00  0.00     0.034 A 
BRANCH  47  61
ATOM     61  C   UNL A   1      38.636  30.061  30.631  1.00  0.00     0.023 A 
ATOM     62  C   UNL A   1      37.611  30.724  29.934  1.00  0.00     0.031 A 
ATOM     63  C   UNL A   1      38.438  29.799  31.997  1.00  0.00     0.131 A 
ATOM     64  C   UNL A   1      36.479  31.184  30.622  1.00  0.00     0.055 A 
ATOM     65  C   UNL A   1      37.270  30.183  32.659  1.00  0.00     0.041 A 
ATOM     66  F   UNL A   1      39.390  29.187  32.721  1.00  0.00    -0.206 F 
ATOM     67  C   UNL A   1      36.289  30.897  31.975  1.00  0.00     0.022 A 
BRANCH  64  68
ATOM     68  S   UNL A   1      35.337  32.299  29.759  1.00  0.00     0.124 S 
ATOM     69  O   UNL A   1      34.372  32.602  30.813  1.00  0.00    -0.237 OA
ATOM     70  O   UNL A   1      36.211  33.396  29.358  1.00  0.00    -0.237 OA
ATOM     71  O   UNL A   1      34.820  31.481  28.666  1.00  0.00    -0.744 OA
ENDBRANCH  64  68
ENDBRANCH  47  61
BRANCH  48  72
ATOM     72  C   UNL A   1      46.906  27.326  25.643  1.00  0.00     0.023 A 
ATOM     73  C   UNL A   1      47.037  27.744  24.310  1.00  0.00     0.031 A 
ATOM     74  C   UNL A   1      47.927  26.530  26.192  1.00  0.00     0.131 A 
ATOM     75  C   UNL A   1      48.146  27.333  23.554  1.00  0.00     0.055 A 
ATOM     76  C   UNL A   1      49.048  26.156  25.449  1.00  0.00     0.041 A 
ATOM     77  F   UNL A   1      47.855  26.117  27.467  1.00  0.00    -0.206 F 
ATOM     78  C   UNL A   1      49.156  26.549  24.118  1.00  0.00     0.022 A 
BRANCH  75  79
ATOM     79  S   UNL A   1      48.219  27.788  21.801  1.00  0.00     0.124 S 
ATOM     80  O   UNL A   1      49.347  28.713  21.779  1.00  0.00    -0.237 OA
ATOM     81  O   UNL A   1      48.436  26.494  21.162  1.00  0.00    -0.237 OA
ATOM     82  O   UNL A   1      46.912  28.392  21.551  1.00  0.00    -0.744 OA
ENDBRANCH  75  79
ENDBRANCH  48  72
BRANCH  60  83
ATOM     83  C   UNL A   1      45.054  33.074  29.112  1.00  0.00     0.023 A 
ATOM     84  C   UNL A   1      44.950  34.191  28.266  1.00  0.00     0.031 A 
ATOM     85  C   UNL A   1      45.873  33.171  30.250  1.00  0.00     0.131 A 
ATOM     86  C   UNL A   1      45.689  35.349  28.549  1.00  0.00     0.055 A 
ATOM     87  C   UNL A   1      46.571  34.341  30.551  1.00  0.00     0.041 A 
ATOM     88  F   UNL A   1      46.004  32.131  31.088  1.00  0.00    -0.206 F 
ATOM     89  C   UNL A   1      46.489  35.435  29.693  1.00  0.00     0.022 A 
BRANCH  86  90
ATOM     90  S   UNL A   1      45.636  36.726  27.372  1.00  0.00     0.124 S 
ATOM     91  O   UNL A   1      46.616  36.311  26.373  1.00  0.00    -0.237 OA
ATOM     92  O   UNL A   1      44.242  36.717  26.940  1.00  0.00    -0.237 OA
ATOM     93  O   UNL A   1      46.025  37.882  28.178  1.00  0.00    -0.744 OA
ENDBRANCH  86  90
ENDBRANCH  60  83
ENDBRANCH  34  35
ENDBRANCH  26  29
ENDBRANCH  24  25
ENDBRANCH   1  24
TORSDOF 16
ENDMDL
MODEL 3
REMARK VINA RESULT:     -12.2      5.559      8.700
REMARK SMILES Cc1cc(C[N@@H+]2C[C@H](C)[C@H](C(=O)NCCCCNC(=O)c3ccc(-c4c5nc(c(-c6cc(S(=O)(=O)[O-])ccc6F)c6ccc([nH]6)c(-c6cc(S(=O)(=O)[O-])ccc6F)c6nc(c(-c7cc(S(=O)(=O)[O-])ccc7F)c7ccc4[nH]7)C=C6)C=C5)cc3)C2)ccc1Br
REMARK SMILES IDX 16 1 15 2 14 3 13 4 11 5 12 6 10 8 6 9 7 10 84 11 8 13 9 14
REMARK SMILES IDX 5 15 4 16 1 17 2 18 3 19 87 20 86 21 88 22 85 23 17 24 18 25
REMARK SMILES IDX 19 26 20 28 21 29 22 30 83 31 23 32 82 33 24 34 25 35 26 36
REMARK SMILES IDX 76 37 27 38 81 39 75 40 77 41 28 42 80 43 74 44 73 45 29 47
REMARK SMILES IDX 61 48 41 49 60 50 42 51 45 52 59 53 78 54 43 55 44 56 58 58
REMARK SMILES IDX 79 59 46 60 30 61 31 62 39 63 32 64 38 65 40 66 37 67 33 68
REMARK SMILES IDX 34 69 35 70 36 71 62 72 63 73 71 74 64 75 70 76 72 77 69 78
REMARK SMILES IDX 65 79 66 80 67 81 68 82 47 83 48 84 56 85 49 86 55 87 57 88
REMARK SMILES IDX 54 89 50 90 51 91 52 92 53 93
REMARK H PARENT 13 7 6 12 18 27 77 46 45 57
REMARK Flexibility Score: inf
ROOT
ATOM      1  C   UNL A   1      31.503  32.151  27.158  1.00  0.00     0.023 C 
ENDROOT
BRANCH   1   2
ATOM      2  C   UNL A   1      31.205  31.384  25.875  1.00  0.00     0.023 C 
BRANCH   2   3
ATOM      3  C   UNL A   1      31.901  30.033  25.735  1.00  0.00     0.116 C 
BRANCH   3   4
ATOM      4  N   UNL A   1      32.937  29.833  26.731  1.00  0.00    -0.356 N 
ATOM      5  C   UNL A   1      33.929  28.912  26.833  1.00  0.00     0.229 C 
ATOM      6  O   UNL A   1      34.649  28.987  27.837  1.00  0.00    -0.275 OA
ATOM      7  H   UNL A   1      32.917  30.487  27.468  1.00  0.00     0.163 HD
BRANCH   5   8
ATOM      8  C   UNL A   1      34.175  27.790  25.831  1.00  0.00     0.142 C 
ATOM      9  N   UNL A   1      33.738  26.907  23.669  1.00  0.00    -0.330 N 
ATOM     10  C   UNL A   1      33.458  25.844  24.620  1.00  0.00     0.266 C 
ATOM     11  C   UNL A   1      34.116  28.141  24.349  1.00  0.00     0.276 C 
ATOM     12  H   UNL A   1      34.574  26.604  23.169  1.00  0.00     0.348 HD
ATOM     13  C   UNL A   1      33.402  26.479  26.010  1.00  0.00     0.059 C 
ATOM     14  C   UNL A   1      31.974  26.565  26.528  1.00  0.00     0.015 C 
BRANCH   9  15
ATOM     15  C   UNL A   1      32.911  27.007  22.474  1.00  0.00     0.299 C 
BRANCH  15  16
ATOM     16  C   UNL A   1      31.553  27.661  22.631  1.00  0.00     0.007 A 
ATOM     17  C   UNL A   1      28.110  26.672  23.934  1.00  0.00     0.045 C 
ATOM     18  C   UNL A   1      29.203  27.528  23.351  1.00  0.00    -0.036 A 
ATOM     19  C   UNL A   1      30.474  26.944  23.176  1.00  0.00     0.014 A 
ATOM     20  C   UNL A   1      29.018  28.852  22.932  1.00  0.00     0.020 A 
ATOM     21  C   UNL A   1      30.085  29.580  22.399  1.00  0.00     0.016 A 
ATOM     22  Br  UNL A   1      27.348  29.746  23.034  1.00  0.00    -0.051 Br
ATOM     23  C   UNL A   1      31.345  28.996  22.266  1.00  0.00     0.011 A 
ENDBRANCH  15  16
ENDBRANCH   9  15
ENDBRANCH   5   8
ENDBRANCH   3   4
ENDBRANCH   2   3
ENDBRANCH   1   2
BRANCH   1  24
ATOM     24  C   UNL A   1      32.700  33.092  27.105  1.00  0.00     0.116 C 
BRANCH  24  25
ATOM     25  N   UNL A   1      32.543  34.312  27.884  1.00  0.00    -0.352 N 
ATOM     26  C   UNL A   1      33.361  34.805  28.876  1.00  0.00     0.251 C 
ATOM     27  H   UNL A   1      31.749  34.855  27.675  1.00  0.00     0.163 HD
ATOM     28  O   UNL A   1      33.105  35.869  29.430  1.00  0.00    -0.269 OA
BRANCH  26  29
ATOM     29  C   UNL A   1      34.520  34.004  29.312  1.00  0.00     0.039 A 
ATOM     30  C   UNL A   1      35.794  34.389  28.885  1.00  0.00     0.014 A 
ATOM     31  C   UNL A   1      34.357  32.950  30.213  1.00  0.00     0.014 A 
ATOM     32  C   UNL A   1      36.917  33.783  29.447  1.00  0.00     0.010 A 
ATOM     33  C   UNL A   1      35.477  32.399  30.824  1.00  0.00     0.010 A 
ATOM     34  C   UNL A   1      36.765  32.827  30.462  1.00  0.00    -0.014 A 
BRANCH  34  35
ATOM     35  C   UNL A   1      37.935  32.275  31.187  1.00  0.00     0.031 A 
ATOM     36  C   UNL A   1      38.726  31.156  30.576  1.00  0.00     0.074 A 
ATOM     37  C   UNL A   1      38.207  32.709  32.433  1.00  0.00     0.049 A 
ATOM     38  N   UNL A   1      39.674  30.426  31.102  1.00  0.00    -0.248 NA
ATOM     39  C   UNL A   1      38.369  30.783  29.199  1.00  0.00     0.031 C 
ATOM     40  C   UNL A   1      37.471  33.758  33.146  1.00  0.00     0.029 A 
ATOM     41  N   UNL A   1      39.163  32.310  33.332  1.00  0.00    -0.354 N 
ATOM     42  C   UNL A   1      40.007  29.487  30.134  1.00  0.00     0.074 A 
ATOM     43  C   UNL A   1      39.123  29.712  29.009  1.00  0.00     0.031 C 
ATOM     44  C   UNL A   1      38.012  33.927  34.363  1.00  0.00     0.029 A 
ATOM     45  C   UNL A   1      39.102  32.973  34.535  1.00  0.00     0.049 A 
ATOM     46  H   UNL A   1      39.831  31.614  33.133  1.00  0.00     0.167 HD
ATOM     47  C   UNL A   1      40.972  28.535  30.175  1.00  0.00     0.034 A 
ATOM     48  C   UNL A   1      39.832  32.815  35.656  1.00  0.00     0.034 A 
ATOM     49  C   UNL A   1      41.857  28.345  31.298  1.00  0.00     0.049 A 
ATOM     50  C   UNL A   1      40.916  31.770  35.672  1.00  0.00     0.074 A 
ATOM     51  C   UNL A   1      42.902  27.448  31.436  1.00  0.00     0.029 A 
ATOM     52  N   UNL A   1      41.798  29.072  32.482  1.00  0.00    -0.354 N 
ATOM     53  N   UNL A   1      41.241  30.908  34.736  1.00  0.00    -0.248 NA
ATOM     54  C   UNL A   1      41.733  31.680  36.889  1.00  0.00     0.031 C 
ATOM     55  C   UNL A   1      43.447  27.605  32.716  1.00  0.00     0.029 A 
ATOM     56  C   UNL A   1      42.778  28.634  33.358  1.00  0.00     0.049 A 
ATOM     57  H   UNL A   1      41.154  29.791  32.670  1.00  0.00     0.167 HD
ATOM     58  C   UNL A   1      42.319  30.191  35.243  1.00  0.00     0.074 A 
ATOM     59  C   UNL A   1      42.592  30.726  36.562  1.00  0.00     0.031 C 
ATOM     60  C   UNL A   1      43.026  29.184  34.669  1.00  0.00     0.034 A 
BRANCH  47  61
ATOM     61  C   UNL A   1      41.085  27.621  28.980  1.00  0.00     0.023 A 
ATOM     62  C   UNL A   1      42.086  27.800  28.010  1.00  0.00     0.031 A 
ATOM     63  C   UNL A   1      40.142  26.600  28.772  1.00  0.00     0.131 A 
ATOM     64  C   UNL A   1      42.066  27.036  26.833  1.00  0.00     0.055 A 
ATOM     65  C   UNL A   1      40.179  25.784  27.638  1.00  0.00     0.041 A 
ATOM     66  F   UNL A   1      39.151  26.394  29.653  1.00  0.00    -0.206 F 
ATOM     67  C   UNL A   1      41.134  26.013  26.651  1.00  0.00     0.022 A 
BRANCH  64  68
ATOM     68  S   UNL A   1      43.175  27.509  25.478  1.00  0.00     0.124 S 
ATOM     69  O   UNL A   1      43.683  26.209  25.048  1.00  0.00    -0.237 OA
ATOM     70  O   UNL A   1      42.273  28.183  24.551  1.00  0.00    -0.237 OA
ATOM     71  O   UNL A   1      44.160  28.371  26.127  1.00  0.00    -0.744 OA
ENDBRANCH  64  68
ENDBRANCH  47  61
BRANCH  48  72
ATOM     72  C   UNL A   1      39.562  33.655  36.856  1.00  0.00     0.023 A 
ATOM     73  C   UNL A   1      38.891  33.126  37.969  1.00  0.00     0.031 A 
ATOM     74  C   UNL A   1      39.954  35.004  36.898  1.00  0.00     0.131 A 
ATOM     75  C   UNL A   1      38.596  33.951  39.065  1.00  0.00     0.055 A 
ATOM     76  C   UNL A   1      39.692  35.812  38.006  1.00  0.00     0.041 A 
ATOM     77  F   UNL A   1      40.610  35.553  35.864  1.00  0.00    -0.206 F 
ATOM     78  C   UNL A   1      39.000  35.289  39.094  1.00  0.00     0.022 A 
BRANCH  75  79
ATOM     79  S   UNL A   1      37.619  33.266  40.430  1.00  0.00     0.124 S 
ATOM     80  O   UNL A   1      38.495  32.210  40.925  1.00  0.00    -0.237 OA
ATOM     81  O   UNL A   1      37.458  34.427  41.299  1.00  0.00    -0.237 OA
ATOM     82  O   UNL A   1      36.395  32.807  39.775  1.00  0.00    -0.744 OA
ENDBRANCH  75  79
ENDBRANCH  48  72
BRANCH  60  83
ATOM     83  C   UNL A   1      44.188  28.640  35.454  1.00  0.00     0.023 A 
ATOM     84  C   UNL A   1      44.026  27.594  36.379  1.00  0.00     0.031 A 
ATOM     85  C   UNL A   1      45.471  29.183  35.275  1.00  0.00     0.131 A 
ATOM     86  C   UNL A   1      45.129  27.149  37.123  1.00  0.00     0.055 A 
ATOM     87  C   UNL A   1      46.572  28.706  35.986  1.00  0.00     0.041 A 
ATOM     88  F   UNL A   1      45.673  30.184  34.404  1.00  0.00    -0.206 F 
ATOM     89  C   UNL A   1      46.403  27.689  36.923  1.00  0.00     0.022 A 
BRANCH  86  90
ATOM     90  S   UNL A   1      44.867  25.888  38.399  1.00  0.00     0.124 S 
ATOM     91  O   UNL A   1      46.234  25.565  38.793  1.00  0.00    -0.237 OA
ATOM     92  O   UNL A   1      44.070  26.604  39.389  1.00  0.00    -0.237 OA
ATOM     93  O   UNL A   1      44.159  24.824  37.689  1.00  0.00    -0.744 OA
ENDBRANCH  86  90
ENDBRANCH  60  83
ENDBRANCH  34  35
ENDBRANCH  26  29
ENDBRANCH  24  25
ENDBRANCH   1  24
TORSDOF 16
ENDMDL
