MODEL 1
REMARK VINA RESULT:     -12.2      0.000      0.000
REMARK SMILES O=C(NCCCCNC(=O)C1(C/C=C/c2ccccc2)CCCCC1)c1ccc(-c2c3nc(c(-c4cc(S(=O)(=O)[O-])ccc4F)c4ccc([nH]4)c(-c4cc(S(=O)(=O)[O-])ccc4F)c4nc(c(-c5cc(S(=O)(=O)[O-])ccc5F)c5ccc2[nH]5)C=C4)C=C3)cc1
REMARK SMILES IDX 5 1 4 2 3 3 1 4 2 5 26 7 27 8 88 9 28 10 87 11 29 12 30 13
REMARK SMILES IDX 31 14 81 15 32 16 86 17 80 18 82 19 33 20 85 21 79 22 78 23
REMARK SMILES IDX 34 25 66 26 46 27 65 28 47 29 50 30 64 31 83 32 48 33 49 34
REMARK SMILES IDX 63 36 84 37 51 38 35 39 36 40 44 41 37 42 43 43 45 44 42 45
REMARK SMILES IDX 38 46 39 47 40 48 41 49 67 50 68 51 76 52 69 53 75 54 77 55
REMARK SMILES IDX 74 56 70 57 71 58 72 59 73 60 52 61 53 62 61 63 54 64 60 65
REMARK SMILES IDX 62 66 59 67 55 68 56 69 57 70 58 71 6 72 7 73 8 74 9 75
REMARK SMILES IDX 10 77 11 78 21 79 25 80 22 81 24 82 23 83 12 84 13 85 14 86
REMARK SMILES IDX 15 87 16 88 20 89 17 90 19 91 18 92
REMARK H PARENT 3 6 82 24 50 35 8 76
REMARK Flexibility Score: inf
ROOT
ATOM      1  C   UNL A   1      32.149  31.014  26.708  1.00  0.00     0.023 C 
ENDROOT
BRANCH   1   2
ATOM      2  C   UNL A   1      33.192  31.928  27.329  1.00  0.00     0.116 C 
BRANCH   2   3
ATOM      3  N   UNL A   1      32.721  33.287  27.587  1.00  0.00    -0.352 N 
ATOM      4  O   UNL A   1      32.648  35.298  28.623  1.00  0.00    -0.269 OA
ATOM      5  C   UNL A   1      33.195  34.207  28.491  1.00  0.00     0.251 C 
ATOM      6  H   UNL A   1      31.961  33.586  27.038  1.00  0.00     0.163 HD
BRANCH   5   7
ATOM      7  C   UNL A   1      34.341  33.831  29.339  1.00  0.00     0.039 A 
ATOM      8  C   UNL A   1      35.627  34.255  29.002  1.00  0.00     0.014 A 
ATOM      9  C   UNL A   1      34.132  32.960  30.410  1.00  0.00     0.014 A 
ATOM     10  C   UNL A   1      36.719  33.662  29.614  1.00  0.00     0.010 A 
ATOM     11  C   UNL A   1      35.232  32.448  31.096  1.00  0.00     0.010 A 
ATOM     12  C   UNL A   1      36.534  32.760  30.673  1.00  0.00    -0.014 A 
BRANCH  12  13
ATOM     13  C   UNL A   1      37.717  32.178  31.348  1.00  0.00     0.031 A 
ATOM     14  C   UNL A   1      38.514  31.085  30.697  1.00  0.00     0.074 A 
ATOM     15  C   UNL A   1      38.065  32.661  32.555  1.00  0.00     0.049 A 
ATOM     16  N   UNL A   1      39.521  30.401  31.175  1.00  0.00    -0.248 NA
ATOM     17  C   UNL A   1      38.117  30.700  29.335  1.00  0.00     0.031 C 
ATOM     18  C   UNL A   1      37.363  33.735  33.265  1.00  0.00     0.029 A 
ATOM     19  N   UNL A   1      39.092  32.324  33.393  1.00  0.00    -0.354 N 
ATOM     20  C   UNL A   1      39.861  29.481  30.189  1.00  0.00     0.074 A 
ATOM     21  C   UNL A   1      38.933  29.683  29.094  1.00  0.00     0.031 C 
ATOM     22  C   UNL A   1      37.997  33.988  34.417  1.00  0.00     0.029 A 
ATOM     23  C   UNL A   1      39.094  33.040  34.566  1.00  0.00     0.049 A 
ATOM     24  H   UNL A   1      39.764  31.637  33.178  1.00  0.00     0.167 HD
ATOM     25  C   UNL A   1      40.855  28.557  30.203  1.00  0.00     0.034 A 
ATOM     26  C   UNL A   1      39.861  32.919  35.664  1.00  0.00     0.034 A 
ATOM     27  C   UNL A   1      41.767  28.389  31.311  1.00  0.00     0.049 A 
ATOM     28  C   UNL A   1      40.931  31.866  35.676  1.00  0.00     0.074 A 
ATOM     29  C   UNL A   1      42.827  27.506  31.435  1.00  0.00     0.029 A 
ATOM     30  N   UNL A   1      41.724  29.119  32.495  1.00  0.00    -0.354 N 
ATOM     31  N   UNL A   1      41.232  30.990  34.745  1.00  0.00    -0.248 NA
ATOM     32  C   UNL A   1      41.761  31.785  36.880  1.00  0.00     0.031 C 
ATOM     33  C   UNL A   1      43.380  27.658  32.712  1.00  0.00     0.029 A 
ATOM     34  C   UNL A   1      42.717  28.687  33.361  1.00  0.00     0.049 A 
ATOM     35  H   UNL A   1      41.081  29.839  32.690  1.00  0.00     0.167 HD
ATOM     36  C   UNL A   1      42.301  30.260  35.247  1.00  0.00     0.074 A 
ATOM     37  C   UNL A   1      42.597  30.807  36.558  1.00  0.00     0.031 C 
ATOM     38  C   UNL A   1      42.982  29.236  34.673  1.00  0.00     0.034 A 
BRANCH  25  39
ATOM     39  C   UNL A   1      40.958  27.627  29.015  1.00  0.00     0.023 A 
ATOM     40  C   UNL A   1      41.947  27.785  28.028  1.00  0.00     0.031 A 
ATOM     41  C   UNL A   1      40.020  26.593  28.842  1.00  0.00     0.131 A 
ATOM     42  C   UNL A   1      41.923  26.982  26.876  1.00  0.00     0.055 A 
ATOM     43  C   UNL A   1      40.053  25.742  27.735  1.00  0.00     0.041 A 
ATOM     44  F   UNL A   1      39.039  26.403  29.739  1.00  0.00    -0.206 F 
ATOM     45  C   UNL A   1      40.997  25.946  26.733  1.00  0.00     0.022 A 
BRANCH  42  46
ATOM     46  S   UNL A   1      43.012  27.419  25.492  1.00  0.00     0.124 S 
ATOM     47  O   UNL A   1      43.232  26.116  24.865  1.00  0.00    -0.237 OA
ATOM     48  O   UNL A   1      42.197  28.361  24.736  1.00  0.00    -0.237 OA
ATOM     49  O   UNL A   1      44.187  27.991  26.146  1.00  0.00    -0.744 OA
ENDBRANCH  42  46
ENDBRANCH  25  39
BRANCH  26  50
ATOM     50  C   UNL A   1      39.593  33.786  36.841  1.00  0.00     0.023 A 
ATOM     51  C   UNL A   1      38.947  33.286  37.981  1.00  0.00     0.031 A 
ATOM     52  C   UNL A   1      40.028  35.124  36.857  1.00  0.00     0.131 A 
ATOM     53  C   UNL A   1      38.743  34.125  39.087  1.00  0.00     0.055 A 
ATOM     54  C   UNL A   1      39.862  35.941  37.975  1.00  0.00     0.041 A 
ATOM     55  F   UNL A   1      40.666  35.642  35.796  1.00  0.00    -0.206 F 
ATOM     56  C   UNL A   1      39.210  35.442  39.098  1.00  0.00     0.022 A 
BRANCH  53  57
ATOM     57  S   UNL A   1      37.830  33.475  40.512  1.00  0.00     0.124 S 
ATOM     58  O   UNL A   1      38.770  32.495  41.046  1.00  0.00    -0.237 OA
ATOM     59  O   UNL A   1      37.627  34.675  41.317  1.00  0.00    -0.237 OA
ATOM     60  O   UNL A   1      36.619  32.916  39.914  1.00  0.00    -0.744 OA
ENDBRANCH  53  57
ENDBRANCH  26  50
BRANCH  38  61
ATOM     61  C   UNL A   1      44.143  28.678  35.452  1.00  0.00     0.023 A 
ATOM     62  C   UNL A   1      43.975  27.645  36.390  1.00  0.00     0.031 A 
ATOM     63  C   UNL A   1      45.434  29.198  35.257  1.00  0.00     0.131 A 
ATOM     64  C   UNL A   1      45.077  27.194  37.131  1.00  0.00     0.055 A 
ATOM     65  C   UNL A   1      46.534  28.711  35.961  1.00  0.00     0.041 A 
ATOM     66  F   UNL A   1      45.644  30.189  34.374  1.00  0.00    -0.206 F 
ATOM     67  C   UNL A   1      46.358  27.710  36.912  1.00  0.00     0.022 A 
BRANCH  64  68
ATOM     68  S   UNL A   1      44.806  25.968  38.439  1.00  0.00     0.124 S 
ATOM     69  O   UNL A   1      46.171  25.608  38.806  1.00  0.00    -0.237 OA
ATOM     70  O   UNL A   1      44.058  26.731  39.434  1.00  0.00    -0.237 OA
ATOM     71  O   UNL A   1      44.045  24.914  37.768  1.00  0.00    -0.744 OA
ENDBRANCH  64  68
ENDBRANCH  38  61
ENDBRANCH  12  13
ENDBRANCH   5   7
ENDBRANCH   2   3
ENDBRANCH   1   2
BRANCH   1  72
ATOM     72  C   UNL A   1      32.390  29.538  26.972  1.00  0.00     0.023 C 
BRANCH  72  73
ATOM     73  C   UNL A   1      33.663  28.927  26.403  1.00  0.00     0.116 C 
BRANCH  73  74
ATOM     74  N   UNL A   1      33.730  29.166  24.981  1.00  0.00    -0.356 N 
ATOM     75  C   UNL A   1      33.743  28.329  23.917  1.00  0.00     0.226 C 
ATOM     76  H   UNL A   1      33.776  30.118  24.739  1.00  0.00     0.163 HD
ATOM     77  O   UNL A   1      34.210  28.850  22.893  1.00  0.00    -0.274 OA
BRANCH  75  78
ATOM     78  C   UNL A   1      33.071  26.917  23.826  1.00  0.00     0.053 C 
ATOM     79  C   UNL A   1      33.161  26.546  22.314  1.00  0.00     0.017 C 
ATOM     80  C   UNL A   1      34.007  25.941  24.615  1.00  0.00     0.017 C 
ATOM     81  C   UNL A   1      32.955  25.059  22.014  1.00  0.00     0.001 C 
ATOM     82  C   UNL A   1      33.741  24.464  24.344  1.00  0.00     0.001 C 
ATOM     83  C   UNL A   1      33.855  24.162  22.857  1.00  0.00     0.000 C 
BRANCH  78  84
ATOM     84  C   UNL A   1      31.593  26.715  24.292  1.00  0.00     0.044 C 
BRANCH  84  85
ATOM     85  C   UNL A   1      30.658  27.891  24.166  1.00  0.00    -0.025 C 
ATOM     86  C   UNL A   1      30.180  28.328  22.985  1.00  0.00     0.004 C 
BRANCH  86  87
ATOM     87  C   UNL A   1      29.613  29.678  22.755  1.00  0.00    -0.026 A 
ATOM     88  C   UNL A   1      29.605  30.584  23.829  1.00  0.00     0.008 A 
ATOM     89  C   UNL A   1      28.915  30.032  21.591  1.00  0.00     0.008 A 
ATOM     90  C   UNL A   1      28.874  31.774  23.761  1.00  0.00     0.001 A 
ATOM     91  C   UNL A   1      28.182  31.222  21.525  1.00  0.00     0.001 A 
ATOM     92  C   UNL A   1      28.152  32.086  22.614  1.00  0.00     0.000 A 
ENDBRANCH  86  87
ENDBRANCH  84  85
ENDBRANCH  78  84
ENDBRANCH  75  78
ENDBRANCH  73  74
ENDBRANCH  72  73
ENDBRANCH   1  72
TORSDOF 17
ENDMDL
MODEL 2
REMARK VINA RESULT:     -12.0      6.217     12.229
REMARK SMILES O=C(NCCCCNC(=O)C1(C/C=C/c2ccccc2)CCCCC1)c1ccc(-c2c3nc(c(-c4cc(S(=O)(=O)[O-])ccc4F)c4ccc([nH]4)c(-c4cc(S(=O)(=O)[O-])ccc4F)c4nc(c(-c5cc(S(=O)(=O)[O-])ccc5F)c5ccc2[nH]5)C=C4)C=C3)cc1
REMARK SMILES IDX 5 1 4 2 3 3 1 4 2 5 26 7 27 8 88 9 28 10 87 11 29 12 30 13
REMARK SMILES IDX 31 14 81 15 32 16 86 17 80 18 82 19 33 20 85 21 79 22 78 23
REMARK SMILES IDX 34 25 66 26 46 27 65 28 47 29 50 30 64 31 83 32 48 33 49 34
REMARK SMILES IDX 63 36 84 37 51 38 35 39 36 40 44 41 37 42 43 43 45 44 42 45
REMARK SMILES IDX 38 46 39 47 40 48 41 49 67 50 68 51 76 52 69 53 75 54 77 55
REMARK SMILES IDX 74 56 70 57 71 58 72 59 73 60 52 61 53 62 61 63 54 64 60 65
REMARK SMILES IDX 62 66 59 67 55 68 56 69 57 70 58 71 6 72 7 73 8 74 9 75
REMARK SMILES IDX 10 77 11 78 21 79 25 80 22 81 24 82 23 83 12 84 13 85 14 86
REMARK SMILES IDX 15 87 16 88 20 89 17 90 19 91 18 92
REMARK H PARENT 3 6 82 24 50 35 8 76
REMARK Flexibility Score: inf
ROOT
ATOM      1  C   UNL A   1      38.454  19.060  25.366  1.00  0.00     0.023 C 
ENDROOT
BRANCH   1   2
ATOM      2  C   UNL A   1      39.639  19.730  26.040  1.00  0.00     0.116 C 
BRANCH   2   3
ATOM      3  N   UNL A   1      40.882  18.965  25.965  1.00  0.00    -0.352 N 
ATOM      4  O   UNL A   1      43.121  18.632  25.993  1.00  0.00    -0.269 OA
ATOM      5  C   UNL A   1      42.174  19.398  26.145  1.00  0.00     0.251 C 
ATOM      6  H   UNL A   1      40.782  18.008  25.758  1.00  0.00     0.163 HD
BRANCH   5   7
ATOM      7  C   UNL A   1      42.399  20.818  26.468  1.00  0.00     0.039 A 
ATOM      8  C   UNL A   1      42.529  21.755  25.441  1.00  0.00     0.014 A 
ATOM      9  C   UNL A   1      42.588  21.186  27.801  1.00  0.00     0.014 A 
ATOM     10  C   UNL A   1      43.034  23.012  25.731  1.00  0.00     0.010 A 
ATOM     11  C   UNL A   1      42.992  22.487  28.099  1.00  0.00     0.010 A 
ATOM     12  C   UNL A   1      43.262  23.395  27.062  1.00  0.00    -0.014 A 
BRANCH  12  13
ATOM     13  C   UNL A   1      43.752  24.762  27.352  1.00  0.00     0.031 A 
ATOM     14  C   UNL A   1      42.825  25.816  27.884  1.00  0.00     0.074 A 
ATOM     15  C   UNL A   1      45.053  25.032  27.136  1.00  0.00     0.049 A 
ATOM     16  N   UNL A   1      43.059  27.081  28.112  1.00  0.00    -0.248 NA
ATOM     17  C   UNL A   1      41.450  25.393  28.187  1.00  0.00     0.031 C 
ATOM     18  C   UNL A   1      46.039  24.070  26.635  1.00  0.00     0.029 A 
ATOM     19  N   UNL A   1      45.772  26.183  27.314  1.00  0.00    -0.354 N 
ATOM     20  C   UNL A   1      41.855  27.620  28.554  1.00  0.00     0.074 A 
ATOM     21  C   UNL A   1      40.887  26.541  28.538  1.00  0.00     0.031 C 
ATOM     22  C   UNL A   1      47.239  24.662  26.574  1.00  0.00     0.029 A 
ATOM     23  C   UNL A   1      47.091  26.063  26.947  1.00  0.00     0.049 A 
ATOM     24  H   UNL A   1      45.383  27.014  27.670  1.00  0.00     0.167 HD
ATOM     25  C   UNL A   1      41.589  28.895  28.934  1.00  0.00     0.034 A 
ATOM     26  C   UNL A   1      48.065  26.986  26.873  1.00  0.00     0.034 A 
ATOM     27  C   UNL A   1      42.583  29.944  28.944  1.00  0.00     0.049 A 
ATOM     28  C   UNL A   1      47.743  28.399  27.261  1.00  0.00     0.074 A 
ATOM     29  C   UNL A   1      42.442  31.267  29.329  1.00  0.00     0.029 A 
ATOM     30  N   UNL A   1      43.906  29.791  28.543  1.00  0.00    -0.354 N 
ATOM     31  N   UNL A   1      46.596  28.900  27.660  1.00  0.00    -0.248 NA
ATOM     32  C   UNL A   1      48.839  29.369  27.190  1.00  0.00     0.031 C 
ATOM     33  C   UNL A   1      43.657  31.924  29.101  1.00  0.00     0.029 A 
ATOM     34  C   UNL A   1      44.582  30.998  28.644  1.00  0.00     0.049 A 
ATOM     35  H   UNL A   1      44.306  28.946  28.232  1.00  0.00     0.167 HD
ATOM     36  C   UNL A   1      46.837  30.246  27.904  1.00  0.00     0.074 A 
ATOM     37  C   UNL A   1      48.241  30.473  27.616  1.00  0.00     0.031 C 
ATOM     38  C   UNL A   1      45.979  31.205  28.334  1.00  0.00     0.034 A 
BRANCH  25  39
ATOM     39  C   UNL A   1      40.161  29.228  29.305  1.00  0.00     0.023 A 
ATOM     40  C   UNL A   1      39.741  29.317  30.644  1.00  0.00     0.031 A 
ATOM     41  C   UNL A   1      39.194  29.412  28.301  1.00  0.00     0.131 A 
ATOM     42  C   UNL A   1      38.379  29.496  30.941  1.00  0.00     0.055 A 
ATOM     43  C   UNL A   1      37.855  29.674  28.603  1.00  0.00     0.041 A 
ATOM     44  F   UNL A   1      39.528  29.319  27.004  1.00  0.00    -0.206 F 
ATOM     45  C   UNL A   1      37.437  29.698  29.930  1.00  0.00     0.022 A 
BRANCH  42  46
ATOM     46  S   UNL A   1      37.833  29.291  32.660  1.00  0.00     0.124 S 
ATOM     47  O   UNL A   1      36.536  29.967  32.641  1.00  0.00    -0.237 OA
ATOM     48  O   UNL A   1      37.795  27.842  32.808  1.00  0.00    -0.237 OA
ATOM     49  O   UNL A   1      38.868  29.973  33.433  1.00  0.00    -0.744 OA
ENDBRANCH  42  46
ENDBRANCH  25  39
BRANCH  26  50
ATOM     50  C   UNL A   1      49.404  26.594  26.360  1.00  0.00     0.023 A 
ATOM     51  C   UNL A   1      49.858  27.025  25.105  1.00  0.00     0.031 A 
ATOM     52  C   UNL A   1      50.272  25.816  27.149  1.00  0.00     0.131 A 
ATOM     53  C   UNL A   1      51.143  26.665  24.670  1.00  0.00     0.055 A 
ATOM     54  C   UNL A   1      51.563  25.497  26.731  1.00  0.00     0.041 A 
ATOM     55  F   UNL A   1      49.888  25.394  28.364  1.00  0.00    -0.206 F 
ATOM     56  C   UNL A   1      52.003  25.918  25.480  1.00  0.00     0.022 A 
BRANCH  53  57
ATOM     57  S   UNL A   1      51.668  27.166  23.009  1.00  0.00     0.124 S 
ATOM     58  O   UNL A   1      51.979  28.578  23.209  1.00  0.00    -0.237 OA
ATOM     59  O   UNL A   1      52.807  26.285  22.771  1.00  0.00    -0.237 OA
ATOM     60  O   UNL A   1      50.492  26.896  22.185  1.00  0.00    -0.744 OA
ENDBRANCH  53  57
ENDBRANCH  26  50
BRANCH  38  61
ATOM     61  C   UNL A   1      46.558  32.576  28.560  1.00  0.00     0.023 A 
ATOM     62  C   UNL A   1      46.651  33.519  27.522  1.00  0.00     0.031 A 
ATOM     63  C   UNL A   1      47.032  32.936  29.833  1.00  0.00     0.131 A 
ATOM     64  C   UNL A   1      47.248  34.765  27.767  1.00  0.00     0.055 A 
ATOM     65  C   UNL A   1      47.578  34.195  30.082  1.00  0.00     0.041 A 
ATOM     66  F   UNL A   1      46.967  32.068  30.856  1.00  0.00    -0.206 F 
ATOM     67  C   UNL A   1      47.698  35.114  29.044  1.00  0.00     0.022 A 
BRANCH  64  68
ATOM     68  S   UNL A   1      47.493  35.903  26.377  1.00  0.00     0.124 S 
ATOM     69  O   UNL A   1      46.129  36.345  26.103  1.00  0.00    -0.237 OA
ATOM     70  O   UNL A   1      48.387  36.906  26.946  1.00  0.00    -0.237 OA
ATOM     71  O   UNL A   1      48.089  35.057  25.343  1.00  0.00    -0.744 OA
ENDBRANCH  64  68
ENDBRANCH  38  61
ENDBRANCH  12  13
ENDBRANCH   5   7
ENDBRANCH   2   3
ENDBRANCH   1   2
BRANCH   1  72
ATOM     72  C   UNL A   1      37.348  20.024  24.970  1.00  0.00     0.023 C 
BRANCH  72  73
ATOM     73  C   UNL A   1      37.510  21.479  25.387  1.00  0.00     0.116 C 
BRANCH  73  74
ATOM     74  N   UNL A   1      37.392  22.338  24.233  1.00  0.00    -0.356 N 
ATOM     75  C   UNL A   1      36.319  22.870  23.600  1.00  0.00     0.226 C 
ATOM     76  H   UNL A   1      38.254  22.584  23.828  1.00  0.00     0.163 HD
ATOM     77  O   UNL A   1      36.563  23.212  22.433  1.00  0.00    -0.274 OA
BRANCH  75  78
ATOM     78  C   UNL A   1      34.944  23.250  24.245  1.00  0.00     0.053 C 
ATOM     79  C   UNL A   1      35.240  24.564  25.032  1.00  0.00     0.017 C 
ATOM     80  C   UNL A   1      33.992  23.609  23.055  1.00  0.00     0.017 C 
ATOM     81  C   UNL A   1      33.994  25.369  25.412  1.00  0.00     0.001 C 
ATOM     82  C   UNL A   1      32.729  24.356  23.469  1.00  0.00     0.001 C 
ATOM     83  C   UNL A   1      33.082  25.633  24.219  1.00  0.00     0.000 C 
BRANCH  78  84
ATOM     84  C   UNL A   1      34.222  22.255  25.211  1.00  0.00     0.044 C 
BRANCH  84  85
ATOM     85  C   UNL A   1      33.793  20.925  24.643  1.00  0.00    -0.025 C 
ATOM     86  C   UNL A   1      33.319  19.919  25.403  1.00  0.00     0.004 C 
BRANCH  86  87
ATOM     87  C   UNL A   1      33.272  18.499  24.983  1.00  0.00    -0.026 A 
ATOM     88  C   UNL A   1      32.517  17.604  25.761  1.00  0.00     0.008 A 
ATOM     89  C   UNL A   1      34.086  17.966  23.972  1.00  0.00     0.008 A 
ATOM     90  C   UNL A   1      32.622  16.222  25.573  1.00  0.00     0.001 A 
ATOM     91  C   UNL A   1      34.191  16.584  23.786  1.00  0.00     0.001 A 
ATOM     92  C   UNL A   1      33.469  15.713  24.595  1.00  0.00     0.000 A 
ENDBRANCH  86  87
ENDBRANCH  84  85
ENDBRANCH  78  84
ENDBRANCH  75  78
ENDBRANCH  73  74
ENDBRANCH  72  73
ENDBRANCH   1  72
TORSDOF 17
ENDMDL
MODEL 3
REMARK VINA RESULT:     -11.8      2.976      4.950
REMARK SMILES O=C(NCCCCNC(=O)C1(C/C=C/c2ccccc2)CCCCC1)c1ccc(-c2c3nc(c(-c4cc(S(=O)(=O)[O-])ccc4F)c4ccc([nH]4)c(-c4cc(S(=O)(=O)[O-])ccc4F)c4nc(c(-c5cc(S(=O)(=O)[O-])ccc5F)c5ccc2[nH]5)C=C4)C=C3)cc1
REMARK SMILES IDX 5 1 4 2 3 3 1 4 2 5 26 7 27 8 88 9 28 10 87 11 29 12 30 13
REMARK SMILES IDX 31 14 81 15 32 16 86 17 80 18 82 19 33 20 85 21 79 22 78 23
REMARK SMILES IDX 34 25 66 26 46 27 65 28 47 29 50 30 64 31 83 32 48 33 49 34
REMARK SMILES IDX 63 36 84 37 51 38 35 39 36 40 44 41 37 42 43 43 45 44 42 45
REMARK SMILES IDX 38 46 39 47 40 48 41 49 67 50 68 51 76 52 69 53 75 54 77 55
REMARK SMILES IDX 74 56 70 57 71 58 72 59 73 60 52 61 53 62 61 63 54 64 60 65
REMARK SMILES IDX 62 66 59 67 55 68 56 69 57 70 58 71 6 72 7 73 8 74 9 75
REMARK SMILES IDX 10 77 11 78 21 79 25 80 22 81 24 82 23 83 12 84 13 85 14 86
REMARK SMILES IDX 15 87 16 88 20 89 17 90 19 91 18 92
REMARK H PARENT 3 6 82 24 50 35 8 76
REMARK Flexibility Score: inf
ROOT
ATOM      1  C   UNL A   1      31.834  28.622  26.160  1.00  0.00     0.023 C 
ENDROOT
BRANCH   1   2
ATOM      2  C   UNL A   1      32.869  29.703  25.904  1.00  0.00     0.116 C 
BRANCH   2   3
ATOM      3  N   UNL A   1      32.496  31.022  26.412  1.00  0.00    -0.352 N 
ATOM      4  O   UNL A   1      32.716  32.918  27.628  1.00  0.00    -0.269 OA
ATOM      5  C   UNL A   1      33.198  31.855  27.249  1.00  0.00     0.251 C 
ATOM      6  H   UNL A   1      31.622  31.362  26.111  1.00  0.00     0.163 HD
BRANCH   5   7
ATOM      7  C   UNL A   1      34.521  31.414  27.729  1.00  0.00     0.039 A 
ATOM      8  C   UNL A   1      34.718  30.085  28.107  1.00  0.00     0.014 A 
ATOM      9  C   UNL A   1      35.528  32.364  27.902  1.00  0.00     0.014 A 
ATOM     10  C   UNL A   1      35.850  29.746  28.830  1.00  0.00     0.010 A 
ATOM     11  C   UNL A   1      36.714  31.994  28.535  1.00  0.00     0.010 A 
ATOM     12  C   UNL A   1      36.863  30.693  29.044  1.00  0.00    -0.014 A 
BRANCH  12  13
ATOM     13  C   UNL A   1      38.088  30.295  29.775  1.00  0.00     0.031 A 
ATOM     14  C   UNL A   1      39.086  29.361  29.155  1.00  0.00     0.074 A 
ATOM     15  C   UNL A   1      38.290  30.802  31.006  1.00  0.00     0.049 A 
ATOM     16  N   UNL A   1      40.164  28.840  29.678  1.00  0.00    -0.248 NA
ATOM     17  C   UNL A   1      38.830  28.948  27.767  1.00  0.00     0.031 C 
ATOM     18  C   UNL A   1      37.385  31.731  31.691  1.00  0.00     0.029 A 
ATOM     19  N   UNL A   1      39.312  30.617  31.896  1.00  0.00    -0.354 N 
ATOM     20  C   UNL A   1      40.702  28.009  28.700  1.00  0.00     0.074 A 
ATOM     21  C   UNL A   1      39.812  28.083  27.558  1.00  0.00     0.031 C 
ATOM     22  C   UNL A   1      37.908  32.058  32.879  1.00  0.00     0.029 A 
ATOM     23  C   UNL A   1      39.136  31.297  33.077  1.00  0.00     0.049 A 
ATOM     24  H   UNL A   1      40.097  30.053  31.708  1.00  0.00     0.167 HD
ATOM     25  C   UNL A   1      41.831  27.259  28.756  1.00  0.00     0.034 A 
ATOM     26  C   UNL A   1      39.854  31.277  34.213  1.00  0.00     0.034 A 
ATOM     27  C   UNL A   1      42.699  27.217  29.911  1.00  0.00     0.049 A 
ATOM     28  C   UNL A   1      41.079  30.413  34.270  1.00  0.00     0.074 A 
ATOM     29  C   UNL A   1      43.881  26.514  30.081  1.00  0.00     0.029 A 
ATOM     30  N   UNL A   1      42.476  27.902  31.101  1.00  0.00    -0.354 N 
ATOM     31  N   UNL A   1      41.567  29.618  33.345  1.00  0.00    -0.248 NA
ATOM     32  C   UNL A   1      41.847  30.440  35.517  1.00  0.00     0.031 C 
ATOM     33  C   UNL A   1      44.334  26.725  31.389  1.00  0.00     0.029 A 
ATOM     34  C   UNL A   1      43.479  27.618  32.014  1.00  0.00     0.049 A 
ATOM     35  H   UNL A   1      41.714  28.504  31.269  1.00  0.00     0.167 HD
ATOM     36  C   UNL A   1      42.713  29.060  33.895  1.00  0.00     0.074 A 
ATOM     37  C   UNL A   1      42.847  29.617  35.228  1.00  0.00     0.031 C 
ATOM     38  C   UNL A   1      43.581  28.173  33.346  1.00  0.00     0.034 A 
BRANCH  25  39
ATOM     39  C   UNL A   1      42.147  26.385  27.564  1.00  0.00     0.023 A 
ATOM     40  C   UNL A   1      41.714  25.049  27.484  1.00  0.00     0.031 A 
ATOM     41  C   UNL A   1      42.935  26.882  26.510  1.00  0.00     0.131 A 
ATOM     42  C   UNL A   1      42.143  24.235  26.421  1.00  0.00     0.055 A 
ATOM     43  C   UNL A   1      43.288  26.092  25.414  1.00  0.00     0.041 A 
ATOM     44  F   UNL A   1      43.396  28.142  26.537  1.00  0.00    -0.206 F 
ATOM     45  C   UNL A   1      42.908  24.753  25.374  1.00  0.00     0.022 A 
BRANCH  42  46
ATOM     46  S   UNL A   1      41.828  22.450  26.515  1.00  0.00     0.124 S 
ATOM     47  O   UNL A   1      42.438  22.109  27.799  1.00  0.00    -0.237 OA
ATOM     48  O   UNL A   1      40.373  22.384  26.463  1.00  0.00    -0.237 OA
ATOM     49  O   UNL A   1      42.522  21.917  25.345  1.00  0.00    -0.744 OA
ENDBRANCH  42  46
ENDBRANCH  25  39
BRANCH  26  50
ATOM     50  C   UNL A   1      39.386  32.063  35.386  1.00  0.00     0.023 A 
ATOM     51  C   UNL A   1      39.837  33.371  35.611  1.00  0.00     0.031 A 
ATOM     52  C   UNL A   1      38.435  31.524  36.273  1.00  0.00     0.131 A 
ATOM     53  C   UNL A   1      39.345  34.095  36.709  1.00  0.00     0.055 A 
ATOM     54  C   UNL A   1      37.917  32.263  37.336  1.00  0.00     0.041 A 
ATOM     55  F   UNL A   1      37.962  30.282  36.087  1.00  0.00    -0.206 F 
ATOM     56  C   UNL A   1      38.378  33.556  37.562  1.00  0.00     0.022 A 
BRANCH  53  57
ATOM     57  S   UNL A   1      40.010  35.752  37.023  1.00  0.00     0.124 S 
ATOM     58  O   UNL A   1      41.429  35.472  37.212  1.00  0.00    -0.237 OA
ATOM     59  O   UNL A   1      39.651  36.461  35.800  1.00  0.00    -0.237 OA
ATOM     60  O   UNL A   1      39.294  36.183  38.223  1.00  0.00    -0.744 OA
ENDBRANCH  53  57
ENDBRANCH  26  50
BRANCH  38  61
ATOM     61  C   UNL A   1      44.776  27.794  34.180  1.00  0.00     0.023 A 
ATOM     62  C   UNL A   1      44.758  26.674  35.030  1.00  0.00     0.031 A 
ATOM     63  C   UNL A   1      45.944  28.573  34.129  1.00  0.00     0.131 A 
ATOM     64  C   UNL A   1      45.875  26.390  35.829  1.00  0.00     0.055 A 
ATOM     65  C   UNL A   1      47.069  28.257  34.889  1.00  0.00     0.041 A 
ATOM     66  F   UNL A   1      46.008  29.655  33.336  1.00  0.00    -0.206 F 
ATOM     67  C   UNL A   1      47.036  27.166  35.753  1.00  0.00     0.022 A 
BRANCH  64  68
ATOM     68  S   UNL A   1      45.770  25.031  37.025  1.00  0.00     0.124 S 
ATOM     69  O   UNL A   1      44.528  24.375  36.628  1.00  0.00    -0.237 OA
ATOM     70  O   UNL A   1      46.997  24.286  36.762  1.00  0.00    -0.237 OA
ATOM     71  O   UNL A   1      45.725  25.715  38.317  1.00  0.00    -0.744 OA
ENDBRANCH  64  68
ENDBRANCH  38  61
ENDBRANCH  12  13
ENDBRANCH   5   7
ENDBRANCH   2   3
ENDBRANCH   1   2
BRANCH   1  72
ATOM     72  C   UNL A   1      31.544  27.751  24.949  1.00  0.00     0.023 C 
BRANCH  72  73
ATOM     73  C   UNL A   1      31.975  26.292  25.021  1.00  0.00     0.116 C 
BRANCH  73  74
ATOM     74  N   UNL A   1      32.502  25.872  23.745  1.00  0.00    -0.356 N 
ATOM     75  C   UNL A   1      33.567  25.106  23.408  1.00  0.00     0.226 C 
ATOM     76  H   UNL A   1      31.991  26.204  22.973  1.00  0.00     0.163 HD
ATOM     77  O   UNL A   1      33.948  25.290  22.242  1.00  0.00    -0.274 OA
BRANCH  75  78
ATOM     78  C   UNL A   1      34.186  23.939  24.248  1.00  0.00     0.053 C 
ATOM     79  C   UNL A   1      35.120  23.197  23.243  1.00  0.00     0.017 C 
ATOM     80  C   UNL A   1      35.090  24.617  25.331  1.00  0.00     0.017 C 
ATOM     81  C   UNL A   1      36.154  22.277  23.900  1.00  0.00     0.001 C 
ATOM     82  C   UNL A   1      36.068  23.666  26.013  1.00  0.00     0.001 C 
ATOM     83  C   UNL A   1      36.959  22.984  24.984  1.00  0.00     0.000 C 
BRANCH  78  84
ATOM     84  C   UNL A   1      33.261  22.879  24.929  1.00  0.00     0.044 C 
BRANCH  84  85
ATOM     85  C   UNL A   1      33.232  21.495  24.329  1.00  0.00    -0.025 C 
ATOM     86  C   UNL A   1      32.448  20.506  24.798  1.00  0.00     0.004 C 
BRANCH  86  87
ATOM     87  C   UNL A   1      32.664  19.064  24.534  1.00  0.00    -0.026 A 
ATOM     88  C   UNL A   1      32.849  18.210  25.635  1.00  0.00     0.008 A 
ATOM     89  C   UNL A   1      32.885  18.540  23.251  1.00  0.00     0.008 A 
ATOM     90  C   UNL A   1      33.298  16.897  25.460  1.00  0.00     0.001 A 
ATOM     91  C   UNL A   1      33.335  17.227  23.078  1.00  0.00     0.001 A 
ATOM     92  C   UNL A   1      33.554  16.411  24.183  1.00  0.00     0.000 A 
ENDBRANCH  86  87
ENDBRANCH  84  85
ENDBRANCH  78  84
ENDBRANCH  75  78
ENDBRANCH  73  74
ENDBRANCH  72  73
ENDBRANCH   1  72
TORSDOF 17
ENDMDL
