MODEL 1
REMARK VINA RESULT:     -12.8      0.000      0.000
REMARK SMILES O=C(NCCCCNC(=O)[C@@H]1CC=CC[C@@H]1C(=O)Nc1ccc(O)cc1)c1ccc(-c2c3nc(c(-c4cc(S(=O)(=O)[O-])ccc4F)c4ccc([nH]4)c(-c4cc(S(=O)(=O)[O-])ccc4F)c4nc(c(-c5cc(S(=O)(=O)[O-])ccc5F)c5ccc2[nH]5)C=C4)C=C3)cc1
REMARK SMILES IDX 5 1 4 2 3 3 1 4 2 5 27 7 28 8 89 9 29 10 88 11 30 12 31 13
REMARK SMILES IDX 32 14 82 15 33 16 87 17 81 18 83 19 34 20 86 21 80 22 79 23
REMARK SMILES IDX 35 25 67 26 47 27 66 28 48 29 51 30 65 31 84 32 49 33 50 34
REMARK SMILES IDX 64 36 85 37 52 38 36 39 37 40 45 41 38 42 44 43 46 44 43 45
REMARK SMILES IDX 39 46 40 47 41 48 42 49 68 50 69 51 77 52 70 53 76 54 78 55
REMARK SMILES IDX 75 56 71 57 72 58 73 59 74 60 53 61 54 62 62 63 55 64 61 65
REMARK SMILES IDX 63 66 60 67 56 68 57 69 58 70 59 71 6 72 7 73 8 74 9 75
REMARK SMILES IDX 10 77 11 78 12 79 16 80 13 81 15 82 14 83 17 84 18 85 19 86
REMARK SMILES IDX 20 88 21 89 26 90 22 91 25 92 23 93 24 94
REMARK H PARENT 3 6 83 24 51 35 8 76 19 87 24 95
REMARK Flexibility Score: inf
ROOT
ATOM      1  C   UNL A   1      31.810  32.077  26.690  1.00  0.00     0.023 C 
ENDROOT
BRANCH   1   2
ATOM      2  C   UNL A   1      32.910  32.847  27.408  1.00  0.00     0.116 C 
BRANCH   2   3
ATOM      3  N   UNL A   1      32.534  34.207  27.769  1.00  0.00    -0.352 N 
ATOM      4  O   UNL A   1      32.625  36.098  29.003  1.00  0.00    -0.269 OA
ATOM      5  C   UNL A   1      33.091  35.002  28.746  1.00  0.00     0.251 C 
ATOM      6  H   UNL A   1      31.795  34.603  27.255  1.00  0.00     0.163 HD
BRANCH   5   7
ATOM      7  C   UNL A   1      34.240  34.468  29.505  1.00  0.00     0.039 A 
ATOM      8  C   UNL A   1      35.532  34.563  28.985  1.00  0.00     0.014 A 
ATOM      9  C   UNL A   1      34.003  33.812  30.716  1.00  0.00     0.014 A 
ATOM     10  C   UNL A   1      36.573  33.890  29.610  1.00  0.00     0.010 A 
ATOM     11  C   UNL A   1      35.065  33.198  31.380  1.00  0.00     0.010 A 
ATOM     12  C   UNL A   1      36.351  33.207  30.817  1.00  0.00    -0.014 A 
BRANCH  12  13
ATOM     13  C   UNL A   1      37.493  32.554  31.500  1.00  0.00     0.031 A 
ATOM     14  C   UNL A   1      38.248  31.434  30.845  1.00  0.00     0.074 A 
ATOM     15  C   UNL A   1      37.848  33.004  32.718  1.00  0.00     0.049 A 
ATOM     16  N   UNL A   1      39.258  30.742  31.305  1.00  0.00    -0.248 NA
ATOM     17  C   UNL A   1      37.804  31.031  29.503  1.00  0.00     0.031 C 
ATOM     18  C   UNL A   1      37.173  34.084  33.444  1.00  0.00     0.029 A 
ATOM     19  N   UNL A   1      38.862  32.623  33.557  1.00  0.00    -0.354 N 
ATOM     20  C   UNL A   1      39.562  29.807  30.321  1.00  0.00     0.074 A 
ATOM     21  C   UNL A   1      38.608  30.008  29.249  1.00  0.00     0.031 C 
ATOM     22  C   UNL A   1      37.810  34.300  34.604  1.00  0.00     0.029 A 
ATOM     23  C   UNL A   1      38.895  33.333  34.733  1.00  0.00     0.049 A 
ATOM     24  H   UNL A   1      39.504  31.909  33.339  1.00  0.00     0.167 HD
ATOM     25  C   UNL A   1      40.547  28.875  30.317  1.00  0.00     0.034 A 
ATOM     26  C   UNL A   1      39.691  33.204  35.810  1.00  0.00     0.034 A 
ATOM     27  C   UNL A   1      41.489  28.699  31.399  1.00  0.00     0.049 A 
ATOM     28  C   UNL A   1      40.760  32.149  35.790  1.00  0.00     0.074 A 
ATOM     29  C   UNL A   1      42.549  27.815  31.487  1.00  0.00     0.029 A 
ATOM     30  N   UNL A   1      41.475  29.419  32.590  1.00  0.00    -0.354 N 
ATOM     31  N   UNL A   1      41.044  31.282  34.846  1.00  0.00    -0.248 NA
ATOM     32  C   UNL A   1      41.616  32.056  36.978  1.00  0.00     0.031 C 
ATOM     33  C   UNL A   1      43.138  27.957  32.751  1.00  0.00     0.029 A 
ATOM     34  C   UNL A   1      42.488  28.976  33.429  1.00  0.00     0.049 A 
ATOM     35  H   UNL A   1      40.839  30.137  32.806  1.00  0.00     0.167 HD
ATOM     36  C   UNL A   1      42.119  30.542  35.324  1.00  0.00     0.074 A 
ATOM     37  C   UNL A   1      42.446  31.084  36.629  1.00  0.00     0.031 C 
ATOM     38  C   UNL A   1      42.776  29.508  34.740  1.00  0.00     0.034 A 
BRANCH  25  39
ATOM     39  C   UNL A   1      40.620  27.942  29.131  1.00  0.00     0.023 A 
ATOM     40  C   UNL A   1      41.552  28.126  28.095  1.00  0.00     0.031 A 
ATOM     41  C   UNL A   1      39.723  26.864  29.023  1.00  0.00     0.131 A 
ATOM     42  C   UNL A   1      41.524  27.288  26.969  1.00  0.00     0.055 A 
ATOM     43  C   UNL A   1      39.747  25.989  27.935  1.00  0.00     0.041 A 
ATOM     44  F   UNL A   1      38.797  26.649  29.971  1.00  0.00    -0.206 F 
ATOM     45  C   UNL A   1      40.642  26.207  26.892  1.00  0.00     0.022 A 
BRANCH  42  46
ATOM     46  S   UNL A   1      42.566  27.710  25.544  1.00  0.00     0.124 S 
ATOM     47  O   UNL A   1      41.902  28.909  25.037  1.00  0.00    -0.237 OA
ATOM     48  O   UNL A   1      43.872  27.914  26.158  1.00  0.00    -0.237 OA
ATOM     49  O   UNL A   1      42.458  26.536  24.680  1.00  0.00    -0.744 OA
ENDBRANCH  42  46
ENDBRANCH  25  39
BRANCH  26  50
ATOM     50  C   UNL A   1      39.473  34.069  37.000  1.00  0.00     0.023 A 
ATOM     51  C   UNL A   1      38.884  33.566  38.169  1.00  0.00     0.031 A 
ATOM     52  C   UNL A   1      39.863  35.422  36.982  1.00  0.00     0.131 A 
ATOM     53  C   UNL A   1      38.678  34.416  39.266  1.00  0.00     0.055 A 
ATOM     54  C   UNL A   1      39.698  36.250  38.092  1.00  0.00     0.041 A 
ATOM     55  F   UNL A   1      40.440  35.947  35.891  1.00  0.00    -0.206 F 
ATOM     56  C   UNL A   1      39.093  35.750  39.241  1.00  0.00     0.022 A 
BRANCH  53  57
ATOM     57  S   UNL A   1      37.808  33.765  40.717  1.00  0.00     0.124 S 
ATOM     58  O   UNL A   1      38.805  32.862  41.284  1.00  0.00    -0.237 OA
ATOM     59  O   UNL A   1      37.537  34.980  41.479  1.00  0.00    -0.237 OA
ATOM     60  O   UNL A   1      36.631  33.114  40.146  1.00  0.00    -0.744 OA
ENDBRANCH  53  57
ENDBRANCH  26  50
BRANCH  38  61
ATOM     61  C   UNL A   1      43.927  28.922  35.516  1.00  0.00     0.023 A 
ATOM     62  C   UNL A   1      43.752  27.807  36.355  1.00  0.00     0.031 A 
ATOM     63  C   UNL A   1      45.202  29.509  35.445  1.00  0.00     0.131 A 
ATOM     64  C   UNL A   1      44.823  27.348  37.135  1.00  0.00     0.055 A 
ATOM     65  C   UNL A   1      46.278  29.013  36.182  1.00  0.00     0.041 A 
ATOM     66  F   UNL A   1      45.420  30.577  34.662  1.00  0.00    -0.206 F 
ATOM     67  C   UNL A   1      46.089  27.936  37.044  1.00  0.00     0.022 A 
BRANCH  64  68
ATOM     68  S   UNL A   1      44.519  26.029  38.341  1.00  0.00     0.124 S 
ATOM     69  O   UNL A   1      44.180  26.787  39.541  1.00  0.00    -0.237 OA
ATOM     70  O   UNL A   1      43.424  25.287  37.724  1.00  0.00    -0.237 OA
ATOM     71  O   UNL A   1      45.794  25.316  38.399  1.00  0.00    -0.744 OA
ENDBRANCH  64  68
ENDBRANCH  38  61
ENDBRANCH  12  13
ENDBRANCH   5   7
ENDBRANCH   2   3
ENDBRANCH   1   2
BRANCH   1  72
ATOM     72  C   UNL A   1      31.876  30.558  26.852  1.00  0.00     0.023 C 
BRANCH  72  73
ATOM     73  C   UNL A   1      33.289  29.973  26.857  1.00  0.00     0.116 C 
BRANCH  73  74
ATOM     74  N   UNL A   1      33.631  29.382  25.582  1.00  0.00    -0.356 N 
ATOM     75  C   UNL A   1      33.506  28.132  25.082  1.00  0.00     0.224 C 
ATOM     76  H   UNL A   1      34.037  30.019  24.949  1.00  0.00     0.163 HD
ATOM     77  O   UNL A   1      34.010  27.953  23.963  1.00  0.00    -0.275 OA
BRANCH  75  78
ATOM     78  C   UNL A   1      32.730  26.974  25.730  1.00  0.00     0.095 C 
ATOM     79  C   UNL A   1      33.322  25.565  25.799  1.00  0.00     0.041 C 
ATOM     80  C   UNL A   1      31.291  26.977  25.144  1.00  0.00     0.095 C 
ATOM     81  C   UNL A   1      32.347  24.507  26.229  1.00  0.00    -0.030 C 
ATOM     82  C   UNL A   1      30.366  25.977  25.861  1.00  0.00     0.041 C 
ATOM     83  C   UNL A   1      31.025  24.697  26.272  1.00  0.00    -0.030 C 
BRANCH  80  84
ATOM     84  C   UNL A   1      31.287  26.721  23.632  1.00  0.00     0.228 C 
ATOM     85  O   UNL A   1      31.966  25.826  23.124  1.00  0.00    -0.274 OA
ATOM     86  N   UNL A   1      30.415  27.378  22.807  1.00  0.00    -0.326 N 
ATOM     87  H   UNL A   1      30.338  26.988  21.907  1.00  0.00     0.169 HD
BRANCH  86  88
ATOM     88  C   UNL A   1      29.612  28.505  23.018  1.00  0.00     0.041 A 
ATOM     89  C   UNL A   1      30.124  29.772  23.304  1.00  0.00     0.030 A 
ATOM     90  C   UNL A   1      28.230  28.341  22.884  1.00  0.00     0.030 A 
ATOM     91  C   UNL A   1      29.264  30.842  23.558  1.00  0.00     0.048 A 
ATOM     92  C   UNL A   1      27.367  29.405  23.147  1.00  0.00     0.048 A 
ATOM     93  C   UNL A   1      27.890  30.643  23.499  1.00  0.00     0.115 A 
BRANCH  93  94
ATOM     94  O   UNL A   1      27.016  31.652  23.772  1.00  0.00    -0.508 OA
ATOM     95  H   UNL A   1      26.946  32.383  23.190  1.00  0.00     0.293 HD
ENDBRANCH  93  94
ENDBRANCH  86  88
ENDBRANCH  80  84
ENDBRANCH  75  78
ENDBRANCH  73  74
ENDBRANCH  72  73
ENDBRANCH   1  72
TORSDOF 17
ENDMDL
MODEL 2
REMARK VINA RESULT:     -12.8      6.392     12.277
REMARK SMILES O=C(NCCCCNC(=O)[C@@H]1CC=CC[C@@H]1C(=O)Nc1ccc(O)cc1)c1ccc(-c2c3nc(c(-c4cc(S(=O)(=O)[O-])ccc4F)c4ccc([nH]4)c(-c4cc(S(=O)(=O)[O-])ccc4F)c4nc(c(-c5cc(S(=O)(=O)[O-])ccc5F)c5ccc2[nH]5)C=C4)C=C3)cc1
REMARK SMILES IDX 5 1 4 2 3 3 1 4 2 5 27 7 28 8 89 9 29 10 88 11 30 12 31 13
REMARK SMILES IDX 32 14 82 15 33 16 87 17 81 18 83 19 34 20 86 21 80 22 79 23
REMARK SMILES IDX 35 25 67 26 47 27 66 28 48 29 51 30 65 31 84 32 49 33 50 34
REMARK SMILES IDX 64 36 85 37 52 38 36 39 37 40 45 41 38 42 44 43 46 44 43 45
REMARK SMILES IDX 39 46 40 47 41 48 42 49 68 50 69 51 77 52 70 53 76 54 78 55
REMARK SMILES IDX 75 56 71 57 72 58 73 59 74 60 53 61 54 62 62 63 55 64 61 65
REMARK SMILES IDX 63 66 60 67 56 68 57 69 58 70 59 71 6 72 7 73 8 74 9 75
REMARK SMILES IDX 10 77 11 78 12 79 16 80 13 81 15 82 14 83 17 84 18 85 19 86
REMARK SMILES IDX 20 88 21 89 26 90 22 91 25 92 23 93 24 94
REMARK H PARENT 3 6 83 24 51 35 8 76 19 87 24 95
REMARK Flexibility Score: inf
ROOT
ATOM      1  C   UNL A   1      38.343  19.458  25.208  1.00  0.00     0.023 C 
ENDROOT
BRANCH   1   2
ATOM      2  C   UNL A   1      39.507  19.966  26.046  1.00  0.00     0.116 C 
BRANCH   2   3
ATOM      3  N   UNL A   1      40.668  19.086  26.032  1.00  0.00    -0.352 N 
ATOM      4  O   UNL A   1      42.875  18.607  26.076  1.00  0.00    -0.269 OA
ATOM      5  C   UNL A   1      41.990  19.435  26.191  1.00  0.00     0.251 C 
ATOM      6  H   UNL A   1      40.484  18.129  25.892  1.00  0.00     0.163 HD
BRANCH   5   7
ATOM      7  C   UNL A   1      42.307  20.853  26.459  1.00  0.00     0.039 A 
ATOM      8  C   UNL A   1      42.409  21.762  25.405  1.00  0.00     0.014 A 
ATOM      9  C   UNL A   1      42.568  21.249  27.774  1.00  0.00     0.014 A 
ATOM     10  C   UNL A   1      42.896  23.039  25.648  1.00  0.00     0.010 A 
ATOM     11  C   UNL A   1      42.987  22.556  28.024  1.00  0.00     0.010 A 
ATOM     12  C   UNL A   1      43.183  23.451  26.960  1.00  0.00    -0.014 A 
BRANCH  12  13
ATOM     13  C   UNL A   1      43.637  24.841  27.200  1.00  0.00     0.031 A 
ATOM     14  C   UNL A   1      42.700  25.876  27.755  1.00  0.00     0.074 A 
ATOM     15  C   UNL A   1      44.918  25.150  26.925  1.00  0.00     0.049 A 
ATOM     16  N   UNL A   1      42.926  27.138  28.010  1.00  0.00    -0.248 NA
ATOM     17  C   UNL A   1      41.328  25.439  28.050  1.00  0.00     0.031 C 
ATOM     18  C   UNL A   1      45.906  24.216  26.377  1.00  0.00     0.029 A 
ATOM     19  N   UNL A   1      45.613  26.320  27.074  1.00  0.00    -0.354 N 
ATOM     20  C   UNL A   1      41.723  27.656  28.478  1.00  0.00     0.074 A 
ATOM     21  C   UNL A   1      40.763  26.571  28.445  1.00  0.00     0.031 C 
ATOM     22  C   UNL A   1      47.087  24.841  26.266  1.00  0.00     0.029 A 
ATOM     23  C   UNL A   1      46.924  26.232  26.671  1.00  0.00     0.049 A 
ATOM     24  H   UNL A   1      45.212  27.144  27.434  1.00  0.00     0.167 HD
ATOM     25  C   UNL A   1      41.452  28.918  28.897  1.00  0.00     0.034 A 
ATOM     26  C   UNL A   1      47.884  27.173  26.608  1.00  0.00     0.034 A 
ATOM     27  C   UNL A   1      42.431  29.981  28.924  1.00  0.00     0.049 A 
ATOM     28  C   UNL A   1      47.552  28.568  27.057  1.00  0.00     0.074 A 
ATOM     29  C   UNL A   1      42.279  31.284  29.363  1.00  0.00     0.029 A 
ATOM     30  N   UNL A   1      43.744  29.864  28.481  1.00  0.00    -0.354 N 
ATOM     31  N   UNL A   1      46.413  29.038  27.511  1.00  0.00    -0.248 NA
ATOM     32  C   UNL A   1      48.634  29.557  26.988  1.00  0.00     0.031 C 
ATOM     33  C   UNL A   1      43.479  31.970  29.131  1.00  0.00     0.029 A 
ATOM     34  C   UNL A   1      44.402  31.079  28.608  1.00  0.00     0.049 A 
ATOM     35  H   UNL A   1      44.148  29.039  28.128  1.00  0.00     0.167 HD
ATOM     36  C   UNL A   1      46.644  30.380  27.788  1.00  0.00     0.074 A 
ATOM     37  C   UNL A   1      48.037  30.635  27.474  1.00  0.00     0.031 C 
ATOM     38  C   UNL A   1      45.783  31.319  28.258  1.00  0.00     0.034 A 
BRANCH  25  39
ATOM     39  C   UNL A   1      40.032  29.225  29.309  1.00  0.00     0.023 A 
ATOM     40  C   UNL A   1      39.641  29.275  30.658  1.00  0.00     0.031 A 
ATOM     41  C   UNL A   1      39.046  29.449  28.331  1.00  0.00     0.131 A 
ATOM     42  C   UNL A   1      38.292  29.476  30.991  1.00  0.00     0.055 A 
ATOM     43  C   UNL A   1      37.718  29.721  28.670  1.00  0.00     0.041 A 
ATOM     44  F   UNL A   1      39.353  29.396  27.026  1.00  0.00    -0.206 F 
ATOM     45  C   UNL A   1      37.331  29.721  30.007  1.00  0.00     0.022 A 
BRANCH  42  46
ATOM     46  S   UNL A   1      37.784  29.279  32.722  1.00  0.00     0.124 S 
ATOM     47  O   UNL A   1      36.502  29.979  32.736  1.00  0.00    -0.237 OA
ATOM     48  O   UNL A   1      37.721  27.830  32.869  1.00  0.00    -0.237 OA
ATOM     49  O   UNL A   1      38.853  29.938  33.471  1.00  0.00    -0.744 OA
ENDBRANCH  42  46
ENDBRANCH  25  39
BRANCH  26  50
ATOM     50  C   UNL A   1      49.224  26.829  26.063  1.00  0.00     0.023 A 
ATOM     51  C   UNL A   1      49.617  27.241  24.782  1.00  0.00     0.031 A 
ATOM     52  C   UNL A   1      50.138  26.082  26.830  1.00  0.00     0.131 A 
ATOM     53  C   UNL A   1      50.883  26.883  24.293  1.00  0.00     0.055 A 
ATOM     54  C   UNL A   1      51.412  25.767  26.357  1.00  0.00     0.041 A 
ATOM     55  F   UNL A   1      49.812  25.673  28.065  1.00  0.00    -0.206 F 
ATOM     56  C   UNL A   1      51.788  26.162  25.077  1.00  0.00     0.022 A 
BRANCH  53  57
ATOM     57  S   UNL A   1      51.315  27.331  22.590  1.00  0.00     0.124 S 
ATOM     58  O   UNL A   1      51.264  28.788  22.643  1.00  0.00    -0.237 OA
ATOM     59  O   UNL A   1      52.643  26.740  22.450  1.00  0.00    -0.237 OA
ATOM     60  O   UNL A   1      50.266  26.698  21.795  1.00  0.00    -0.744 OA
ENDBRANCH  53  57
ENDBRANCH  26  50
BRANCH  38  61
ATOM     61  C   UNL A   1      46.350  32.699  28.475  1.00  0.00     0.023 A 
ATOM     62  C   UNL A   1      46.535  33.590  27.404  1.00  0.00     0.031 A 
ATOM     63  C   UNL A   1      46.742  33.110  29.760  1.00  0.00     0.131 A 
ATOM     64  C   UNL A   1      47.153  34.829  27.628  1.00  0.00     0.055 A 
ATOM     65  C   UNL A   1      47.306  34.365  29.986  1.00  0.00     0.041 A 
ATOM     66  F   UNL A   1      46.590  32.294  30.815  1.00  0.00    -0.206 F 
ATOM     67  C   UNL A   1      47.527  35.228  28.915  1.00  0.00     0.022 A 
BRANCH  64  68
ATOM     68  S   UNL A   1      47.545  35.877  26.202  1.00  0.00     0.124 S 
ATOM     69  O   UNL A   1      46.427  36.815  26.198  1.00  0.00    -0.237 OA
ATOM     70  O   UNL A   1      48.843  36.434  26.570  1.00  0.00    -0.237 OA
ATOM     71  O   UNL A   1      47.570  34.938  25.082  1.00  0.00    -0.744 OA
ENDBRANCH  64  68
ENDBRANCH  38  61
ENDBRANCH  12  13
ENDBRANCH   5   7
ENDBRANCH   2   3
ENDBRANCH   1   2
BRANCH   1  72
ATOM     72  C   UNL A   1      37.439  20.549  24.631  1.00  0.00     0.023 C 
BRANCH  72  73
ATOM     73  C   UNL A   1      37.585  21.920  25.293  1.00  0.00     0.116 C 
BRANCH  73  74
ATOM     74  N   UNL A   1      36.478  22.210  26.179  1.00  0.00    -0.356 N 
ATOM     75  C   UNL A   1      35.380  22.988  26.058  1.00  0.00     0.224 C 
ATOM     76  H   UNL A   1      36.537  21.745  27.046  1.00  0.00     0.163 HD
ATOM     77  O   UNL A   1      34.681  23.084  27.078  1.00  0.00    -0.275 OA
BRANCH  75  78
ATOM     78  C   UNL A   1      34.894  23.669  24.769  1.00  0.00     0.095 C 
ATOM     79  C   UNL A   1      34.294  25.076  24.795  1.00  0.00     0.041 C 
ATOM     80  C   UNL A   1      33.990  22.661  24.009  1.00  0.00     0.095 C 
ATOM     81  C   UNL A   1      33.643  25.494  23.508  1.00  0.00    -0.030 C 
ATOM     82  C   UNL A   1      33.598  23.167  22.608  1.00  0.00     0.041 C 
ATOM     83  C   UNL A   1      33.346  24.640  22.522  1.00  0.00    -0.030 C 
BRANCH  80  84
ATOM     84  C   UNL A   1      32.738  22.292  24.813  1.00  0.00     0.228 C 
ATOM     85  O   UNL A   1      32.114  23.134  25.465  1.00  0.00    -0.274 OA
ATOM     86  N   UNL A   1      32.178  21.048  24.719  1.00  0.00    -0.326 N 
ATOM     87  H   UNL A   1      31.269  20.982  25.092  1.00  0.00     0.169 HD
BRANCH  86  88
ATOM     88  C   UNL A   1      32.669  19.851  24.185  1.00  0.00     0.041 A 
ATOM     89  C   UNL A   1      32.185  19.278  23.007  1.00  0.00     0.030 A 
ATOM     90  C   UNL A   1      33.731  19.238  24.856  1.00  0.00     0.030 A 
ATOM     91  C   UNL A   1      32.682  18.052  22.560  1.00  0.00     0.048 A 
ATOM     92  C   UNL A   1      34.224  18.009  24.417  1.00  0.00     0.048 A 
ATOM     93  C   UNL A   1      33.684  17.416  23.283  1.00  0.00     0.115 A 
BRANCH  93  94
ATOM     94  O   UNL A   1      34.174  16.204  22.900  1.00  0.00    -0.508 OA
ATOM     95  H   UNL A   1      34.295  15.525  23.534  1.00  0.00     0.293 HD
ENDBRANCH  93  94
ENDBRANCH  86  88
ENDBRANCH  80  84
ENDBRANCH  75  78
ENDBRANCH  73  74
ENDBRANCH  72  73
ENDBRANCH   1  72
TORSDOF 17
ENDMDL
MODEL 3
REMARK VINA RESULT:     -12.7      1.373      1.670
REMARK SMILES O=C(NCCCCNC(=O)[C@@H]1CC=CC[C@@H]1C(=O)Nc1ccc(O)cc1)c1ccc(-c2c3nc(c(-c4cc(S(=O)(=O)[O-])ccc4F)c4ccc([nH]4)c(-c4cc(S(=O)(=O)[O-])ccc4F)c4nc(c(-c5cc(S(=O)(=O)[O-])ccc5F)c5ccc2[nH]5)C=C4)C=C3)cc1
REMARK SMILES IDX 5 1 4 2 3 3 1 4 2 5 27 7 28 8 89 9 29 10 88 11 30 12 31 13
REMARK SMILES IDX 32 14 82 15 33 16 87 17 81 18 83 19 34 20 86 21 80 22 79 23
REMARK SMILES IDX 35 25 67 26 47 27 66 28 48 29 51 30 65 31 84 32 49 33 50 34
REMARK SMILES IDX 64 36 85 37 52 38 36 39 37 40 45 41 38 42 44 43 46 44 43 45
REMARK SMILES IDX 39 46 40 47 41 48 42 49 68 50 69 51 77 52 70 53 76 54 78 55
REMARK SMILES IDX 75 56 71 57 72 58 73 59 74 60 53 61 54 62 62 63 55 64 61 65
REMARK SMILES IDX 63 66 60 67 56 68 57 69 58 70 59 71 6 72 7 73 8 74 9 75
REMARK SMILES IDX 10 77 11 78 12 79 16 80 13 81 15 82 14 83 17 84 18 85 19 86
REMARK SMILES IDX 20 88 21 89 26 90 22 91 25 92 23 93 24 94
REMARK H PARENT 3 6 83 24 51 35 8 76 19 87 24 95
REMARK Flexibility Score: inf
ROOT
ATOM      1  C   UNL A   1      31.605  32.448  26.625  1.00  0.00     0.023 C 
ENDROOT
BRANCH   1   2
ATOM      2  C   UNL A   1      32.826  32.929  27.396  1.00  0.00     0.116 C 
BRANCH   2   3
ATOM      3  N   UNL A   1      32.678  34.267  27.953  1.00  0.00    -0.352 N 
ATOM      4  O   UNL A   1      33.145  35.953  29.383  1.00  0.00    -0.269 OA
ATOM      5  C   UNL A   1      33.427  34.850  28.950  1.00  0.00     0.251 C 
ATOM      6  H   UNL A   1      31.957  34.818  27.571  1.00  0.00     0.163 HD
BRANCH   5   7
ATOM      7  C   UNL A   1      34.555  34.079  29.513  1.00  0.00     0.039 A 
ATOM      8  C   UNL A   1      34.329  33.126  30.507  1.00  0.00     0.014 A 
ATOM      9  C   UNL A   1      35.852  34.369  29.081  1.00  0.00     0.014 A 
ATOM     10  C   UNL A   1      35.409  32.552  31.163  1.00  0.00     0.010 A 
ATOM     11  C   UNL A   1      36.934  33.734  29.692  1.00  0.00     0.010 A 
ATOM     12  C   UNL A   1      36.722  32.844  30.757  1.00  0.00    -0.014 A 
BRANCH  12  13
ATOM     13  C   UNL A   1      37.856  32.166  31.428  1.00  0.00     0.031 A 
ATOM     14  C   UNL A   1      38.603  31.054  30.750  1.00  0.00     0.074 A 
ATOM     15  C   UNL A   1      38.212  32.585  32.657  1.00  0.00     0.049 A 
ATOM     16  N   UNL A   1      39.606  30.343  31.196  1.00  0.00    -0.248 NA
ATOM     17  C   UNL A   1      38.160  30.685  29.398  1.00  0.00     0.031 C 
ATOM     18  C   UNL A   1      37.544  33.654  33.405  1.00  0.00     0.029 A 
ATOM     19  N   UNL A   1      39.219  32.176  33.489  1.00  0.00    -0.354 N 
ATOM     20  C   UNL A   1      39.904  29.428  30.193  1.00  0.00     0.074 A 
ATOM     21  C   UNL A   1      38.955  29.661  29.123  1.00  0.00     0.031 C 
ATOM     22  C   UNL A   1      38.180  33.839  34.571  1.00  0.00     0.029 A 
ATOM     23  C   UNL A   1      39.256  32.860  34.681  1.00  0.00     0.049 A 
ATOM     24  H   UNL A   1      39.856  31.462  33.257  1.00  0.00     0.167 HD
ATOM     25  C   UNL A   1      40.881  28.487  30.171  1.00  0.00     0.034 A 
ATOM     26  C   UNL A   1      40.048  32.700  35.757  1.00  0.00     0.034 A 
ATOM     27  C   UNL A   1      41.818  28.279  31.251  1.00  0.00     0.049 A 
ATOM     28  C   UNL A   1      41.107  31.636  35.716  1.00  0.00     0.074 A 
ATOM     29  C   UNL A   1      42.871  27.384  31.322  1.00  0.00     0.029 A 
ATOM     30  N   UNL A   1      41.808  28.972  32.457  1.00  0.00    -0.354 N 
ATOM     31  N   UNL A   1      41.387  30.788  34.753  1.00  0.00    -0.248 NA
ATOM     32  C   UNL A   1      41.959  31.509  36.904  1.00  0.00     0.031 C 
ATOM     33  C   UNL A   1      43.457  27.492  32.590  1.00  0.00     0.029 A 
ATOM     34  C   UNL A   1      42.814  28.501  33.289  1.00  0.00     0.049 A 
ATOM     35  H   UNL A   1      41.177  29.691  32.688  1.00  0.00     0.167 HD
ATOM     36  C   UNL A   1      42.454  30.028  35.218  1.00  0.00     0.074 A 
ATOM     37  C   UNL A   1      42.782  30.537  36.536  1.00  0.00     0.031 C 
ATOM     38  C   UNL A   1      43.103  29.002  34.612  1.00  0.00     0.034 A 
BRANCH  25  39
ATOM     39  C   UNL A   1      40.949  27.581  28.964  1.00  0.00     0.023 A 
ATOM     40  C   UNL A   1      41.925  27.741  27.965  1.00  0.00     0.031 A 
ATOM     41  C   UNL A   1      40.004  26.553  28.798  1.00  0.00     0.131 A 
ATOM     42  C   UNL A   1      41.895  26.933  26.818  1.00  0.00     0.055 A 
ATOM     43  C   UNL A   1      40.022  25.704  27.689  1.00  0.00     0.041 A 
ATOM     44  F   UNL A   1      39.035  26.362  29.708  1.00  0.00    -0.206 F 
ATOM     45  C   UNL A   1      40.963  25.901  26.683  1.00  0.00     0.022 A 
BRANCH  42  46
ATOM     46  S   UNL A   1      43.006  27.335  25.441  1.00  0.00     0.124 S 
ATOM     47  O   UNL A   1      43.184  26.028  24.812  1.00  0.00    -0.237 OA
ATOM     48  O   UNL A   1      42.228  28.307  24.682  1.00  0.00    -0.237 OA
ATOM     49  O   UNL A   1      44.196  27.867  26.103  1.00  0.00    -0.744 OA
ENDBRANCH  42  46
ENDBRANCH  25  39
BRANCH  26  50
ATOM     50  C   UNL A   1      39.834  33.540  36.966  1.00  0.00     0.023 A 
ATOM     51  C   UNL A   1      40.646  34.650  37.234  1.00  0.00     0.031 A 
ATOM     52  C   UNL A   1      38.796  33.241  37.869  1.00  0.00     0.131 A 
ATOM     53  C   UNL A   1      40.425  35.410  38.394  1.00  0.00     0.055 A 
ATOM     54  C   UNL A   1      38.552  34.027  38.996  1.00  0.00     0.041 A 
ATOM     55  F   UNL A   1      37.986  32.195  37.650  1.00  0.00    -0.206 F 
ATOM     56  C   UNL A   1      39.376  35.114  39.268  1.00  0.00     0.022 A 
BRANCH  53  57
ATOM     57  S   UNL A   1      41.567  36.767  38.773  1.00  0.00     0.124 S 
ATOM     58  O   UNL A   1      42.408  36.169  39.805  1.00  0.00    -0.237 OA
ATOM     59  O   UNL A   1      42.204  36.997  37.481  1.00  0.00    -0.237 OA
ATOM     60  O   UNL A   1      40.683  37.837  39.231  1.00  0.00    -0.744 OA
ENDBRANCH  53  57
ENDBRANCH  26  50
BRANCH  38  61
ATOM     61  C   UNL A   1      44.247  28.388  35.379  1.00  0.00     0.023 A 
ATOM     62  C   UNL A   1      44.027  27.403  36.357  1.00  0.00     0.031 A 
ATOM     63  C   UNL A   1      45.564  28.822  35.153  1.00  0.00     0.131 A 
ATOM     64  C   UNL A   1      45.104  26.923  37.116  1.00  0.00     0.055 A 
ATOM     65  C   UNL A   1      46.639  28.301  35.874  1.00  0.00     0.041 A 
ATOM     66  F   UNL A   1      45.826  29.763  34.233  1.00  0.00    -0.206 F 
ATOM     67  C   UNL A   1      46.412  27.357  36.872  1.00  0.00     0.022 A 
BRANCH  64  68
ATOM     68  S   UNL A   1      44.765  25.792  38.492  1.00  0.00     0.124 S 
ATOM     69  O   UNL A   1      43.667  26.468  39.176  1.00  0.00    -0.237 OA
ATOM     70  O   UNL A   1      44.421  24.554  37.801  1.00  0.00    -0.237 OA
ATOM     71  O   UNL A   1      46.027  25.760  39.229  1.00  0.00    -0.744 OA
ENDBRANCH  64  68
ENDBRANCH  38  61
ENDBRANCH  12  13
ENDBRANCH   5   7
ENDBRANCH   2   3
ENDBRANCH   1   2
BRANCH   1  72
ATOM     72  C   UNL A   1      31.575  30.946  26.336  1.00  0.00     0.023 C 
BRANCH  72  73
ATOM     73  C   UNL A   1      32.901  30.222  26.571  1.00  0.00     0.116 C 
BRANCH  73  74
ATOM     74  N   UNL A   1      33.378  29.571  25.370  1.00  0.00    -0.356 N 
ATOM     75  C   UNL A   1      33.421  28.278  24.977  1.00  0.00     0.224 C 
ATOM     76  H   UNL A   1      33.746  30.196  24.704  1.00  0.00     0.163 HD
ATOM     77  O   UNL A   1      34.005  28.067  23.903  1.00  0.00    -0.275 OA
BRANCH  75  78
ATOM     78  C   UNL A   1      32.742  27.096  25.686  1.00  0.00     0.095 C 
ATOM     79  C   UNL A   1      33.427  25.731  25.782  1.00  0.00     0.041 C 
ATOM     80  C   UNL A   1      31.289  26.986  25.147  1.00  0.00     0.095 C 
ATOM     81  C   UNL A   1      32.537  24.627  26.277  1.00  0.00    -0.030 C 
ATOM     82  C   UNL A   1      30.454  25.953  25.925  1.00  0.00     0.041 C 
ATOM     83  C   UNL A   1      31.207  24.733  26.356  1.00  0.00    -0.030 C 
BRANCH  80  84
ATOM     84  C   UNL A   1      31.256  26.678  23.645  1.00  0.00     0.228 C 
ATOM     85  O   UNL A   1      31.927  25.766  23.155  1.00  0.00    -0.274 OA
ATOM     86  N   UNL A   1      30.368  27.305  22.815  1.00  0.00    -0.326 N 
ATOM     87  H   UNL A   1      30.274  26.884  21.930  1.00  0.00     0.169 HD
BRANCH  86  88
ATOM     88  C   UNL A   1      29.568  28.438  23.003  1.00  0.00     0.041 A 
ATOM     89  C   UNL A   1      30.083  29.718  23.213  1.00  0.00     0.030 A 
ATOM     90  C   UNL A   1      28.183  28.263  22.924  1.00  0.00     0.030 A 
ATOM     91  C   UNL A   1      29.228  30.796  23.449  1.00  0.00     0.048 A 
ATOM     92  C   UNL A   1      27.324  29.336  23.168  1.00  0.00     0.048 A 
ATOM     93  C   UNL A   1      27.853  30.590  23.446  1.00  0.00     0.115 A 
BRANCH  93  94
ATOM     94  O   UNL A   1      26.984  31.607  23.703  1.00  0.00    -0.508 OA
ATOM     95  H   UNL A   1      27.309  32.462  23.905  1.00  0.00     0.293 HD
ENDBRANCH  93  94
ENDBRANCH  86  88
ENDBRANCH  80  84
ENDBRANCH  75  78
ENDBRANCH  73  74
ENDBRANCH  72  73
ENDBRANCH   1  72
TORSDOF 17
ENDMDL
