MODEL 1
REMARK VINA RESULT:     -10.0      0.000      0.000
REMARK SMILES COCCCNC(=O)C[N@H+]1CC[C@H](C(=O)NCCCCNC(=O)c2ccc(-c3c4nc(c(-c5cc(S(=O)(=O)[O-])ccc5F)c5ccc([nH]5)c(-c5cc(S(=O)(=O)[O-])ccc5F)c5nc(c(-c6cc(S(=O)(=O)[O-])ccc6F)c6ccc3[nH]6)C=C5)C=C4)cc2)[C@@H]1C
REMARK SMILES IDX 17 1 16 2 14 3 15 4 13 6 10 7 11 8 87 9 12 11 88 12 9 13
REMARK SMILES IDX 7 14 6 15 8 17 5 18 4 19 3 20 2 21 1 22 18 23 19 24 20 25
REMARK SMILES IDX 21 26 22 27 23 29 24 30 25 31 86 32 26 33 85 34 27 35 28 36
REMARK SMILES IDX 29 37 79 38 30 39 84 40 78 41 80 42 31 43 83 44 77 45 76 46
REMARK SMILES IDX 32 48 64 49 44 50 63 51 45 52 48 53 62 54 81 55 46 56 47 57
REMARK SMILES IDX 61 59 82 60 49 61 33 62 34 63 42 64 35 65 41 66 43 67 40 68
REMARK SMILES IDX 36 69 37 70 38 71 39 72 65 73 66 74 74 75 67 76 73 77 75 78
REMARK SMILES IDX 72 79 68 80 69 81 70 82 71 83 50 84 51 85 59 86 52 87 58 88
REMARK SMILES IDX 60 89 57 90 53 91 54 92 55 93 56 94
REMARK H PARENT 16 5 10 10 6 16 21 28 80 47 48 58
REMARK Flexibility Score: inf
ROOT
ATOM      1  C   UNL A   1      36.999  21.997  25.469  1.00  0.00     0.116 C 
ENDROOT
BRANCH   1   2
ATOM      2  N   UNL A   1      36.322  20.717  25.362  1.00  0.00    -0.356 N 
ATOM      3  C   UNL A   1      35.022  20.449  25.027  1.00  0.00     0.229 C 
ATOM      4  O   UNL A   1      34.681  19.273  24.965  1.00  0.00    -0.275 OA
ATOM      5  H   UNL A   1      36.878  19.929  25.559  1.00  0.00     0.163 HD
BRANCH   3   6
ATOM      6  C   UNL A   1      34.112  21.633  24.719  1.00  0.00     0.142 C 
ATOM      7  N   UNL A   1      31.858  21.766  25.613  1.00  0.00    -0.324 N 
ATOM      8  C   UNL A   1      31.902  20.788  24.527  1.00  0.00     0.263 C 
ATOM      9  C   UNL A   1      33.249  22.222  25.852  1.00  0.00     0.194 C 
ATOM     10  H   UNL A   1      31.486  21.344  26.464  1.00  0.00     0.348 HD
ATOM     11  C   UNL A   1      33.076  21.208  23.676  1.00  0.00     0.081 C 
ATOM     12  C   UNL A   1      33.657  21.933  27.293  1.00  0.00     0.076 C 
BRANCH   7  13
ATOM     13  C   UNL A   1      30.938  22.877  25.305  1.00  0.00     0.363 C 
BRANCH  13  14
ATOM     14  C   UNL A   1      30.482  23.579  26.584  1.00  0.00     0.275 C 
ATOM     15  N   UNL A   1      30.373  24.943  26.600  1.00  0.00    -0.351 N 
ATOM     16  H   UNL A   1      30.103  25.340  27.459  1.00  0.00     0.163 HD
ATOM     17  O   UNL A   1      30.272  22.955  27.626  1.00  0.00    -0.269 OA
BRANCH  15  18
ATOM     18  C   UNL A   1      30.605  25.883  25.514  1.00  0.00     0.118 C 
BRANCH  18  19
ATOM     19  C   UNL A   1      31.162  27.219  26.002  1.00  0.00     0.050 C 
BRANCH  19  20
ATOM     20  C   UNL A   1      32.645  27.211  26.371  1.00  0.00     0.161 C 
BRANCH  20  21
ATOM     21  O   UNL A   1      33.509  26.882  25.284  1.00  0.00    -0.385 OA
ATOM     22  C   UNL A   1      34.148  25.619  25.387  1.00  0.00     0.194 C 
ENDBRANCH  20  21
ENDBRANCH  19  20
ENDBRANCH  18  19
ENDBRANCH  15  18
ENDBRANCH  13  14
ENDBRANCH   7  13
ENDBRANCH   3   6
ENDBRANCH   1   2
BRANCH   1  23
ATOM     23  C   UNL A   1      38.489  21.837  25.744  1.00  0.00     0.023 C 
BRANCH  23  24
ATOM     24  C   UNL A   1      39.061  20.468  25.375  1.00  0.00     0.023 C 
BRANCH  24  25
ATOM     25  C   UNL A   1      39.714  19.704  26.522  1.00  0.00     0.116 C 
BRANCH  25  26
ATOM     26  N   UNL A   1      40.949  19.044  26.130  1.00  0.00    -0.352 N 
ATOM     27  C   UNL A   1      42.201  19.584  25.939  1.00  0.00     0.251 C 
ATOM     28  H   UNL A   1      40.881  18.073  25.981  1.00  0.00     0.163 HD
ATOM     29  O   UNL A   1      43.095  18.897  25.470  1.00  0.00    -0.269 OA
BRANCH  27  30
ATOM     30  C   UNL A   1      42.436  21.009  26.269  1.00  0.00     0.039 A 
ATOM     31  C   UNL A   1      42.678  21.359  27.598  1.00  0.00     0.014 A 
ATOM     32  C   UNL A   1      42.453  21.985  25.269  1.00  0.00     0.014 A 
ATOM     33  C   UNL A   1      43.016  22.676  27.914  1.00  0.00     0.010 A 
ATOM     34  C   UNL A   1      42.861  23.280  25.575  1.00  0.00     0.010 A 
ATOM     35  C   UNL A   1      43.156  23.638  26.900  1.00  0.00    -0.014 A 
BRANCH  35  36
ATOM     36  C   UNL A   1      43.635  25.013  27.204  1.00  0.00     0.031 A 
ATOM     37  C   UNL A   1      42.683  26.045  27.743  1.00  0.00     0.074 A 
ATOM     38  C   UNL A   1      44.912  25.347  26.931  1.00  0.00     0.049 A 
ATOM     39  N   UNL A   1      42.893  27.310  27.999  1.00  0.00    -0.248 NA
ATOM     40  C   UNL A   1      41.306  25.599  28.003  1.00  0.00     0.031 C 
ATOM     41  C   UNL A   1      45.920  24.444  26.368  1.00  0.00     0.029 A 
ATOM     42  N   UNL A   1      45.583  26.536  27.080  1.00  0.00    -0.354 N 
ATOM     43  C   UNL A   1      41.675  27.816  28.441  1.00  0.00     0.074 A 
ATOM     44  C   UNL A   1      40.719  26.731  28.359  1.00  0.00     0.031 C 
ATOM     45  C   UNL A   1      47.081  25.104  26.242  1.00  0.00     0.029 A 
ATOM     46  C   UNL A   1      46.894  26.488  26.665  1.00  0.00     0.049 A 
ATOM     47  H   UNL A   1      45.163  27.347  27.448  1.00  0.00     0.167 HD
ATOM     48  C   UNL A   1      41.388  29.062  28.895  1.00  0.00     0.034 A 
ATOM     49  C   UNL A   1      47.835  27.453  26.617  1.00  0.00     0.034 A 
ATOM     50  C   UNL A   1      42.356  30.130  28.976  1.00  0.00     0.049 A 
ATOM     51  C   UNL A   1      47.482  28.839  27.091  1.00  0.00     0.074 A 
ATOM     52  C   UNL A   1      42.185  31.411  29.472  1.00  0.00     0.029 A 
ATOM     53  N   UNL A   1      43.672  30.048  28.538  1.00  0.00    -0.354 N 
ATOM     54  N   UNL A   1      46.339  29.286  27.559  1.00  0.00    -0.248 NA
ATOM     55  C   UNL A   1      48.547  29.849  27.039  1.00  0.00     0.031 C 
ATOM     56  C   UNL A   1      43.373  32.123  29.268  1.00  0.00     0.029 A 
ATOM     57  C   UNL A   1      44.312  31.266  28.719  1.00  0.00     0.049 A 
ATOM     58  H   UNL A   1      44.090  29.242  28.155  1.00  0.00     0.167 HD
ATOM     59  C   UNL A   1      46.559  30.622  27.882  1.00  0.00     0.074 A 
ATOM     60  C   UNL A   1      47.946  30.901  27.572  1.00  0.00     0.031 C 
ATOM     61  C   UNL A   1      45.693  31.535  28.391  1.00  0.00     0.034 A 
BRANCH  48  62
ATOM     62  C   UNL A   1      39.963  29.338  29.311  1.00  0.00     0.023 A 
ATOM     63  C   UNL A   1      39.594  29.433  30.665  1.00  0.00     0.031 A 
ATOM     64  C   UNL A   1      38.953  29.490  28.343  1.00  0.00     0.131 A 
ATOM     65  C   UNL A   1      38.244  29.598  31.014  1.00  0.00     0.055 A 
ATOM     66  C   UNL A   1      37.625  29.736  28.696  1.00  0.00     0.041 A 
ATOM     67  F   UNL A   1      39.240  29.389  27.036  1.00  0.00    -0.206 F 
ATOM     68  C   UNL A   1      37.262  29.776  30.039  1.00  0.00     0.022 A 
BRANCH  65  69
ATOM     69  S   UNL A   1      37.775  29.429  32.758  1.00  0.00     0.124 S 
ATOM     70  O   UNL A   1      39.009  29.822  33.435  1.00  0.00    -0.237 OA
ATOM     71  O   UNL A   1      36.658  30.359  32.876  1.00  0.00    -0.237 OA
ATOM     72  O   UNL A   1      37.427  28.016  32.885  1.00  0.00    -0.744 OA
ENDBRANCH  65  69
ENDBRANCH  48  62
BRANCH  49  73
ATOM     73  C   UNL A   1      49.197  27.154  26.086  1.00  0.00     0.023 A 
ATOM     74  C   UNL A   1      49.550  27.488  24.770  1.00  0.00     0.031 A 
ATOM     75  C   UNL A   1      50.151  26.486  26.875  1.00  0.00     0.131 A 
ATOM     76  C   UNL A   1      50.805  27.113  24.265  1.00  0.00     0.055 A 
ATOM     77  C   UNL A   1      51.419  26.165  26.386  1.00  0.00     0.041 A 
ATOM     78  F   UNL A   1      49.867  26.147  28.143  1.00  0.00    -0.206 F 
ATOM     79  C   UNL A   1      51.746  26.466  25.068  1.00  0.00     0.022 A 
BRANCH  76  80
ATOM     80  S   UNL A   1      51.157  27.405  22.510  1.00  0.00     0.124 S 
ATOM     81  O   UNL A   1      49.978  26.832  21.872  1.00  0.00    -0.237 OA
ATOM     82  O   UNL A   1      51.271  28.859  22.462  1.00  0.00    -0.237 OA
ATOM     83  O   UNL A   1      52.405  26.677  22.287  1.00  0.00    -0.744 OA
ENDBRANCH  76  80
ENDBRANCH  49  73
BRANCH  61  84
ATOM     84  C   UNL A   1      46.242  32.913  28.680  1.00  0.00     0.023 A 
ATOM     85  C   UNL A   1      46.191  33.945  27.728  1.00  0.00     0.031 A 
ATOM     86  C   UNL A   1      46.835  33.190  29.924  1.00  0.00     0.131 A 
ATOM     87  C   UNL A   1      46.776  35.188  28.012  1.00  0.00     0.055 A 
ATOM     88  C   UNL A   1      47.359  34.448  30.225  1.00  0.00     0.041 A 
ATOM     89  F   UNL A   1      46.914  32.241  30.871  1.00  0.00    -0.206 F 
ATOM     90  C   UNL A   1      47.344  35.452  29.261  1.00  0.00     0.022 A 
BRANCH  87  91
ATOM     91  S   UNL A   1      46.868  36.431  26.693  1.00  0.00     0.124 S 
ATOM     92  O   UNL A   1      48.092  37.148  27.039  1.00  0.00    -0.237 OA
ATOM     93  O   UNL A   1      46.932  35.606  25.491  1.00  0.00    -0.237 OA
ATOM     94  O   UNL A   1      45.633  37.196  26.854  1.00  0.00    -0.744 OA
ENDBRANCH  87  91
ENDBRANCH  61  84
ENDBRANCH  35  36
ENDBRANCH  27  30
ENDBRANCH  25  26
ENDBRANCH  24  25
ENDBRANCH  23  24
ENDBRANCH   1  23
TORSDOF 20
ENDMDL
MODEL 2
REMARK VINA RESULT:      -9.4      2.379      7.953
REMARK SMILES COCCCNC(=O)C[N@H+]1CC[C@H](C(=O)NCCCCNC(=O)c2ccc(-c3c4nc(c(-c5cc(S(=O)(=O)[O-])ccc5F)c5ccc([nH]5)c(-c5cc(S(=O)(=O)[O-])ccc5F)c5nc(c(-c6cc(S(=O)(=O)[O-])ccc6F)c6ccc3[nH]6)C=C5)C=C4)cc2)[C@@H]1C
REMARK SMILES IDX 17 1 16 2 14 3 15 4 13 6 10 7 11 8 87 9 12 11 88 12 9 13
REMARK SMILES IDX 7 14 6 15 8 17 5 18 4 19 3 20 2 21 1 22 18 23 19 24 20 25
REMARK SMILES IDX 21 26 22 27 23 29 24 30 25 31 86 32 26 33 85 34 27 35 28 36
REMARK SMILES IDX 29 37 79 38 30 39 84 40 78 41 80 42 31 43 83 44 77 45 76 46
REMARK SMILES IDX 32 48 64 49 44 50 63 51 45 52 48 53 62 54 81 55 46 56 47 57
REMARK SMILES IDX 61 59 82 60 49 61 33 62 34 63 42 64 35 65 41 66 43 67 40 68
REMARK SMILES IDX 36 69 37 70 38 71 39 72 65 73 66 74 74 75 67 76 73 77 75 78
REMARK SMILES IDX 72 79 68 80 69 81 70 82 71 83 50 84 51 85 59 86 52 87 58 88
REMARK SMILES IDX 60 89 57 90 53 91 54 92 55 93 56 94
REMARK H PARENT 16 5 10 10 6 16 21 28 80 47 48 58
REMARK Flexibility Score: inf
ROOT
ATOM      1  C   UNL A   1      37.481  22.962  25.945  1.00  0.00     0.116 C 
ENDROOT
BRANCH   1   2
ATOM      2  N   UNL A   1      36.879  21.671  25.667  1.00  0.00    -0.356 N 
ATOM      3  C   UNL A   1      35.625  21.380  25.204  1.00  0.00     0.229 C 
ATOM      4  O   UNL A   1      35.350  20.201  25.008  1.00  0.00    -0.275 OA
ATOM      5  H   UNL A   1      37.457  20.892  25.838  1.00  0.00     0.163 HD
BRANCH   3   6
ATOM      6  C   UNL A   1      34.684  22.547  24.930  1.00  0.00     0.142 C 
ATOM      7  N   UNL A   1      32.298  22.379  25.357  1.00  0.00    -0.324 N 
ATOM      8  C   UNL A   1      32.638  21.631  24.147  1.00  0.00     0.263 C 
ATOM      9  C   UNL A   1      33.570  22.859  25.950  1.00  0.00     0.194 C 
ATOM     10  H   UNL A   1      31.813  21.782  26.027  1.00  0.00     0.348 HD
ATOM     11  C   UNL A   1      33.908  22.271  23.641  1.00  0.00     0.081 C 
ATOM     12  C   UNL A   1      33.724  22.324  27.370  1.00  0.00     0.076 C 
BRANCH   7  13
ATOM     13  C   UNL A   1      31.353  23.475  25.068  1.00  0.00     0.363 C 
BRANCH  13  14
ATOM     14  C   UNL A   1      30.887  24.147  26.359  1.00  0.00     0.275 C 
ATOM     15  N   UNL A   1      31.183  25.465  26.576  1.00  0.00    -0.351 N 
ATOM     16  H   UNL A   1      30.882  25.835  27.437  1.00  0.00     0.163 HD
ATOM     17  O   UNL A   1      30.305  23.517  27.244  1.00  0.00    -0.269 OA
BRANCH  15  18
ATOM     18  C   UNL A   1      31.887  26.391  25.702  1.00  0.00     0.118 C 
BRANCH  18  19
ATOM     19  C   UNL A   1      31.424  27.835  25.880  1.00  0.00     0.050 C 
BRANCH  19  20
ATOM     20  C   UNL A   1      32.111  28.856  24.974  1.00  0.00     0.161 C 
BRANCH  20  21
ATOM     21  O   UNL A   1      32.092  30.188  25.487  1.00  0.00    -0.385 OA
ATOM     22  C   UNL A   1      31.911  30.288  26.890  1.00  0.00     0.194 C 
ENDBRANCH  20  21
ENDBRANCH  19  20
ENDBRANCH  18  19
ENDBRANCH  15  18
ENDBRANCH  13  14
ENDBRANCH   7  13
ENDBRANCH   3   6
ENDBRANCH   1   2
BRANCH   1  23
ATOM     23  C   UNL A   1      38.960  22.846  26.290  1.00  0.00     0.023 C 
BRANCH  23  24
ATOM     24  C   UNL A   1      39.540  21.439  26.140  1.00  0.00     0.023 C 
BRANCH  24  25
ATOM     25  C   UNL A   1      40.788  21.155  26.969  1.00  0.00     0.116 C 
BRANCH  25  26
ATOM     26  N   UNL A   1      41.882  20.616  26.177  1.00  0.00    -0.352 N 
ATOM     27  C   UNL A   1      43.034  21.237  25.750  1.00  0.00     0.251 C 
ATOM     28  H   UNL A   1      41.785  19.673  25.910  1.00  0.00     0.163 HD
ATOM     29  O   UNL A   1      43.779  20.666  24.969  1.00  0.00    -0.269 OA
BRANCH  27  30
ATOM     30  C   UNL A   1      43.335  22.611  26.214  1.00  0.00     0.039 A 
ATOM     31  C   UNL A   1      43.122  23.677  25.338  1.00  0.00     0.014 A 
ATOM     32  C   UNL A   1      43.789  22.847  27.515  1.00  0.00     0.014 A 
ATOM     33  C   UNL A   1      43.288  24.987  25.792  1.00  0.00     0.010 A 
ATOM     34  C   UNL A   1      43.882  24.154  27.986  1.00  0.00     0.010 A 
ATOM     35  C   UNL A   1      43.624  25.238  27.133  1.00  0.00    -0.014 A 
BRANCH  35  36
ATOM     36  C   UNL A   1      43.684  26.626  27.664  1.00  0.00     0.031 A 
ATOM     37  C   UNL A   1      45.006  27.328  27.804  1.00  0.00     0.074 A 
ATOM     38  C   UNL A   1      42.551  27.227  28.081  1.00  0.00     0.049 A 
ATOM     39  N   UNL A   1      45.268  28.505  28.312  1.00  0.00    -0.248 NA
ATOM     40  C   UNL A   1      46.193  26.597  27.334  1.00  0.00     0.031 C 
ATOM     41  C   UNL A   1      41.213  26.632  28.033  1.00  0.00     0.029 A 
ATOM     42  N   UNL A   1      42.341  28.465  28.634  1.00  0.00    -0.354 N 
ATOM     43  C   UNL A   1      46.649  28.653  28.232  1.00  0.00     0.074 A 
ATOM     44  C   UNL A   1      47.171  27.419  27.682  1.00  0.00     0.031 C 
ATOM     45  C   UNL A   1      40.322  27.513  28.514  1.00  0.00     0.029 A 
ATOM     46  C   UNL A   1      41.025  28.715  28.951  1.00  0.00     0.049 A 
ATOM     47  H   UNL A   1      43.065  29.114  28.791  1.00  0.00     0.167 HD
ATOM     48  C   UNL A   1      47.407  29.728  28.566  1.00  0.00     0.034 A 
ATOM     49  C   UNL A   1      40.451  29.784  29.540  1.00  0.00     0.034 A 
ATOM     50  C   UNL A   1      46.870  30.953  29.107  1.00  0.00     0.049 A 
ATOM     51  C   UNL A   1      41.319  30.950  29.936  1.00  0.00     0.074 A 
ATOM     52  C   UNL A   1      47.541  32.122  29.425  1.00  0.00     0.029 A 
ATOM     53  N   UNL A   1      45.534  31.166  29.423  1.00  0.00    -0.354 N 
ATOM     54  N   UNL A   1      42.618  31.097  29.802  1.00  0.00    -0.248 NA
ATOM     55  C   UNL A   1      40.645  32.099  30.554  1.00  0.00     0.031 C 
ATOM     56  C   UNL A   1      46.626  33.011  29.999  1.00  0.00     0.029 A 
ATOM     57  C   UNL A   1      45.368  32.432  29.966  1.00  0.00     0.049 A 
ATOM     58  H   UNL A   1      44.809  30.514  29.282  1.00  0.00     0.167 HD
ATOM     59  C   UNL A   1      42.908  32.366  30.295  1.00  0.00     0.074 A 
ATOM     60  C   UNL A   1      41.649  32.948  30.711  1.00  0.00     0.031 C 
ATOM     61  C   UNL A   1      44.107  32.995  30.392  1.00  0.00     0.034 A 
BRANCH  48  62
ATOM     62  C   UNL A   1      48.901  29.610  28.377  1.00  0.00     0.023 A 
ATOM     63  C   UNL A   1      49.515  29.892  27.144  1.00  0.00     0.031 A 
ATOM     64  C   UNL A   1      49.723  29.189  29.438  1.00  0.00     0.131 A 
ATOM     65  C   UNL A   1      50.893  29.681  26.981  1.00  0.00     0.055 A 
ATOM     66  C   UNL A   1      51.106  29.060  29.293  1.00  0.00     0.041 A 
ATOM     67  F   UNL A   1      49.193  28.885  30.633  1.00  0.00    -0.206 F 
ATOM     68  C   UNL A   1      51.696  29.292  28.054  1.00  0.00     0.022 A 
BRANCH  65  69
ATOM     69  S   UNL A   1      51.592  29.781  25.310  1.00  0.00     0.124 S 
ATOM     70  O   UNL A   1      50.734  28.854  24.575  1.00  0.00    -0.237 OA
ATOM     71  O   UNL A   1      51.432  31.194  24.985  1.00  0.00    -0.237 OA
ATOM     72  O   UNL A   1      52.971  29.333  25.488  1.00  0.00    -0.744 OA
ENDBRANCH  65  69
ENDBRANCH  48  62
BRANCH  49  73
ATOM     73  C   UNL A   1      38.984  29.801  29.810  1.00  0.00     0.023 A 
ATOM     74  C   UNL A   1      38.108  30.538  29.000  1.00  0.00     0.031 A 
ATOM     75  C   UNL A   1      38.443  29.117  30.914  1.00  0.00     0.131 A 
ATOM     76  C   UNL A   1      36.745  30.614  29.330  1.00  0.00     0.055 A 
ATOM     77  C   UNL A   1      37.078  29.150  31.205  1.00  0.00     0.041 A 
ATOM     78  F   UNL A   1      39.236  28.393  31.720  1.00  0.00    -0.206 F 
ATOM     79  C   UNL A   1      36.222  29.915  30.419  1.00  0.00     0.022 A 
BRANCH  76  80
ATOM     80  S   UNL A   1      35.679  31.717  28.363  1.00  0.00     0.124 S 
ATOM     81  O   UNL A   1      34.642  32.053  29.332  1.00  0.00    -0.237 OA
ATOM     82  O   UNL A   1      36.598  32.795  28.008  1.00  0.00    -0.237 OA
ATOM     83  O   UNL A   1      35.244  30.879  27.247  1.00  0.00    -0.744 OA
ENDBRANCH  76  80
ENDBRANCH  49  73
BRANCH  61  84
ATOM     84  C   UNL A   1      44.100  34.404  30.937  1.00  0.00     0.023 A 
ATOM     85  C   UNL A   1      43.981  35.523  30.094  1.00  0.00     0.031 A 
ATOM     86  C   UNL A   1      44.226  34.628  32.319  1.00  0.00     0.131 A 
ATOM     87  C   UNL A   1      44.049  36.815  30.635  1.00  0.00     0.055 A 
ATOM     88  C   UNL A   1      44.229  35.916  32.858  1.00  0.00     0.041 A 
ATOM     89  F   UNL A   1      44.346  33.597  33.171  1.00  0.00    -0.206 F 
ATOM     90  C   UNL A   1      44.154  37.019  32.013  1.00  0.00     0.022 A 
BRANCH  87  91
ATOM     91  S   UNL A   1      44.091  38.233  29.503  1.00  0.00     0.124 S 
ATOM     92  O   UNL A   1      45.526  38.426  29.313  1.00  0.00    -0.237 OA
ATOM     93  O   UNL A   1      43.358  37.731  28.346  1.00  0.00    -0.237 OA
ATOM     94  O   UNL A   1      43.417  39.291  30.252  1.00  0.00    -0.744 OA
ENDBRANCH  87  91
ENDBRANCH  61  84
ENDBRANCH  35  36
ENDBRANCH  27  30
ENDBRANCH  25  26
ENDBRANCH  24  25
ENDBRANCH  23  24
ENDBRANCH   1  23
TORSDOF 20
ENDMDL
MODEL 3
REMARK VINA RESULT:      -9.3      3.296      8.295
REMARK SMILES COCCCNC(=O)C[N@H+]1CC[C@H](C(=O)NCCCCNC(=O)c2ccc(-c3c4nc(c(-c5cc(S(=O)(=O)[O-])ccc5F)c5ccc([nH]5)c(-c5cc(S(=O)(=O)[O-])ccc5F)c5nc(c(-c6cc(S(=O)(=O)[O-])ccc6F)c6ccc3[nH]6)C=C5)C=C4)cc2)[C@@H]1C
REMARK SMILES IDX 17 1 16 2 14 3 15 4 13 6 10 7 11 8 87 9 12 11 88 12 9 13
REMARK SMILES IDX 7 14 6 15 8 17 5 18 4 19 3 20 2 21 1 22 18 23 19 24 20 25
REMARK SMILES IDX 21 26 22 27 23 29 24 30 25 31 86 32 26 33 85 34 27 35 28 36
REMARK SMILES IDX 29 37 79 38 30 39 84 40 78 41 80 42 31 43 83 44 77 45 76 46
REMARK SMILES IDX 32 48 64 49 44 50 63 51 45 52 48 53 62 54 81 55 46 56 47 57
REMARK SMILES IDX 61 59 82 60 49 61 33 62 34 63 42 64 35 65 41 66 43 67 40 68
REMARK SMILES IDX 36 69 37 70 38 71 39 72 65 73 66 74 74 75 67 76 73 77 75 78
REMARK SMILES IDX 72 79 68 80 69 81 70 82 71 83 50 84 51 85 59 86 52 87 58 88
REMARK SMILES IDX 60 89 57 90 53 91 54 92 55 93 56 94
REMARK H PARENT 16 5 10 10 6 16 21 28 80 47 48 58
REMARK Flexibility Score: inf
ROOT
ATOM      1  C   UNL A   1      36.684  23.376  26.139  1.00  0.00     0.116 C 
ENDROOT
BRANCH   1   2
ATOM      2  N   UNL A   1      36.384  21.971  25.927  1.00  0.00    -0.356 N 
ATOM      3  C   UNL A   1      35.238  21.391  25.458  1.00  0.00     0.229 C 
ATOM      4  O   UNL A   1      35.229  20.171  25.327  1.00  0.00    -0.275 OA
ATOM      5  H   UNL A   1      37.111  21.347  26.155  1.00  0.00     0.163 HD
BRANCH   3   6
ATOM      6  C   UNL A   1      34.076  22.309  25.097  1.00  0.00     0.142 C 
ATOM      7  N   UNL A   1      31.820  21.870  25.885  1.00  0.00    -0.324 N 
ATOM      8  C   UNL A   1      32.159  20.937  24.811  1.00  0.00     0.263 C 
ATOM      9  C   UNL A   1      33.040  22.660  26.185  1.00  0.00     0.194 C 
ATOM     10  H   UNL A   1      31.527  21.366  26.723  1.00  0.00     0.348 HD
ATOM     11  C   UNL A   1      33.229  21.641  24.012  1.00  0.00     0.081 C 
ATOM     12  C   UNL A   1      33.440  22.478  27.645  1.00  0.00     0.076 C 
BRANCH   7  13
ATOM     13  C   UNL A   1      30.666  22.716  25.525  1.00  0.00     0.363 C 
BRANCH  13  14
ATOM     14  C   UNL A   1      30.081  23.396  26.763  1.00  0.00     0.275 C 
ATOM     15  N   UNL A   1      29.833  24.742  26.736  1.00  0.00    -0.351 N 
ATOM     16  H   UNL A   1      29.483  25.128  27.571  1.00  0.00     0.163 HD
ATOM     17  O   UNL A   1      29.886  22.777  27.811  1.00  0.00    -0.269 OA
BRANCH  15  18
ATOM     18  C   UNL A   1      30.020  25.675  25.636  1.00  0.00     0.118 C 
BRANCH  18  19
ATOM     19  C   UNL A   1      31.341  26.436  25.729  1.00  0.00     0.050 C 
BRANCH  19  20
ATOM     20  C   UNL A   1      31.283  27.899  25.290  1.00  0.00     0.161 C 
BRANCH  20  21
ATOM     21  O   UNL A   1      32.184  28.220  24.231  1.00  0.00    -0.385 OA
ATOM     22  C   UNL A   1      33.536  27.862  24.465  1.00  0.00     0.194 C 
ENDBRANCH  20  21
ENDBRANCH  19  20
ENDBRANCH  18  19
ENDBRANCH  15  18
ENDBRANCH  13  14
ENDBRANCH   7  13
ENDBRANCH   3   6
ENDBRANCH   1   2
BRANCH   1  23
ATOM     23  C   UNL A   1      38.166  23.681  25.963  1.00  0.00     0.023 C 
BRANCH  23  24
ATOM     24  C   UNL A   1      39.094  22.489  26.202  1.00  0.00     0.023 C 
BRANCH  24  25
ATOM     25  C   UNL A   1      40.495  22.841  26.690  1.00  0.00     0.116 C 
BRANCH  25  26
ATOM     26  N   UNL A   1      41.537  22.423  25.765  1.00  0.00    -0.352 N 
ATOM     27  C   UNL A   1      42.637  23.122  25.321  1.00  0.00     0.251 C 
ATOM     28  H   UNL A   1      41.442  21.511  25.406  1.00  0.00     0.163 HD
ATOM     29  O   UNL A   1      43.332  22.660  24.430  1.00  0.00    -0.269 OA
BRANCH  27  30
ATOM     30  C   UNL A   1      42.940  24.449  25.905  1.00  0.00     0.039 A 
ATOM     31  C   UNL A   1      42.647  25.593  25.160  1.00  0.00     0.014 A 
ATOM     32  C   UNL A   1      43.475  24.563  27.192  1.00  0.00     0.014 A 
ATOM     33  C   UNL A   1      42.816  26.854  25.737  1.00  0.00     0.010 A 
ATOM     34  C   UNL A   1      43.572  25.817  27.789  1.00  0.00     0.010 A 
ATOM     35  C   UNL A   1      43.235  26.975  27.072  1.00  0.00    -0.014 A 
BRANCH  35  36
ATOM     36  C   UNL A   1      43.302  28.303  27.739  1.00  0.00     0.031 A 
ATOM     37  C   UNL A   1      44.606  29.047  27.818  1.00  0.00     0.074 A 
ATOM     38  C   UNL A   1      42.200  28.804  28.331  1.00  0.00     0.049 A 
ATOM     39  N   UNL A   1      44.880  30.176  28.420  1.00  0.00    -0.248 NA
ATOM     40  C   UNL A   1      45.762  28.424  27.155  1.00  0.00     0.031 C 
ATOM     41  C   UNL A   1      40.886  28.156  28.357  1.00  0.00     0.029 A 
ATOM     42  N   UNL A   1      42.006  29.968  29.032  1.00  0.00    -0.354 N 
ATOM     43  C   UNL A   1      46.238  30.396  28.217  1.00  0.00     0.074 A 
ATOM     44  C   UNL A   1      46.742  29.250  27.488  1.00  0.00     0.031 C 
ATOM     45  C   UNL A   1      40.020  28.941  29.017  1.00  0.00     0.029 A 
ATOM     46  C   UNL A   1      40.723  30.123  29.506  1.00  0.00     0.049 A 
ATOM     47  H   UNL A   1      42.719  30.631  29.183  1.00  0.00     0.167 HD
ATOM     48  C   UNL A   1      46.989  31.464  28.585  1.00  0.00     0.034 A 
ATOM     49  C   UNL A   1      40.177  31.098  30.262  1.00  0.00     0.034 A 
ATOM     50  C   UNL A   1      46.469  32.601  29.306  1.00  0.00     0.049 A 
ATOM     51  C   UNL A   1      41.041  32.257  30.690  1.00  0.00     0.074 A 
ATOM     52  C   UNL A   1      47.128  33.761  29.677  1.00  0.00     0.029 A 
ATOM     53  N   UNL A   1      45.167  32.719  29.777  1.00  0.00    -0.354 N 
ATOM     54  N   UNL A   1      42.312  32.476  30.441  1.00  0.00    -0.248 NA
ATOM     55  C   UNL A   1      40.395  33.303  31.493  1.00  0.00     0.031 C 
ATOM     56  C   UNL A   1      46.248  34.543  30.433  1.00  0.00     0.029 A 
ATOM     57  C   UNL A   1      45.015  33.913  30.467  1.00  0.00     0.049 A 
ATOM     58  H   UNL A   1      44.455  32.051  29.641  1.00  0.00     0.167 HD
ATOM     59  C   UNL A   1      42.608  33.700  31.035  1.00  0.00     0.074 A 
ATOM     60  C   UNL A   1      41.380  34.177  31.636  1.00  0.00     0.031 C 
ATOM     61  C   UNL A   1      43.788  34.370  31.076  1.00  0.00     0.034 A 
BRANCH  48  62
ATOM     62  C   UNL A   1      48.458  31.435  28.233  1.00  0.00     0.023 A 
ATOM     63  C   UNL A   1      49.400  30.786  29.050  1.00  0.00     0.031 A 
ATOM     64  C   UNL A   1      48.927  32.082  27.075  1.00  0.00     0.131 A 
ATOM     65  C   UNL A   1      50.767  30.860  28.739  1.00  0.00     0.055 A 
ATOM     66  C   UNL A   1      50.279  32.082  26.728  1.00  0.00     0.041 A 
ATOM     67  F   UNL A   1      48.078  32.737  26.267  1.00  0.00    -0.206 F 
ATOM     68  C   UNL A   1      51.210  31.481  27.571  1.00  0.00     0.022 A 
BRANCH  65  69
ATOM     69  S   UNL A   1      51.965  30.259  29.961  1.00  0.00     0.124 S 
ATOM     70  O   UNL A   1      52.309  31.491  30.668  1.00  0.00    -0.237 OA
ATOM     71  O   UNL A   1      51.185  29.286  30.717  1.00  0.00    -0.237 OA
ATOM     72  O   UNL A   1      53.038  29.700  29.143  1.00  0.00    -0.744 OA
ENDBRANCH  65  69
ENDBRANCH  48  62
BRANCH  49  73
ATOM     73  C   UNL A   1      38.747  31.020  30.680  1.00  0.00     0.023 A 
ATOM     74  C   UNL A   1      37.738  31.631  29.922  1.00  0.00     0.031 A 
ATOM     75  C   UNL A   1      38.376  30.370  31.871  1.00  0.00     0.131 A 
ATOM     76  C   UNL A   1      36.412  31.624  30.385  1.00  0.00     0.055 A 
ATOM     77  C   UNL A   1      37.048  30.317  32.299  1.00  0.00     0.041 A 
ATOM     78  F   UNL A   1      39.302  29.765  32.632  1.00  0.00    -0.206 F 
ATOM     79  C   UNL A   1      36.059  30.959  31.561  1.00  0.00     0.022 A 
BRANCH  76  80
ATOM     80  S   UNL A   1      35.168  32.574  29.471  1.00  0.00     0.124 S 
ATOM     81  O   UNL A   1      34.616  31.561  28.579  1.00  0.00    -0.237 OA
ATOM     82  O   UNL A   1      34.289  33.033  30.543  1.00  0.00    -0.237 OA
ATOM     83  O   UNL A   1      35.950  33.622  28.819  1.00  0.00    -0.744 OA
ENDBRANCH  76  80
ENDBRANCH  49  73
BRANCH  61  84
ATOM     84  C   UNL A   1      43.788  35.714  31.767  1.00  0.00     0.023 A 
ATOM     85  C   UNL A   1      43.764  36.918  31.042  1.00  0.00     0.031 A 
ATOM     86  C   UNL A   1      43.825  35.788  33.170  1.00  0.00     0.131 A 
ATOM     87  C   UNL A   1      43.837  38.144  31.721  1.00  0.00     0.055 A 
ATOM     88  C   UNL A   1      43.833  37.011  33.842  1.00  0.00     0.041 A 
ATOM     89  F   UNL A   1      43.851  34.669  33.913  1.00  0.00    -0.206 F 
ATOM     90  C   UNL A   1      43.853  38.198  33.117  1.00  0.00     0.022 A 
BRANCH  87  91
ATOM     91  S   UNL A   1      44.004  39.669  30.752  1.00  0.00     0.124 S 
ATOM     92  O   UNL A   1      45.432  39.680  30.450  1.00  0.00    -0.237 OA
ATOM     93  O   UNL A   1      43.116  39.420  29.621  1.00  0.00    -0.237 OA
ATOM     94  O   UNL A   1      43.557  40.712  31.673  1.00  0.00    -0.744 OA
ENDBRANCH  87  91
ENDBRANCH  61  84
ENDBRANCH  35  36
ENDBRANCH  27  30
ENDBRANCH  25  26
ENDBRANCH  24  25
ENDBRANCH  23  24
ENDBRANCH   1  23
TORSDOF 20
ENDMDL
