MODEL 1
REMARK VINA RESULT:     -11.1      0.000      0.000
REMARK SMILES CCC(CC)(CC(=O)NNC(=O)C1CC1)C(=O)NCCCCNC(=O)c1ccc(-c2c3nc(c(-c4cc(S(=O)(=O)[O-])ccc4F)c4ccc([nH]4)c(-c4cc(S(=O)(=O)[O-])ccc4F)c4nc(c(-c5cc(S(=O)(=O)[O-])ccc5F)c5ccc2[nH]5)C=C4)C=C3)cc1
REMARK SMILES IDX 20 1 19 2 18 3 16 4 17 5 3 7 2 8 1 9 4 10 5 11 6 12 7 13
REMARK SMILES IDX 8 14 9 15 10 17 11 18 12 20 13 21 14 22 15 23 21 24 22 25
REMARK SMILES IDX 23 26 24 27 25 29 26 30 27 31 88 32 28 33 87 34 29 35 30 36
REMARK SMILES IDX 31 37 81 38 32 39 86 40 80 41 82 42 33 43 85 44 79 45 78 46
REMARK SMILES IDX 34 48 66 49 46 50 65 51 47 52 50 53 64 54 83 55 48 56 49 57
REMARK SMILES IDX 63 59 84 60 51 61 35 62 36 63 44 64 37 65 43 66 45 67 42 68
REMARK SMILES IDX 38 69 39 70 40 71 41 72 67 73 68 74 76 75 69 76 75 77 77 78
REMARK SMILES IDX 74 79 70 80 71 81 72 82 73 83 52 84 53 85 61 86 54 87 60 88
REMARK SMILES IDX 62 89 59 90 55 91 56 92 57 93 58 94
REMARK H PARENT 18 6 9 16 10 19 23 28 82 47 50 58
REMARK Flexibility Score: inf
ROOT
ATOM      1  C   UNL A   1      31.780  28.644  27.007  1.00  0.00     0.023 C 
ENDROOT
BRANCH   1   2
ATOM      2  C   UNL A   1      31.410  27.202  26.678  1.00  0.00     0.116 C 
BRANCH   2   3
ATOM      3  N   UNL A   1      32.429  26.543  25.883  1.00  0.00    -0.356 N 
ATOM      4  C   UNL A   1      32.442  26.042  24.622  1.00  0.00     0.226 C 
ATOM      5  O   UNL A   1      33.466  25.436  24.293  1.00  0.00    -0.274 OA
ATOM      6  H   UNL A   1      33.287  26.437  26.356  1.00  0.00     0.163 HD
BRANCH   4   7
ATOM      7  C   UNL A   1      31.256  26.206  23.640  1.00  0.00     0.057 C 
BRANCH   7   8
ATOM      8  C   UNL A   1      30.064  26.890  24.396  1.00  0.00     0.014 C 
ATOM      9  C   UNL A   1      28.668  26.735  23.795  1.00  0.00     0.005 C 
ENDBRANCH   7   8
BRANCH   7  10
ATOM     10  C   UNL A   1      30.797  24.808  23.115  1.00  0.00     0.014 C 
ATOM     11  C   UNL A   1      30.858  23.674  24.133  1.00  0.00     0.005 C 
ENDBRANCH   7  10
BRANCH   7  12
ATOM     12  C   UNL A   1      31.672  27.143  22.472  1.00  0.00     0.118 C 
BRANCH  12  13
ATOM     13  C   UNL A   1      32.276  28.484  22.866  1.00  0.00     0.239 C 
ATOM     14  O   UNL A   1      33.272  28.551  23.586  1.00  0.00    -0.273 OA
ATOM     15  N   UNL A   1      31.749  29.640  22.350  1.00  0.00    -0.268 N 
ATOM     16  H   UNL A   1      32.224  30.481  22.536  1.00  0.00     0.191 HD
BRANCH  15  17
ATOM     17  N   UNL A   1      30.597  29.710  21.587  1.00  0.00    -0.267 N 
ATOM     18  C   UNL A   1      29.318  29.915  22.055  1.00  0.00     0.241 C 
ATOM     19  H   UNL A   1      30.702  29.603  20.614  1.00  0.00     0.191 HD
ATOM     20  O   UNL A   1      28.377  29.700  21.289  1.00  0.00    -0.273 OA
BRANCH  18  21
ATOM     21  C   UNL A   1      29.008  30.460  23.406  1.00  0.00     0.080 C 
ATOM     22  C   UNL A   1      29.114  31.877  23.894  1.00  0.00     0.014 C 
ATOM     23  C   UNL A   1      27.758  31.283  23.624  1.00  0.00     0.014 C 
ENDBRANCH  18  21
ENDBRANCH  15  17
ENDBRANCH  12  13
ENDBRANCH   7  12
ENDBRANCH   4   7
ENDBRANCH   2   3
ENDBRANCH   1   2
BRANCH   1  24
ATOM     24  C   UNL A   1      33.266  28.875  27.269  1.00  0.00     0.023 C 
BRANCH  24  25
ATOM     25  C   UNL A   1      33.850  30.113  26.600  1.00  0.00     0.116 C 
BRANCH  25  26
ATOM     26  N   UNL A   1      33.729  31.308  27.422  1.00  0.00    -0.352 N 
ATOM     27  C   UNL A   1      34.517  31.718  28.471  1.00  0.00     0.251 C 
ATOM     28  H   UNL A   1      32.979  31.905  27.196  1.00  0.00     0.163 HD
ATOM     29  O   UNL A   1      34.175  32.677  29.157  1.00  0.00    -0.269 OA
BRANCH  27  30
ATOM     30  C   UNL A   1      35.754  30.971  28.779  1.00  0.00     0.039 A 
ATOM     31  C   UNL A   1      36.958  31.393  28.214  1.00  0.00     0.014 A 
ATOM     32  C   UNL A   1      35.727  29.888  29.662  1.00  0.00     0.014 A 
ATOM     33  C   UNL A   1      38.149  30.771  28.593  1.00  0.00     0.010 A 
ATOM     34  C   UNL A   1      36.922  29.328  30.101  1.00  0.00     0.010 A 
ATOM     35  C   UNL A   1      38.146  29.763  29.572  1.00  0.00    -0.014 A 
BRANCH  35  36
ATOM     36  C   UNL A   1      39.414  29.152  30.052  1.00  0.00     0.031 A 
ATOM     37  C   UNL A   1      40.130  29.738  31.238  1.00  0.00     0.074 A 
ATOM     38  C   UNL A   1      39.947  28.108  29.386  1.00  0.00     0.049 A 
ATOM     39  N   UNL A   1      41.277  29.397  31.764  1.00  0.00    -0.248 NA
ATOM     40  C   UNL A   1      39.480  30.880  31.902  1.00  0.00     0.031 C 
ATOM     41  C   UNL A   1      39.366  27.479  28.196  1.00  0.00     0.029 A 
ATOM     42  N   UNL A   1      41.098  27.394  29.606  1.00  0.00    -0.354 N 
ATOM     43  C   UNL A   1      41.491  30.283  32.814  1.00  0.00     0.074 A 
ATOM     44  C   UNL A   1      40.389  31.221  32.801  1.00  0.00     0.031 C 
ATOM     45  C   UNL A   1      40.149  26.458  27.812  1.00  0.00     0.029 A 
ATOM     46  C   UNL A   1      41.314  26.391  28.689  1.00  0.00     0.049 A 
ATOM     47  H   UNL A   1      41.713  27.582  30.351  1.00  0.00     0.167 HD
ATOM     48  C   UNL A   1      42.499  30.296  33.722  1.00  0.00     0.034 A 
ATOM     49  C   UNL A   1      42.339  25.526  28.558  1.00  0.00     0.034 A 
ATOM     50  C   UNL A   1      43.588  29.351  33.720  1.00  0.00     0.049 A 
ATOM     51  C   UNL A   1      43.472  25.587  29.554  1.00  0.00     0.074 A 
ATOM     52  C   UNL A   1      44.638  29.246  34.616  1.00  0.00     0.029 A 
ATOM     53  N   UNL A   1      43.777  28.353  32.772  1.00  0.00    -0.354 N 
ATOM     54  N   UNL A   1      43.634  26.401  30.571  1.00  0.00    -0.248 NA
ATOM     55  C   UNL A   1      44.552  24.606  29.389  1.00  0.00     0.031 C 
ATOM     56  C   UNL A   1      45.500  28.241  34.165  1.00  0.00     0.029 A 
ATOM     57  C   UNL A   1      44.943  27.653  33.041  1.00  0.00     0.049 A 
ATOM     58  H   UNL A   1      43.171  28.170  32.017  1.00  0.00     0.167 HD
ATOM     59  C   UNL A   1      44.819  26.006  31.187  1.00  0.00     0.074 A 
ATOM     60  C   UNL A   1      45.318  24.873  30.437  1.00  0.00     0.031 C 
ATOM     61  C   UNL A   1      45.436  26.529  32.278  1.00  0.00     0.034 A 
BRANCH  48  62
ATOM     62  C   UNL A   1      42.473  31.382  34.773  1.00  0.00     0.023 A 
ATOM     63  C   UNL A   1      41.482  31.420  35.771  1.00  0.00     0.031 A 
ATOM     64  C   UNL A   1      43.436  32.407  34.765  1.00  0.00     0.131 A 
ATOM     65  C   UNL A   1      41.427  32.499  36.664  1.00  0.00     0.055 A 
ATOM     66  C   UNL A   1      43.428  33.431  35.715  1.00  0.00     0.041 A 
ATOM     67  F   UNL A   1      44.393  32.439  33.826  1.00  0.00    -0.206 F 
ATOM     68  C   UNL A   1      42.411  33.491  36.662  1.00  0.00     0.022 A 
BRANCH  65  69
ATOM     69  S   UNL A   1      39.966  32.670  37.726  1.00  0.00     0.124 S 
ATOM     70  O   UNL A   1      39.129  31.570  37.254  1.00  0.00    -0.237 OA
ATOM     71  O   UNL A   1      40.529  32.517  39.063  1.00  0.00    -0.237 OA
ATOM     72  O   UNL A   1      39.466  34.006  37.407  1.00  0.00    -0.744 OA
ENDBRANCH  65  69
ENDBRANCH  48  62
BRANCH  49  73
ATOM     73  C   UNL A   1      42.363  24.541  27.436  1.00  0.00     0.023 A 
ATOM     74  C   UNL A   1      41.558  23.391  27.462  1.00  0.00     0.031 A 
ATOM     75  C   UNL A   1      43.228  24.714  26.341  1.00  0.00     0.131 A 
ATOM     76  C   UNL A   1      41.674  22.433  26.442  1.00  0.00     0.055 A 
ATOM     77  C   UNL A   1      43.294  23.788  25.298  1.00  0.00     0.041 A 
ATOM     78  F   UNL A   1      44.019  25.795  26.263  1.00  0.00    -0.206 F 
ATOM     79  C   UNL A   1      42.523  22.631  25.352  1.00  0.00     0.022 A 
BRANCH  76  80
ATOM     80  S   UNL A   1      40.768  20.870  26.613  1.00  0.00     0.124 S 
ATOM     81  O   UNL A   1      40.876  20.619  28.045  1.00  0.00    -0.237 OA
ATOM     82  O   UNL A   1      39.442  21.233  26.122  1.00  0.00    -0.237 OA
ATOM     83  O   UNL A   1      41.516  19.949  25.758  1.00  0.00    -0.744 OA
ENDBRANCH  76  80
ENDBRANCH  49  73
BRANCH  61  84
ATOM     84  C   UNL A   1      46.697  25.844  32.752  1.00  0.00     0.023 A 
ATOM     85  C   UNL A   1      47.941  26.068  32.139  1.00  0.00     0.031 A 
ATOM     86  C   UNL A   1      46.645  24.944  33.833  1.00  0.00     0.131 A 
ATOM     87  C   UNL A   1      49.072  25.357  32.573  1.00  0.00     0.055 A 
ATOM     88  C   UNL A   1      47.786  24.294  34.304  1.00  0.00     0.041 A 
ATOM     89  F   UNL A   1      45.483  24.686  34.454  1.00  0.00    -0.206 F 
ATOM     90  C   UNL A   1      49.006  24.488  33.664  1.00  0.00     0.022 A 
BRANCH  87  91
ATOM     91  S   UNL A   1      50.611  25.508  31.625  1.00  0.00     0.124 S 
ATOM     92  O   UNL A   1      51.475  26.220  32.560  1.00  0.00    -0.237 OA
ATOM     93  O   UNL A   1      50.959  24.114  31.369  1.00  0.00    -0.237 OA
ATOM     94  O   UNL A   1      50.213  26.273  30.444  1.00  0.00    -0.744 OA
ENDBRANCH  87  91
ENDBRANCH  61  84
ENDBRANCH  35  36
ENDBRANCH  27  30
ENDBRANCH  25  26
ENDBRANCH  24  25
ENDBRANCH   1  24
TORSDOF 20
ENDMDL
MODEL 2
REMARK VINA RESULT:     -11.0      3.700      9.080
REMARK SMILES CCC(CC)(CC(=O)NNC(=O)C1CC1)C(=O)NCCCCNC(=O)c1ccc(-c2c3nc(c(-c4cc(S(=O)(=O)[O-])ccc4F)c4ccc([nH]4)c(-c4cc(S(=O)(=O)[O-])ccc4F)c4nc(c(-c5cc(S(=O)(=O)[O-])ccc5F)c5ccc2[nH]5)C=C4)C=C3)cc1
REMARK SMILES IDX 20 1 19 2 18 3 16 4 17 5 3 7 2 8 1 9 4 10 5 11 6 12 7 13
REMARK SMILES IDX 8 14 9 15 10 17 11 18 12 20 13 21 14 22 15 23 21 24 22 25
REMARK SMILES IDX 23 26 24 27 25 29 26 30 27 31 88 32 28 33 87 34 29 35 30 36
REMARK SMILES IDX 31 37 81 38 32 39 86 40 80 41 82 42 33 43 85 44 79 45 78 46
REMARK SMILES IDX 34 48 66 49 46 50 65 51 47 52 50 53 64 54 83 55 48 56 49 57
REMARK SMILES IDX 63 59 84 60 51 61 35 62 36 63 44 64 37 65 43 66 45 67 42 68
REMARK SMILES IDX 38 69 39 70 40 71 41 72 67 73 68 74 76 75 69 76 75 77 77 78
REMARK SMILES IDX 74 79 70 80 71 81 72 82 73 83 52 84 53 85 61 86 54 87 60 88
REMARK SMILES IDX 62 89 59 90 55 91 56 92 57 93 58 94
REMARK H PARENT 18 6 9 16 10 19 23 28 82 47 50 58
REMARK Flexibility Score: inf
ROOT
ATOM      1  C   UNL A   1      31.910  30.091  26.731  1.00  0.00     0.023 C 
ENDROOT
BRANCH   1   2
ATOM      2  C   UNL A   1      33.276  29.544  26.331  1.00  0.00     0.116 C 
BRANCH   2   3
ATOM      3  N   UNL A   1      33.469  29.553  24.892  1.00  0.00    -0.356 N 
ATOM      4  C   UNL A   1      33.364  28.595  23.936  1.00  0.00     0.226 C 
ATOM      5  O   UNL A   1      33.714  28.928  22.800  1.00  0.00    -0.274 OA
ATOM      6  H   UNL A   1      33.730  30.434  24.538  1.00  0.00     0.163 HD
BRANCH   4   7
ATOM      7  C   UNL A   1      32.842  27.167  24.230  1.00  0.00     0.057 C 
BRANCH   7   8
ATOM      8  C   UNL A   1      33.635  26.580  25.450  1.00  0.00     0.014 C 
ATOM      9  C   UNL A   1      34.340  25.240  25.250  1.00  0.00     0.005 C 
ENDBRANCH   7   8
BRANCH   7  10
ATOM     10  C   UNL A   1      33.061  26.250  22.985  1.00  0.00     0.014 C 
ATOM     11  C   UNL A   1      31.863  26.120  22.050  1.00  0.00     0.005 C 
ENDBRANCH   7  10
BRANCH   7  12
ATOM     12  C   UNL A   1      31.342  27.232  24.631  1.00  0.00     0.118 C 
BRANCH  12  13
ATOM     13  C   UNL A   1      30.950  26.479  25.895  1.00  0.00     0.239 C 
ATOM     14  O   UNL A   1      30.967  27.025  26.998  1.00  0.00    -0.273 OA
ATOM     15  N   UNL A   1      30.496  25.188  25.798  1.00  0.00    -0.268 N 
ATOM     16  H   UNL A   1      30.150  24.764  26.616  1.00  0.00     0.191 HD
BRANCH  15  17
ATOM     17  N   UNL A   1      30.491  24.439  24.636  1.00  0.00    -0.267 N 
ATOM     18  C   UNL A   1      31.061  23.197  24.461  1.00  0.00     0.241 C 
ATOM     19  H   UNL A   1      30.034  24.831  23.857  1.00  0.00     0.191 HD
ATOM     20  O   UNL A   1      31.193  22.775  23.312  1.00  0.00    -0.273 OA
BRANCH  18  21
ATOM     21  C   UNL A   1      31.453  22.300  25.584  1.00  0.00     0.080 C 
ATOM     22  C   UNL A   1      32.827  21.850  25.990  1.00  0.00     0.014 C 
ATOM     23  C   UNL A   1      32.103  22.873  26.822  1.00  0.00     0.014 C 
ENDBRANCH  18  21
ENDBRANCH  15  17
ENDBRANCH  12  13
ENDBRANCH   7  12
ENDBRANCH   4   7
ENDBRANCH   2   3
ENDBRANCH   1   2
BRANCH   1  24
ATOM     24  C   UNL A   1      31.798  31.614  26.687  1.00  0.00     0.023 C 
BRANCH  24  25
ATOM     25  C   UNL A   1      32.902  32.358  27.429  1.00  0.00     0.116 C 
BRANCH  25  26
ATOM     26  N   UNL A   1      32.592  33.766  27.635  1.00  0.00    -0.352 N 
ATOM     27  C   UNL A   1      33.125  34.642  28.550  1.00  0.00     0.251 C 
ATOM     28  H   UNL A   1      31.906  34.142  27.038  1.00  0.00     0.163 HD
ATOM     29  O   UNL A   1      32.632  35.757  28.691  1.00  0.00    -0.269 OA
BRANCH  27  30
ATOM     30  C   UNL A   1      34.269  34.212  29.380  1.00  0.00     0.039 A 
ATOM     31  C   UNL A   1      34.024  33.495  30.553  1.00  0.00     0.014 A 
ATOM     32  C   UNL A   1      35.580  34.475  28.973  1.00  0.00     0.014 A 
ATOM     33  C   UNL A   1      35.097  32.980  31.280  1.00  0.00     0.010 A 
ATOM     34  C   UNL A   1      36.643  33.889  29.652  1.00  0.00     0.010 A 
ATOM     35  C   UNL A   1      36.414  33.135  30.813  1.00  0.00    -0.014 A 
BRANCH  35  36
ATOM     36  C   UNL A   1      37.563  32.517  31.526  1.00  0.00     0.031 A 
ATOM     37  C   UNL A   1      38.295  31.356  30.910  1.00  0.00     0.074 A 
ATOM     38  C   UNL A   1      37.907  32.962  32.751  1.00  0.00     0.049 A 
ATOM     39  N   UNL A   1      39.270  30.637  31.402  1.00  0.00    -0.248 NA
ATOM     40  C   UNL A   1      37.849  30.930  29.574  1.00  0.00     0.031 C 
ATOM     41  C   UNL A   1      37.245  34.054  33.470  1.00  0.00     0.029 A 
ATOM     42  N   UNL A   1      38.894  32.552  33.613  1.00  0.00    -0.354 N 
ATOM     43  C   UNL A   1      39.550  29.671  30.441  1.00  0.00     0.074 A 
ATOM     44  C   UNL A   1      38.592  29.853  29.372  1.00  0.00     0.031 C 
ATOM     45  C   UNL A   1      37.861  34.243  34.648  1.00  0.00     0.029 A 
ATOM     46  C   UNL A   1      38.925  33.255  34.795  1.00  0.00     0.049 A 
ATOM     47  H   UNL A   1      39.520  31.822  33.404  1.00  0.00     0.167 HD
ATOM     48  C   UNL A   1      40.534  28.738  30.438  1.00  0.00     0.034 A 
ATOM     49  C   UNL A   1      39.710  33.111  35.882  1.00  0.00     0.034 A 
ATOM     50  C   UNL A   1      41.482  28.572  31.512  1.00  0.00     0.049 A 
ATOM     51  C   UNL A   1      40.771  32.037  35.875  1.00  0.00     0.074 A 
ATOM     52  C   UNL A   1      42.544  27.688  31.595  1.00  0.00     0.029 A 
ATOM     53  N   UNL A   1      41.480  29.298  32.697  1.00  0.00    -0.354 N 
ATOM     54  N   UNL A   1      41.054  31.163  34.936  1.00  0.00    -0.248 NA
ATOM     55  C   UNL A   1      41.621  31.937  37.067  1.00  0.00     0.031 C 
ATOM     56  C   UNL A   1      43.131  27.824  32.857  1.00  0.00     0.029 A 
ATOM     57  C   UNL A   1      42.498  28.857  33.529  1.00  0.00     0.049 A 
ATOM     58  H   UNL A   1      40.846  30.020  32.914  1.00  0.00     0.167 HD
ATOM     59  C   UNL A   1      42.140  30.433  35.414  1.00  0.00     0.074 A 
ATOM     60  C   UNL A   1      42.467  30.980  36.714  1.00  0.00     0.031 C 
ATOM     61  C   UNL A   1      42.809  29.405  34.829  1.00  0.00     0.034 A 
BRANCH  48  62
ATOM     62  C   UNL A   1      40.611  27.813  29.244  1.00  0.00     0.023 A 
ATOM     63  C   UNL A   1      41.539  28.023  28.207  1.00  0.00     0.031 A 
ATOM     64  C   UNL A   1      39.732  26.722  29.127  1.00  0.00     0.131 A 
ATOM     65  C   UNL A   1      41.512  27.208  27.067  1.00  0.00     0.055 A 
ATOM     66  C   UNL A   1      39.770  25.861  28.029  1.00  0.00     0.041 A 
ATOM     67  F   UNL A   1      38.809  26.483  30.071  1.00  0.00    -0.206 F 
ATOM     68  C   UNL A   1      40.653  26.110  26.982  1.00  0.00     0.022 A 
BRANCH  65  69
ATOM     69  S   UNL A   1      42.505  27.698  25.630  1.00  0.00     0.124 S 
ATOM     70  O   UNL A   1      42.256  26.591  24.709  1.00  0.00    -0.237 OA
ATOM     71  O   UNL A   1      41.915  28.979  25.261  1.00  0.00    -0.237 OA
ATOM     72  O   UNL A   1      43.865  27.764  26.160  1.00  0.00    -0.744 OA
ENDBRANCH  65  69
ENDBRANCH  48  62
BRANCH  49  73
ATOM     73  C   UNL A   1      39.520  33.986  37.077  1.00  0.00     0.023 A 
ATOM     74  C   UNL A   1      38.965  33.483  38.264  1.00  0.00     0.031 A 
ATOM     75  C   UNL A   1      39.847  35.353  37.030  1.00  0.00     0.131 A 
ATOM     76  C   UNL A   1      38.705  34.351  39.337  1.00  0.00     0.055 A 
ATOM     77  C   UNL A   1      39.644  36.199  38.122  1.00  0.00     0.041 A 
ATOM     78  F   UNL A   1      40.381  35.888  35.921  1.00  0.00    -0.206 F 
ATOM     79  C   UNL A   1      39.056  35.701  39.281  1.00  0.00     0.022 A 
BRANCH  76  80
ATOM     80  S   UNL A   1      37.806  33.708  40.776  1.00  0.00     0.124 S 
ATOM     81  O   UNL A   1      38.793  32.810  41.365  1.00  0.00    -0.237 OA
ATOM     82  O   UNL A   1      37.521  34.927  41.525  1.00  0.00    -0.237 OA
ATOM     83  O   UNL A   1      36.641  33.054  40.184  1.00  0.00    -0.744 OA
ENDBRANCH  76  80
ENDBRANCH  49  73
BRANCH  61  84
ATOM     84  C   UNL A   1      43.995  28.842  35.575  1.00  0.00     0.023 A 
ATOM     85  C   UNL A   1      43.881  27.729  36.424  1.00  0.00     0.031 A 
ATOM     86  C   UNL A   1      45.262  29.440  35.437  1.00  0.00     0.131 A 
ATOM     87  C   UNL A   1      44.999  27.283  37.148  1.00  0.00     0.055 A 
ATOM     88  C   UNL A   1      46.384  28.949  36.105  1.00  0.00     0.041 A 
ATOM     89  F   UNL A   1      45.431  30.510  34.645  1.00  0.00    -0.206 F 
ATOM     90  C   UNL A   1      46.253  27.873  36.977  1.00  0.00     0.022 A 
BRANCH  87  91
ATOM     91  S   UNL A   1      44.769  25.984  38.392  1.00  0.00     0.124 S 
ATOM     92  O   UNL A   1      43.854  25.072  37.714  1.00  0.00    -0.237 OA
ATOM     93  O   UNL A   1      46.129  25.493  38.588  1.00  0.00    -0.237 OA
ATOM     94  O   UNL A   1      44.198  26.699  39.533  1.00  0.00    -0.744 OA
ENDBRANCH  87  91
ENDBRANCH  61  84
ENDBRANCH  35  36
ENDBRANCH  27  30
ENDBRANCH  25  26
ENDBRANCH  24  25
ENDBRANCH   1  24
TORSDOF 20
ENDMDL
MODEL 3
REMARK VINA RESULT:     -10.9      3.362      8.623
REMARK SMILES CCC(CC)(CC(=O)NNC(=O)C1CC1)C(=O)NCCCCNC(=O)c1ccc(-c2c3nc(c(-c4cc(S(=O)(=O)[O-])ccc4F)c4ccc([nH]4)c(-c4cc(S(=O)(=O)[O-])ccc4F)c4nc(c(-c5cc(S(=O)(=O)[O-])ccc5F)c5ccc2[nH]5)C=C4)C=C3)cc1
REMARK SMILES IDX 20 1 19 2 18 3 16 4 17 5 3 7 2 8 1 9 4 10 5 11 6 12 7 13
REMARK SMILES IDX 8 14 9 15 10 17 11 18 12 20 13 21 14 22 15 23 21 24 22 25
REMARK SMILES IDX 23 26 24 27 25 29 26 30 27 31 88 32 28 33 87 34 29 35 30 36
REMARK SMILES IDX 31 37 81 38 32 39 86 40 80 41 82 42 33 43 85 44 79 45 78 46
REMARK SMILES IDX 34 48 66 49 46 50 65 51 47 52 50 53 64 54 83 55 48 56 49 57
REMARK SMILES IDX 63 59 84 60 51 61 35 62 36 63 44 64 37 65 43 66 45 67 42 68
REMARK SMILES IDX 38 69 39 70 40 71 41 72 67 73 68 74 76 75 69 76 75 77 77 78
REMARK SMILES IDX 74 79 70 80 71 81 72 82 73 83 52 84 53 85 61 86 54 87 60 88
REMARK SMILES IDX 62 89 59 90 55 91 56 92 57 93 58 94
REMARK H PARENT 18 6 9 16 10 19 23 28 82 47 50 58
REMARK Flexibility Score: inf
ROOT
ATOM      1  C   UNL A   1      32.491  29.182  27.235  1.00  0.00     0.023 C 
ENDROOT
BRANCH   1   2
ATOM      2  C   UNL A   1      31.723  28.180  26.380  1.00  0.00     0.116 C 
BRANCH   2   3
ATOM      3  N   UNL A   1      32.593  27.169  25.809  1.00  0.00    -0.356 N 
ATOM      4  C   UNL A   1      32.528  26.421  24.678  1.00  0.00     0.226 C 
ATOM      5  O   UNL A   1      33.402  25.558  24.552  1.00  0.00    -0.274 OA
ATOM      6  H   UNL A   1      33.394  26.988  26.353  1.00  0.00     0.163 HD
BRANCH   4   7
ATOM      7  C   UNL A   1      31.433  26.619  23.601  1.00  0.00     0.057 C 
BRANCH   7   8
ATOM      8  C   UNL A   1      30.238  27.414  24.234  1.00  0.00     0.014 C 
ATOM      9  C   UNL A   1      28.837  27.116  23.704  1.00  0.00     0.005 C 
ENDBRANCH   7   8
BRANCH   7  10
ATOM     10  C   UNL A   1      30.919  25.232  23.098  1.00  0.00     0.014 C 
ATOM     11  C   UNL A   1      30.757  24.164  24.175  1.00  0.00     0.005 C 
ENDBRANCH   7  10
BRANCH   7  12
ATOM     12  C   UNL A   1      32.000  27.472  22.432  1.00  0.00     0.118 C 
BRANCH  12  13
ATOM     13  C   UNL A   1      32.335  28.922  22.758  1.00  0.00     0.239 C 
ATOM     14  O   UNL A   1      33.294  29.213  23.473  1.00  0.00    -0.273 OA
ATOM     15  N   UNL A   1      31.603  29.929  22.184  1.00  0.00    -0.268 N 
ATOM     16  H   UNL A   1      31.908  30.854  22.326  1.00  0.00     0.191 HD
BRANCH  15  17
ATOM     17  N   UNL A   1      30.465  29.741  21.419  1.00  0.00    -0.267 N 
ATOM     18  C   UNL A   1      29.219  30.275  21.663  1.00  0.00     0.241 C 
ATOM     19  H   UNL A   1      30.556  29.170  20.622  1.00  0.00     0.191 HD
ATOM     20  O   UNL A   1      28.259  29.816  21.043  1.00  0.00    -0.273 OA
BRANCH  18  21
ATOM     21  C   UNL A   1      28.976  31.431  22.570  1.00  0.00     0.080 C 
ATOM     22  C   UNL A   1      27.801  31.687  23.470  1.00  0.00     0.014 C 
ATOM     23  C   UNL A   1      29.116  31.263  24.066  1.00  0.00     0.014 C 
ENDBRANCH  18  21
ENDBRANCH  15  17
ENDBRANCH  12  13
ENDBRANCH   7  12
ENDBRANCH   4   7
ENDBRANCH   2   3
ENDBRANCH   1   2
BRANCH   1  24
ATOM     24  C   UNL A   1      32.111  30.643  26.999  1.00  0.00     0.023 C 
BRANCH  24  25
ATOM     25  C   UNL A   1      33.271  31.627  27.083  1.00  0.00     0.116 C 
BRANCH  25  26
ATOM     26  N   UNL A   1      32.835  32.989  27.355  1.00  0.00    -0.352 N 
ATOM     27  C   UNL A   1      33.263  33.854  28.334  1.00  0.00     0.251 C 
ATOM     28  H   UNL A   1      32.137  33.340  26.755  1.00  0.00     0.163 HD
ATOM     29  O   UNL A   1      32.671  34.913  28.518  1.00  0.00    -0.269 OA
BRANCH  27  30
ATOM     30  C   UNL A   1      34.415  33.474  29.179  1.00  0.00     0.039 A 
ATOM     31  C   UNL A   1      34.193  32.699  30.318  1.00  0.00     0.014 A 
ATOM     32  C   UNL A   1      35.713  33.846  28.817  1.00  0.00     0.014 A 
ATOM     33  C   UNL A   1      35.282  32.233  31.054  1.00  0.00     0.010 A 
ATOM     34  C   UNL A   1      36.798  33.310  29.503  1.00  0.00     0.010 A 
ATOM     35  C   UNL A   1      36.595  32.499  30.629  1.00  0.00    -0.014 A 
BRANCH  35  36
ATOM     36  C   UNL A   1      37.768  31.937  31.351  1.00  0.00     0.031 A 
ATOM     37  C   UNL A   1      38.597  30.856  30.712  1.00  0.00     0.074 A 
ATOM     38  C   UNL A   1      38.049  32.359  32.600  1.00  0.00     0.049 A 
ATOM     39  N   UNL A   1      39.608  30.190  31.204  1.00  0.00    -0.248 NA
ATOM     40  C   UNL A   1      38.216  30.451  29.350  1.00  0.00     0.031 C 
ATOM     41  C   UNL A   1      37.292  33.373  33.340  1.00  0.00     0.029 A 
ATOM     42  N   UNL A   1      39.041  31.988  33.472  1.00  0.00    -0.354 N 
ATOM     43  C   UNL A   1      39.981  29.284  30.217  1.00  0.00     0.074 A 
ATOM     44  C   UNL A   1      39.039  29.438  29.129  1.00  0.00     0.031 C 
ATOM     45  C   UNL A   1      37.864  33.560  34.540  1.00  0.00     0.029 A 
ATOM     46  C   UNL A   1      38.993  32.646  34.680  1.00  0.00     0.049 A 
ATOM     47  H   UNL A   1      39.724  31.312  33.255  1.00  0.00     0.167 HD
ATOM     48  C   UNL A   1      41.030  28.424  30.207  1.00  0.00     0.034 A 
ATOM     49  C   UNL A   1      39.759  32.516  35.782  1.00  0.00     0.034 A 
ATOM     50  C   UNL A   1      41.961  28.285  31.300  1.00  0.00     0.049 A 
ATOM     51  C   UNL A   1      40.894  31.521  35.764  1.00  0.00     0.074 A 
ATOM     52  C   UNL A   1      43.081  27.476  31.380  1.00  0.00     0.029 A 
ATOM     53  N   UNL A   1      41.877  28.963  32.510  1.00  0.00    -0.354 N 
ATOM     54  N   UNL A   1      41.263  30.706  34.803  1.00  0.00    -0.248 NA
ATOM     55  C   UNL A   1      41.719  31.436  36.975  1.00  0.00     0.031 C 
ATOM     56  C   UNL A   1      43.625  27.605  32.662  1.00  0.00     0.029 A 
ATOM     57  C   UNL A   1      42.903  28.564  33.353  1.00  0.00     0.049 A 
ATOM     58  H   UNL A   1      41.188  29.629  32.736  1.00  0.00     0.167 HD
ATOM     59  C   UNL A   1      42.386  30.038  35.283  1.00  0.00     0.074 A 
ATOM     60  C   UNL A   1      42.641  30.556  36.611  1.00  0.00     0.031 C 
ATOM     61  C   UNL A   1      43.142  29.083  34.680  1.00  0.00     0.034 A 
BRANCH  48  62
ATOM     62  C   UNL A   1      41.203  27.554  28.983  1.00  0.00     0.023 A 
ATOM     63  C   UNL A   1      42.212  27.806  28.035  1.00  0.00     0.031 A 
ATOM     64  C   UNL A   1      40.335  26.473  28.746  1.00  0.00     0.131 A 
ATOM     65  C   UNL A   1      42.276  27.042  26.860  1.00  0.00     0.055 A 
ATOM     66  C   UNL A   1      40.462  25.661  27.617  1.00  0.00     0.041 A 
ATOM     67  F   UNL A   1      39.339  26.195  29.601  1.00  0.00    -0.206 F 
ATOM     68  C   UNL A   1      41.426  25.953  26.657  1.00  0.00     0.022 A 
BRANCH  65  69
ATOM     69  S   UNL A   1      43.383  27.592  25.532  1.00  0.00     0.124 S 
ATOM     70  O   UNL A   1      44.174  26.387  25.291  1.00  0.00    -0.237 OA
ATOM     71  O   UNL A   1      42.448  27.964  24.477  1.00  0.00    -0.237 OA
ATOM     72  O   UNL A   1      44.119  28.701  26.135  1.00  0.00    -0.744 OA
ENDBRANCH  65  69
ENDBRANCH  48  62
BRANCH  49  73
ATOM     73  C   UNL A   1      39.477  33.329  37.002  1.00  0.00     0.023 A 
ATOM     74  C   UNL A   1      40.133  34.549  37.230  1.00  0.00     0.031 A 
ATOM     75  C   UNL A   1      38.579  32.871  37.983  1.00  0.00     0.131 A 
ATOM     76  C   UNL A   1      39.922  35.243  38.433  1.00  0.00     0.055 A 
ATOM     77  C   UNL A   1      38.326  33.596  39.149  1.00  0.00     0.041 A 
ATOM     78  F   UNL A   1      37.923  31.712  37.817  1.00  0.00    -0.206 F 
ATOM     79  C   UNL A   1      39.011  34.783  39.386  1.00  0.00     0.022 A 
BRANCH  76  80
ATOM     80  S   UNL A   1      40.935  36.708  38.779  1.00  0.00     0.124 S 
ATOM     81  O   UNL A   1      39.917  37.740  38.944  1.00  0.00    -0.237 OA
ATOM     82  O   UNL A   1      41.643  36.306  39.990  1.00  0.00    -0.237 OA
ATOM     83  O   UNL A   1      41.767  36.835  37.585  1.00  0.00    -0.744 OA
ENDBRANCH  76  80
ENDBRANCH  49  73
BRANCH  61  84
ATOM     84  C   UNL A   1      44.347  28.578  35.437  1.00  0.00     0.023 A 
ATOM     85  C   UNL A   1      44.240  27.603  36.443  1.00  0.00     0.031 A 
ATOM     86  C   UNL A   1      45.625  29.091  35.149  1.00  0.00     0.131 A 
ATOM     87  C   UNL A   1      45.380  27.213  37.165  1.00  0.00     0.055 A 
ATOM     88  C   UNL A   1      46.765  28.648  35.822  1.00  0.00     0.041 A 
ATOM     89  F   UNL A   1      45.789  30.028  34.202  1.00  0.00    -0.206 F 
ATOM     90  C   UNL A   1      46.644  27.714  36.846  1.00  0.00     0.022 A 
BRANCH  87  91
ATOM     91  S   UNL A   1      45.172  26.117  38.595  1.00  0.00     0.124 S 
ATOM     92  O   UNL A   1      46.223  26.588  39.492  1.00  0.00    -0.237 OA
ATOM     93  O   UNL A   1      43.803  26.401  39.012  1.00  0.00    -0.237 OA
ATOM     94  O   UNL A   1      45.386  24.783  38.038  1.00  0.00    -0.744 OA
ENDBRANCH  87  91
ENDBRANCH  61  84
ENDBRANCH  35  36
ENDBRANCH  27  30
ENDBRANCH  25  26
ENDBRANCH  24  25
ENDBRANCH   1  24
TORSDOF 20
ENDMDL
