MODEL 1
REMARK VINA RESULT:     -12.3      0.000      0.000
REMARK SMILES CC1(C)CCC[C@@H]1Nc1cccc(F)c1C(=O)NCCCCNC(=O)c1ccc(-c2c3nc(c(-c4cc(S(=O)(=O)[O-])ccc4F)c4ccc([nH]4)c(-c4cc(S(=O)(=O)[O-])ccc4F)c4nc(c(-c5cc(S(=O)(=O)[O-])ccc5F)c5ccc2[nH]5)C=C4)C=C3)cc1
REMARK SMILES IDX 21 1 20 2 19 3 18 4 16 5 17 6 15 8 9 9 10 10 11 11 13 12
REMARK SMILES IDX 12 13 14 14 8 15 7 17 1 18 2 19 3 20 4 21 5 22 6 23 22 24
REMARK SMILES IDX 23 25 24 26 25 28 26 29 27 30 88 31 28 32 87 33 29 34 30 35
REMARK SMILES IDX 31 36 81 37 32 38 86 39 80 40 82 41 33 42 85 43 79 44 78 45
REMARK SMILES IDX 34 47 66 48 46 49 65 50 47 51 50 52 64 53 83 54 48 55 49 56
REMARK SMILES IDX 63 58 84 59 51 60 35 61 36 62 44 63 37 64 43 65 45 66 42 67
REMARK SMILES IDX 38 68 39 69 40 70 41 71 67 72 68 73 76 74 69 75 75 76 77 77
REMARK SMILES IDX 74 78 70 79 71 80 72 81 73 82 52 83 53 84 61 85 54 86 60 87
REMARK SMILES IDX 62 88 59 89 55 90 56 91 57 92 58 93
REMARK H PARENT 18 7 8 16 23 27 82 46 50 57
REMARK Flexibility Score: inf
ROOT
ATOM      1  C   UNL A   1      35.559  21.949  25.024  1.00  0.00     0.023 C 
ENDROOT
BRANCH   1   2
ATOM      2  C   UNL A   1      35.188  22.563  26.373  1.00  0.00     0.023 C 
BRANCH   2   3
ATOM      3  C   UNL A   1      34.378  21.694  27.332  1.00  0.00     0.116 C 
BRANCH   3   4
ATOM      4  N   UNL A   1      33.054  22.211  27.627  1.00  0.00    -0.352 N 
ATOM      5  C   UNL A   1      31.952  22.430  26.831  1.00  0.00     0.256 C 
ATOM      6  O   UNL A   1      30.953  22.887  27.393  1.00  0.00    -0.269 OA
ATOM      7  H   UNL A   1      32.918  22.448  28.573  1.00  0.00     0.163 HD
BRANCH   5   8
ATOM      8  C   UNL A   1      31.934  22.231  25.349  1.00  0.00     0.098 A 
ATOM      9  C   UNL A   1      31.623  23.324  24.492  1.00  0.00     0.050 A 
ATOM     10  C   UNL A   1      31.731  23.148  23.099  1.00  0.00     0.027 A 
ATOM     11  C   UNL A   1      32.068  21.915  22.547  1.00  0.00     0.005 A 
ATOM     12  C   UNL A   1      32.146  20.979  24.765  1.00  0.00     0.138 A 
ATOM     13  C   UNL A   1      32.242  20.821  23.383  1.00  0.00     0.040 A 
ATOM     14  F   UNL A   1      32.206  19.863  25.506  1.00  0.00    -0.206 F 
BRANCH   9  15
ATOM     15  N   UNL A   1      31.122  24.545  24.987  1.00  0.00    -0.381 N 
ATOM     16  H   UNL A   1      30.522  24.568  25.768  1.00  0.00     0.160 HD
BRANCH  15  17
ATOM     17  C   UNL A   1      31.518  25.780  24.304  1.00  0.00     0.084 C 
ATOM     18  C   UNL A   1      33.677  26.505  25.454  1.00  0.00     0.013 C 
ATOM     19  C   UNL A   1      32.192  26.812  25.243  1.00  0.00    -0.015 C 
ATOM     20  C   UNL A   1      31.509  26.953  26.617  1.00  0.00     0.013 C 
ATOM     21  C   UNL A   1      32.015  28.110  24.432  1.00  0.00     0.008 C 
ATOM     22  C   UNL A   1      30.608  28.019  23.853  1.00  0.00     0.003 C 
ATOM     23  C   UNL A   1      30.307  26.528  23.717  1.00  0.00     0.025 C 
ENDBRANCH  15  17
ENDBRANCH   9  15
ENDBRANCH   5   8
ENDBRANCH   3   4
ENDBRANCH   2   3
ENDBRANCH   1   2
BRANCH   1  24
ATOM     24  C   UNL A   1      37.016  22.070  24.589  1.00  0.00     0.116 C 
BRANCH  24  25
ATOM     25  N   UNL A   1      37.876  21.025  25.119  1.00  0.00    -0.352 N 
ATOM     26  C   UNL A   1      38.983  21.103  25.935  1.00  0.00     0.251 C 
ATOM     27  H   UNL A   1      37.627  20.111  24.851  1.00  0.00     0.163 HD
ATOM     28  O   UNL A   1      39.609  20.081  26.192  1.00  0.00    -0.269 OA
BRANCH  26  29
ATOM     29  C   UNL A   1      39.447  22.409  26.463  1.00  0.00     0.039 A 
ATOM     30  C   UNL A   1      40.573  22.430  27.292  1.00  0.00     0.014 A 
ATOM     31  C   UNL A   1      38.794  23.604  26.153  1.00  0.00     0.014 A 
ATOM     32  C   UNL A   1      41.097  23.652  27.726  1.00  0.00     0.010 A 
ATOM     33  C   UNL A   1      39.361  24.825  26.522  1.00  0.00     0.010 A 
ATOM     34  C   UNL A   1      40.528  24.863  27.300  1.00  0.00    -0.014 A 
BRANCH  34  35
ATOM     35  C   UNL A   1      41.165  26.167  27.631  1.00  0.00     0.031 A 
ATOM     36  C   UNL A   1      42.572  26.467  27.193  1.00  0.00     0.074 A 
ATOM     37  C   UNL A   1      40.483  27.068  28.369  1.00  0.00     0.049 A 
ATOM     38  N   UNL A   1      43.299  27.529  27.430  1.00  0.00    -0.248 NA
ATOM     39  C   UNL A   1      43.261  25.432  26.407  1.00  0.00     0.031 C 
ATOM     40  C   UNL A   1      39.125  26.879  28.889  1.00  0.00     0.029 A 
ATOM     41  N   UNL A   1      40.831  28.321  28.809  1.00  0.00    -0.354 N 
ATOM     42  C   UNL A   1      44.530  27.290  26.829  1.00  0.00     0.074 A 
ATOM     43  C   UNL A   1      44.468  25.959  26.263  1.00  0.00     0.031 C 
ATOM     44  C   UNL A   1      38.741  27.992  29.534  1.00  0.00     0.029 A 
ATOM     45  C   UNL A   1      39.837  28.956  29.520  1.00  0.00     0.049 A 
ATOM     46  H   UNL A   1      41.709  28.729  28.633  1.00  0.00     0.167 HD
ATOM     47  C   UNL A   1      45.602  28.112  26.740  1.00  0.00     0.034 A 
ATOM     48  C   UNL A   1      39.806  30.173  30.099  1.00  0.00     0.034 A 
ATOM     49  C   UNL A   1      45.647  29.445  27.287  1.00  0.00     0.049 A 
ATOM     50  C   UNL A   1      41.016  31.062  30.000  1.00  0.00     0.074 A 
ATOM     51  C   UNL A   1      46.670  30.373  27.204  1.00  0.00     0.029 A 
ATOM     52  N   UNL A   1      44.627  30.039  28.016  1.00  0.00    -0.354 N 
ATOM     53  N   UNL A   1      42.167  30.821  29.417  1.00  0.00    -0.248 NA
ATOM     54  C   UNL A   1      40.928  32.386  30.635  1.00  0.00     0.031 C 
ATOM     55  C   UNL A   1      46.292  31.506  27.931  1.00  0.00     0.029 A 
ATOM     56  C   UNL A   1      45.007  31.312  28.409  1.00  0.00     0.049 A 
ATOM     57  H   UNL A   1      43.761  29.619  28.224  1.00  0.00     0.167 HD
ATOM     58  C   UNL A   1      42.928  31.972  29.591  1.00  0.00     0.074 A 
ATOM     59  C   UNL A   1      42.112  32.906  30.338  1.00  0.00     0.031 C 
ATOM     60  C   UNL A   1      44.187  32.232  29.159  1.00  0.00     0.034 A 
BRANCH  47  61
ATOM     61  C   UNL A   1      46.825  27.595  26.027  1.00  0.00     0.023 A 
ATOM     62  C   UNL A   1      47.059  27.878  24.672  1.00  0.00     0.031 A 
ATOM     63  C   UNL A   1      47.783  26.835  26.720  1.00  0.00     0.131 A 
ATOM     64  C   UNL A   1      48.202  27.369  24.039  1.00  0.00     0.055 A 
ATOM     65  C   UNL A   1      48.952  26.385  26.102  1.00  0.00     0.041 A 
ATOM     66  F   UNL A   1      47.602  26.522  28.013  1.00  0.00    -0.206 F 
ATOM     67  C   UNL A   1      49.162  26.645  24.751  1.00  0.00     0.022 A 
BRANCH  64  68
ATOM     68  S   UNL A   1      48.381  27.599  22.249  1.00  0.00     0.124 S 
ATOM     69  O   UNL A   1      48.628  26.231  21.801  1.00  0.00    -0.237 OA
ATOM     70  O   UNL A   1      47.095  28.173  21.872  1.00  0.00    -0.237 OA
ATOM     71  O   UNL A   1      49.524  28.503  22.133  1.00  0.00    -0.744 OA
ENDBRANCH  64  68
ENDBRANCH  47  61
BRANCH  48  72
ATOM     72  C   UNL A   1      38.581  30.621  30.816  1.00  0.00     0.023 A 
ATOM     73  C   UNL A   1      37.570  31.328  30.147  1.00  0.00     0.031 A 
ATOM     74  C   UNL A   1      38.395  30.326  32.178  1.00  0.00     0.131 A 
ATOM     75  C   UNL A   1      36.423  31.733  30.847  1.00  0.00     0.055 A 
ATOM     76  C   UNL A   1      37.236  30.700  32.860  1.00  0.00     0.041 A 
ATOM     77  F   UNL A   1      39.329  29.642  32.858  1.00  0.00    -0.206 F 
ATOM     78  C   UNL A   1      36.243  31.412  32.195  1.00  0.00     0.022 A 
BRANCH  75  79
ATOM     79  S   UNL A   1      35.165  32.706  29.972  1.00  0.00     0.124 S 
ATOM     80  O   UNL A   1      34.615  31.718  29.052  1.00  0.00    -0.237 OA
ATOM     81  O   UNL A   1      34.291  33.126  31.063  1.00  0.00    -0.237 OA
ATOM     82  O   UNL A   1      35.938  33.779  29.351  1.00  0.00    -0.744 OA
ENDBRANCH  75  79
ENDBRANCH  48  72
BRANCH  60  83
ATOM     83  C   UNL A   1      44.756  33.596  29.439  1.00  0.00     0.023 A 
ATOM     84  C   UNL A   1      44.684  34.633  28.496  1.00  0.00     0.031 A 
ATOM     85  C   UNL A   1      45.306  33.877  30.703  1.00  0.00     0.131 A 
ATOM     86  C   UNL A   1      45.168  35.907  28.828  1.00  0.00     0.055 A 
ATOM     87  C   UNL A   1      45.748  35.155  31.041  1.00  0.00     0.041 A 
ATOM     88  F   UNL A   1      45.390  32.917  31.639  1.00  0.00    -0.206 F 
ATOM     89  C   UNL A   1      45.681  36.179  30.101  1.00  0.00     0.022 A 
BRANCH  86  90
ATOM     90  S   UNL A   1      45.121  37.217  27.574  1.00  0.00     0.124 S 
ATOM     91  O   UNL A   1      45.825  36.592  26.459  1.00  0.00    -0.237 OA
ATOM     92  O   UNL A   1      43.689  37.427  27.385  1.00  0.00    -0.237 OA
ATOM     93  O   UNL A   1      45.827  38.327  28.210  1.00  0.00    -0.744 OA
ENDBRANCH  86  90
ENDBRANCH  60  83
ENDBRANCH  34  35
ENDBRANCH  26  29
ENDBRANCH  24  25
ENDBRANCH   1  24
TORSDOF 16
ENDMDL
MODEL 2
REMARK VINA RESULT:     -12.3      5.670      8.688
REMARK SMILES CC1(C)CCC[C@@H]1Nc1cccc(F)c1C(=O)NCCCCNC(=O)c1ccc(-c2c3nc(c(-c4cc(S(=O)(=O)[O-])ccc4F)c4ccc([nH]4)c(-c4cc(S(=O)(=O)[O-])ccc4F)c4nc(c(-c5cc(S(=O)(=O)[O-])ccc5F)c5ccc2[nH]5)C=C4)C=C3)cc1
REMARK SMILES IDX 21 1 20 2 19 3 18 4 16 5 17 6 15 8 9 9 10 10 11 11 13 12
REMARK SMILES IDX 12 13 14 14 8 15 7 17 1 18 2 19 3 20 4 21 5 22 6 23 22 24
REMARK SMILES IDX 23 25 24 26 25 28 26 29 27 30 88 31 28 32 87 33 29 34 30 35
REMARK SMILES IDX 31 36 81 37 32 38 86 39 80 40 82 41 33 42 85 43 79 44 78 45
REMARK SMILES IDX 34 47 66 48 46 49 65 50 47 51 50 52 64 53 83 54 48 55 49 56
REMARK SMILES IDX 63 58 84 59 51 60 35 61 36 62 44 63 37 64 43 65 45 66 42 67
REMARK SMILES IDX 38 68 39 69 40 70 41 71 67 72 68 73 76 74 69 75 75 76 77 77
REMARK SMILES IDX 74 78 70 79 71 80 72 81 73 82 52 83 53 84 61 85 54 86 60 87
REMARK SMILES IDX 62 88 59 89 55 90 56 91 57 92 58 93
REMARK H PARENT 18 7 8 16 23 27 82 46 50 57
REMARK Flexibility Score: inf
ROOT
ATOM      1  C   UNL A   1      31.580  31.910  26.744  1.00  0.00     0.023 C 
ENDROOT
BRANCH   1   2
ATOM      2  C   UNL A   1      31.804  30.428  26.450  1.00  0.00     0.023 C 
BRANCH   2   3
ATOM      3  C   UNL A   1      33.238  29.983  26.175  1.00  0.00     0.116 C 
BRANCH   3   4
ATOM      4  N   UNL A   1      33.529  29.752  24.772  1.00  0.00    -0.352 N 
ATOM      5  C   UNL A   1      33.018  28.857  23.860  1.00  0.00     0.256 C 
ATOM      6  O   UNL A   1      33.482  28.914  22.717  1.00  0.00    -0.269 OA
ATOM      7  H   UNL A   1      34.221  30.349  24.404  1.00  0.00     0.163 HD
BRANCH   5   8
ATOM      8  C   UNL A   1      32.023  27.793  24.195  1.00  0.00     0.098 A 
ATOM      9  C   UNL A   1      30.717  27.842  23.631  1.00  0.00     0.050 A 
ATOM     10  C   UNL A   1      29.836  26.767  23.861  1.00  0.00     0.027 A 
ATOM     11  C   UNL A   1      30.192  25.699  24.679  1.00  0.00     0.005 A 
ATOM     12  C   UNL A   1      32.305  26.774  25.109  1.00  0.00     0.138 A 
ATOM     13  C   UNL A   1      31.417  25.721  25.331  1.00  0.00     0.040 A 
ATOM     14  F   UNL A   1      33.417  26.794  25.858  1.00  0.00    -0.206 F 
BRANCH   9  15
ATOM     15  N   UNL A   1      30.246  28.970  22.930  1.00  0.00    -0.381 N 
ATOM     16  H   UNL A   1      30.553  29.164  22.014  1.00  0.00     0.160 HD
BRANCH  15  17
ATOM     17  C   UNL A   1      29.284  29.848  23.604  1.00  0.00     0.084 C 
ATOM     18  C   UNL A   1      27.003  28.801  23.146  1.00  0.00     0.013 C 
ATOM     19  C   UNL A   1      27.937  29.977  22.849  1.00  0.00    -0.015 C 
ATOM     20  C   UNL A   1      28.083  30.129  21.323  1.00  0.00     0.013 C 
ATOM     21  C   UNL A   1      27.381  31.280  23.457  1.00  0.00     0.008 C 
ATOM     22  C   UNL A   1      28.587  32.205  23.564  1.00  0.00     0.003 C 
ATOM     23  C   UNL A   1      29.803  31.293  23.714  1.00  0.00     0.025 C 
ENDBRANCH  15  17
ENDBRANCH   9  15
ENDBRANCH   5   8
ENDBRANCH   3   4
ENDBRANCH   2   3
ENDBRANCH   1   2
BRANCH   1  24
ATOM     24  C   UNL A   1      32.768  32.690  27.299  1.00  0.00     0.116 C 
BRANCH  24  25
ATOM     25  N   UNL A   1      32.450  34.059  27.671  1.00  0.00    -0.352 N 
ATOM     26  C   UNL A   1      33.027  34.891  28.605  1.00  0.00     0.251 C 
ATOM     27  H   UNL A   1      31.699  34.456  27.174  1.00  0.00     0.163 HD
ATOM     28  O   UNL A   1      32.533  35.995  28.807  1.00  0.00    -0.269 OA
BRANCH  26  29
ATOM     29  C   UNL A   1      34.203  34.449  29.394  1.00  0.00     0.039 A 
ATOM     30  C   UNL A   1      33.986  33.897  30.661  1.00  0.00     0.014 A 
ATOM     31  C   UNL A   1      35.506  34.567  28.906  1.00  0.00     0.014 A 
ATOM     32  C   UNL A   1      35.060  33.379  31.389  1.00  0.00     0.010 A 
ATOM     33  C   UNL A   1      36.566  33.980  29.597  1.00  0.00     0.010 A 
ATOM     34  C   UNL A   1      36.353  33.366  30.841  1.00  0.00    -0.014 A 
BRANCH  34  35
ATOM     35  C   UNL A   1      37.475  32.683  31.540  1.00  0.00     0.031 A 
ATOM     36  C   UNL A   1      38.194  31.529  30.895  1.00  0.00     0.074 A 
ATOM     37  C   UNL A   1      37.819  33.078  32.784  1.00  0.00     0.049 A 
ATOM     38  N   UNL A   1      39.161  30.790  31.374  1.00  0.00    -0.248 NA
ATOM     39  C   UNL A   1      37.754  31.142  29.545  1.00  0.00     0.031 C 
ATOM     40  C   UNL A   1      37.173  34.159  33.535  1.00  0.00     0.029 A 
ATOM     41  N   UNL A   1      38.795  32.626  33.637  1.00  0.00    -0.354 N 
ATOM     42  C   UNL A   1      39.442  29.847  30.392  1.00  0.00     0.074 A 
ATOM     43  C   UNL A   1      38.506  30.076  29.311  1.00  0.00     0.031 C 
ATOM     44  C   UNL A   1      37.798  34.314  34.712  1.00  0.00     0.029 A 
ATOM     45  C   UNL A   1      38.858  33.317  34.826  1.00  0.00     0.049 A 
ATOM     46  H   UNL A   1      39.395  31.876  33.419  1.00  0.00     0.167 HD
ATOM     47  C   UNL A   1      40.405  28.895  30.383  1.00  0.00     0.034 A 
ATOM     48  C   UNL A   1      39.671  33.167  35.891  1.00  0.00     0.034 A 
ATOM     49  C   UNL A   1      41.348  28.689  31.454  1.00  0.00     0.049 A 
ATOM     50  C   UNL A   1      40.723  32.091  35.865  1.00  0.00     0.074 A 
ATOM     51  C   UNL A   1      42.392  27.783  31.516  1.00  0.00     0.029 A 
ATOM     52  N   UNL A   1      41.362  29.397  32.647  1.00  0.00    -0.354 N 
ATOM     53  N   UNL A   1      40.979  31.217  34.921  1.00  0.00    -0.248 NA
ATOM     54  C   UNL A   1      41.594  31.978  37.044  1.00  0.00     0.031 C 
ATOM     55  C   UNL A   1      43.001  27.904  32.768  1.00  0.00     0.029 A 
ATOM     56  C   UNL A   1      42.382  28.931  33.461  1.00  0.00     0.049 A 
ATOM     57  H   UNL A   1      40.740  30.123  32.882  1.00  0.00     0.167 HD
ATOM     58  C   UNL A   1      42.058  30.469  35.380  1.00  0.00     0.074 A 
ATOM     59  C   UNL A   1      42.403  30.989  36.687  1.00  0.00     0.031 C 
ATOM     60  C   UNL A   1      42.711  29.452  34.765  1.00  0.00     0.034 A 
BRANCH  47  61
ATOM     61  C   UNL A   1      40.489  27.993  29.179  1.00  0.00     0.023 A 
ATOM     62  C   UNL A   1      41.397  28.243  28.137  1.00  0.00     0.031 A 
ATOM     63  C   UNL A   1      39.672  26.853  29.087  1.00  0.00     0.131 A 
ATOM     64  C   UNL A   1      41.437  27.389  27.026  1.00  0.00     0.055 A 
ATOM     65  C   UNL A   1      39.763  25.969  28.009  1.00  0.00     0.041 A 
ATOM     66  F   UNL A   1      38.777  26.575  30.047  1.00  0.00    -0.206 F 
ATOM     67  C   UNL A   1      40.644  26.240  26.967  1.00  0.00     0.022 A 
BRANCH  64  68
ATOM     68  S   UNL A   1      42.488  27.841  25.619  1.00  0.00     0.124 S 
ATOM     69  O   UNL A   1      42.369  26.656  24.772  1.00  0.00    -0.237 OA
ATOM     70  O   UNL A   1      41.846  29.051  25.119  1.00  0.00    -0.237 OA
ATOM     71  O   UNL A   1      43.804  28.038  26.223  1.00  0.00    -0.744 OA
ENDBRANCH  64  68
ENDBRANCH  47  61
BRANCH  48  72
ATOM     72  C   UNL A   1      39.524  34.068  37.067  1.00  0.00     0.023 A 
ATOM     73  C   UNL A   1      38.903  33.623  38.244  1.00  0.00     0.031 A 
ATOM     74  C   UNL A   1      40.025  35.382  37.037  1.00  0.00     0.131 A 
ATOM     75  C   UNL A   1      38.783  34.491  39.340  1.00  0.00     0.055 A 
ATOM     76  C   UNL A   1      39.934  36.229  38.142  1.00  0.00     0.041 A 
ATOM     77  F   UNL A   1      40.637  35.849  35.937  1.00  0.00    -0.206 F 
ATOM     78  C   UNL A   1      39.306  35.787  39.302  1.00  0.00     0.022 A 
BRANCH  75  79
ATOM     79  S   UNL A   1      37.913  33.910  40.823  1.00  0.00     0.124 S 
ATOM     80  O   UNL A   1      38.923  33.062  41.445  1.00  0.00    -0.237 OA
ATOM     81  O   UNL A   1      37.612  35.162  41.511  1.00  0.00    -0.237 OA
ATOM     82  O   UNL A   1      36.752  33.207  40.283  1.00  0.00    -0.744 OA
ENDBRANCH  75  79
ENDBRANCH  48  72
BRANCH  60  83
ATOM     83  C   UNL A   1      43.896  28.851  35.471  1.00  0.00     0.023 A 
ATOM     84  C   UNL A   1      45.197  29.342  35.277  1.00  0.00     0.031 A 
ATOM     85  C   UNL A   1      43.701  27.824  36.413  1.00  0.00     0.131 A 
ATOM     86  C   UNL A   1      46.261  28.794  36.010  1.00  0.00     0.055 A 
ATOM     87  C   UNL A   1      44.755  27.312  37.166  1.00  0.00     0.041 A 
ATOM     88  F   UNL A   1      42.473  27.328  36.636  1.00  0.00    -0.206 F 
ATOM     89  C   UNL A   1      46.045  27.797  36.966  1.00  0.00     0.022 A 
BRANCH  86  90
ATOM     90  S   UNL A   1      47.942  29.401  35.700  1.00  0.00     0.124 S 
ATOM     91  O   UNL A   1      47.690  30.756  35.223  1.00  0.00    -0.237 OA
ATOM     92  O   UNL A   1      48.567  29.294  37.015  1.00  0.00    -0.237 OA
ATOM     93  O   UNL A   1      48.461  28.475  34.695  1.00  0.00    -0.744 OA
ENDBRANCH  86  90
ENDBRANCH  60  83
ENDBRANCH  34  35
ENDBRANCH  26  29
ENDBRANCH  24  25
ENDBRANCH   1  24
TORSDOF 16
ENDMDL
MODEL 3
REMARK VINA RESULT:     -12.3      5.705     10.758
REMARK SMILES CC1(C)CCC[C@@H]1Nc1cccc(F)c1C(=O)NCCCCNC(=O)c1ccc(-c2c3nc(c(-c4cc(S(=O)(=O)[O-])ccc4F)c4ccc([nH]4)c(-c4cc(S(=O)(=O)[O-])ccc4F)c4nc(c(-c5cc(S(=O)(=O)[O-])ccc5F)c5ccc2[nH]5)C=C4)C=C3)cc1
REMARK SMILES IDX 21 1 20 2 19 3 18 4 16 5 17 6 15 8 9 9 10 10 11 11 13 12
REMARK SMILES IDX 12 13 14 14 8 15 7 17 1 18 2 19 3 20 4 21 5 22 6 23 22 24
REMARK SMILES IDX 23 25 24 26 25 28 26 29 27 30 88 31 28 32 87 33 29 34 30 35
REMARK SMILES IDX 31 36 81 37 32 38 86 39 80 40 82 41 33 42 85 43 79 44 78 45
REMARK SMILES IDX 34 47 66 48 46 49 65 50 47 51 50 52 64 53 83 54 48 55 49 56
REMARK SMILES IDX 63 58 84 59 51 60 35 61 36 62 44 63 37 64 43 65 45 66 42 67
REMARK SMILES IDX 38 68 39 69 40 70 41 71 67 72 68 73 76 74 69 75 75 76 77 77
REMARK SMILES IDX 74 78 70 79 71 80 72 81 73 82 52 83 53 84 61 85 54 86 60 87
REMARK SMILES IDX 62 88 59 89 55 90 56 91 57 92 58 93
REMARK H PARENT 18 7 8 16 23 27 82 46 50 57
REMARK Flexibility Score: inf
ROOT
ATOM      1  C   UNL A   1      31.558  31.705  26.910  1.00  0.00     0.023 C 
ENDROOT
BRANCH   1   2
ATOM      2  C   UNL A   1      31.780  30.287  26.387  1.00  0.00     0.023 C 
BRANCH   2   3
ATOM      3  C   UNL A   1      33.223  29.863  26.119  1.00  0.00     0.116 C 
BRANCH   3   4
ATOM      4  N   UNL A   1      33.538  29.687  24.713  1.00  0.00    -0.352 N 
ATOM      5  C   UNL A   1      33.037  28.833  23.756  1.00  0.00     0.256 C 
ATOM      6  O   UNL A   1      33.523  28.931  22.626  1.00  0.00    -0.269 OA
ATOM      7  H   UNL A   1      34.241  30.292  24.382  1.00  0.00     0.163 HD
BRANCH   5   8
ATOM      8  C   UNL A   1      32.028  27.764  24.031  1.00  0.00     0.098 A 
ATOM      9  C   UNL A   1      30.723  27.863  23.473  1.00  0.00     0.050 A 
ATOM     10  C   UNL A   1      29.827  26.789  23.641  1.00  0.00     0.027 A 
ATOM     11  C   UNL A   1      30.171  25.669  24.394  1.00  0.00     0.005 A 
ATOM     12  C   UNL A   1      32.298  26.689  24.882  1.00  0.00     0.138 A 
ATOM     13  C   UNL A   1      31.396  25.637  25.044  1.00  0.00     0.040 A 
ATOM     14  F   UNL A   1      33.411  26.651  25.629  1.00  0.00    -0.206 F 
BRANCH   9  15
ATOM     15  N   UNL A   1      30.265  29.037  22.840  1.00  0.00    -0.381 N 
ATOM     16  H   UNL A   1      30.581  29.284  21.941  1.00  0.00     0.160 HD
BRANCH  15  17
ATOM     17  C   UNL A   1      29.306  29.880  23.561  1.00  0.00     0.084 C 
ATOM     18  C   UNL A   1      27.036  28.787  23.158  1.00  0.00     0.013 C 
ATOM     19  C   UNL A   1      27.932  29.990  22.853  1.00  0.00    -0.015 C 
ATOM     20  C   UNL A   1      28.024  30.172  21.326  1.00  0.00     0.013 C 
ATOM     21  C   UNL A   1      27.367  31.267  23.503  1.00  0.00     0.008 C 
ATOM     22  C   UNL A   1      28.553  32.220  23.587  1.00  0.00     0.003 C 
ATOM     23  C   UNL A   1      29.794  31.335  23.681  1.00  0.00     0.025 C 
ENDBRANCH  15  17
ENDBRANCH   9  15
ENDBRANCH   5   8
ENDBRANCH   3   4
ENDBRANCH   2   3
ENDBRANCH   1   2
BRANCH   1  24
ATOM     24  C   UNL A   1      32.804  32.528  27.221  1.00  0.00     0.116 C 
BRANCH  24  25
ATOM     25  N   UNL A   1      32.519  33.895  27.625  1.00  0.00    -0.352 N 
ATOM     26  C   UNL A   1      33.129  34.698  28.564  1.00  0.00     0.251 C 
ATOM     27  H   UNL A   1      31.768  34.317  27.149  1.00  0.00     0.163 HD
ATOM     28  O   UNL A   1      32.660  35.807  28.796  1.00  0.00    -0.269 OA
BRANCH  26  29
ATOM     29  C   UNL A   1      34.309  34.219  29.323  1.00  0.00     0.039 A 
ATOM     30  C   UNL A   1      34.096  33.414  30.446  1.00  0.00     0.014 A 
ATOM     31  C   UNL A   1      35.613  34.546  28.944  1.00  0.00     0.014 A 
ATOM     32  C   UNL A   1      35.187  32.863  31.125  1.00  0.00     0.010 A 
ATOM     33  C   UNL A   1      36.697  33.935  29.573  1.00  0.00     0.010 A 
ATOM     34  C   UNL A   1      36.496  33.073  30.663  1.00  0.00    -0.014 A 
BRANCH  34  35
ATOM     35  C   UNL A   1      37.651  32.371  31.285  1.00  0.00     0.031 A 
ATOM     36  C   UNL A   1      38.186  32.808  32.622  1.00  0.00     0.074 A 
ATOM     37  C   UNL A   1      38.249  31.361  30.619  1.00  0.00     0.049 A 
ATOM     38  N   UNL A   1      39.209  32.343  33.291  1.00  0.00    -0.248 NA
ATOM     39  C   UNL A   1      37.495  33.927  33.283  1.00  0.00     0.031 C 
ATOM     40  C   UNL A   1      37.850  30.870  29.297  1.00  0.00     0.029 A 
ATOM     41  N   UNL A   1      39.314  30.564  30.957  1.00  0.00    -0.354 N 
ATOM     42  C   UNL A   1      39.291  33.113  34.446  1.00  0.00     0.074 A 
ATOM     43  C   UNL A   1      38.245  34.109  34.360  1.00  0.00     0.031 C 
ATOM     44  C   UNL A   1      38.627  29.829  28.960  1.00  0.00     0.029 A 
ATOM     45  C   UNL A   1      39.612  29.605  30.014  1.00  0.00     0.049 A 
ATOM     46  H   UNL A   1      39.818  30.666  31.797  1.00  0.00     0.167 HD
ATOM     47  C   UNL A   1      40.144  32.985  35.490  1.00  0.00     0.034 A 
ATOM     48  C   UNL A   1      40.569  28.656  29.994  1.00  0.00     0.034 A 
ATOM     49  C   UNL A   1      41.169  31.974  35.578  1.00  0.00     0.049 A 
ATOM     50  C   UNL A   1      41.516  28.544  31.158  1.00  0.00     0.074 A 
ATOM     51  C   UNL A   1      42.049  31.733  36.617  1.00  0.00     0.029 A 
ATOM     52  N   UNL A   1      41.449  31.039  34.592  1.00  0.00    -0.354 N 
ATOM     53  N   UNL A   1      41.569  29.276  32.246  1.00  0.00    -0.248 NA
ATOM     54  C   UNL A   1      42.532  27.483  31.095  1.00  0.00     0.031 C 
ATOM     55  C   UNL A   1      42.899  30.690  36.237  1.00  0.00     0.029 A 
ATOM     56  C   UNL A   1      42.505  30.235  34.990  1.00  0.00     0.049 A 
ATOM     57  H   UNL A   1      40.969  30.957  33.736  1.00  0.00     0.167 HD
ATOM     58  C   UNL A   1      42.604  28.746  33.008  1.00  0.00     0.074 A 
ATOM     59  C   UNL A   1      43.154  27.637  32.256  1.00  0.00     0.031 C 
ATOM     60  C   UNL A   1      43.049  29.138  34.228  1.00  0.00     0.034 A 
BRANCH  47  61
ATOM     61  C   UNL A   1      40.015  33.966  36.626  1.00  0.00     0.023 A 
ATOM     62  C   UNL A   1      39.459  33.591  37.860  1.00  0.00     0.031 A 
ATOM     63  C   UNL A   1      40.481  35.285  36.482  1.00  0.00     0.131 A 
ATOM     64  C   UNL A   1      39.343  34.535  38.890  1.00  0.00     0.055 A 
ATOM     65  C   UNL A   1      40.423  36.203  37.533  1.00  0.00     0.041 A 
ATOM     66  F   UNL A   1      41.007  35.701  35.320  1.00  0.00    -0.206 F 
ATOM     67  C   UNL A   1      39.844  35.832  38.743  1.00  0.00     0.022 A 
BRANCH  64  68
ATOM     68  S   UNL A   1      38.458  34.070  40.402  1.00  0.00     0.124 S 
ATOM     69  O   UNL A   1      39.356  33.068  40.971  1.00  0.00    -0.237 OA
ATOM     70  O   UNL A   1      38.374  35.335  41.123  1.00  0.00    -0.237 OA
ATOM     71  O   UNL A   1      37.186  33.548  39.908  1.00  0.00    -0.744 OA
ENDBRANCH  64  68
ENDBRANCH  47  61
BRANCH  48  72
ATOM     72  C   UNL A   1      40.669  27.732  28.831  1.00  0.00     0.023 A 
ATOM     73  C   UNL A   1      41.615  27.947  27.817  1.00  0.00     0.031 A 
ATOM     74  C   UNL A   1      39.835  26.604  28.732  1.00  0.00     0.131 A 
ATOM     75  C   UNL A   1      41.692  27.057  26.735  1.00  0.00     0.055 A 
ATOM     76  C   UNL A   1      39.940  25.702  27.672  1.00  0.00     0.041 A 
ATOM     77  F   UNL A   1      38.923  26.349  29.684  1.00  0.00    -0.206 F 
ATOM     78  C   UNL A   1      40.870  25.928  26.663  1.00  0.00     0.022 A 
BRANCH  75  79
ATOM     79  S   UNL A   1      42.876  27.401  25.403  1.00  0.00     0.124 S 
ATOM     80  O   UNL A   1      42.193  28.459  24.668  1.00  0.00    -0.237 OA
ATOM     81  O   UNL A   1      44.066  27.799  26.148  1.00  0.00    -0.237 OA
ATOM     82  O   UNL A   1      42.982  26.122  24.705  1.00  0.00    -0.744 OA
ENDBRANCH  75  79
ENDBRANCH  48  72
BRANCH  60  83
ATOM     83  C   UNL A   1      44.160  28.343  34.858  1.00  0.00     0.023 A 
ATOM     84  C   UNL A   1      43.911  27.145  35.547  1.00  0.00     0.031 A 
ATOM     85  C   UNL A   1      45.495  28.754  34.691  1.00  0.00     0.131 A 
ATOM     86  C   UNL A   1      44.986  26.403  36.059  1.00  0.00     0.055 A 
ATOM     87  C   UNL A   1      46.561  27.992  35.166  1.00  0.00     0.041 A 
ATOM     88  F   UNL A   1      45.781  29.889  34.032  1.00  0.00    -0.206 F 
ATOM     89  C   UNL A   1      46.309  26.808  35.855  1.00  0.00     0.022 A 
BRANCH  86  90
ATOM     90  S   UNL A   1      44.639  24.892  37.000  1.00  0.00     0.124 S 
ATOM     91  O   UNL A   1      43.850  25.405  38.114  1.00  0.00    -0.237 OA
ATOM     92  O   UNL A   1      43.915  24.073  36.031  1.00  0.00    -0.237 OA
ATOM     93  O   UNL A   1      45.967  24.396  37.355  1.00  0.00    -0.744 OA
ENDBRANCH  86  90
ENDBRANCH  60  83
ENDBRANCH  34  35
ENDBRANCH  26  29
ENDBRANCH  24  25
ENDBRANCH   1  24
TORSDOF 16
ENDMDL
