MODEL 1
REMARK VINA RESULT:     -13.0      0.000      0.000
REMARK SMILES O=C(NCCCCNC(=O)[C@H]1CC[C@@H]2CCCC[C@H]2N1C(=O)Cn1cnnn1)c1ccc(-c2c3nc(c(-c4cc(S(=O)(=O)[O-])ccc4F)c4ccc([nH]4)c(-c4cc(S(=O)(=O)[O-])ccc4F)c4nc(c(-c5cc(S(=O)(=O)[O-])ccc5F)c5ccc2[nH]5)C=C4)C=C3)cc1
REMARK SMILES IDX 5 1 4 2 3 3 1 4 2 5 29 7 30 8 91 9 31 10 90 11 32 12 33 13
REMARK SMILES IDX 34 14 84 15 35 16 89 17 83 18 85 19 36 20 88 21 82 22 81 23
REMARK SMILES IDX 37 25 69 26 49 27 68 28 50 29 53 30 67 31 86 32 51 33 52 34
REMARK SMILES IDX 66 36 87 37 54 38 38 39 39 40 47 41 40 42 46 43 48 44 45 45
REMARK SMILES IDX 41 46 42 47 43 48 44 49 70 50 71 51 79 52 72 53 78 54 80 55
REMARK SMILES IDX 77 56 73 57 74 58 75 59 76 60 55 61 56 62 64 63 57 64 63 65
REMARK SMILES IDX 65 66 62 67 58 68 59 69 60 70 61 71 6 72 7 73 8 74 9 75
REMARK SMILES IDX 10 77 11 78 12 79 20 80 13 81 19 82 14 83 18 84 15 85 17 86
REMARK SMILES IDX 16 87 21 88 22 89 23 90 24 91 25 92 28 93 26 94 27 95
REMARK H PARENT 3 6 85 24 53 35 8 76
REMARK Flexibility Score: inf
ROOT
ATOM      1  C   UNL A   1      32.343  29.865  26.821  1.00  0.00     0.023 C 
ENDROOT
BRANCH   1   2
ATOM      2  C   UNL A   1      33.848  29.925  27.071  1.00  0.00     0.116 C 
BRANCH   2   3
ATOM      3  N   UNL A   1      34.344  31.248  27.377  1.00  0.00    -0.352 N 
ATOM      4  O   UNL A   1      35.622  32.962  27.935  1.00  0.00    -0.269 OA
ATOM      5  C   UNL A   1      35.541  31.734  27.835  1.00  0.00     0.251 C 
ATOM      6  H   UNL A   1      33.677  31.955  27.224  1.00  0.00     0.163 HD
BRANCH   5   7
ATOM      7  C   UNL A   1      36.703  30.898  28.250  1.00  0.00     0.039 A 
ATOM      8  C   UNL A   1      36.824  29.523  28.049  1.00  0.00     0.014 A 
ATOM      9  C   UNL A   1      37.773  31.581  28.861  1.00  0.00     0.014 A 
ATOM     10  C   UNL A   1      37.952  28.837  28.501  1.00  0.00     0.010 A 
ATOM     11  C   UNL A   1      38.913  30.903  29.291  1.00  0.00     0.010 A 
ATOM     12  C   UNL A   1      38.997  29.523  29.127  1.00  0.00    -0.014 A 
BRANCH  12  13
ATOM     13  C   UNL A   1      40.225  28.779  29.425  1.00  0.00     0.031 A 
ATOM     14  C   UNL A   1      40.581  28.688  30.876  1.00  0.00     0.074 A 
ATOM     15  C   UNL A   1      40.930  28.066  28.524  1.00  0.00     0.049 A 
ATOM     16  N   UNL A   1      41.676  29.046  31.466  1.00  0.00    -0.248 NA
ATOM     17  C   UNL A   1      39.547  28.195  31.799  1.00  0.00     0.031 C 
ATOM     18  C   UNL A   1      40.580  27.785  27.131  1.00  0.00     0.029 A 
ATOM     19  N   UNL A   1      42.075  27.344  28.709  1.00  0.00    -0.354 N 
ATOM     20  C   UNL A   1      41.548  28.663  32.801  1.00  0.00     0.074 A 
ATOM     21  C   UNL A   1      40.178  28.259  32.972  1.00  0.00     0.031 C 
ATOM     22  C   UNL A   1      41.369  26.790  26.666  1.00  0.00     0.029 A 
ATOM     23  C   UNL A   1      42.360  26.456  27.678  1.00  0.00     0.049 A 
ATOM     24  H   UNL A   1      42.649  27.445  29.502  1.00  0.00     0.167 HD
ATOM     25  C   UNL A   1      42.619  28.556  33.638  1.00  0.00     0.034 A 
ATOM     26  C   UNL A   1      43.298  25.473  27.671  1.00  0.00     0.034 A 
ATOM     27  C   UNL A   1      43.749  29.307  33.152  1.00  0.00     0.049 A 
ATOM     28  C   UNL A   1      44.314  25.814  28.693  1.00  0.00     0.074 A 
ATOM     29  C   UNL A   1      43.966  30.641  32.861  1.00  0.00     0.029 A 
ATOM     30  N   UNL A   1      44.792  28.633  32.563  1.00  0.00    -0.354 N 
ATOM     31  N   UNL A   1      45.108  26.843  28.608  1.00  0.00    -0.248 NA
ATOM     32  C   UNL A   1      44.168  25.255  30.028  1.00  0.00     0.031 C 
ATOM     33  C   UNL A   1      44.794  30.631  31.699  1.00  0.00     0.029 A 
ATOM     34  C   UNL A   1      45.075  29.298  31.393  1.00  0.00     0.049 A 
ATOM     35  H   UNL A   1      45.246  27.833  32.909  1.00  0.00     0.167 HD
ATOM     36  C   UNL A   1      45.217  27.322  29.902  1.00  0.00     0.074 A 
ATOM     37  C   UNL A   1      44.712  26.243  30.745  1.00  0.00     0.031 C 
ATOM     38  C   UNL A   1      45.450  28.645  30.154  1.00  0.00     0.034 A 
BRANCH  25  39
ATOM     39  C   UNL A   1      42.734  27.562  34.773  1.00  0.00     0.023 A 
ATOM     40  C   UNL A   1      43.505  26.397  34.572  1.00  0.00     0.031 A 
ATOM     41  C   UNL A   1      41.921  27.565  35.930  1.00  0.00     0.131 A 
ATOM     42  C   UNL A   1      43.404  25.301  35.449  1.00  0.00     0.055 A 
ATOM     43  C   UNL A   1      41.877  26.500  36.836  1.00  0.00     0.041 A 
ATOM     44  F   UNL A   1      41.056  28.552  36.196  1.00  0.00    -0.206 F 
ATOM     45  C   UNL A   1      42.601  25.349  36.585  1.00  0.00     0.022 A 
BRANCH  42  46
ATOM     46  S   UNL A   1      44.203  23.738  34.989  1.00  0.00     0.124 S 
ATOM     47  O   UNL A   1      43.054  22.866  34.775  1.00  0.00    -0.237 OA
ATOM     48  O   UNL A   1      44.951  24.124  33.795  1.00  0.00    -0.237 OA
ATOM     49  O   UNL A   1      45.020  23.418  36.157  1.00  0.00    -0.744 OA
ENDBRANCH  42  46
ENDBRANCH  25  39
BRANCH  26  50
ATOM     50  C   UNL A   1      43.185  24.127  27.047  1.00  0.00     0.023 A 
ATOM     51  C   UNL A   1      44.051  23.679  26.026  1.00  0.00     0.031 A 
ATOM     52  C   UNL A   1      42.343  23.156  27.636  1.00  0.00     0.131 A 
ATOM     53  C   UNL A   1      44.042  22.320  25.632  1.00  0.00     0.055 A 
ATOM     54  C   UNL A   1      42.333  21.819  27.237  1.00  0.00     0.041 A 
ATOM     55  F   UNL A   1      41.561  23.460  28.684  1.00  0.00    -0.206 F 
ATOM     56  C   UNL A   1      43.189  21.393  26.236  1.00  0.00     0.022 A 
BRANCH  53  57
ATOM     57  S   UNL A   1      45.226  21.714  24.387  1.00  0.00     0.124 S 
ATOM     58  O   UNL A   1      44.575  20.498  23.907  1.00  0.00    -0.237 OA
ATOM     59  O   UNL A   1      45.297  22.825  23.450  1.00  0.00    -0.237 OA
ATOM     60  O   UNL A   1      46.450  21.488  25.162  1.00  0.00    -0.744 OA
ENDBRANCH  53  57
ENDBRANCH  26  50
BRANCH  38  61
ATOM     61  C   UNL A   1      45.882  29.537  29.005  1.00  0.00     0.023 A 
ATOM     62  C   UNL A   1      45.043  30.471  28.354  1.00  0.00     0.031 A 
ATOM     63  C   UNL A   1      47.240  29.521  28.640  1.00  0.00     0.131 A 
ATOM     64  C   UNL A   1      45.570  31.330  27.370  1.00  0.00     0.055 A 
ATOM     65  C   UNL A   1      47.763  30.388  27.680  1.00  0.00     0.041 A 
ATOM     66  F   UNL A   1      48.099  28.679  29.241  1.00  0.00    -0.206 F 
ATOM     67  C   UNL A   1      46.927  31.292  27.036  1.00  0.00     0.022 A 
BRANCH  64  68
ATOM     68  S   UNL A   1      44.491  32.512  26.497  1.00  0.00     0.124 S 
ATOM     69  O   UNL A   1      43.572  31.656  25.757  1.00  0.00    -0.237 OA
ATOM     70  O   UNL A   1      43.909  33.280  27.596  1.00  0.00    -0.237 OA
ATOM     71  O   UNL A   1      45.424  33.269  25.660  1.00  0.00    -0.744 OA
ENDBRANCH  64  68
ENDBRANCH  38  61
ENDBRANCH  12  13
ENDBRANCH   5   7
ENDBRANCH   2   3
ENDBRANCH   1   2
BRANCH   1  72
ATOM     72  C   UNL A   1      31.871  28.668  25.982  1.00  0.00     0.023 C 
BRANCH  72  73
ATOM     73  C   UNL A   1      32.582  27.339  26.264  1.00  0.00     0.116 C 
BRANCH  73  74
ATOM     74  N   UNL A   1      31.684  26.391  26.905  1.00  0.00    -0.354 N 
ATOM     75  C   UNL A   1      31.524  25.081  26.573  1.00  0.00     0.242 C 
ATOM     76  H   UNL A   1      31.139  26.731  27.653  1.00  0.00     0.163 HD
ATOM     77  O   UNL A   1      30.368  24.678  26.434  1.00  0.00    -0.273 OA
BRANCH  75  78
ATOM     78  C   UNL A   1      32.737  24.153  26.345  1.00  0.00     0.174 C 
ATOM     79  C   UNL A   1      32.850  22.854  27.161  1.00  0.00     0.036 C 
ATOM     80  N   UNL A   1      33.090  23.783  24.933  1.00  0.00    -0.326 N 
ATOM     81  C   UNL A   1      34.314  22.386  27.152  1.00  0.00     0.008 C 
ATOM     82  C   UNL A   1      34.543  23.455  24.838  1.00  0.00     0.089 C 
ATOM     83  C   UNL A   1      34.859  22.217  25.719  1.00  0.00     0.012 C 
ATOM     84  C   UNL A   1      35.169  23.312  23.436  1.00  0.00     0.025 C 
ATOM     85  C   UNL A   1      36.370  21.942  25.766  1.00  0.00     0.006 C 
ATOM     86  C   UNL A   1      36.674  23.050  23.522  1.00  0.00     0.002 C 
ATOM     87  C   UNL A   1      36.971  21.816  24.371  1.00  0.00     0.000 C 
BRANCH  80  88
ATOM     88  C   UNL A   1      32.198  23.169  24.035  1.00  0.00     0.245 C 
ATOM     89  O   UNL A   1      32.119  21.938  23.953  1.00  0.00    -0.273 OA
BRANCH  88  90
ATOM     90  C   UNL A   1      31.314  23.957  23.084  1.00  0.00     0.248 C 
BRANCH  90  91
ATOM     91  N   UNL A   1      32.010  25.074  22.492  1.00  0.00    -0.223 N 
ATOM     92  C   UNL A   1      31.981  26.383  22.853  1.00  0.00     0.246 A 
ATOM     93  N   UNL A   1      32.962  24.892  21.561  1.00  0.00    -0.045 NA
ATOM     94  N   UNL A   1      32.847  27.042  22.120  1.00  0.00    -0.117 NA
ATOM     95  N   UNL A   1      33.454  26.101  21.325  1.00  0.00    -0.024 NA
ENDBRANCH  90  91
ENDBRANCH  88  90
ENDBRANCH  80  88
ENDBRANCH  75  78
ENDBRANCH  73  74
ENDBRANCH  72  73
ENDBRANCH   1  72
TORSDOF 17
ENDMDL
MODEL 2
REMARK VINA RESULT:     -12.9      1.729      2.113
REMARK SMILES O=C(NCCCCNC(=O)[C@H]1CC[C@@H]2CCCC[C@H]2N1C(=O)Cn1cnnn1)c1ccc(-c2c3nc(c(-c4cc(S(=O)(=O)[O-])ccc4F)c4ccc([nH]4)c(-c4cc(S(=O)(=O)[O-])ccc4F)c4nc(c(-c5cc(S(=O)(=O)[O-])ccc5F)c5ccc2[nH]5)C=C4)C=C3)cc1
REMARK SMILES IDX 5 1 4 2 3 3 1 4 2 5 29 7 30 8 91 9 31 10 90 11 32 12 33 13
REMARK SMILES IDX 34 14 84 15 35 16 89 17 83 18 85 19 36 20 88 21 82 22 81 23
REMARK SMILES IDX 37 25 69 26 49 27 68 28 50 29 53 30 67 31 86 32 51 33 52 34
REMARK SMILES IDX 66 36 87 37 54 38 38 39 39 40 47 41 40 42 46 43 48 44 45 45
REMARK SMILES IDX 41 46 42 47 43 48 44 49 70 50 71 51 79 52 72 53 78 54 80 55
REMARK SMILES IDX 77 56 73 57 74 58 75 59 76 60 55 61 56 62 64 63 57 64 63 65
REMARK SMILES IDX 65 66 62 67 58 68 59 69 60 70 61 71 6 72 7 73 8 74 9 75
REMARK SMILES IDX 10 77 11 78 12 79 20 80 13 81 19 82 14 83 18 84 15 85 17 86
REMARK SMILES IDX 16 87 21 88 22 89 23 90 24 91 25 92 28 93 26 94 27 95
REMARK H PARENT 3 6 85 24 53 35 8 76
REMARK Flexibility Score: inf
ROOT
ATOM      1  C   UNL A   1      32.727  28.981  26.982  1.00  0.00     0.023 C 
ENDROOT
BRANCH   1   2
ATOM      2  C   UNL A   1      33.652  30.167  26.722  1.00  0.00     0.116 C 
BRANCH   2   3
ATOM      3  N   UNL A   1      33.654  31.158  27.775  1.00  0.00    -0.352 N 
ATOM      4  O   UNL A   1      34.250  32.531  29.399  1.00  0.00    -0.269 OA
ATOM      5  C   UNL A   1      34.603  31.615  28.651  1.00  0.00     0.251 C 
ATOM      6  H   UNL A   1      32.782  31.600  27.888  1.00  0.00     0.163 HD
BRANCH   5   7
ATOM      7  C   UNL A   1      35.982  31.066  28.784  1.00  0.00     0.039 A 
ATOM      8  C   UNL A   1      37.138  31.819  28.993  1.00  0.00     0.014 A 
ATOM      9  C   UNL A   1      36.100  29.663  28.726  1.00  0.00     0.014 A 
ATOM     10  C   UNL A   1      38.384  31.197  29.080  1.00  0.00     0.010 A 
ATOM     11  C   UNL A   1      37.340  29.036  28.838  1.00  0.00     0.010 A 
ATOM     12  C   UNL A   1      38.490  29.805  28.998  1.00  0.00    -0.014 A 
BRANCH  12  13
ATOM     13  C   UNL A   1      39.798  29.199  29.266  1.00  0.00     0.031 A 
ATOM     14  C   UNL A   1      40.168  29.090  30.712  1.00  0.00     0.074 A 
ATOM     15  C   UNL A   1      40.578  28.612  28.336  1.00  0.00     0.049 A 
ATOM     16  N   UNL A   1      41.216  29.548  31.317  1.00  0.00    -0.248 NA
ATOM     17  C   UNL A   1      39.202  28.440  31.613  1.00  0.00     0.031 C 
ATOM     18  C   UNL A   1      40.257  28.351  26.932  1.00  0.00     0.029 A 
ATOM     19  N   UNL A   1      41.800  28.022  28.491  1.00  0.00    -0.354 N 
ATOM     20  C   UNL A   1      41.140  29.096  32.635  1.00  0.00     0.074 A 
ATOM     21  C   UNL A   1      39.826  28.528  32.787  1.00  0.00     0.031 C 
ATOM     22  C   UNL A   1      41.156  27.476  26.427  1.00  0.00     0.029 A 
ATOM     23  C   UNL A   1      42.183  27.218  27.424  1.00  0.00     0.049 A 
ATOM     24  H   UNL A   1      42.362  28.156  29.289  1.00  0.00     0.167 HD
ATOM     25  C   UNL A   1      42.219  29.081  33.467  1.00  0.00     0.034 A 
ATOM     26  C   UNL A   1      43.230  26.353  27.376  1.00  0.00     0.034 A 
ATOM     27  C   UNL A   1      43.251  29.979  33.015  1.00  0.00     0.049 A 
ATOM     28  C   UNL A   1      44.203  26.767  28.413  1.00  0.00     0.074 A 
ATOM     29  C   UNL A   1      43.309  31.340  32.781  1.00  0.00     0.029 A 
ATOM     30  N   UNL A   1      44.363  29.458  32.399  1.00  0.00    -0.354 N 
ATOM     31  N   UNL A   1      44.871  27.885  28.372  1.00  0.00    -0.248 NA
ATOM     32  C   UNL A   1      44.129  26.140  29.722  1.00  0.00     0.031 C 
ATOM     33  C   UNL A   1      44.127  31.476  31.620  1.00  0.00     0.029 A 
ATOM     34  C   UNL A   1      44.562  30.200  31.258  1.00  0.00     0.049 A 
ATOM     35  H   UNL A   1      44.909  28.702  32.711  1.00  0.00     0.167 HD
ATOM     36  C   UNL A   1      44.928  28.319  29.686  1.00  0.00     0.074 A 
ATOM     37  C   UNL A   1      44.557  27.153  30.481  1.00  0.00     0.031 C 
ATOM     38  C   UNL A   1      45.005  29.648  29.993  1.00  0.00     0.034 A 
BRANCH  25  39
ATOM     39  C   UNL A   1      42.454  28.060  34.560  1.00  0.00     0.023 A 
ATOM     40  C   UNL A   1      43.174  26.889  34.242  1.00  0.00     0.031 A 
ATOM     41  C   UNL A   1      41.789  28.050  35.807  1.00  0.00     0.131 A 
ATOM     42  C   UNL A   1      43.162  25.775  35.102  1.00  0.00     0.055 A 
ATOM     43  C   UNL A   1      41.838  26.966  36.690  1.00  0.00     0.041 A 
ATOM     44  F   UNL A   1      40.981  29.043  36.198  1.00  0.00    -0.206 F 
ATOM     45  C   UNL A   1      42.505  25.810  36.329  1.00  0.00     0.022 A 
BRANCH  42  46
ATOM     46  S   UNL A   1      43.871  24.211  34.516  1.00  0.00     0.124 S 
ATOM     47  O   UNL A   1      44.100  24.498  33.104  1.00  0.00    -0.237 OA
ATOM     48  O   UNL A   1      45.063  24.090  35.351  1.00  0.00    -0.237 OA
ATOM     49  O   UNL A   1      42.818  23.236  34.790  1.00  0.00    -0.744 OA
ENDBRANCH  42  46
ENDBRANCH  25  39
BRANCH  26  50
ATOM     50  C   UNL A   1      43.273  25.031  26.695  1.00  0.00     0.023 A 
ATOM     51  C   UNL A   1      42.499  23.927  27.112  1.00  0.00     0.031 A 
ATOM     52  C   UNL A   1      43.924  24.913  25.446  1.00  0.00     0.131 A 
ATOM     53  C   UNL A   1      42.409  22.774  26.297  1.00  0.00     0.055 A 
ATOM     54  C   UNL A   1      43.839  23.770  24.651  1.00  0.00     0.041 A 
ATOM     55  F   UNL A   1      44.597  25.946  24.914  1.00  0.00    -0.206 F 
ATOM     56  C   UNL A   1      43.073  22.695  25.071  1.00  0.00     0.022 A 
BRANCH  53  57
ATOM     57  S   UNL A   1      41.331  21.386  26.780  1.00  0.00     0.124 S 
ATOM     58  O   UNL A   1      41.050  21.686  28.182  1.00  0.00    -0.237 OA
ATOM     59  O   UNL A   1      40.216  21.515  25.853  1.00  0.00    -0.237 OA
ATOM     60  O   UNL A   1      42.175  20.208  26.563  1.00  0.00    -0.744 OA
ENDBRANCH  53  57
ENDBRANCH  26  50
BRANCH  38  61
ATOM     61  C   UNL A   1      45.326  30.632  28.883  1.00  0.00     0.023 A 
ATOM     62  C   UNL A   1      46.632  31.033  28.518  1.00  0.00     0.031 A 
ATOM     63  C   UNL A   1      44.261  31.086  28.084  1.00  0.00     0.131 A 
ATOM     64  C   UNL A   1      46.830  31.868  27.402  1.00  0.00     0.055 A 
ATOM     65  C   UNL A   1      44.463  31.896  26.966  1.00  0.00     0.041 A 
ATOM     66  F   UNL A   1      42.998  30.717  28.356  1.00  0.00    -0.206 F 
ATOM     67  C   UNL A   1      45.749  32.296  26.625  1.00  0.00     0.022 A 
BRANCH  64  68
ATOM     68  S   UNL A   1      48.506  32.423  26.944  1.00  0.00     0.124 S 
ATOM     69  O   UNL A   1      49.189  31.187  26.581  1.00  0.00    -0.237 OA
ATOM     70  O   UNL A   1      48.242  33.354  25.850  1.00  0.00    -0.237 OA
ATOM     71  O   UNL A   1      49.001  33.054  28.169  1.00  0.00    -0.744 OA
ENDBRANCH  64  68
ENDBRANCH  38  61
ENDBRANCH  12  13
ENDBRANCH   5   7
ENDBRANCH   2   3
ENDBRANCH   1   2
BRANCH   1  72
ATOM     72  C   UNL A   1      33.282  27.616  26.547  1.00  0.00     0.023 C 
BRANCH  72  73
ATOM     73  C   UNL A   1      32.271  26.669  25.890  1.00  0.00     0.116 C 
BRANCH  73  74
ATOM     74  N   UNL A   1      31.649  25.800  26.878  1.00  0.00    -0.354 N 
ATOM     75  C   UNL A   1      31.581  24.441  26.828  1.00  0.00     0.242 C 
ATOM     76  H   UNL A   1      31.239  26.238  27.659  1.00  0.00     0.163 HD
ATOM     77  O   UNL A   1      30.479  23.931  27.032  1.00  0.00    -0.273 OA
BRANCH  75  78
ATOM     78  C   UNL A   1      32.821  23.584  26.493  1.00  0.00     0.174 C 
ATOM     79  C   UNL A   1      32.969  22.197  27.143  1.00  0.00     0.036 C 
ATOM     80  N   UNL A   1      33.185  23.400  25.048  1.00  0.00    -0.326 N 
ATOM     81  C   UNL A   1      34.446  21.776  27.084  1.00  0.00     0.008 C 
ATOM     82  C   UNL A   1      34.647  23.128  24.919  1.00  0.00     0.089 C 
ATOM     83  C   UNL A   1      34.998  21.800  25.643  1.00  0.00     0.012 C 
ATOM     84  C   UNL A   1      35.278  23.176  23.513  1.00  0.00     0.025 C 
ATOM     85  C   UNL A   1      36.516  21.564  25.663  1.00  0.00     0.006 C 
ATOM     86  C   UNL A   1      36.790  22.948  23.573  1.00  0.00     0.002 C 
ATOM     87  C   UNL A   1      37.121  21.628  24.265  1.00  0.00     0.000 C 
BRANCH  80  88
ATOM     88  C   UNL A   1      32.312  22.876  24.077  1.00  0.00     0.245 C 
ATOM     89  O   UNL A   1      32.361  21.686  23.748  1.00  0.00    -0.273 OA
BRANCH  88  90
ATOM     90  C   UNL A   1      31.292  23.728  23.341  1.00  0.00     0.248 C 
BRANCH  90  91
ATOM     91  N   UNL A   1      31.916  24.707  22.484  1.00  0.00    -0.223 N 
ATOM     92  C   UNL A   1      31.706  26.049  22.432  1.00  0.00     0.246 A 
ATOM     93  N   UNL A   1      32.970  24.393  21.712  1.00  0.00    -0.045 NA
ATOM     94  N   UNL A   1      32.564  26.576  21.590  1.00  0.00    -0.117 NA
ATOM     95  N   UNL A   1      33.346  25.535  21.154  1.00  0.00    -0.024 NA
ENDBRANCH  90  91
ENDBRANCH  88  90
ENDBRANCH  80  88
ENDBRANCH  75  78
ENDBRANCH  73  74
ENDBRANCH  72  73
ENDBRANCH   1  72
TORSDOF 17
ENDMDL
MODEL 3
REMARK VINA RESULT:     -12.6      1.696      2.404
REMARK SMILES O=C(NCCCCNC(=O)[C@H]1CC[C@@H]2CCCC[C@H]2N1C(=O)Cn1cnnn1)c1ccc(-c2c3nc(c(-c4cc(S(=O)(=O)[O-])ccc4F)c4ccc([nH]4)c(-c4cc(S(=O)(=O)[O-])ccc4F)c4nc(c(-c5cc(S(=O)(=O)[O-])ccc5F)c5ccc2[nH]5)C=C4)C=C3)cc1
REMARK SMILES IDX 5 1 4 2 3 3 1 4 2 5 29 7 30 8 91 9 31 10 90 11 32 12 33 13
REMARK SMILES IDX 34 14 84 15 35 16 89 17 83 18 85 19 36 20 88 21 82 22 81 23
REMARK SMILES IDX 37 25 69 26 49 27 68 28 50 29 53 30 67 31 86 32 51 33 52 34
REMARK SMILES IDX 66 36 87 37 54 38 38 39 39 40 47 41 40 42 46 43 48 44 45 45
REMARK SMILES IDX 41 46 42 47 43 48 44 49 70 50 71 51 79 52 72 53 78 54 80 55
REMARK SMILES IDX 77 56 73 57 74 58 75 59 76 60 55 61 56 62 64 63 57 64 63 65
REMARK SMILES IDX 65 66 62 67 58 68 59 69 60 70 61 71 6 72 7 73 8 74 9 75
REMARK SMILES IDX 10 77 11 78 12 79 20 80 13 81 19 82 14 83 18 84 15 85 17 86
REMARK SMILES IDX 16 87 21 88 22 89 23 90 24 91 25 92 28 93 26 94 27 95
REMARK H PARENT 3 6 85 24 53 35 8 76
REMARK Flexibility Score: inf
ROOT
ATOM      1  C   UNL A   1      32.432  29.448  26.772  1.00  0.00     0.023 C 
ENDROOT
BRANCH   1   2
ATOM      2  C   UNL A   1      33.782  30.159  26.817  1.00  0.00     0.116 C 
BRANCH   2   3
ATOM      3  N   UNL A   1      33.853  31.234  27.783  1.00  0.00    -0.352 N 
ATOM      4  O   UNL A   1      34.520  32.645  29.345  1.00  0.00    -0.269 OA
ATOM      5  C   UNL A   1      34.784  31.619  28.711  1.00  0.00     0.251 C 
ATOM      6  H   UNL A   1      33.059  31.814  27.771  1.00  0.00     0.163 HD
BRANCH   5   7
ATOM      7  C   UNL A   1      36.038  30.878  29.027  1.00  0.00     0.039 A 
ATOM      8  C   UNL A   1      36.110  29.544  29.432  1.00  0.00     0.014 A 
ATOM      9  C   UNL A   1      37.240  31.592  28.860  1.00  0.00     0.014 A 
ATOM     10  C   UNL A   1      37.342  28.958  29.724  1.00  0.00     0.010 A 
ATOM     11  C   UNL A   1      38.476  31.001  29.126  1.00  0.00     0.010 A 
ATOM     12  C   UNL A   1      38.527  29.684  29.576  1.00  0.00    -0.014 A 
BRANCH  12  13
ATOM     13  C   UNL A   1      39.797  28.967  29.732  1.00  0.00     0.031 A 
ATOM     14  C   UNL A   1      40.245  28.759  31.144  1.00  0.00     0.074 A 
ATOM     15  C   UNL A   1      40.469  28.368  28.729  1.00  0.00     0.049 A 
ATOM     16  N   UNL A   1      41.361  29.106  31.700  1.00  0.00    -0.248 NA
ATOM     17  C   UNL A   1      39.287  28.143  32.077  1.00  0.00     0.031 C 
ATOM     18  C   UNL A   1      40.043  28.200  27.339  1.00  0.00     0.029 A 
ATOM     19  N   UNL A   1      41.648  27.679  28.778  1.00  0.00    -0.354 N 
ATOM     20  C   UNL A   1      41.329  28.598  32.999  1.00  0.00     0.074 A 
ATOM     21  C   UNL A   1      39.987  28.125  33.211  1.00  0.00     0.031 C 
ATOM     22  C   UNL A   1      40.836  27.284  26.738  1.00  0.00     0.029 A 
ATOM     23  C   UNL A   1      41.899  26.900  27.655  1.00  0.00     0.049 A 
ATOM     24  H   UNL A   1      42.266  27.730  29.543  1.00  0.00     0.167 HD
ATOM     25  C   UNL A   1      42.453  28.459  33.758  1.00  0.00     0.034 A 
ATOM     26  C   UNL A   1      42.869  25.960  27.501  1.00  0.00     0.034 A 
ATOM     27  C   UNL A   1      43.523  29.296  33.280  1.00  0.00     0.049 A 
ATOM     28  C   UNL A   1      43.933  26.248  28.490  1.00  0.00     0.074 A 
ATOM     29  C   UNL A   1      43.676  30.659  33.101  1.00  0.00     0.029 A 
ATOM     30  N   UNL A   1      44.551  28.722  32.570  1.00  0.00    -0.354 N 
ATOM     31  N   UNL A   1      44.684  27.312  28.454  1.00  0.00    -0.248 NA
ATOM     32  C   UNL A   1      43.889  25.565  29.773  1.00  0.00     0.031 C 
ATOM     33  C   UNL A   1      44.430  30.787  31.898  1.00  0.00     0.029 A 
ATOM     34  C   UNL A   1      44.738  29.501  31.453  1.00  0.00     0.049 A 
ATOM     35  H   UNL A   1      45.053  27.912  32.814  1.00  0.00     0.167 HD
ATOM     36  C   UNL A   1      44.856  27.676  29.780  1.00  0.00     0.074 A 
ATOM     37  C   UNL A   1      44.442  26.504  30.546  1.00  0.00     0.031 C 
ATOM     38  C   UNL A   1      45.058  28.978  30.139  1.00  0.00     0.034 A 
BRANCH  25  39
ATOM     39  C   UNL A   1      42.672  27.372  34.788  1.00  0.00     0.023 A 
ATOM     40  C   UNL A   1      43.410  26.229  34.412  1.00  0.00     0.031 A 
ATOM     41  C   UNL A   1      41.978  27.276  36.016  1.00  0.00     0.131 A 
ATOM     42  C   UNL A   1      43.388  25.062  35.198  1.00  0.00     0.055 A 
ATOM     43  C   UNL A   1      42.017  26.137  36.828  1.00  0.00     0.041 A 
ATOM     44  F   UNL A   1      41.152  28.235  36.450  1.00  0.00    -0.206 F 
ATOM     45  C   UNL A   1      42.703  25.012  36.409  1.00  0.00     0.022 A 
BRANCH  42  46
ATOM     46  S   UNL A   1      44.126  23.545  34.529  1.00  0.00     0.124 S 
ATOM     47  O   UNL A   1      45.218  24.075  33.722  1.00  0.00    -0.237 OA
ATOM     48  O   UNL A   1      44.509  22.835  35.746  1.00  0.00    -0.237 OA
ATOM     49  O   UNL A   1      43.031  22.939  33.775  1.00  0.00    -0.744 OA
ENDBRANCH  42  46
ENDBRANCH  25  39
BRANCH  26  50
ATOM     50  C   UNL A   1      42.764  24.673  26.762  1.00  0.00     0.023 A 
ATOM     51  C   UNL A   1      43.798  24.172  25.944  1.00  0.00     0.031 A 
ATOM     52  C   UNL A   1      41.701  23.788  27.055  1.00  0.00     0.131 A 
ATOM     53  C   UNL A   1      43.737  22.847  25.451  1.00  0.00     0.055 A 
ATOM     54  C   UNL A   1      41.642  22.485  26.559  1.00  0.00     0.041 A 
ATOM     55  F   UNL A   1      40.725  24.134  27.909  1.00  0.00    -0.206 F 
ATOM     56  C   UNL A   1      42.665  22.006  25.759  1.00  0.00     0.022 A 
BRANCH  53  57
ATOM     57  S   UNL A   1      45.115  22.160  24.478  1.00  0.00     0.124 S 
ATOM     58  O   UNL A   1      45.417  23.252  23.556  1.00  0.00    -0.237 OA
ATOM     59  O   UNL A   1      46.113  21.878  25.499  1.00  0.00    -0.237 OA
ATOM     60  O   UNL A   1      44.530  20.973  23.849  1.00  0.00    -0.744 OA
ENDBRANCH  53  57
ENDBRANCH  26  50
BRANCH  38  61
ATOM     61  C   UNL A   1      45.387  29.987  29.055  1.00  0.00     0.023 A 
ATOM     62  C   UNL A   1      46.698  30.340  28.659  1.00  0.00     0.031 A 
ATOM     63  C   UNL A   1      44.320  30.520  28.310  1.00  0.00     0.131 A 
ATOM     64  C   UNL A   1      46.899  31.207  27.566  1.00  0.00     0.055 A 
ATOM     65  C   UNL A   1      44.522  31.361  27.216  1.00  0.00     0.041 A 
ATOM     66  F   UNL A   1      43.050  30.200  28.613  1.00  0.00    -0.206 F 
ATOM     67  C   UNL A   1      45.814  31.714  26.844  1.00  0.00     0.022 A 
BRANCH  64  68
ATOM     68  S   UNL A   1      48.582  31.700  27.070  1.00  0.00     0.124 S 
ATOM     69  O   UNL A   1      49.144  30.480  26.503  1.00  0.00    -0.237 OA
ATOM     70  O   UNL A   1      48.328  32.787  26.127  1.00  0.00    -0.237 OA
ATOM     71  O   UNL A   1      49.197  32.125  28.329  1.00  0.00    -0.744 OA
ENDBRANCH  64  68
ENDBRANCH  38  61
ENDBRANCH  12  13
ENDBRANCH   5   7
ENDBRANCH   2   3
ENDBRANCH   1   2
BRANCH   1  72
ATOM     72  C   UNL A   1      31.884  29.183  25.361  1.00  0.00     0.023 C 
BRANCH  72  73
ATOM     73  C   UNL A   1      32.939  28.979  24.268  1.00  0.00     0.116 C 
BRANCH  73  74
ATOM     74  N   UNL A   1      32.448  28.090  23.226  1.00  0.00    -0.354 N 
ATOM     75  C   UNL A   1      33.073  26.977  22.755  1.00  0.00     0.242 C 
ATOM     76  H   UNL A   1      31.579  28.317  22.822  1.00  0.00     0.163 HD
ATOM     77  O   UNL A   1      33.165  26.864  21.532  1.00  0.00    -0.273 OA
BRANCH  75  78
ATOM     78  C   UNL A   1      33.673  25.924  23.712  1.00  0.00     0.174 C 
ATOM     79  C   UNL A   1      32.972  25.646  25.053  1.00  0.00     0.036 C 
ATOM     80  N   UNL A   1      34.030  24.577  23.150  1.00  0.00    -0.326 N 
ATOM     81  C   UNL A   1      33.977  24.990  26.013  1.00  0.00     0.008 C 
ATOM     82  C   UNL A   1      35.111  23.952  23.967  1.00  0.00     0.089 C 
ATOM     83  C   UNL A   1      34.602  23.713  25.414  1.00  0.00     0.012 C 
ATOM     84  C   UNL A   1      35.812  22.696  23.412  1.00  0.00     0.025 C 
ATOM     85  C   UNL A   1      35.734  23.212  26.324  1.00  0.00     0.006 C 
ATOM     86  C   UNL A   1      36.939  22.232  24.337  1.00  0.00     0.002 C 
ATOM     87  C   UNL A   1      36.422  21.978  25.751  1.00  0.00     0.000 C 
BRANCH  80  88
ATOM     88  C   UNL A   1      33.122  23.741  22.476  1.00  0.00     0.245 C 
ATOM     89  O   UNL A   1      33.287  23.444  21.287  1.00  0.00    -0.273 OA
BRANCH  88  90
ATOM     90  C   UNL A   1      31.869  23.187  23.132  1.00  0.00     0.248 C 
BRANCH  90  91
ATOM     91  N   UNL A   1      32.076  21.863  23.669  1.00  0.00    -0.223 N 
ATOM     92  C   UNL A   1      32.011  21.450  24.963  1.00  0.00     0.246 A 
ATOM     93  N   UNL A   1      32.192  20.791  22.867  1.00  0.00    -0.045 NA
ATOM     94  N   UNL A   1      32.153  20.146  24.996  1.00  0.00    -0.117 NA
ATOM     95  N   UNL A   1      32.259  19.750  23.686  1.00  0.00    -0.024 NA
ENDBRANCH  90  91
ENDBRANCH  88  90
ENDBRANCH  80  88
ENDBRANCH  75  78
ENDBRANCH  73  74
ENDBRANCH  72  73
ENDBRANCH   1  72
TORSDOF 17
ENDMDL
