MODEL 1
REMARK VINA RESULT:     -12.2      0.000      0.000
REMARK SMILES COc1cccc(CSc2nc3ccccc3c(=O)n2CCC(=O)NCCCCNC(=O)c2ccc(-c3c4nc(c(-c5cc(S(=O)(=O)[O-])ccc5F)c5ccc([nH]5)c(-c5cc(S(=O)(=O)[O-])ccc5F)c5nc(c(-c6cc(S(=O)(=O)[O-])ccc6F)c6ccc3[nH]6)C=C5)C=C4)cc2)c1
REMARK SMILES IDX 26 1 25 2 23 3 24 4 22 6 21 7 20 8 10 9 11 10 12 11 18 12
REMARK SMILES IDX 13 13 17 14 19 15 14 16 16 17 15 18 9 19 8 20 7 21 3 22 4 23
REMARK SMILES IDX 96 24 5 25 6 26 2 27 1 28 27 29 28 30 29 31 30 32 31 33
REMARK SMILES IDX 32 35 33 36 34 37 95 38 35 39 94 40 36 41 37 42 38 43 88 44
REMARK SMILES IDX 39 45 93 46 87 47 89 48 40 49 92 50 86 51 85 52 41 54 73 55
REMARK SMILES IDX 53 56 72 57 54 58 57 59 71 60 90 61 55 62 56 63 70 65 91 66
REMARK SMILES IDX 58 67 42 68 43 69 51 70 44 71 50 72 52 73 49 74 45 75 46 76
REMARK SMILES IDX 47 77 48 78 74 79 75 80 83 81 76 82 82 83 84 84 81 85 77 86
REMARK SMILES IDX 78 87 79 88 80 89 59 90 60 91 68 92 61 93 67 94 69 95 66 96
REMARK SMILES IDX 62 97 63 98 64 99 65 100
REMARK H PARENT 25 5 30 34 89 53 57 64
REMARK Flexibility Score: inf
ROOT
ATOM      1  C   UNL A   1      31.838  27.288  26.532  1.00  0.00     0.116 C 
ENDROOT
BRANCH   1   2
ATOM      2  N   UNL A   1      30.807  26.311  26.854  1.00  0.00    -0.356 N 
ATOM      3  C   UNL A   1      30.771  24.982  26.538  1.00  0.00     0.221 C 
ATOM      4  O   UNL A   1      29.759  24.332  26.805  1.00  0.00    -0.275 OA
ATOM      5  H   UNL A   1      30.037  26.651  27.365  1.00  0.00     0.163 HD
BRANCH   3   6
ATOM      6  C   UNL A   1      31.967  24.322  25.870  1.00  0.00     0.122 C 
BRANCH   6   7
ATOM      7  C   UNL A   1      31.519  23.495  24.652  1.00  0.00     0.138 C 
BRANCH   7   8
ATOM      8  N   UNL A   1      32.648  23.047  23.833  1.00  0.00    -0.287 N 
ATOM      9  C   UNL A   1      33.330  23.801  22.894  1.00  0.00     0.171 A 
ATOM     10  N   UNL A   1      34.616  23.682  22.739  1.00  0.00    -0.224 NA
ATOM     11  C   UNL A   1      35.316  22.765  23.531  1.00  0.00     0.079 A 
ATOM     12  C   UNL A   1      33.193  21.822  24.233  1.00  0.00     0.262 A 
ATOM     13  C   UNL A   1      36.695  22.893  23.713  1.00  0.00     0.029 A 
ATOM     14  C   UNL A   1      34.658  21.725  24.170  1.00  0.00     0.066 A 
ATOM     15  O   UNL A   1      32.545  20.899  24.721  1.00  0.00    -0.269 OA
ATOM     16  C   UNL A   1      37.397  21.967  24.494  1.00  0.00     0.002 A 
ATOM     17  C   UNL A   1      35.354  20.750  24.895  1.00  0.00     0.016 A 
ATOM     18  C   UNL A   1      36.732  20.875  25.055  1.00  0.00     0.001 A 
BRANCH   9  19
ATOM     19  S   UNL A   1      32.657  25.070  21.889  1.00  0.00    -0.083 SA
BRANCH  19  20
ATOM     20  C   UNL A   1      32.636  26.683  22.658  1.00  0.00     0.113 C 
BRANCH  20  21
ATOM     21  C   UNL A   1      31.274  27.297  22.806  1.00  0.00    -0.034 A 
ATOM     22  C   UNL A   1      29.815  29.239  22.688  1.00  0.00     0.119 A 
ATOM     23  C   UNL A   1      28.776  28.477  23.221  1.00  0.00     0.046 A 
ATOM     24  C   UNL A   1      31.042  28.629  22.432  1.00  0.00     0.051 A 
ATOM     25  C   UNL A   1      28.966  27.128  23.520  1.00  0.00     0.004 A 
ATOM     26  C   UNL A   1      30.212  26.543  23.323  1.00  0.00     0.005 A 
BRANCH  22  27
ATOM     27  O   UNL A   1      29.524  30.556  22.456  1.00  0.00    -0.497 OA
ATOM     28  C   UNL A   1      28.169  30.945  22.654  1.00  0.00     0.278 C 
ENDBRANCH  22  27
ENDBRANCH  20  21
ENDBRANCH  19  20
ENDBRANCH   9  19
ENDBRANCH   7   8
ENDBRANCH   6   7
ENDBRANCH   3   6
ENDBRANCH   1   2
BRANCH   1  29
ATOM     29  C   UNL A   1      31.417  28.670  27.006  1.00  0.00     0.023 C 
BRANCH  29  30
ATOM     30  C   UNL A   1      31.452  29.794  25.980  1.00  0.00     0.023 C 
BRANCH  30  31
ATOM     31  C   UNL A   1      32.722  30.616  26.042  1.00  0.00     0.116 C 
BRANCH  31  32
ATOM     32  N   UNL A   1      32.573  31.880  26.768  1.00  0.00    -0.352 N 
ATOM     33  C   UNL A   1      33.464  32.530  27.582  1.00  0.00     0.251 C 
ATOM     34  H   UNL A   1      31.705  32.330  26.652  1.00  0.00     0.163 HD
ATOM     35  O   UNL A   1      33.155  33.585  28.110  1.00  0.00    -0.269 OA
BRANCH  33  36
ATOM     36  C   UNL A   1      34.750  31.864  27.905  1.00  0.00     0.039 A 
ATOM     37  C   UNL A   1      35.891  32.658  28.040  1.00  0.00     0.014 A 
ATOM     38  C   UNL A   1      34.792  30.511  28.234  1.00  0.00     0.014 A 
ATOM     39  C   UNL A   1      37.031  32.121  28.634  1.00  0.00     0.010 A 
ATOM     40  C   UNL A   1      35.871  30.024  28.952  1.00  0.00     0.010 A 
ATOM     41  C   UNL A   1      37.002  30.825  29.168  1.00  0.00    -0.014 A 
BRANCH  41  42
ATOM     42  C   UNL A   1      38.131  30.271  29.958  1.00  0.00     0.031 A 
ATOM     43  C   UNL A   1      38.315  30.714  31.384  1.00  0.00     0.074 A 
ATOM     44  C   UNL A   1      39.043  29.480  29.360  1.00  0.00     0.049 A 
ATOM     45  N   UNL A   1      39.324  30.518  32.191  1.00  0.00    -0.248 NA
ATOM     46  C   UNL A   1      37.249  31.555  31.950  1.00  0.00     0.031 C 
ATOM     47  C   UNL A   1      39.016  29.054  27.957  1.00  0.00     0.029 A 
ATOM     48  N   UNL A   1      40.181  28.896  29.855  1.00  0.00    -0.354 N 
ATOM     49  C   UNL A   1      39.039  31.259  33.333  1.00  0.00     0.074 A 
ATOM     50  C   UNL A   1      37.806  31.970  33.075  1.00  0.00     0.031 C 
ATOM     51  C   UNL A   1      40.059  28.242  27.720  1.00  0.00     0.029 A 
ATOM     52  C   UNL A   1      40.857  28.126  28.934  1.00  0.00     0.049 A 
ATOM     53  H   UNL A   1      40.487  29.015  30.783  1.00  0.00     0.167 HD
ATOM     54  C   UNL A   1      39.724  31.312  34.503  1.00  0.00     0.034 A 
ATOM     55  C   UNL A   1      41.990  27.412  29.061  1.00  0.00     0.034 A 
ATOM     56  C   UNL A   1      40.909  30.534  34.756  1.00  0.00     0.049 A 
ATOM     57  C   UNL A   1      42.687  27.410  30.397  1.00  0.00     0.074 A 
ATOM     58  C   UNL A   1      41.652  30.438  35.918  1.00  0.00     0.029 A 
ATOM     59  N   UNL A   1      41.513  29.696  33.825  1.00  0.00    -0.354 N 
ATOM     60  N   UNL A   1      42.384  28.082  31.485  1.00  0.00    -0.248 NA
ATOM     61  C   UNL A   1      43.865  26.545  30.529  1.00  0.00     0.031 C 
ATOM     62  C   UNL A   1      42.723  29.569  35.682  1.00  0.00     0.029 A 
ATOM     63  C   UNL A   1      42.619  29.080  34.388  1.00  0.00     0.049 A 
ATOM     64  H   UNL A   1      41.201  29.560  32.903  1.00  0.00     0.167 HD
ATOM     65  C   UNL A   1      43.320  27.699  32.439  1.00  0.00     0.074 A 
ATOM     66  C   UNL A   1      44.187  26.727  31.802  1.00  0.00     0.031 C 
ATOM     67  C   UNL A   1      43.458  28.110  33.725  1.00  0.00     0.034 A 
BRANCH  54  68
ATOM     68  C   UNL A   1      39.195  32.245  35.568  1.00  0.00     0.023 A 
ATOM     69  C   UNL A   1      39.590  33.593  35.628  1.00  0.00     0.031 A 
ATOM     70  C   UNL A   1      38.353  31.764  36.587  1.00  0.00     0.131 A 
ATOM     71  C   UNL A   1      39.249  34.376  36.740  1.00  0.00     0.055 A 
ATOM     72  C   UNL A   1      37.930  32.580  37.639  1.00  0.00     0.041 A 
ATOM     73  F   UNL A   1      37.953  30.482  36.597  1.00  0.00    -0.206 F 
ATOM     74  C   UNL A   1      38.399  33.888  37.733  1.00  0.00     0.022 A 
BRANCH  71  75
ATOM     75  S   UNL A   1      40.088  35.969  36.959  1.00  0.00     0.124 S 
ATOM     76  O   UNL A   1      41.470  35.544  37.172  1.00  0.00    -0.237 OA
ATOM     77  O   UNL A   1      39.817  36.646  35.697  1.00  0.00    -0.237 OA
ATOM     78  O   UNL A   1      39.431  36.544  38.132  1.00  0.00    -0.744 OA
ENDBRANCH  71  75
ENDBRANCH  54  68
BRANCH  55  79
ATOM     79  C   UNL A   1      42.527  26.624  27.916  1.00  0.00     0.023 A 
ATOM     80  C   UNL A   1      42.058  25.327  27.654  1.00  0.00     0.031 A 
ATOM     81  C   UNL A   1      43.537  27.139  27.085  1.00  0.00     0.131 A 
ATOM     82  C   UNL A   1      42.630  24.568  26.621  1.00  0.00     0.055 A 
ATOM     83  C   UNL A   1      44.072  26.398  26.028  1.00  0.00     0.041 A 
ATOM     84  F   UNL A   1      44.011  28.379  27.282  1.00  0.00    -0.206 F 
ATOM     85  C   UNL A   1      43.627  25.098  25.800  1.00  0.00     0.022 A 
BRANCH  82  86
ATOM     86  S   UNL A   1      42.101  22.844  26.415  1.00  0.00     0.124 S 
ATOM     87  O   UNL A   1      42.742  22.197  27.555  1.00  0.00    -0.237 OA
ATOM     88  O   UNL A   1      40.649  22.964  26.479  1.00  0.00    -0.237 OA
ATOM     89  O   UNL A   1      42.638  22.479  25.106  1.00  0.00    -0.744 OA
ENDBRANCH  82  86
ENDBRANCH  55  79
BRANCH  67  90
ATOM     90  C   UNL A   1      44.551  27.462  34.531  1.00  0.00     0.023 A 
ATOM     91  C   UNL A   1      44.421  26.154  35.029  1.00  0.00     0.031 A 
ATOM     92  C   UNL A   1      45.736  28.167  34.804  1.00  0.00     0.131 A 
ATOM     93  C   UNL A   1      45.443  25.608  35.818  1.00  0.00     0.055 A 
ATOM     94  C   UNL A   1      46.770  27.598  35.547  1.00  0.00     0.041 A 
ATOM     95  F   UNL A   1      45.906  29.418  34.349  1.00  0.00    -0.206 F 
ATOM     96  C   UNL A   1      46.622  26.316  36.068  1.00  0.00     0.022 A 
BRANCH  93  97
ATOM     97  S   UNL A   1      45.179  23.982  36.574  1.00  0.00     0.124 S 
ATOM     98  O   UNL A   1      46.442  23.307  36.289  1.00  0.00    -0.237 OA
ATOM     99  O   UNL A   1      44.941  24.323  37.974  1.00  0.00    -0.237 OA
ATOM    100  O   UNL A   1      44.018  23.455  35.859  1.00  0.00    -0.744 OA
ENDBRANCH  93  97
ENDBRANCH  67  90
ENDBRANCH  41  42
ENDBRANCH  33  36
ENDBRANCH  31  32
ENDBRANCH  30  31
ENDBRANCH  29  30
ENDBRANCH   1  29
TORSDOF 20
ENDMDL
MODEL 2
REMARK VINA RESULT:     -12.2      1.589      7.398
REMARK SMILES COc1cccc(CSc2nc3ccccc3c(=O)n2CCC(=O)NCCCCNC(=O)c2ccc(-c3c4nc(c(-c5cc(S(=O)(=O)[O-])ccc5F)c5ccc([nH]5)c(-c5cc(S(=O)(=O)[O-])ccc5F)c5nc(c(-c6cc(S(=O)(=O)[O-])ccc6F)c6ccc3[nH]6)C=C5)C=C4)cc2)c1
REMARK SMILES IDX 26 1 25 2 23 3 24 4 22 6 21 7 20 8 10 9 11 10 12 11 18 12
REMARK SMILES IDX 13 13 17 14 19 15 14 16 16 17 15 18 9 19 8 20 7 21 3 22 4 23
REMARK SMILES IDX 96 24 5 25 6 26 2 27 1 28 27 29 28 30 29 31 30 32 31 33
REMARK SMILES IDX 32 35 33 36 34 37 95 38 35 39 94 40 36 41 37 42 38 43 88 44
REMARK SMILES IDX 39 45 93 46 87 47 89 48 40 49 92 50 86 51 85 52 41 54 73 55
REMARK SMILES IDX 53 56 72 57 54 58 57 59 71 60 90 61 55 62 56 63 70 65 91 66
REMARK SMILES IDX 58 67 42 68 43 69 51 70 44 71 50 72 52 73 49 74 45 75 46 76
REMARK SMILES IDX 47 77 48 78 74 79 75 80 83 81 76 82 82 83 84 84 81 85 77 86
REMARK SMILES IDX 78 87 79 88 80 89 59 90 60 91 68 92 61 93 67 94 69 95 66 96
REMARK SMILES IDX 62 97 63 98 64 99 65 100
REMARK H PARENT 25 5 30 34 89 53 57 64
REMARK Flexibility Score: inf
ROOT
ATOM      1  C   UNL A   1      32.057  27.319  26.312  1.00  0.00     0.116 C 
ENDROOT
BRANCH   1   2
ATOM      2  N   UNL A   1      30.973  26.417  26.681  1.00  0.00    -0.356 N 
ATOM      3  C   UNL A   1      30.877  25.073  26.458  1.00  0.00     0.221 C 
ATOM      4  O   UNL A   1      29.830  24.493  26.750  1.00  0.00    -0.275 OA
ATOM      5  H   UNL A   1      30.213  26.830  27.151  1.00  0.00     0.163 HD
BRANCH   3   6
ATOM      6  C   UNL A   1      32.050  24.310  25.862  1.00  0.00     0.122 C 
BRANCH   6   7
ATOM      7  C   UNL A   1      31.575  23.388  24.726  1.00  0.00     0.138 C 
BRANCH   7   8
ATOM      8  N   UNL A   1      32.683  22.888  23.910  1.00  0.00    -0.287 N 
ATOM      9  C   UNL A   1      33.355  23.586  22.921  1.00  0.00     0.171 A 
ATOM     10  N   UNL A   1      34.636  23.447  22.749  1.00  0.00    -0.224 NA
ATOM     11  C   UNL A   1      35.343  22.565  23.573  1.00  0.00     0.079 A 
ATOM     12  C   UNL A   1      33.226  21.679  24.362  1.00  0.00     0.262 A 
ATOM     13  C   UNL A   1      36.727  22.689  23.722  1.00  0.00     0.029 A 
ATOM     14  C   UNL A   1      34.688  21.565  24.277  1.00  0.00     0.066 A 
ATOM     15  O   UNL A   1      32.579  20.789  24.908  1.00  0.00    -0.269 OA
ATOM     16  C   UNL A   1      37.435  21.796  24.536  1.00  0.00     0.002 A 
ATOM     17  C   UNL A   1      35.390  20.621  25.037  1.00  0.00     0.016 A 
ATOM     18  C   UNL A   1      36.772  20.741  25.165  1.00  0.00     0.001 A 
BRANCH   9  19
ATOM     19  S   UNL A   1      32.674  24.809  21.865  1.00  0.00    -0.083 SA
BRANCH  19  20
ATOM     20  C   UNL A   1      33.205  26.475  22.231  1.00  0.00     0.113 C 
BRANCH  20  21
ATOM     21  C   UNL A   1      32.111  27.412  22.654  1.00  0.00    -0.034 A 
ATOM     22  C   UNL A   1      29.766  27.827  23.142  1.00  0.00     0.119 A 
ATOM     23  C   UNL A   1      30.050  29.183  23.299  1.00  0.00     0.046 A 
ATOM     24  C   UNL A   1      30.808  26.942  22.876  1.00  0.00     0.051 A 
ATOM     25  C   UNL A   1      31.356  29.656  23.165  1.00  0.00     0.004 A 
ATOM     26  C   UNL A   1      32.381  28.775  22.835  1.00  0.00     0.005 A 
BRANCH  22  27
ATOM     27  O   UNL A   1      28.449  27.480  23.271  1.00  0.00    -0.497 OA
ATOM     28  C   UNL A   1      28.172  26.350  24.093  1.00  0.00     0.278 C 
ENDBRANCH  22  27
ENDBRANCH  20  21
ENDBRANCH  19  20
ENDBRANCH   9  19
ENDBRANCH   7   8
ENDBRANCH   6   7
ENDBRANCH   3   6
ENDBRANCH   1   2
BRANCH   1  29
ATOM     29  C   UNL A   1      32.128  28.481  27.289  1.00  0.00     0.023 C 
BRANCH  29  30
ATOM     30  C   UNL A   1      31.406  29.762  26.897  1.00  0.00     0.023 C 
BRANCH  30  31
ATOM     31  C   UNL A   1      32.331  30.814  26.323  1.00  0.00     0.116 C 
BRANCH  31  32
ATOM     32  N   UNL A   1      32.173  32.137  26.932  1.00  0.00    -0.352 N 
ATOM     33  C   UNL A   1      33.083  32.894  27.625  1.00  0.00     0.251 C 
ATOM     34  H   UNL A   1      31.282  32.542  26.828  1.00  0.00     0.163 HD
ATOM     35  O   UNL A   1      32.762  33.984  28.067  1.00  0.00    -0.269 OA
BRANCH  33  36
ATOM     36  C   UNL A   1      34.411  32.308  27.929  1.00  0.00     0.039 A 
ATOM     37  C   UNL A   1      35.510  33.166  28.005  1.00  0.00     0.014 A 
ATOM     38  C   UNL A   1      34.535  30.971  28.300  1.00  0.00     0.014 A 
ATOM     39  C   UNL A   1      36.695  32.710  28.581  1.00  0.00     0.010 A 
ATOM     40  C   UNL A   1      35.659  30.566  29.001  1.00  0.00     0.010 A 
ATOM     41  C   UNL A   1      36.750  31.433  29.157  1.00  0.00    -0.014 A 
BRANCH  41  42
ATOM     42  C   UNL A   1      37.930  30.966  29.930  1.00  0.00     0.031 A 
ATOM     43  C   UNL A   1      38.900  30.014  29.283  1.00  0.00     0.074 A 
ATOM     44  C   UNL A   1      38.055  31.299  31.229  1.00  0.00     0.049 A 
ATOM     45  N   UNL A   1      39.877  29.332  29.820  1.00  0.00    -0.248 NA
ATOM     46  C   UNL A   1      38.689  29.737  27.854  1.00  0.00     0.031 C 
ATOM     47  C   UNL A   1      37.128  32.145  31.988  1.00  0.00     0.029 A 
ATOM     48  N   UNL A   1      39.011  30.957  32.152  1.00  0.00    -0.354 N 
ATOM     49  C   UNL A   1      40.356  28.506  28.808  1.00  0.00     0.074 A 
ATOM     50  C   UNL A   1      39.506  28.716  27.658  1.00  0.00     0.031 C 
ATOM     51  C   UNL A   1      37.586  32.293  33.241  1.00  0.00     0.029 A 
ATOM     52  C   UNL A   1      38.810  31.516  33.394  1.00  0.00     0.049 A 
ATOM     53  H   UNL A   1      39.771  30.367  31.945  1.00  0.00     0.167 HD
ATOM     54  C   UNL A   1      41.429  27.677  28.828  1.00  0.00     0.034 A 
ATOM     55  C   UNL A   1      39.534  31.410  34.523  1.00  0.00     0.034 A 
ATOM     56  C   UNL A   1      42.300  27.546  29.967  1.00  0.00     0.049 A 
ATOM     57  C   UNL A   1      40.775  30.555  34.498  1.00  0.00     0.074 A 
ATOM     58  C   UNL A   1      43.460  26.801  30.091  1.00  0.00     0.029 A 
ATOM     59  N   UNL A   1      42.114  28.198  31.180  1.00  0.00    -0.354 N 
ATOM     60  N   UNL A   1      41.243  29.811  33.521  1.00  0.00    -0.248 NA
ATOM     61  C   UNL A   1      41.593  30.538  35.717  1.00  0.00     0.031 C 
ATOM     62  C   UNL A   1      43.956  26.978  31.388  1.00  0.00     0.029 A 
ATOM     63  C   UNL A   1      43.136  27.875  32.057  1.00  0.00     0.049 A 
ATOM     64  H   UNL A   1      41.365  28.803  31.385  1.00  0.00     0.167 HD
ATOM     65  C   UNL A   1      42.426  29.258  34.001  1.00  0.00     0.074 A 
ATOM     66  C   UNL A   1      42.605  29.767  35.346  1.00  0.00     0.031 C 
ATOM     67  C   UNL A   1      43.288  28.406  33.391  1.00  0.00     0.034 A 
BRANCH  54  68
ATOM     68  C   UNL A   1      41.692  26.863  27.582  1.00  0.00     0.023 A 
ATOM     69  C   UNL A   1      41.331  25.506  27.501  1.00  0.00     0.031 A 
ATOM     70  C   UNL A   1      42.386  27.421  26.495  1.00  0.00     0.131 A 
ATOM     71  C   UNL A   1      41.770  24.727  26.421  1.00  0.00     0.055 A 
ATOM     72  C   UNL A   1      42.730  26.663  25.373  1.00  0.00     0.041 A 
ATOM     73  F   UNL A   1      42.774  28.707  26.518  1.00  0.00    -0.206 F 
ATOM     74  C   UNL A   1      42.444  25.301  25.342  1.00  0.00     0.022 A 
BRANCH  71  75
ATOM     75  S   UNL A   1      41.614  22.923  26.542  1.00  0.00     0.124 S 
ATOM     76  O   UNL A   1      40.162  22.757  26.550  1.00  0.00    -0.237 OA
ATOM     77  O   UNL A   1      42.302  22.463  25.342  1.00  0.00    -0.237 OA
ATOM     78  O   UNL A   1      42.277  22.606  27.805  1.00  0.00    -0.744 OA
ENDBRANCH  71  75
ENDBRANCH  54  68
BRANCH  55  79
ATOM     79  C   UNL A   1      39.130  32.138  35.759  1.00  0.00     0.023 A 
ATOM     80  C   UNL A   1      38.425  31.483  36.781  1.00  0.00     0.031 A 
ATOM     81  C   UNL A   1      39.413  33.505  35.926  1.00  0.00     0.131 A 
ATOM     82  C   UNL A   1      37.983  32.202  37.902  1.00  0.00     0.055 A 
ATOM     83  C   UNL A   1      39.011  34.208  37.065  1.00  0.00     0.041 A 
ATOM     84  F   UNL A   1      40.097  34.176  34.986  1.00  0.00    -0.206 F 
ATOM     85  C   UNL A   1      38.279  33.558  38.055  1.00  0.00     0.022 A 
BRANCH  82  86
ATOM     86  S   UNL A   1      36.945  31.353  39.124  1.00  0.00     0.124 S 
ATOM     87  O   UNL A   1      35.773  32.221  39.175  1.00  0.00    -0.237 OA
ATOM     88  O   UNL A   1      36.750  30.049  38.501  1.00  0.00    -0.237 OA
ATOM     89  O   UNL A   1      37.772  31.350  40.329  1.00  0.00    -0.744 OA
ENDBRANCH  82  86
ENDBRANCH  55  79
BRANCH  67  90
ATOM     90  C   UNL A   1      44.523  28.025  34.161  1.00  0.00     0.023 A 
ATOM     91  C   UNL A   1      44.546  26.901  35.004  1.00  0.00     0.031 A 
ATOM     92  C   UNL A   1      45.689  28.801  34.048  1.00  0.00     0.131 A 
ATOM     93  C   UNL A   1      45.702  26.611  35.742  1.00  0.00     0.055 A 
ATOM     94  C   UNL A   1      46.852  28.477  34.747  1.00  0.00     0.041 A 
ATOM     95  F   UNL A   1      45.716  29.883  33.254  1.00  0.00    -0.206 F 
ATOM     96  C   UNL A   1      46.860  27.384  35.608  1.00  0.00     0.022 A 
BRANCH  93  97
ATOM     97  S   UNL A   1      45.650  25.249  36.938  1.00  0.00     0.124 S 
ATOM     98  O   UNL A   1      46.422  24.216  36.254  1.00  0.00    -0.237 OA
ATOM     99  O   UNL A   1      46.280  25.842  38.114  1.00  0.00    -0.237 OA
ATOM    100  O   UNL A   1      44.222  24.969  37.075  1.00  0.00    -0.744 OA
ENDBRANCH  93  97
ENDBRANCH  67  90
ENDBRANCH  41  42
ENDBRANCH  33  36
ENDBRANCH  31  32
ENDBRANCH  30  31
ENDBRANCH  29  30
ENDBRANCH   1  29
TORSDOF 20
ENDMDL
MODEL 3
REMARK VINA RESULT:     -11.7      2.313      3.075
REMARK SMILES COc1cccc(CSc2nc3ccccc3c(=O)n2CCC(=O)NCCCCNC(=O)c2ccc(-c3c4nc(c(-c5cc(S(=O)(=O)[O-])ccc5F)c5ccc([nH]5)c(-c5cc(S(=O)(=O)[O-])ccc5F)c5nc(c(-c6cc(S(=O)(=O)[O-])ccc6F)c6ccc3[nH]6)C=C5)C=C4)cc2)c1
REMARK SMILES IDX 26 1 25 2 23 3 24 4 22 6 21 7 20 8 10 9 11 10 12 11 18 12
REMARK SMILES IDX 13 13 17 14 19 15 14 16 16 17 15 18 9 19 8 20 7 21 3 22 4 23
REMARK SMILES IDX 96 24 5 25 6 26 2 27 1 28 27 29 28 30 29 31 30 32 31 33
REMARK SMILES IDX 32 35 33 36 34 37 95 38 35 39 94 40 36 41 37 42 38 43 88 44
REMARK SMILES IDX 39 45 93 46 87 47 89 48 40 49 92 50 86 51 85 52 41 54 73 55
REMARK SMILES IDX 53 56 72 57 54 58 57 59 71 60 90 61 55 62 56 63 70 65 91 66
REMARK SMILES IDX 58 67 42 68 43 69 51 70 44 71 50 72 52 73 49 74 45 75 46 76
REMARK SMILES IDX 47 77 48 78 74 79 75 80 83 81 76 82 82 83 84 84 81 85 77 86
REMARK SMILES IDX 78 87 79 88 80 89 59 90 60 91 68 92 61 93 67 94 69 95 66 96
REMARK SMILES IDX 62 97 63 98 64 99 65 100
REMARK H PARENT 25 5 30 34 89 53 57 64
REMARK Flexibility Score: inf
ROOT
ATOM      1  C   UNL A   1      34.640  29.437  27.210  1.00  0.00     0.116 C 
ENDROOT
BRANCH   1   2
ATOM      2  N   UNL A   1      33.363  28.996  27.757  1.00  0.00    -0.356 N 
ATOM      3  C   UNL A   1      32.517  28.042  27.268  1.00  0.00     0.221 C 
ATOM      4  O   UNL A   1      31.424  27.878  27.812  1.00  0.00    -0.275 OA
ATOM      5  H   UNL A   1      33.073  29.443  28.585  1.00  0.00     0.163 HD
BRANCH   3   6
ATOM      6  C   UNL A   1      32.926  27.195  26.073  1.00  0.00     0.122 C 
BRANCH   6   7
ATOM      7  C   UNL A   1      31.745  26.336  25.588  1.00  0.00     0.138 C 
BRANCH   7   8
ATOM      8  N   UNL A   1      32.177  25.200  24.771  1.00  0.00    -0.287 N 
ATOM      9  C   UNL A   1      32.464  25.226  23.417  1.00  0.00     0.171 A 
ATOM     10  N   UNL A   1      33.434  24.517  22.919  1.00  0.00    -0.224 NA
ATOM     11  C   UNL A   1      34.191  23.705  23.771  1.00  0.00     0.079 A 
ATOM     12  C   UNL A   1      32.539  24.068  25.511  1.00  0.00     0.262 A 
ATOM     13  C   UNL A   1      35.465  23.274  23.392  1.00  0.00     0.029 A 
ATOM     14  C   UNL A   1      33.709  23.330  25.016  1.00  0.00     0.066 A 
ATOM     15  O   UNL A   1      32.017  23.737  26.573  1.00  0.00    -0.269 OA
ATOM     16  C   UNL A   1      36.216  22.450  24.239  1.00  0.00     0.002 A 
ATOM     17  C   UNL A   1      34.416  22.450  25.844  1.00  0.00     0.016 A 
ATOM     18  C   UNL A   1      35.677  22.009  25.449  1.00  0.00     0.001 A 
BRANCH   9  19
ATOM     19  S   UNL A   1      31.708  26.251  22.212  1.00  0.00    -0.083 SA
BRANCH  19  20
ATOM     20  C   UNL A   1      31.566  27.966  22.690  1.00  0.00     0.113 C 
BRANCH  20  21
ATOM     21  C   UNL A   1      30.174  28.525  22.645  1.00  0.00    -0.034 A 
ATOM     22  C   UNL A   1      28.650  30.340  22.101  1.00  0.00     0.119 A 
ATOM     23  C   UNL A   1      27.607  29.627  22.692  1.00  0.00     0.046 A 
ATOM     24  C   UNL A   1      29.915  29.761  22.032  1.00  0.00     0.051 A 
ATOM     25  C   UNL A   1      27.830  28.359  23.231  1.00  0.00     0.004 A 
ATOM     26  C   UNL A   1      29.110  27.815  23.216  1.00  0.00     0.005 A 
BRANCH  22  27
ATOM     27  O   UNL A   1      28.323  31.582  21.628  1.00  0.00    -0.497 OA
ATOM     28  C   UNL A   1      28.747  32.689  22.418  1.00  0.00     0.278 C 
ENDBRANCH  22  27
ENDBRANCH  20  21
ENDBRANCH  19  20
ENDBRANCH   9  19
ENDBRANCH   7   8
ENDBRANCH   6   7
ENDBRANCH   3   6
ENDBRANCH   1   2
BRANCH   1  29
ATOM     29  C   UNL A   1      35.007  30.801  27.771  1.00  0.00     0.023 C 
BRANCH  29  30
ATOM     30  C   UNL A   1      33.866  31.777  28.022  1.00  0.00     0.023 C 
BRANCH  30  31
ATOM     31  C   UNL A   1      34.301  33.226  27.970  1.00  0.00     0.116 C 
BRANCH  31  32
ATOM     32  N   UNL A   1      33.432  34.133  28.724  1.00  0.00    -0.352 N 
ATOM     33  C   UNL A   1      33.557  34.596  30.009  1.00  0.00     0.251 C 
ATOM     34  H   UNL A   1      32.641  34.458  28.236  1.00  0.00     0.163 HD
ATOM     35  O   UNL A   1      32.719  35.351  30.472  1.00  0.00    -0.269 OA
BRANCH  33  36
ATOM     36  C   UNL A   1      34.654  34.063  30.853  1.00  0.00     0.039 A 
ATOM     37  C   UNL A   1      34.412  32.908  31.601  1.00  0.00     0.014 A 
ATOM     38  C   UNL A   1      35.940  34.594  30.775  1.00  0.00     0.014 A 
ATOM     39  C   UNL A   1      35.487  32.215  32.154  1.00  0.00     0.010 A 
ATOM     40  C   UNL A   1      37.013  33.829  31.199  1.00  0.00     0.010 A 
ATOM     41  C   UNL A   1      36.801  32.626  31.888  1.00  0.00    -0.014 A 
BRANCH  41  42
ATOM     42  C   UNL A   1      37.979  31.826  32.311  1.00  0.00     0.031 A 
ATOM     43  C   UNL A   1      38.647  32.143  33.622  1.00  0.00     0.074 A 
ATOM     44  C   UNL A   1      38.508  30.915  31.472  1.00  0.00     0.049 A 
ATOM     45  N   UNL A   1      39.787  31.716  34.098  1.00  0.00    -0.248 NA
ATOM     46  C   UNL A   1      37.974  33.134  34.476  1.00  0.00     0.031 C 
ATOM     47  C   UNL A   1      37.997  30.584  30.137  1.00  0.00     0.029 A 
ATOM     48  N   UNL A   1      39.604  30.102  31.611  1.00  0.00    -0.354 N 
ATOM     49  C   UNL A   1      39.991  32.430  35.274  1.00  0.00     0.074 A 
ATOM     50  C   UNL A   1      38.900  33.372  35.389  1.00  0.00     0.031 C 
ATOM     51  C   UNL A   1      38.749  29.608  29.605  1.00  0.00     0.029 A 
ATOM     52  C   UNL A   1      39.823  29.275  30.532  1.00  0.00     0.049 A 
ATOM     53  H   UNL A   1      40.181  30.108  32.409  1.00  0.00     0.167 HD
ATOM     54  C   UNL A   1      40.979  32.287  36.192  1.00  0.00     0.034 A 
ATOM     55  C   UNL A   1      40.783  28.355  30.321  1.00  0.00     0.034 A 
ATOM     56  C   UNL A   1      42.012  31.288  36.086  1.00  0.00     0.049 A 
ATOM     57  C   UNL A   1      41.820  28.147  31.395  1.00  0.00     0.074 A 
ATOM     58  C   UNL A   1      43.024  30.988  36.980  1.00  0.00     0.029 A 
ATOM     59  N   UNL A   1      42.148  30.407  35.019  1.00  0.00    -0.354 N 
ATOM     60  N   UNL A   1      41.979  28.799  32.525  1.00  0.00    -0.248 NA
ATOM     61  C   UNL A   1      42.794  27.071  31.175  1.00  0.00     0.031 C 
ATOM     62  C   UNL A   1      43.791  29.949  36.440  1.00  0.00     0.029 A 
ATOM     63  C   UNL A   1      43.226  29.564  35.233  1.00  0.00     0.049 A 
ATOM     64  H   UNL A   1      41.564  30.386  34.228  1.00  0.00     0.167 HD
ATOM     65  C   UNL A   1      43.056  28.193  33.162  1.00  0.00     0.074 A 
ATOM     66  C   UNL A   1      43.496  27.115  32.298  1.00  0.00     0.031 C 
ATOM     67  C   UNL A   1      43.634  28.495  34.352  1.00  0.00     0.034 A 
BRANCH  54  68
ATOM     68  C   UNL A   1      40.971  33.237  37.367  1.00  0.00     0.023 A 
ATOM     69  C   UNL A   1      40.240  32.956  38.535  1.00  0.00     0.031 A 
ATOM     70  C   UNL A   1      41.629  34.477  37.290  1.00  0.00     0.131 A 
ATOM     71  C   UNL A   1      40.083  33.942  39.519  1.00  0.00     0.055 A 
ATOM     72  C   UNL A   1      41.555  35.416  38.322  1.00  0.00     0.041 A 
ATOM     73  F   UNL A   1      42.330  34.813  36.195  1.00  0.00    -0.206 F 
ATOM     74  C   UNL A   1      40.758  35.161  39.435  1.00  0.00     0.022 A 
BRANCH  71  75
ATOM     75  S   UNL A   1      38.835  33.678  40.809  1.00  0.00     0.124 S 
ATOM     76  O   UNL A   1      39.388  32.525  41.518  1.00  0.00    -0.237 OA
ATOM     77  O   UNL A   1      38.856  34.942  41.535  1.00  0.00    -0.237 OA
ATOM     78  O   UNL A   1      37.613  33.410  40.054  1.00  0.00    -0.744 OA
ENDBRANCH  71  75
ENDBRANCH  54  68
BRANCH  55  79
ATOM     79  C   UNL A   1      40.804  27.549  29.068  1.00  0.00     0.023 A 
ATOM     80  C   UNL A   1      41.724  27.834  28.046  1.00  0.00     0.031 A 
ATOM     81  C   UNL A   1      39.889  26.503  28.857  1.00  0.00     0.131 A 
ATOM     82  C   UNL A   1      41.678  27.118  26.840  1.00  0.00     0.055 A 
ATOM     83  C   UNL A   1      39.876  25.762  27.673  1.00  0.00     0.041 A 
ATOM     84  F   UNL A   1      38.997  26.180  29.807  1.00  0.00    -0.206 F 
ATOM     85  C   UNL A   1      40.767  26.077  26.650  1.00  0.00     0.022 A 
BRANCH  82  86
ATOM     86  S   UNL A   1      42.782  27.619  25.490  1.00  0.00     0.124 S 
ATOM     87  O   UNL A   1      42.088  28.785  24.954  1.00  0.00    -0.237 OA
ATOM     88  O   UNL A   1      44.028  27.886  26.202  1.00  0.00    -0.237 OA
ATOM     89  O   UNL A   1      42.804  26.448  24.616  1.00  0.00    -0.744 OA
ENDBRANCH  82  86
ENDBRANCH  55  79
BRANCH  67  90
ATOM     90  C   UNL A   1      44.764  27.610  34.802  1.00  0.00     0.023 A 
ATOM     91  C   UNL A   1      44.529  26.431  35.530  1.00  0.00     0.031 A 
ATOM     92  C   UNL A   1      46.092  27.955  34.498  1.00  0.00     0.131 A 
ATOM     93  C   UNL A   1      45.614  25.662  35.973  1.00  0.00     0.055 A 
ATOM     94  C   UNL A   1      47.164  27.158  34.898  1.00  0.00     0.041 A 
ATOM     95  F   UNL A   1      46.366  29.071  33.803  1.00  0.00    -0.206 F 
ATOM     96  C   UNL A   1      46.929  26.010  35.650  1.00  0.00     0.022 A 
BRANCH  93  97
ATOM     97  S   UNL A   1      45.287  24.234  37.042  1.00  0.00     0.124 S 
ATOM     98  O   UNL A   1      44.437  24.818  38.075  1.00  0.00    -0.237 OA
ATOM     99  O   UNL A   1      44.632  23.303  36.128  1.00  0.00    -0.237 OA
ATOM    100  O   UNL A   1      46.618  23.829  37.490  1.00  0.00    -0.744 OA
ENDBRANCH  93  97
ENDBRANCH  67  90
ENDBRANCH  41  42
ENDBRANCH  33  36
ENDBRANCH  31  32
ENDBRANCH  30  31
ENDBRANCH  29  30
ENDBRANCH   1  29
TORSDOF 20
ENDMDL
