MODEL 1
REMARK VINA RESULT:     -12.1      0.000      0.000
REMARK SMILES Cc1cscc1C(=O)N[C@H](C(=O)NCCCCNC(=O)c1ccc(-c2c3nc(c(-c4cc(S(=O)(=O)[O-])ccc4F)c4ccc([nH]4)c(-c4cc(S(=O)(=O)[O-])ccc4F)c4nc(c(-c5cc(S(=O)(=O)[O-])ccc5F)c5ccc2[nH]5)C=C4)C=C3)cc1)c1ccccc1
REMARK SMILES IDX 16 1 15 2 14 3 13 4 11 5 12 6 10 8 9 9 7 10 8 11 6 13 1 14
REMARK SMILES IDX 2 15 3 16 4 17 5 18 84 19 85 20 89 21 86 22 88 23 87 24
REMARK SMILES IDX 17 25 18 26 19 27 20 29 21 30 22 31 83 32 23 33 82 34 24 35
REMARK SMILES IDX 25 36 26 37 76 38 27 39 81 40 75 41 77 42 28 43 80 44 74 45
REMARK SMILES IDX 73 46 29 48 61 49 41 50 60 51 42 52 45 53 59 54 78 55 43 56
REMARK SMILES IDX 44 57 58 59 79 60 46 61 30 62 31 63 39 64 32 65 38 66 40 67
REMARK SMILES IDX 37 68 33 69 34 70 35 71 36 72 62 73 63 74 71 75 64 76 70 77
REMARK SMILES IDX 72 78 69 79 65 80 66 81 67 82 68 83 47 84 48 85 56 86 49 87
REMARK SMILES IDX 55 88 57 89 54 90 50 91 51 92 52 93 53 94
REMARK H PARENT 13 7 9 12 18 28 77 47 45 58
REMARK Flexibility Score: inf
ROOT
ATOM      1  C   UNL A   1      31.628  32.096  26.724  1.00  0.00     0.023 C 
ENDROOT
BRANCH   1   2
ATOM      2  C   UNL A   1      31.997  30.830  25.934  1.00  0.00     0.023 C 
BRANCH   2   3
ATOM      3  C   UNL A   1      33.163  30.022  26.509  1.00  0.00     0.116 C 
BRANCH   3   4
ATOM      4  N   UNL A   1      32.697  29.169  27.578  1.00  0.00    -0.354 N 
ATOM      5  C   UNL A   1      31.908  28.055  27.508  1.00  0.00     0.247 C 
ATOM      6  O   UNL A   1      31.186  27.880  28.484  1.00  0.00    -0.272 OA
ATOM      7  H   UNL A   1      32.990  29.425  28.484  1.00  0.00     0.163 HD
BRANCH   5   8
ATOM      8  C   UNL A   1      32.139  27.022  26.396  1.00  0.00     0.202 C 
BRANCH   8   9
ATOM      9  N   UNL A   1      31.784  25.698  26.882  1.00  0.00    -0.336 N 
ATOM     10  C   UNL A   1      31.930  24.396  26.523  1.00  0.00     0.253 C 
ATOM     11  O   UNL A   1      31.573  23.647  27.447  1.00  0.00    -0.269 OA
ATOM     12  H   UNL A   1      31.284  25.766  27.728  1.00  0.00     0.165 HD
BRANCH  10  13
ATOM     13  C   UNL A   1      32.362  23.792  25.239  1.00  0.00     0.053 A 
ATOM     14  C   UNL A   1      30.548  23.890  23.207  1.00  0.00     0.046 C 
ATOM     15  C   UNL A   1      31.849  23.573  23.877  1.00  0.00    -0.028 A 
ATOM     16  C   UNL A   1      32.804  22.956  23.074  1.00  0.00     0.069 A 
ATOM     17  S   UNL A   1      34.282  22.672  23.836  1.00  0.00    -0.151 S 
ATOM     18  C   UNL A   1      33.684  23.331  25.274  1.00  0.00     0.079 A 
ENDBRANCH  10  13
ENDBRANCH   8   9
BRANCH   8  19
ATOM     19  C   UNL A   1      31.695  27.279  24.963  1.00  0.00    -0.016 A 
ATOM     20  C   UNL A   1      32.637  27.287  23.921  1.00  0.00     0.006 A 
ATOM     21  C   UNL A   1      30.335  27.370  24.601  1.00  0.00     0.006 A 
ATOM     22  C   UNL A   1      32.230  27.404  22.584  1.00  0.00     0.000 A 
ATOM     23  C   UNL A   1      29.933  27.538  23.276  1.00  0.00     0.000 A 
ATOM     24  C   UNL A   1      30.881  27.546  22.265  1.00  0.00     0.000 A 
ENDBRANCH   8  19
ENDBRANCH   5   8
ENDBRANCH   3   4
ENDBRANCH   2   3
ENDBRANCH   1   2
BRANCH   1  25
ATOM     25  C   UNL A   1      32.766  32.774  27.480  1.00  0.00     0.116 C 
BRANCH  25  26
ATOM     26  N   UNL A   1      32.481  34.157  27.819  1.00  0.00    -0.352 N 
ATOM     27  C   UNL A   1      33.127  34.983  28.702  1.00  0.00     0.251 C 
ATOM     28  H   UNL A   1      31.715  34.559  27.347  1.00  0.00     0.163 HD
ATOM     29  O   UNL A   1      32.689  36.113  28.904  1.00  0.00    -0.269 OA
BRANCH  27  30
ATOM     30  C   UNL A   1      34.304  34.488  29.438  1.00  0.00     0.039 A 
ATOM     31  C   UNL A   1      34.115  34.004  30.734  1.00  0.00     0.014 A 
ATOM     32  C   UNL A   1      35.573  34.469  28.850  1.00  0.00     0.014 A 
ATOM     33  C   UNL A   1      35.190  33.443  31.422  1.00  0.00     0.010 A 
ATOM     34  C   UNL A   1      36.629  33.851  29.515  1.00  0.00     0.010 A 
ATOM     35  C   UNL A   1      36.447  33.332  30.806  1.00  0.00    -0.014 A 
BRANCH  35  36
ATOM     36  C   UNL A   1      37.577  32.676  31.509  1.00  0.00     0.031 A 
ATOM     37  C   UNL A   1      38.295  31.524  30.865  1.00  0.00     0.074 A 
ATOM     38  C   UNL A   1      37.923  33.096  32.743  1.00  0.00     0.049 A 
ATOM     39  N   UNL A   1      39.276  30.795  31.332  1.00  0.00    -0.248 NA
ATOM     40  C   UNL A   1      37.830  31.123  29.529  1.00  0.00     0.031 C 
ATOM     41  C   UNL A   1      37.269  34.180  33.479  1.00  0.00     0.029 A 
ATOM     42  N   UNL A   1      38.906  32.663  33.597  1.00  0.00    -0.354 N 
ATOM     43  C   UNL A   1      39.537  29.842  30.354  1.00  0.00     0.074 A 
ATOM     44  C   UNL A   1      38.571  30.050  29.296  1.00  0.00     0.031 C 
ATOM     45  C   UNL A   1      37.882  34.342  34.663  1.00  0.00     0.029 A 
ATOM     46  C   UNL A   1      38.943  33.347  34.790  1.00  0.00     0.049 A 
ATOM     47  H   UNL A   1      39.525  31.930  33.377  1.00  0.00     0.167 HD
ATOM     48  C   UNL A   1      40.508  28.896  30.332  1.00  0.00     0.034 A 
ATOM     49  C   UNL A   1      39.735  33.183  35.868  1.00  0.00     0.034 A 
ATOM     50  C   UNL A   1      41.468  28.713  31.395  1.00  0.00     0.049 A 
ATOM     51  C   UNL A   1      40.794  32.111  35.829  1.00  0.00     0.074 A 
ATOM     52  C   UNL A   1      42.529  27.827  31.456  1.00  0.00     0.029 A 
ATOM     53  N   UNL A   1      41.476  29.424  32.589  1.00  0.00    -0.354 N 
ATOM     54  N   UNL A   1      41.068  31.255  34.871  1.00  0.00    -0.248 NA
ATOM     55  C   UNL A   1      41.660  31.991  37.009  1.00  0.00     0.031 C 
ATOM     56  C   UNL A   1      43.132  27.951  32.712  1.00  0.00     0.029 A 
ATOM     57  C   UNL A   1      42.502  28.972  33.406  1.00  0.00     0.049 A 
ATOM     58  H   UNL A   1      40.846  30.143  32.822  1.00  0.00     0.167 HD
ATOM     59  C   UNL A   1      42.158  30.516  35.322  1.00  0.00     0.074 A 
ATOM     60  C   UNL A   1      42.499  31.039  36.630  1.00  0.00     0.031 C 
ATOM     61  C   UNL A   1      42.821  29.500  34.712  1.00  0.00     0.034 A 
BRANCH  48  62
ATOM     62  C   UNL A   1      40.555  27.974  29.137  1.00  0.00     0.023 A 
ATOM     63  C   UNL A   1      41.501  28.143  28.109  1.00  0.00     0.031 A 
ATOM     64  C   UNL A   1      39.625  26.928  29.007  1.00  0.00     0.131 A 
ATOM     65  C   UNL A   1      41.445  27.334  26.964  1.00  0.00     0.055 A 
ATOM     66  C   UNL A   1      39.628  26.072  27.903  1.00  0.00     0.041 A 
ATOM     67  F   UNL A   1      38.684  26.729  29.944  1.00  0.00    -0.206 F 
ATOM     68  C   UNL A   1      40.532  26.282  26.865  1.00  0.00     0.022 A 
BRANCH  65  69
ATOM     69  S   UNL A   1      42.486  27.770  25.544  1.00  0.00     0.124 S 
ATOM     70  O   UNL A   1      41.779  28.929  25.005  1.00  0.00    -0.237 OA
ATOM     71  O   UNL A   1      43.776  28.042  26.169  1.00  0.00    -0.237 OA
ATOM     72  O   UNL A   1      42.438  26.574  24.704  1.00  0.00    -0.744 OA
ENDBRANCH  65  69
ENDBRANCH  48  62
BRANCH  49  73
ATOM     73  C   UNL A   1      39.557  34.039  37.078  1.00  0.00     0.023 A 
ATOM     74  C   UNL A   1      38.978  33.526  38.249  1.00  0.00     0.031 A 
ATOM     75  C   UNL A   1      39.925  35.396  37.064  1.00  0.00     0.131 A 
ATOM     76  C   UNL A   1      38.737  34.375  39.340  1.00  0.00     0.055 A 
ATOM     77  C   UNL A   1      39.734  36.224  38.172  1.00  0.00     0.041 A 
ATOM     78  F   UNL A   1      40.488  35.937  35.972  1.00  0.00    -0.206 F 
ATOM     79  C   UNL A   1      39.124  35.717  39.315  1.00  0.00     0.022 A 
BRANCH  76  80
ATOM     80  S   UNL A   1      37.828  33.720  40.767  1.00  0.00     0.124 S 
ATOM     81  O   UNL A   1      38.889  33.060  41.518  1.00  0.00    -0.237 OA
ATOM     82  O   UNL A   1      37.281  34.936  41.361  1.00  0.00    -0.237 OA
ATOM     83  O   UNL A   1      36.843  32.827  40.162  1.00  0.00    -0.744 OA
ENDBRANCH  76  80
ENDBRANCH  49  73
BRANCH  61  84
ATOM     84  C   UNL A   1      44.009  28.923  35.441  1.00  0.00     0.023 A 
ATOM     85  C   UNL A   1      43.884  27.829  36.316  1.00  0.00     0.031 A 
ATOM     86  C   UNL A   1      45.286  29.485  35.263  1.00  0.00     0.131 A 
ATOM     87  C   UNL A   1      45.005  27.368  37.022  1.00  0.00     0.055 A 
ATOM     88  C   UNL A   1      46.409  28.981  35.920  1.00  0.00     0.041 A 
ATOM     89  F   UNL A   1      45.464  30.532  34.441  1.00  0.00    -0.206 F 
ATOM     90  C   UNL A   1      46.270  27.925  36.815  1.00  0.00     0.022 A 
BRANCH  87  91
ATOM     91  S   UNL A   1      44.771  26.089  38.287  1.00  0.00     0.124 S 
ATOM     92  O   UNL A   1      44.002  25.083  37.562  1.00  0.00    -0.237 OA
ATOM     93  O   UNL A   1      46.144  25.724  38.619  1.00  0.00    -0.237 OA
ATOM     94  O   UNL A   1      44.041  26.783  39.346  1.00  0.00    -0.744 OA
ENDBRANCH  87  91
ENDBRANCH  61  84
ENDBRANCH  35  36
ENDBRANCH  27  30
ENDBRANCH  25  26
ENDBRANCH   1  25
TORSDOF 17
ENDMDL
MODEL 2
REMARK VINA RESULT:     -11.9      3.394      8.878
REMARK SMILES Cc1cscc1C(=O)N[C@H](C(=O)NCCCCNC(=O)c1ccc(-c2c3nc(c(-c4cc(S(=O)(=O)[O-])ccc4F)c4ccc([nH]4)c(-c4cc(S(=O)(=O)[O-])ccc4F)c4nc(c(-c5cc(S(=O)(=O)[O-])ccc5F)c5ccc2[nH]5)C=C4)C=C3)cc1)c1ccccc1
REMARK SMILES IDX 16 1 15 2 14 3 13 4 11 5 12 6 10 8 9 9 7 10 8 11 6 13 1 14
REMARK SMILES IDX 2 15 3 16 4 17 5 18 84 19 85 20 89 21 86 22 88 23 87 24
REMARK SMILES IDX 17 25 18 26 19 27 20 29 21 30 22 31 83 32 23 33 82 34 24 35
REMARK SMILES IDX 25 36 26 37 76 38 27 39 81 40 75 41 77 42 28 43 80 44 74 45
REMARK SMILES IDX 73 46 29 48 61 49 41 50 60 51 42 52 45 53 59 54 78 55 43 56
REMARK SMILES IDX 44 57 58 59 79 60 46 61 30 62 31 63 39 64 32 65 38 66 40 67
REMARK SMILES IDX 37 68 33 69 34 70 35 71 36 72 62 73 63 74 71 75 64 76 70 77
REMARK SMILES IDX 72 78 69 79 65 80 66 81 67 82 68 83 47 84 48 85 56 86 49 87
REMARK SMILES IDX 55 88 57 89 54 90 50 91 51 92 52 93 53 94
REMARK H PARENT 13 7 9 12 18 28 77 47 45 58
REMARK Flexibility Score: inf
ROOT
ATOM      1  C   UNL A   1      33.795  28.287  25.703  1.00  0.00     0.023 C 
ENDROOT
BRANCH   1   2
ATOM      2  C   UNL A   1      33.225  28.731  24.347  1.00  0.00     0.023 C 
BRANCH   2   3
ATOM      3  C   UNL A   1      34.136  28.476  23.143  1.00  0.00     0.116 C 
BRANCH   3   4
ATOM      4  N   UNL A   1      33.438  27.700  22.146  1.00  0.00    -0.354 N 
ATOM      5  C   UNL A   1      33.386  26.343  21.993  1.00  0.00     0.247 C 
ATOM      6  O   UNL A   1      33.278  25.964  20.831  1.00  0.00    -0.272 OA
ATOM      7  H   UNL A   1      32.927  28.221  21.483  1.00  0.00     0.163 HD
BRANCH   5   8
ATOM      8  C   UNL A   1      33.224  25.440  23.224  1.00  0.00     0.202 C 
BRANCH   8   9
ATOM      9  N   UNL A   1      32.009  24.651  23.092  1.00  0.00    -0.336 N 
ATOM     10  C   UNL A   1      31.473  23.498  23.570  1.00  0.00     0.253 C 
ATOM     11  O   UNL A   1      30.278  23.406  23.244  1.00  0.00    -0.269 OA
ATOM     12  H   UNL A   1      31.386  25.084  22.465  1.00  0.00     0.165 HD
BRANCH  10  13
ATOM     13  C   UNL A   1      32.100  22.379  24.315  1.00  0.00     0.053 A 
ATOM     14  C   UNL A   1      32.463  22.781  26.986  1.00  0.00     0.046 C 
ATOM     15  C   UNL A   1      32.507  22.038  25.688  1.00  0.00    -0.028 A 
ATOM     16  C   UNL A   1      33.022  20.746  25.753  1.00  0.00     0.069 A 
ATOM     17  S   UNL A   1      32.998  19.908  24.288  1.00  0.00    -0.151 S 
ATOM     18  C   UNL A   1      32.333  21.256  23.511  1.00  0.00     0.079 A 
ENDBRANCH  10  13
ENDBRANCH   8   9
BRANCH   8  19
ATOM     19  C   UNL A   1      34.396  24.653  23.796  1.00  0.00    -0.016 A 
ATOM     20  C   UNL A   1      34.778  24.828  25.137  1.00  0.00     0.006 A 
ATOM     21  C   UNL A   1      35.041  23.631  23.072  1.00  0.00     0.006 A 
ATOM     22  C   UNL A   1      35.776  24.028  25.710  1.00  0.00     0.000 A 
ATOM     23  C   UNL A   1      36.069  22.868  23.627  1.00  0.00     0.000 A 
ATOM     24  C   UNL A   1      36.431  23.060  24.951  1.00  0.00     0.000 A 
ENDBRANCH   8  19
ENDBRANCH   5   8
ENDBRANCH   3   4
ENDBRANCH   2   3
ENDBRANCH   1   2
BRANCH   1  25
ATOM     25  C   UNL A   1      33.135  28.888  26.940  1.00  0.00     0.116 C 
BRANCH  25  26
ATOM     26  N   UNL A   1      33.288  30.329  27.024  1.00  0.00    -0.352 N 
ATOM     27  C   UNL A   1      34.332  31.062  27.528  1.00  0.00     0.251 C 
ATOM     28  H   UNL A   1      32.537  30.857  26.667  1.00  0.00     0.163 HD
ATOM     29  O   UNL A   1      34.246  32.286  27.574  1.00  0.00    -0.269 OA
BRANCH  27  30
ATOM     30  C   UNL A   1      35.520  30.369  28.061  1.00  0.00     0.039 A 
ATOM     31  C   UNL A   1      36.654  30.288  27.251  1.00  0.00     0.014 A 
ATOM     32  C   UNL A   1      35.529  29.834  29.353  1.00  0.00     0.014 A 
ATOM     33  C   UNL A   1      37.823  29.723  27.759  1.00  0.00     0.010 A 
ATOM     34  C   UNL A   1      36.715  29.327  29.878  1.00  0.00     0.010 A 
ATOM     35  C   UNL A   1      37.873  29.268  29.086  1.00  0.00    -0.014 A 
BRANCH  35  36
ATOM     36  C   UNL A   1      39.133  28.726  29.652  1.00  0.00     0.031 A 
ATOM     37  C   UNL A   1      39.713  29.324  30.903  1.00  0.00     0.074 A 
ATOM     38  C   UNL A   1      39.769  27.725  29.013  1.00  0.00     0.049 A 
ATOM     39  N   UNL A   1      40.820  29.020  31.529  1.00  0.00    -0.248 NA
ATOM     40  C   UNL A   1      38.959  30.428  31.515  1.00  0.00     0.031 C 
ATOM     41  C   UNL A   1      39.316  27.095  27.770  1.00  0.00     0.029 A 
ATOM     42  N   UNL A   1      40.932  27.062  29.314  1.00  0.00    -0.354 N 
ATOM     43  C   UNL A   1      40.903  29.903  32.600  1.00  0.00     0.074 A 
ATOM     44  C   UNL A   1      39.764  30.790  32.502  1.00  0.00     0.031 C 
ATOM     45  C   UNL A   1      40.179  26.124  27.428  1.00  0.00     0.029 A 
ATOM     46  C   UNL A   1      41.267  26.089  28.400  1.00  0.00     0.049 A 
ATOM     47  H   UNL A   1      41.477  27.264  30.108  1.00  0.00     0.167 HD
ATOM     48  C   UNL A   1      41.832  29.951  33.587  1.00  0.00     0.034 A 
ATOM     49  C   UNL A   1      42.336  25.270  28.347  1.00  0.00     0.034 A 
ATOM     50  C   UNL A   1      42.955  29.048  33.670  1.00  0.00     0.049 A 
ATOM     51  C   UNL A   1      43.367  25.356  29.443  1.00  0.00     0.074 A 
ATOM     52  C   UNL A   1      43.926  28.967  34.652  1.00  0.00     0.029 A 
ATOM     53  N   UNL A   1      43.264  28.074  32.727  1.00  0.00    -0.354 N 
ATOM     54  N   UNL A   1      43.401  26.157  30.484  1.00  0.00    -0.248 NA
ATOM     55  C   UNL A   1      44.496  24.421  29.367  1.00  0.00     0.031 C 
ATOM     56  C   UNL A   1      44.858  27.997  34.269  1.00  0.00     0.029 A 
ATOM     57  C   UNL A   1      44.428  27.413  33.088  1.00  0.00     0.049 A 
ATOM     58  H   UNL A   1      42.734  27.883  31.921  1.00  0.00     0.167 HD
ATOM     59  C   UNL A   1      44.538  25.799  31.202  1.00  0.00     0.074 A 
ATOM     60  C   UNL A   1      45.152  24.700  30.483  1.00  0.00     0.031 C 
ATOM     61  C   UNL A   1      45.031  26.326  32.353  1.00  0.00     0.034 A 
BRANCH  48  62
ATOM     62  C   UNL A   1      41.684  31.033  34.630  1.00  0.00     0.023 A 
ATOM     63  C   UNL A   1      40.610  31.042  35.539  1.00  0.00     0.031 A 
ATOM     64  C   UNL A   1      42.612  32.086  34.701  1.00  0.00     0.131 A 
ATOM     65  C   UNL A   1      40.448  32.120  36.422  1.00  0.00     0.055 A 
ATOM     66  C   UNL A   1      42.491  33.114  35.639  1.00  0.00     0.041 A 
ATOM     67  F   UNL A   1      43.646  32.145  33.847  1.00  0.00    -0.206 F 
ATOM     68  C   UNL A   1      41.395  33.143  36.497  1.00  0.00     0.022 A 
BRANCH  65  69
ATOM     69  S   UNL A   1      38.904  32.240  37.367  1.00  0.00     0.124 S 
ATOM     70  O   UNL A   1      38.236  30.994  37.001  1.00  0.00    -0.237 OA
ATOM     71  O   UNL A   1      39.382  32.328  38.743  1.00  0.00    -0.237 OA
ATOM     72  O   UNL A   1      38.276  33.452  36.846  1.00  0.00    -0.744 OA
ENDBRANCH  65  69
ENDBRANCH  48  62
BRANCH  49  73
ATOM     73  C   UNL A   1      42.499  24.308  27.218  1.00  0.00     0.023 A 
ATOM     74  C   UNL A   1      41.912  23.033  27.261  1.00  0.00     0.031 A 
ATOM     75  C   UNL A   1      43.281  24.635  26.096  1.00  0.00     0.131 A 
ATOM     76  C   UNL A   1      42.157  22.115  26.228  1.00  0.00     0.055 A 
ATOM     77  C   UNL A   1      43.477  23.738  25.044  1.00  0.00     0.041 A 
ATOM     78  F   UNL A   1      43.861  25.842  26.000  1.00  0.00    -0.206 F 
ATOM     79  C   UNL A   1      42.924  22.463  25.114  1.00  0.00     0.022 A 
BRANCH  76  80
ATOM     80  S   UNL A   1      41.529  20.423  26.403  1.00  0.00     0.124 S 
ATOM     81  O   UNL A   1      41.899  20.109  27.778  1.00  0.00    -0.237 OA
ATOM     82  O   UNL A   1      40.103  20.601  26.146  1.00  0.00    -0.237 OA
ATOM     83  O   UNL A   1      42.256  19.681  25.376  1.00  0.00    -0.744 OA
ENDBRANCH  76  80
ENDBRANCH  49  73
BRANCH  61  84
ATOM     84  C   UNL A   1      46.272  25.684  32.922  1.00  0.00     0.023 A 
ATOM     85  C   UNL A   1      46.204  24.611  33.828  1.00  0.00     0.031 A 
ATOM     86  C   UNL A   1      47.543  26.163  32.557  1.00  0.00     0.131 A 
ATOM     87  C   UNL A   1      47.383  24.089  34.382  1.00  0.00     0.055 A 
ATOM     88  C   UNL A   1      48.715  25.597  33.063  1.00  0.00     0.041 A 
ATOM     89  F   UNL A   1      47.668  27.187  31.697  1.00  0.00    -0.206 F 
ATOM     90  C   UNL A   1      48.638  24.563  33.990  1.00  0.00     0.022 A 
BRANCH  87  91
ATOM     91  S   UNL A   1      47.251  22.843  35.693  1.00  0.00     0.124 S 
ATOM     92  O   UNL A   1      45.862  22.993  36.116  1.00  0.00    -0.237 OA
ATOM     93  O   UNL A   1      47.571  21.608  34.984  1.00  0.00    -0.237 OA
ATOM     94  O   UNL A   1      48.247  23.270  36.674  1.00  0.00    -0.744 OA
ENDBRANCH  87  91
ENDBRANCH  61  84
ENDBRANCH  35  36
ENDBRANCH  27  30
ENDBRANCH  25  26
ENDBRANCH   1  25
TORSDOF 17
ENDMDL
MODEL 3
REMARK VINA RESULT:     -11.9      5.561      8.738
REMARK SMILES Cc1cscc1C(=O)N[C@H](C(=O)NCCCCNC(=O)c1ccc(-c2c3nc(c(-c4cc(S(=O)(=O)[O-])ccc4F)c4ccc([nH]4)c(-c4cc(S(=O)(=O)[O-])ccc4F)c4nc(c(-c5cc(S(=O)(=O)[O-])ccc5F)c5ccc2[nH]5)C=C4)C=C3)cc1)c1ccccc1
REMARK SMILES IDX 16 1 15 2 14 3 13 4 11 5 12 6 10 8 9 9 7 10 8 11 6 13 1 14
REMARK SMILES IDX 2 15 3 16 4 17 5 18 84 19 85 20 89 21 86 22 88 23 87 24
REMARK SMILES IDX 17 25 18 26 19 27 20 29 21 30 22 31 83 32 23 33 82 34 24 35
REMARK SMILES IDX 25 36 26 37 76 38 27 39 81 40 75 41 77 42 28 43 80 44 74 45
REMARK SMILES IDX 73 46 29 48 61 49 41 50 60 51 42 52 45 53 59 54 78 55 43 56
REMARK SMILES IDX 44 57 58 59 79 60 46 61 30 62 31 63 39 64 32 65 38 66 40 67
REMARK SMILES IDX 37 68 33 69 34 70 35 71 36 72 62 73 63 74 71 75 64 76 70 77
REMARK SMILES IDX 72 78 69 79 65 80 66 81 67 82 68 83 47 84 48 85 56 86 49 87
REMARK SMILES IDX 55 88 57 89 54 90 50 91 51 92 52 93 53 94
REMARK H PARENT 13 7 9 12 18 28 77 47 45 58
REMARK Flexibility Score: inf
ROOT
ATOM      1  C   UNL A   1      35.319  21.545  25.352  1.00  0.00     0.023 C 
ENDROOT
BRANCH   1   2
ATOM      2  C   UNL A   1      34.250  22.501  25.904  1.00  0.00     0.023 C 
BRANCH   2   3
ATOM      3  C   UNL A   1      33.125  22.852  24.927  1.00  0.00     0.116 C 
BRANCH   3   4
ATOM      4  N   UNL A   1      31.859  22.898  25.623  1.00  0.00    -0.354 N 
ATOM      5  C   UNL A   1      31.251  23.959  26.233  1.00  0.00     0.247 C 
ATOM      6  O   UNL A   1      30.568  23.663  27.208  1.00  0.00    -0.272 OA
ATOM      7  H   UNL A   1      31.366  22.045  25.664  1.00  0.00     0.163 HD
BRANCH   5   8
ATOM      8  C   UNL A   1      31.255  25.336  25.555  1.00  0.00     0.202 C 
BRANCH   8   9
ATOM      9  N   UNL A   1      29.922  25.636  25.055  1.00  0.00    -0.336 N 
ATOM     10  C   UNL A   1      29.323  26.438  24.137  1.00  0.00     0.253 C 
ATOM     11  O   UNL A   1      28.128  26.129  24.003  1.00  0.00    -0.269 OA
ATOM     12  H   UNL A   1      29.250  25.092  25.525  1.00  0.00     0.165 HD
BRANCH  10  13
ATOM     13  C   UNL A   1      29.851  27.599  23.379  1.00  0.00     0.053 A 
ATOM     14  C   UNL A   1      32.462  27.437  22.616  1.00  0.00     0.046 C 
ATOM     15  C   UNL A   1      31.099  28.043  22.738  1.00  0.00    -0.028 A 
ATOM     16  C   UNL A   1      30.932  29.277  22.115  1.00  0.00     0.069 A 
ATOM     17  S   UNL A   1      29.369  29.904  22.211  1.00  0.00    -0.151 S 
ATOM     18  C   UNL A   1      28.871  28.565  23.118  1.00  0.00     0.079 A 
ENDBRANCH  10  13
ENDBRANCH   8   9
BRANCH   8  19
ATOM     19  C   UNL A   1      31.946  26.536  26.189  1.00  0.00    -0.016 A 
ATOM     20  C   UNL A   1      33.315  26.762  25.968  1.00  0.00     0.006 A 
ATOM     21  C   UNL A   1      31.234  27.532  26.888  1.00  0.00     0.006 A 
ATOM     22  C   UNL A   1      33.938  27.924  26.446  1.00  0.00     0.000 A 
ATOM     23  C   UNL A   1      31.863  28.662  27.408  1.00  0.00     0.000 A 
ATOM     24  C   UNL A   1      33.216  28.864  27.179  1.00  0.00     0.000 A 
ENDBRANCH   8  19
ENDBRANCH   5   8
ENDBRANCH   3   4
ENDBRANCH   2   3
ENDBRANCH   1   2
BRANCH   1  25
ATOM     25  C   UNL A   1      36.751  22.071  25.339  1.00  0.00     0.116 C 
BRANCH  25  26
ATOM     26  N   UNL A   1      37.741  21.034  25.569  1.00  0.00    -0.352 N 
ATOM     27  C   UNL A   1      39.008  21.144  26.082  1.00  0.00     0.251 C 
ATOM     28  H   UNL A   1      37.464  20.122  25.321  1.00  0.00     0.163 HD
ATOM     29  O   UNL A   1      39.728  20.150  26.136  1.00  0.00    -0.269 OA
BRANCH  27  30
ATOM     30  C   UNL A   1      39.510  22.462  26.511  1.00  0.00     0.039 A 
ATOM     31  C   UNL A   1      40.593  22.501  27.390  1.00  0.00     0.014 A 
ATOM     32  C   UNL A   1      38.943  23.647  26.028  1.00  0.00     0.014 A 
ATOM     33  C   UNL A   1      41.150  23.730  27.741  1.00  0.00     0.010 A 
ATOM     34  C   UNL A   1      39.541  24.867  26.330  1.00  0.00     0.010 A 
ATOM     35  C   UNL A   1      40.651  24.920  27.188  1.00  0.00    -0.014 A 
BRANCH  35  36
ATOM     36  C   UNL A   1      41.282  26.224  27.507  1.00  0.00     0.031 A 
ATOM     37  C   UNL A   1      42.665  26.532  27.005  1.00  0.00     0.074 A 
ATOM     38  C   UNL A   1      40.622  27.108  28.282  1.00  0.00     0.049 A 
ATOM     39  N   UNL A   1      43.402  27.593  27.209  1.00  0.00    -0.248 NA
ATOM     40  C   UNL A   1      43.313  25.496  26.188  1.00  0.00     0.031 C 
ATOM     41  C   UNL A   1      39.290  26.897  28.856  1.00  0.00     0.029 A 
ATOM     42  N   UNL A   1      40.977  28.357  28.725  1.00  0.00    -0.354 N 
ATOM     43  C   UNL A   1      44.605  27.349  26.557  1.00  0.00     0.074 A 
ATOM     44  C   UNL A   1      44.518  26.014  26.002  1.00  0.00     0.031 C 
ATOM     45  C   UNL A   1      38.934  27.987  29.554  1.00  0.00     0.029 A 
ATOM     46  C   UNL A   1      40.025  28.956  29.516  1.00  0.00     0.049 A 
ATOM     47  H   UNL A   1      41.835  28.784  28.498  1.00  0.00     0.167 HD
ATOM     48  C   UNL A   1      45.673  28.172  26.414  1.00  0.00     0.034 A 
ATOM     49  C   UNL A   1      40.035  30.147  30.147  1.00  0.00     0.034 A 
ATOM     50  C   UNL A   1      45.732  29.504  26.967  1.00  0.00     0.049 A 
ATOM     51  C   UNL A   1      41.242  31.036  29.992  1.00  0.00     0.074 A 
ATOM     52  C   UNL A   1      46.737  30.446  26.840  1.00  0.00     0.029 A 
ATOM     53  N   UNL A   1      44.749  30.078  27.764  1.00  0.00    -0.354 N 
ATOM     54  N   UNL A   1      42.350  30.815  29.321  1.00  0.00    -0.248 NA
ATOM     55  C   UNL A   1      41.196  32.340  30.666  1.00  0.00     0.031 C 
ATOM     56  C   UNL A   1      46.396  31.560  27.615  1.00  0.00     0.029 A 
ATOM     57  C   UNL A   1      45.140  31.349  28.162  1.00  0.00     0.049 A 
ATOM     58  H   UNL A   1      43.899  29.647  28.010  1.00  0.00     0.167 HD
ATOM     59  C   UNL A   1      43.118  31.966  29.468  1.00  0.00     0.074 A 
ATOM     60  C   UNL A   1      42.340  32.883  30.277  1.00  0.00     0.031 C 
ATOM     61  C   UNL A   1      44.354  32.245  28.977  1.00  0.00     0.034 A 
BRANCH  48  62
ATOM     62  C   UNL A   1      46.866  27.639  25.658  1.00  0.00     0.023 A 
ATOM     63  C   UNL A   1      47.124  28.011  24.325  1.00  0.00     0.031 A 
ATOM     64  C   UNL A   1      47.745  26.725  26.265  1.00  0.00     0.131 A 
ATOM     65  C   UNL A   1      48.181  27.412  23.622  1.00  0.00     0.055 A 
ATOM     66  C   UNL A   1      48.845  26.197  25.586  1.00  0.00     0.041 A 
ATOM     67  F   UNL A   1      47.540  26.315  27.527  1.00  0.00    -0.206 F 
ATOM     68  C   UNL A   1      49.059  26.528  24.251  1.00  0.00     0.022 A 
BRANCH  65  69
ATOM     69  S   UNL A   1      48.301  27.695  21.835  1.00  0.00     0.124 S 
ATOM     70  O   UNL A   1      49.428  28.622  21.758  1.00  0.00    -0.237 OA
ATOM     71  O   UNL A   1      48.542  26.352  21.318  1.00  0.00    -0.237 OA
ATOM     72  O   UNL A   1      47.004  28.274  21.491  1.00  0.00    -0.744 OA
ENDBRANCH  65  69
ENDBRANCH  48  62
BRANCH  49  73
ATOM     73  C   UNL A   1      38.879  30.567  30.992  1.00  0.00     0.023 A 
ATOM     74  C   UNL A   1      37.896  31.437  30.495  1.00  0.00     0.031 A 
ATOM     75  C   UNL A   1      38.764  30.137  32.326  1.00  0.00     0.131 A 
ATOM     76  C   UNL A   1      36.869  31.889  31.339  1.00  0.00     0.055 A 
ATOM     77  C   UNL A   1      37.709  30.545  33.146  1.00  0.00     0.041 A 
ATOM     78  F   UNL A   1      39.672  29.300  32.851  1.00  0.00    -0.206 F 
ATOM     79  C   UNL A   1      36.762  31.439  32.656  1.00  0.00     0.022 A 
BRANCH  76  80
ATOM     80  S   UNL A   1      35.722  33.147  30.715  1.00  0.00     0.124 S 
ATOM     81  O   UNL A   1      34.440  32.461  30.822  1.00  0.00    -0.237 OA
ATOM     82  O   UNL A   1      35.942  34.247  31.649  1.00  0.00    -0.237 OA
ATOM     83  O   UNL A   1      36.190  33.388  29.352  1.00  0.00    -0.744 OA
ENDBRANCH  76  80
ENDBRANCH  49  73
BRANCH  61  84
ATOM     84  C   UNL A   1      44.913  33.615  29.270  1.00  0.00     0.023 A 
ATOM     85  C   UNL A   1      44.692  34.706  28.410  1.00  0.00     0.031 A 
ATOM     86  C   UNL A   1      45.687  33.828  30.424  1.00  0.00     0.131 A 
ATOM     87  C   UNL A   1      45.286  35.946  28.689  1.00  0.00     0.055 A 
ATOM     88  C   UNL A   1      46.223  35.080  30.729  1.00  0.00     0.041 A 
ATOM     89  F   UNL A   1      45.932  32.822  31.279  1.00  0.00    -0.206 F 
ATOM     90  C   UNL A   1      46.034  36.144  29.853  1.00  0.00     0.022 A 
BRANCH  87  91
ATOM     91  S   UNL A   1      45.145  37.274  27.462  1.00  0.00     0.124 S 
ATOM     92  O   UNL A   1      46.161  36.893  26.485  1.00  0.00    -0.237 OA
ATOM     93  O   UNL A   1      43.760  37.148  27.023  1.00  0.00    -0.237 OA
ATOM     94  O   UNL A   1      45.445  38.482  28.228  1.00  0.00    -0.744 OA
ENDBRANCH  87  91
ENDBRANCH  61  84
ENDBRANCH  35  36
ENDBRANCH  27  30
ENDBRANCH  25  26
ENDBRANCH   1  25
TORSDOF 17
ENDMDL
