MODEL 1
REMARK VINA RESULT:     -13.1      0.000      0.000
REMARK SMILES Cc1ccc(-n2c(SCC(=O)NCCCCNC(=O)c3ccc(-c4c5nc(c(-c6cc(S(=O)(=O)[O-])ccc6F)c6ccc([nH]6)c(-c6cc(S(=O)(=O)[O-])ccc6F)c6nc(c(-c7cc(S(=O)(=O)[O-])ccc7F)c7ccc4[nH]7)C=C6)C=C5)cc3)nnc2-c2ccccc2)cc1
REMARK SMILES IDX 14 1 13 2 12 3 10 4 11 5 9 7 8 8 7 9 6 10 85 11 83 12 84 13
REMARK SMILES IDX 5 14 1 15 2 16 3 17 93 18 4 19 92 20 86 21 87 22 91 23 88 24
REMARK SMILES IDX 90 25 89 26 15 27 16 28 17 29 18 30 19 32 20 33 21 34 82 35
REMARK SMILES IDX 22 36 81 37 23 38 24 39 25 40 75 41 26 42 80 43 74 44 76 45
REMARK SMILES IDX 27 46 79 47 73 48 72 49 28 51 60 52 40 53 59 54 41 55 44 56
REMARK SMILES IDX 58 57 77 58 42 59 43 60 57 62 78 63 45 64 29 65 30 66 38 67
REMARK SMILES IDX 31 68 37 69 39 70 36 71 32 72 33 73 34 74 35 75 61 76 62 77
REMARK SMILES IDX 70 78 63 79 69 80 71 81 68 82 64 83 65 84 66 85 67 86 46 87
REMARK SMILES IDX 47 88 55 89 48 90 54 91 56 92 53 93 49 94 50 95 51 96 52 97
REMARK H PARENT 12 6 17 31 76 50 44 61
REMARK Flexibility Score: inf
ROOT
ATOM      1  C   UNL A   1      32.058  29.908  27.048  1.00  0.00     0.023 C 
ENDROOT
BRANCH   1   2
ATOM      2  C   UNL A   1      32.455  28.487  27.468  1.00  0.00     0.116 C 
BRANCH   2   3
ATOM      3  N   UNL A   1      31.398  27.503  27.274  1.00  0.00    -0.355 N 
ATOM      4  C   UNL A   1      31.074  26.743  26.200  1.00  0.00     0.230 C 
ATOM      5  O   UNL A   1      30.395  25.736  26.441  1.00  0.00    -0.274 OA
ATOM      6  H   UNL A   1      30.819  27.366  28.059  1.00  0.00     0.163 HD
BRANCH   4   7
ATOM      7  C   UNL A   1      31.557  26.989  24.786  1.00  0.00     0.178 C 
BRANCH   7   8
ATOM      8  S   UNL A   1      32.818  25.933  24.110  1.00  0.00    -0.076 SA
BRANCH   8   9
ATOM      9  C   UNL A   1      32.342  24.279  23.940  1.00  0.00     0.196 A 
ATOM     10  N   UNL A   1      33.054  23.099  24.021  1.00  0.00    -0.270 N 
ATOM     11  C   UNL A   1      32.175  22.112  23.577  1.00  0.00     0.169 A 
ATOM     12  N   UNL A   1      31.133  24.013  23.482  1.00  0.00    -0.122 NA
ATOM     13  N   UNL A   1      31.033  22.673  23.238  1.00  0.00    -0.129 NA
BRANCH  10  14
ATOM     14  C   UNL A   1      34.382  22.856  24.402  1.00  0.00     0.050 A 
ATOM     15  C   UNL A   1      38.382  21.836  25.559  1.00  0.00     0.044 C 
ATOM     16  C   UNL A   1      36.976  22.137  25.133  1.00  0.00    -0.051 A 
ATOM     17  C   UNL A   1      35.964  22.227  26.098  1.00  0.00     0.005 A 
ATOM     18  C   UNL A   1      36.665  22.385  23.789  1.00  0.00     0.005 A 
ATOM     19  C   UNL A   1      34.662  22.572  25.736  1.00  0.00     0.027 A 
ATOM     20  C   UNL A   1      35.366  22.729  23.416  1.00  0.00     0.027 A 
ENDBRANCH  10  14
BRANCH  11  21
ATOM     21  C   UNL A   1      32.452  20.679  23.494  1.00  0.00     0.020 A 
ATOM     22  C   UNL A   1      32.119  19.977  22.329  1.00  0.00     0.012 A 
ATOM     23  C   UNL A   1      33.012  19.981  24.572  1.00  0.00     0.012 A 
ATOM     24  C   UNL A   1      32.374  18.607  22.231  1.00  0.00     0.001 A 
ATOM     25  C   UNL A   1      33.265  18.611  24.475  1.00  0.00     0.001 A 
ATOM     26  C   UNL A   1      32.950  17.926  23.302  1.00  0.00     0.000 A 
ENDBRANCH  11  21
ENDBRANCH   8   9
ENDBRANCH   7   8
ENDBRANCH   4   7
ENDBRANCH   2   3
ENDBRANCH   1   2
BRANCH   1  27
ATOM     27  C   UNL A   1      33.121  30.984  27.264  1.00  0.00     0.023 C 
BRANCH  27  28
ATOM     28  C   UNL A   1      34.486  30.462  27.700  1.00  0.00     0.116 C 
BRANCH  28  29
ATOM     29  N   UNL A   1      35.211  31.364  28.589  1.00  0.00    -0.352 N 
ATOM     30  C   UNL A   1      36.411  31.140  29.243  1.00  0.00     0.251 C 
ATOM     31  H   UNL A   1      34.796  32.244  28.742  1.00  0.00     0.163 HD
ATOM     32  O   UNL A   1      36.920  31.967  29.984  1.00  0.00    -0.269 OA
BRANCH  30  33
ATOM     33  C   UNL A   1      37.142  29.892  28.927  1.00  0.00     0.039 A 
ATOM     34  C   UNL A   1      37.373  29.003  29.982  1.00  0.00     0.014 A 
ATOM     35  C   UNL A   1      37.809  29.750  27.712  1.00  0.00     0.014 A 
ATOM     36  C   UNL A   1      38.445  28.120  29.902  1.00  0.00     0.010 A 
ATOM     37  C   UNL A   1      38.924  28.931  27.664  1.00  0.00     0.010 A 
ATOM     38  C   UNL A   1      39.285  28.176  28.788  1.00  0.00    -0.014 A 
BRANCH  38  39
ATOM     39  C   UNL A   1      40.645  27.638  28.816  1.00  0.00     0.031 A 
ATOM     40  C   UNL A   1      40.934  26.242  28.433  1.00  0.00     0.074 A 
ATOM     41  C   UNL A   1      41.664  28.434  29.210  1.00  0.00     0.049 A 
ATOM     42  N   UNL A   1      41.943  25.558  28.859  1.00  0.00    -0.248 NA
ATOM     43  C   UNL A   1      40.049  25.479  27.566  1.00  0.00     0.031 C 
ATOM     44  C   UNL A   1      43.096  28.167  29.107  1.00  0.00     0.029 A 
ATOM     45  N   UNL A   1      41.581  29.549  30.034  1.00  0.00    -0.354 N 
ATOM     46  C   UNL A   1      42.011  24.399  28.120  1.00  0.00     0.074 A 
ATOM     47  C   UNL A   1      40.762  24.363  27.393  1.00  0.00     0.031 C 
ATOM     48  C   UNL A   1      43.740  28.915  30.017  1.00  0.00     0.029 A 
ATOM     49  C   UNL A   1      42.736  29.586  30.824  1.00  0.00     0.049 A 
ATOM     50  H   UNL A   1      40.841  30.198  30.059  1.00  0.00     0.167 HD
ATOM     51  C   UNL A   1      43.172  23.678  28.100  1.00  0.00     0.034 A 
ATOM     52  C   UNL A   1      42.659  29.539  32.185  1.00  0.00     0.034 A 
ATOM     53  C   UNL A   1      44.158  24.210  29.048  1.00  0.00     0.049 A 
ATOM     54  C   UNL A   1      43.360  28.344  32.793  1.00  0.00     0.074 A 
ATOM     55  C   UNL A   1      45.291  24.992  28.892  1.00  0.00     0.029 A 
ATOM     56  N   UNL A   1      43.895  24.174  30.415  1.00  0.00    -0.354 N 
ATOM     57  N   UNL A   1      43.739  27.293  32.121  1.00  0.00    -0.248 NA
ATOM     58  C   UNL A   1      43.657  28.236  34.218  1.00  0.00     0.031 C 
ATOM     59  C   UNL A   1      45.666  25.484  30.169  1.00  0.00     0.029 A 
ATOM     60  C   UNL A   1      44.782  24.979  31.107  1.00  0.00     0.049 A 
ATOM     61  H   UNL A   1      43.177  23.646  30.833  1.00  0.00     0.167 HD
ATOM     62  C   UNL A   1      44.276  26.368  32.981  1.00  0.00     0.074 A 
ATOM     63  C   UNL A   1      44.238  27.026  34.276  1.00  0.00     0.031 C 
ATOM     64  C   UNL A   1      44.686  25.134  32.556  1.00  0.00     0.034 A 
BRANCH  51  65
ATOM     65  C   UNL A   1      43.534  22.698  26.994  1.00  0.00     0.023 A 
ATOM     66  C   UNL A   1      42.956  21.408  26.990  1.00  0.00     0.031 A 
ATOM     67  C   UNL A   1      44.478  22.924  25.972  1.00  0.00     0.131 A 
ATOM     68  C   UNL A   1      43.397  20.399  26.109  1.00  0.00     0.055 A 
ATOM     69  C   UNL A   1      44.965  21.907  25.139  1.00  0.00     0.041 A 
ATOM     70  F   UNL A   1      44.925  24.152  25.684  1.00  0.00    -0.206 F 
ATOM     71  C   UNL A   1      44.437  20.630  25.215  1.00  0.00     0.022 A 
BRANCH  68  72
ATOM     72  S   UNL A   1      42.592  18.773  26.141  1.00  0.00     0.124 S 
ATOM     73  O   UNL A   1      41.225  19.093  25.742  1.00  0.00    -0.237 OA
ATOM     74  O   UNL A   1      43.387  18.017  25.180  1.00  0.00    -0.237 OA
ATOM     75  O   UNL A   1      42.743  18.347  27.532  1.00  0.00    -0.744 OA
ENDBRANCH  68  72
ENDBRANCH  51  65
BRANCH  52  76
ATOM     76  C   UNL A   1      41.441  30.194  32.740  1.00  0.00     0.023 A 
ATOM     77  C   UNL A   1      41.412  31.605  32.745  1.00  0.00     0.031 A 
ATOM     78  C   UNL A   1      40.229  29.512  32.904  1.00  0.00     0.131 A 
ATOM     79  C   UNL A   1      40.189  32.288  32.749  1.00  0.00     0.055 A 
ATOM     80  C   UNL A   1      39.011  30.201  32.975  1.00  0.00     0.041 A 
ATOM     81  F   UNL A   1      40.188  28.172  32.877  1.00  0.00    -0.206 F 
ATOM     82  C   UNL A   1      38.984  31.592  32.854  1.00  0.00     0.022 A 
BRANCH  79  83
ATOM     83  S   UNL A   1      40.156  34.062  32.362  1.00  0.00     0.124 S 
ATOM     84  O   UNL A   1      39.599  34.634  33.581  1.00  0.00    -0.237 OA
ATOM     85  O   UNL A   1      41.560  34.376  32.100  1.00  0.00    -0.237 OA
ATOM     86  O   UNL A   1      39.305  34.121  31.177  1.00  0.00    -0.744 OA
ENDBRANCH  79  83
ENDBRANCH  52  76
BRANCH  64  87
ATOM     87  C   UNL A   1      45.119  23.998  33.460  1.00  0.00     0.023 A 
ATOM     88  C   UNL A   1      46.422  23.866  33.966  1.00  0.00     0.031 A 
ATOM     89  C   UNL A   1      44.192  23.025  33.904  1.00  0.00     0.131 A 
ATOM     90  C   UNL A   1      46.789  22.767  34.766  1.00  0.00     0.055 A 
ATOM     91  C   UNL A   1      44.538  21.979  34.768  1.00  0.00     0.041 A 
ATOM     92  F   UNL A   1      42.907  23.048  33.520  1.00  0.00    -0.206 F 
ATOM     93  C   UNL A   1      45.850  21.831  35.189  1.00  0.00     0.022 A 
BRANCH  90  94
ATOM     94  S   UNL A   1      48.541  22.553  35.182  1.00  0.00     0.124 S 
ATOM     95  O   UNL A   1      49.156  23.668  34.464  1.00  0.00    -0.237 OA
ATOM     96  O   UNL A   1      48.535  22.664  36.637  1.00  0.00    -0.237 OA
ATOM     97  O   UNL A   1      48.862  21.227  34.658  1.00  0.00    -0.744 OA
ENDBRANCH  90  94
ENDBRANCH  64  87
ENDBRANCH  38  39
ENDBRANCH  30  33
ENDBRANCH  28  29
ENDBRANCH  27  28
ENDBRANCH   1  27
TORSDOF 18
ENDMDL
MODEL 2
REMARK VINA RESULT:     -13.0      4.127     10.776
REMARK SMILES Cc1ccc(-n2c(SCC(=O)NCCCCNC(=O)c3ccc(-c4c5nc(c(-c6cc(S(=O)(=O)[O-])ccc6F)c6ccc([nH]6)c(-c6cc(S(=O)(=O)[O-])ccc6F)c6nc(c(-c7cc(S(=O)(=O)[O-])ccc7F)c7ccc4[nH]7)C=C6)C=C5)cc3)nnc2-c2ccccc2)cc1
REMARK SMILES IDX 14 1 13 2 12 3 10 4 11 5 9 7 8 8 7 9 6 10 85 11 83 12 84 13
REMARK SMILES IDX 5 14 1 15 2 16 3 17 93 18 4 19 92 20 86 21 87 22 91 23 88 24
REMARK SMILES IDX 90 25 89 26 15 27 16 28 17 29 18 30 19 32 20 33 21 34 82 35
REMARK SMILES IDX 22 36 81 37 23 38 24 39 25 40 75 41 26 42 80 43 74 44 76 45
REMARK SMILES IDX 27 46 79 47 73 48 72 49 28 51 60 52 40 53 59 54 41 55 44 56
REMARK SMILES IDX 58 57 77 58 42 59 43 60 57 62 78 63 45 64 29 65 30 66 38 67
REMARK SMILES IDX 31 68 37 69 39 70 36 71 32 72 33 73 34 74 35 75 61 76 62 77
REMARK SMILES IDX 70 78 63 79 69 80 71 81 68 82 64 83 65 84 66 85 67 86 46 87
REMARK SMILES IDX 47 88 55 89 48 90 54 91 56 92 53 93 49 94 50 95 51 96 52 97
REMARK H PARENT 12 6 17 31 76 50 44 61
REMARK Flexibility Score: inf
ROOT
ATOM      1  C   UNL A   1      37.407  22.239  25.218  1.00  0.00     0.023 C 
ENDROOT
BRANCH   1   2
ATOM      2  C   UNL A   1      36.273  21.220  25.386  1.00  0.00     0.116 C 
BRANCH   2   3
ATOM      3  N   UNL A   1      35.138  21.456  24.502  1.00  0.00    -0.355 N 
ATOM      4  C   UNL A   1      34.326  22.532  24.361  1.00  0.00     0.230 C 
ATOM      5  O   UNL A   1      33.711  22.603  23.289  1.00  0.00    -0.274 OA
ATOM      6  H   UNL A   1      34.924  20.704  23.904  1.00  0.00     0.163 HD
BRANCH   4   7
ATOM      7  C   UNL A   1      34.205  23.663  25.360  1.00  0.00     0.178 C 
BRANCH   7   8
ATOM      8  S   UNL A   1      32.595  24.091  25.985  1.00  0.00    -0.076 SA
BRANCH   8   9
ATOM      9  C   UNL A   1      31.603  24.950  24.861  1.00  0.00     0.196 A 
ATOM     10  N   UNL A   1      31.323  26.294  24.713  1.00  0.00    -0.270 N 
ATOM     11  C   UNL A   1      30.291  26.351  23.778  1.00  0.00     0.169 A 
ATOM     12  N   UNL A   1      30.798  24.261  24.073  1.00  0.00    -0.122 NA
ATOM     13  N   UNL A   1      29.970  25.126  23.415  1.00  0.00    -0.129 NA
BRANCH  10  14
ATOM     14  C   UNL A   1      31.864  27.418  25.355  1.00  0.00     0.050 A 
ATOM     15  C   UNL A   1      33.656  30.676  27.488  1.00  0.00     0.044 C 
ATOM     16  C   UNL A   1      33.073  29.500  26.762  1.00  0.00    -0.051 A 
ATOM     17  C   UNL A   1      31.909  28.893  27.251  1.00  0.00     0.005 A 
ATOM     18  C   UNL A   1      33.641  29.031  25.570  1.00  0.00     0.005 A 
ATOM     19  C   UNL A   1      31.308  27.842  26.559  1.00  0.00     0.027 A 
ATOM     20  C   UNL A   1      33.050  27.979  24.871  1.00  0.00     0.027 A 
ENDBRANCH  10  14
BRANCH  11  21
ATOM     21  C   UNL A   1      29.652  27.562  23.264  1.00  0.00     0.020 A 
ATOM     22  C   UNL A   1      30.413  28.496  22.551  1.00  0.00     0.012 A 
ATOM     23  C   UNL A   1      28.296  27.827  23.501  1.00  0.00     0.012 A 
ATOM     24  C   UNL A   1      29.821  29.660  22.055  1.00  0.00     0.001 A 
ATOM     25  C   UNL A   1      27.705  28.991  23.007  1.00  0.00     0.001 A 
ATOM     26  C   UNL A   1      28.467  29.904  22.279  1.00  0.00     0.000 A 
ENDBRANCH  11  21
ENDBRANCH   8   9
ENDBRANCH   7   8
ENDBRANCH   4   7
ENDBRANCH   2   3
ENDBRANCH   1   2
BRANCH   1  27
ATOM     27  C   UNL A   1      38.771  21.806  25.751  1.00  0.00     0.023 C 
BRANCH  27  28
ATOM     28  C   UNL A   1      39.366  22.723  26.815  1.00  0.00     0.116 C 
BRANCH  28  29
ATOM     29  N   UNL A   1      40.776  23.038  26.606  1.00  0.00    -0.352 N 
ATOM     30  C   UNL A   1      41.382  24.284  26.598  1.00  0.00     0.251 C 
ATOM     31  H   UNL A   1      41.371  22.269  26.452  1.00  0.00     0.163 HD
ATOM     32  O   UNL A   1      42.577  24.431  26.392  1.00  0.00    -0.269 OA
BRANCH  30  33
ATOM     33  C   UNL A   1      40.554  25.452  26.970  1.00  0.00     0.039 A 
ATOM     34  C   UNL A   1      40.778  26.642  26.269  1.00  0.00     0.014 A 
ATOM     35  C   UNL A   1      39.799  25.442  28.141  1.00  0.00     0.014 A 
ATOM     36  C   UNL A   1      40.451  27.854  26.869  1.00  0.00     0.010 A 
ATOM     37  C   UNL A   1      39.549  26.647  28.774  1.00  0.00     0.010 A 
ATOM     38  C   UNL A   1      39.946  27.849  28.172  1.00  0.00    -0.014 A 
BRANCH  38  39
ATOM     39  C   UNL A   1      40.002  29.033  29.029  1.00  0.00     0.031 A 
ATOM     40  C   UNL A   1      38.941  30.059  29.001  1.00  0.00     0.074 A 
ATOM     41  C   UNL A   1      41.053  29.198  29.861  1.00  0.00     0.049 A 
ATOM     42  N   UNL A   1      39.111  31.299  29.323  1.00  0.00    -0.248 NA
ATOM     43  C   UNL A   1      37.593  29.766  28.540  1.00  0.00     0.031 C 
ATOM     44  C   UNL A   1      41.197  30.179  30.934  1.00  0.00     0.029 A 
ATOM     45  N   UNL A   1      42.326  28.662  29.714  1.00  0.00    -0.354 N 
ATOM     46  C   UNL A   1      37.871  31.891  29.396  1.00  0.00     0.074 A 
ATOM     47  C   UNL A   1      36.973  30.917  28.818  1.00  0.00     0.031 C 
ATOM     48  C   UNL A   1      42.503  30.360  31.181  1.00  0.00     0.029 A 
ATOM     49  C   UNL A   1      43.247  29.605  30.188  1.00  0.00     0.049 A 
ATOM     50  H   UNL A   1      42.544  27.776  29.343  1.00  0.00     0.167 HD
ATOM     51  C   UNL A   1      37.727  33.073  30.067  1.00  0.00     0.034 A 
ATOM     52  C   UNL A   1      44.212  30.116  29.371  1.00  0.00     0.034 A 
ATOM     53  C   UNL A   1      39.022  33.622  30.486  1.00  0.00     0.049 A 
ATOM     54  C   UNL A   1      44.125  31.614  29.187  1.00  0.00     0.074 A 
ATOM     55  C   UNL A   1      39.685  33.653  31.701  1.00  0.00     0.029 A 
ATOM     56  N   UNL A   1      39.950  34.020  29.525  1.00  0.00    -0.354 N 
ATOM     57  N   UNL A   1      43.083  32.334  29.500  1.00  0.00    -0.248 NA
ATOM     58  C   UNL A   1      45.200  32.410  28.604  1.00  0.00     0.031 C 
ATOM     59  C   UNL A   1      41.038  34.005  31.456  1.00  0.00     0.029 A 
ATOM     60  C   UNL A   1      41.194  34.217  30.096  1.00  0.00     0.049 A 
ATOM     61  H   UNL A   1      39.747  34.145  28.570  1.00  0.00     0.167 HD
ATOM     62  C   UNL A   1      43.304  33.641  29.142  1.00  0.00     0.074 A 
ATOM     63  C   UNL A   1      44.661  33.640  28.622  1.00  0.00     0.031 C 
ATOM     64  C   UNL A   1      42.343  34.604  29.284  1.00  0.00     0.034 A 
BRANCH  51  65
ATOM     65  C   UNL A   1      36.400  33.566  30.627  1.00  0.00     0.023 A 
ATOM     66  C   UNL A   1      35.475  34.202  29.767  1.00  0.00     0.031 A 
ATOM     67  C   UNL A   1      36.011  33.518  31.980  1.00  0.00     0.131 A 
ATOM     68  C   UNL A   1      34.323  34.846  30.263  1.00  0.00     0.055 A 
ATOM     69  C   UNL A   1      34.902  34.212  32.485  1.00  0.00     0.041 A 
ATOM     70  F   UNL A   1      36.643  32.742  32.869  1.00  0.00    -0.206 F 
ATOM     71  C   UNL A   1      34.059  34.898  31.628  1.00  0.00     0.022 A 
BRANCH  68  72
ATOM     72  S   UNL A   1      33.164  35.621  29.101  1.00  0.00     0.124 S 
ATOM     73  O   UNL A   1      34.022  36.554  28.378  1.00  0.00    -0.237 OA
ATOM     74  O   UNL A   1      32.674  34.473  28.345  1.00  0.00    -0.237 OA
ATOM     75  O   UNL A   1      32.174  36.246  29.976  1.00  0.00    -0.744 OA
ENDBRANCH  68  72
ENDBRANCH  51  65
BRANCH  52  76
ATOM     76  C   UNL A   1      44.701  29.152  28.344  1.00  0.00     0.023 A 
ATOM     77  C   UNL A   1      45.552  28.116  28.784  1.00  0.00     0.031 A 
ATOM     78  C   UNL A   1      44.088  29.011  27.093  1.00  0.00     0.131 A 
ATOM     79  C   UNL A   1      45.643  26.920  28.060  1.00  0.00     0.055 A 
ATOM     80  C   UNL A   1      44.234  27.839  26.339  1.00  0.00     0.041 A 
ATOM     81  F   UNL A   1      43.244  29.947  26.634  1.00  0.00    -0.206 F 
ATOM     82  C   UNL A   1      44.979  26.770  26.843  1.00  0.00     0.022 A 
BRANCH  79  83
ATOM     83  S   UNL A   1      46.420  25.469  28.830  1.00  0.00     0.124 S 
ATOM     84  O   UNL A   1      46.979  26.030  30.052  1.00  0.00    -0.237 OA
ATOM     85  O   UNL A   1      45.301  24.544  29.011  1.00  0.00    -0.237 OA
ATOM     86  O   UNL A   1      47.383  25.041  27.819  1.00  0.00    -0.744 OA
ENDBRANCH  79  83
ENDBRANCH  52  76
BRANCH  64  87
ATOM     87  C   UNL A   1      42.440  36.020  28.752  1.00  0.00     0.023 A 
ATOM     88  C   UNL A   1      43.113  37.054  29.423  1.00  0.00     0.031 A 
ATOM     89  C   UNL A   1      41.900  36.363  27.489  1.00  0.00     0.131 A 
ATOM     90  C   UNL A   1      43.137  38.365  28.911  1.00  0.00     0.055 A 
ATOM     91  C   UNL A   1      41.998  37.647  26.941  1.00  0.00     0.041 A 
ATOM     92  F   UNL A   1      41.257  35.464  26.730  1.00  0.00    -0.206 F 
ATOM     93  C   UNL A   1      42.601  38.666  27.662  1.00  0.00     0.022 A 
BRANCH  90  94
ATOM     94  S   UNL A   1      43.823  39.682  29.950  1.00  0.00     0.124 S 
ATOM     95  O   UNL A   1      43.740  39.085  31.281  1.00  0.00    -0.237 OA
ATOM     96  O   UNL A   1      45.170  39.839  29.410  1.00  0.00    -0.237 OA
ATOM     97  O   UNL A   1      42.924  40.810  29.720  1.00  0.00    -0.744 OA
ENDBRANCH  90  94
ENDBRANCH  64  87
ENDBRANCH  38  39
ENDBRANCH  30  33
ENDBRANCH  28  29
ENDBRANCH  27  28
ENDBRANCH   1  27
TORSDOF 18
ENDMDL
MODEL 3
REMARK VINA RESULT:     -12.7      4.294     10.231
REMARK SMILES Cc1ccc(-n2c(SCC(=O)NCCCCNC(=O)c3ccc(-c4c5nc(c(-c6cc(S(=O)(=O)[O-])ccc6F)c6ccc([nH]6)c(-c6cc(S(=O)(=O)[O-])ccc6F)c6nc(c(-c7cc(S(=O)(=O)[O-])ccc7F)c7ccc4[nH]7)C=C6)C=C5)cc3)nnc2-c2ccccc2)cc1
REMARK SMILES IDX 14 1 13 2 12 3 10 4 11 5 9 7 8 8 7 9 6 10 85 11 83 12 84 13
REMARK SMILES IDX 5 14 1 15 2 16 3 17 93 18 4 19 92 20 86 21 87 22 91 23 88 24
REMARK SMILES IDX 90 25 89 26 15 27 16 28 17 29 18 30 19 32 20 33 21 34 82 35
REMARK SMILES IDX 22 36 81 37 23 38 24 39 25 40 75 41 26 42 80 43 74 44 76 45
REMARK SMILES IDX 27 46 79 47 73 48 72 49 28 51 60 52 40 53 59 54 41 55 44 56
REMARK SMILES IDX 58 57 77 58 42 59 43 60 57 62 78 63 45 64 29 65 30 66 38 67
REMARK SMILES IDX 31 68 37 69 39 70 36 71 32 72 33 73 34 74 35 75 61 76 62 77
REMARK SMILES IDX 70 78 63 79 69 80 71 81 68 82 64 83 65 84 66 85 67 86 46 87
REMARK SMILES IDX 47 88 55 89 48 90 54 91 56 92 53 93 49 94 50 95 51 96 52 97
REMARK H PARENT 12 6 17 31 76 50 44 61
REMARK Flexibility Score: inf
ROOT
ATOM      1  C   UNL A   1      37.907  22.327  25.671  1.00  0.00     0.023 C 
ENDROOT
BRANCH   1   2
ATOM      2  C   UNL A   1      36.589  21.589  25.406  1.00  0.00     0.116 C 
BRANCH   2   3
ATOM      3  N   UNL A   1      35.888  22.051  24.214  1.00  0.00    -0.355 N 
ATOM      4  C   UNL A   1      35.187  23.185  23.976  1.00  0.00     0.230 C 
ATOM      5  O   UNL A   1      35.039  23.484  22.784  1.00  0.00    -0.274 OA
ATOM      6  H   UNL A   1      35.932  21.432  23.450  1.00  0.00     0.163 HD
BRANCH   4   7
ATOM      7  C   UNL A   1      34.673  24.128  25.045  1.00  0.00     0.178 C 
BRANCH   7   8
ATOM      8  S   UNL A   1      32.999  23.951  25.617  1.00  0.00    -0.076 SA
BRANCH   8   9
ATOM      9  C   UNL A   1      31.827  24.776  24.650  1.00  0.00     0.196 A 
ATOM     10  N   UNL A   1      31.439  26.100  24.598  1.00  0.00    -0.270 N 
ATOM     11  C   UNL A   1      30.306  26.115  23.786  1.00  0.00     0.169 A 
ATOM     12  N   UNL A   1      30.989  24.060  23.924  1.00  0.00    -0.122 NA
ATOM     13  N   UNL A   1      30.034  24.885  23.402  1.00  0.00    -0.129 NA
BRANCH  10  14
ATOM     14  C   UNL A   1      31.968  27.235  25.230  1.00  0.00     0.050 A 
ATOM     15  C   UNL A   1      33.724  30.531  27.335  1.00  0.00     0.044 C 
ATOM     16  C   UNL A   1      33.154  29.342  26.620  1.00  0.00    -0.051 A 
ATOM     17  C   UNL A   1      31.989  28.735  27.107  1.00  0.00     0.005 A 
ATOM     18  C   UNL A   1      33.734  28.862  25.439  1.00  0.00     0.005 A 
ATOM     19  C   UNL A   1      31.400  27.671  26.424  1.00  0.00     0.027 A 
ATOM     20  C   UNL A   1      33.155  27.797  24.748  1.00  0.00     0.027 A 
ENDBRANCH  10  14
BRANCH  11  21
ATOM     21  C   UNL A   1      29.529  27.294  23.403  1.00  0.00     0.020 A 
ATOM     22  C   UNL A   1      28.151  27.322  23.647  1.00  0.00     0.012 A 
ATOM     23  C   UNL A   1      30.129  28.386  22.762  1.00  0.00     0.012 A 
ATOM     24  C   UNL A   1      27.391  28.438  23.287  1.00  0.00     0.001 A 
ATOM     25  C   UNL A   1      29.370  29.500  22.401  1.00  0.00     0.001 A 
ATOM     26  C   UNL A   1      28.002  29.528  22.668  1.00  0.00     0.000 A 
ENDBRANCH  11  21
ENDBRANCH   8   9
ENDBRANCH   7   8
ENDBRANCH   4   7
ENDBRANCH   2   3
ENDBRANCH   1   2
BRANCH   1  27
ATOM     27  C   UNL A   1      39.137  21.440  25.857  1.00  0.00     0.023 C 
BRANCH  27  28
ATOM     28  C   UNL A   1      40.156  21.958  26.867  1.00  0.00     0.116 C 
BRANCH  28  29
ATOM     29  N   UNL A   1      41.390  22.453  26.265  1.00  0.00    -0.352 N 
ATOM     30  C   UNL A   1      41.749  23.766  26.006  1.00  0.00     0.251 C 
ATOM     31  H   UNL A   1      42.051  21.768  26.012  1.00  0.00     0.163 HD
ATOM     32  O   UNL A   1      42.809  24.064  25.477  1.00  0.00    -0.269 OA
BRANCH  30  33
ATOM     33  C   UNL A   1      40.853  24.833  26.503  1.00  0.00     0.039 A 
ATOM     34  C   UNL A   1      41.046  26.120  25.989  1.00  0.00     0.014 A 
ATOM     35  C   UNL A   1      40.057  24.624  27.627  1.00  0.00     0.014 A 
ATOM     36  C   UNL A   1      40.639  27.218  26.740  1.00  0.00     0.010 A 
ATOM     37  C   UNL A   1      39.726  25.714  28.414  1.00  0.00     0.010 A 
ATOM     38  C   UNL A   1      40.088  27.005  28.005  1.00  0.00    -0.014 A 
BRANCH  38  39
ATOM     39  C   UNL A   1      40.056  28.056  29.023  1.00  0.00     0.031 A 
ATOM     40  C   UNL A   1      39.087  29.168  28.957  1.00  0.00     0.074 A 
ATOM     41  C   UNL A   1      40.939  28.014  30.045  1.00  0.00     0.049 A 
ATOM     42  N   UNL A   1      39.272  30.334  29.482  1.00  0.00    -0.248 NA
ATOM     43  C   UNL A   1      37.835  29.061  28.224  1.00  0.00     0.031 C 
ATOM     44  C   UNL A   1      40.938  28.827  31.258  1.00  0.00     0.029 A 
ATOM     45  N   UNL A   1      42.180  27.390  30.051  1.00  0.00    -0.354 N 
ATOM     46  C   UNL A   1      38.081  31.020  29.419  1.00  0.00     0.074 A 
ATOM     47  C   UNL A   1      37.249  30.215  28.552  1.00  0.00     0.031 C 
ATOM     48  C   UNL A   1      42.183  28.856  31.758  1.00  0.00     0.029 A 
ATOM     49  C   UNL A   1      43.052  28.175  30.814  1.00  0.00     0.049 A 
ATOM     50  H   UNL A   1      42.406  26.545  29.598  1.00  0.00     0.167 HD
ATOM     51  C   UNL A   1      37.887  32.111  30.218  1.00  0.00     0.034 A 
ATOM     52  C   UNL A   1      44.185  28.701  30.267  1.00  0.00     0.034 A 
ATOM     53  C   UNL A   1      39.112  32.481  30.938  1.00  0.00     0.049 A 
ATOM     54  C   UNL A   1      44.230  30.212  30.292  1.00  0.00     0.074 A 
ATOM     55  C   UNL A   1      39.533  32.291  32.244  1.00  0.00     0.029 A 
ATOM     56  N   UNL A   1      40.229  32.917  30.228  1.00  0.00    -0.354 N 
ATOM     57  N   UNL A   1      43.195  30.975  30.517  1.00  0.00    -0.248 NA
ATOM     58  C   UNL A   1      45.445  30.978  30.035  1.00  0.00     0.031 C 
ATOM     59  C   UNL A   1      40.928  32.549  32.299  1.00  0.00     0.029 A 
ATOM     60  C   UNL A   1      41.352  32.924  31.035  1.00  0.00     0.049 A 
ATOM     61  H   UNL A   1      40.219  33.186  29.281  1.00  0.00     0.167 HD
ATOM     62  C   UNL A   1      43.563  32.292  30.399  1.00  0.00     0.074 A 
ATOM     63  C   UNL A   1      44.992  32.238  30.137  1.00  0.00     0.031 C 
ATOM     64  C   UNL A   1      42.657  33.310  30.507  1.00  0.00     0.034 A 
BRANCH  51  65
ATOM     65  C   UNL A   1      36.513  32.643  30.598  1.00  0.00     0.023 A 
ATOM     66  C   UNL A   1      35.764  33.377  29.650  1.00  0.00     0.031 A 
ATOM     67  C   UNL A   1      35.914  32.538  31.869  1.00  0.00     0.131 A 
ATOM     68  C   UNL A   1      34.579  34.054  30.004  1.00  0.00     0.055 A 
ATOM     69  C   UNL A   1      34.772  33.262  32.242  1.00  0.00     0.041 A 
ATOM     70  F   UNL A   1      36.363  31.678  32.792  1.00  0.00    -0.206 F 
ATOM     71  C   UNL A   1      34.107  34.041  31.312  1.00  0.00     0.022 A 
BRANCH  68  72
ATOM     72  S   UNL A   1      33.654  34.957  28.730  1.00  0.00     0.124 S 
ATOM     73  O   UNL A   1      33.027  33.877  27.974  1.00  0.00    -0.237 OA
ATOM     74  O   UNL A   1      32.763  35.790  29.530  1.00  0.00    -0.237 OA
ATOM     75  O   UNL A   1      34.695  35.689  28.009  1.00  0.00    -0.744 OA
ENDBRANCH  68  72
ENDBRANCH  51  65
BRANCH  52  76
ATOM     76  C   UNL A   1      44.797  27.841  29.214  1.00  0.00     0.023 A 
ATOM     77  C   UNL A   1      44.973  28.414  27.935  1.00  0.00     0.031 A 
ATOM     78  C   UNL A   1      45.514  26.677  29.515  1.00  0.00     0.131 A 
ATOM     79  C   UNL A   1      45.954  27.919  27.067  1.00  0.00     0.055 A 
ATOM     80  C   UNL A   1      46.448  26.145  28.617  1.00  0.00     0.041 A 
ATOM     81  F   UNL A   1      45.413  26.105  30.724  1.00  0.00    -0.206 F 
ATOM     82  C   UNL A   1      46.703  26.792  27.406  1.00  0.00     0.022 A 
BRANCH  79  83
ATOM     83  S   UNL A   1      46.432  28.895  25.612  1.00  0.00     0.124 S 
ATOM     84  O   UNL A   1      45.685  30.130  25.809  1.00  0.00    -0.237 OA
ATOM     85  O   UNL A   1      47.884  29.006  25.741  1.00  0.00    -0.237 OA
ATOM     86  O   UNL A   1      45.999  28.053  24.499  1.00  0.00    -0.744 OA
ENDBRANCH  79  83
ENDBRANCH  52  76
BRANCH  64  87
ATOM     87  C   UNL A   1      42.943  34.770  30.215  1.00  0.00     0.023 A 
ATOM     88  C   UNL A   1      42.731  35.364  28.960  1.00  0.00     0.031 A 
ATOM     89  C   UNL A   1      43.389  35.644  31.235  1.00  0.00     0.131 A 
ATOM     90  C   UNL A   1      43.055  36.713  28.725  1.00  0.00     0.055 A 
ATOM     91  C   UNL A   1      43.632  37.006  31.021  1.00  0.00     0.041 A 
ATOM     92  F   UNL A   1      43.606  35.214  32.487  1.00  0.00    -0.206 F 
ATOM     93  C   UNL A   1      43.486  37.546  29.753  1.00  0.00     0.022 A 
BRANCH  90  94
ATOM     94  S   UNL A   1      42.968  37.333  27.023  1.00  0.00     0.124 S 
ATOM     95  O   UNL A   1      42.708  36.108  26.272  1.00  0.00    -0.237 OA
ATOM     96  O   UNL A   1      41.861  38.282  27.091  1.00  0.00    -0.237 OA
ATOM     97  O   UNL A   1      44.285  37.927  26.804  1.00  0.00    -0.744 OA
ENDBRANCH  90  94
ENDBRANCH  64  87
ENDBRANCH  38  39
ENDBRANCH  30  33
ENDBRANCH  28  29
ENDBRANCH  27  28
ENDBRANCH   1  27
TORSDOF 18
ENDMDL
