MODEL 1
REMARK VINA RESULT:     -12.2      0.000      0.000
REMARK SMILES O=C(NCCCCNC(=O)[C@H]1CCCN(C(=O)C2CC[NH+](Cc3ccco3)CC2)C1)c1ccc(-c2c3nc(c(-c4cc(S(=O)(=O)[O-])ccc4F)c4ccc([nH]4)c(-c4cc(S(=O)(=O)[O-])ccc4F)c4nc(c(-c5cc(S(=O)(=O)[O-])ccc5F)c5ccc2[nH]5)C=C4)C=C3)cc1
REMARK SMILES IDX 6 1 5 2 4 3 3 4 1 5 2 6 31 8 32 9 93 10 33 11 92 12 34 13
REMARK SMILES IDX 35 14 36 15 86 16 37 17 91 18 85 19 87 20 38 21 90 22 84 23
REMARK SMILES IDX 83 24 39 26 71 27 51 28 70 29 52 30 55 31 69 32 88 33 53 34
REMARK SMILES IDX 54 35 68 37 89 38 56 39 40 40 41 41 49 42 42 43 48 44 50 45
REMARK SMILES IDX 47 46 43 47 44 48 45 49 46 50 72 51 73 52 81 53 74 54 80 55
REMARK SMILES IDX 82 56 79 57 75 58 76 59 77 60 78 61 57 62 58 63 66 64 59 65
REMARK SMILES IDX 65 66 67 67 64 68 60 69 61 70 62 71 63 72 7 73 8 74 9 75
REMARK SMILES IDX 10 77 11 78 12 79 30 80 13 81 15 82 14 83 16 84 17 85 18 86
REMARK SMILES IDX 19 87 29 88 20 89 28 90 21 91 22 93 23 94 24 95 27 96 25 97
REMARK SMILES IDX 26 98
REMARK H PARENT 3 7 87 25 55 36 8 76 21 92
REMARK Flexibility Score: inf
ROOT
ATOM      1  C   UNL A   1      31.572  30.874  26.096  1.00  0.00     0.023 C 
ENDROOT
BRANCH   1   2
ATOM      2  C   UNL A   1      32.519  31.035  27.278  1.00  0.00     0.023 C 
BRANCH   2   3
ATOM      3  C   UNL A   1      33.484  32.204  27.193  1.00  0.00     0.116 C 
BRANCH   3   4
ATOM      4  N   UNL A   1      32.910  33.476  27.610  1.00  0.00    -0.352 N 
ATOM      5  O   UNL A   1      32.688  35.304  28.919  1.00  0.00    -0.269 OA
ATOM      6  C   UNL A   1      33.317  34.286  28.644  1.00  0.00     0.251 C 
ATOM      7  H   UNL A   1      32.137  33.795  27.088  1.00  0.00     0.163 HD
BRANCH   6   8
ATOM      8  C   UNL A   1      34.495  33.886  29.441  1.00  0.00     0.039 A 
ATOM      9  C   UNL A   1      35.771  34.333  29.087  1.00  0.00     0.014 A 
ATOM     10  C   UNL A   1      34.324  32.996  30.503  1.00  0.00     0.014 A 
ATOM     11  C   UNL A   1      36.888  33.778  29.698  1.00  0.00     0.010 A 
ATOM     12  C   UNL A   1      35.445  32.499  31.168  1.00  0.00     0.010 A 
ATOM     13  C   UNL A   1      36.736  32.859  30.747  1.00  0.00    -0.014 A 
BRANCH  13  14
ATOM     14  C   UNL A   1      37.933  32.299  31.421  1.00  0.00     0.031 A 
ATOM     15  C   UNL A   1      38.726  31.196  30.781  1.00  0.00     0.074 A 
ATOM     16  C   UNL A   1      38.283  32.778  32.629  1.00  0.00     0.049 A 
ATOM     17  N   UNL A   1      39.725  30.505  31.266  1.00  0.00    -0.248 NA
ATOM     18  C   UNL A   1      38.334  30.812  29.417  1.00  0.00     0.031 C 
ATOM     19  C   UNL A   1      37.591  33.857  33.336  1.00  0.00     0.029 A 
ATOM     20  N   UNL A   1      39.293  32.415  33.479  1.00  0.00    -0.354 N 
ATOM     21  C   UNL A   1      40.068  29.585  30.281  1.00  0.00     0.074 A 
ATOM     22  C   UNL A   1      39.146  29.792  29.181  1.00  0.00     0.031 C 
ATOM     23  C   UNL A   1      38.195  34.068  34.513  1.00  0.00     0.029 A 
ATOM     24  C   UNL A   1      39.269  33.094  34.673  1.00  0.00     0.049 A 
ATOM     25  H   UNL A   1      39.969  31.734  33.257  1.00  0.00     0.167 HD
ATOM     26  C   UNL A   1      41.060  28.659  30.297  1.00  0.00     0.034 A 
ATOM     27  C   UNL A   1      39.992  32.920  35.795  1.00  0.00     0.034 A 
ATOM     28  C   UNL A   1      41.962  28.475  31.411  1.00  0.00     0.049 A 
ATOM     29  C   UNL A   1      41.047  31.851  35.820  1.00  0.00     0.074 A 
ATOM     30  C   UNL A   1      43.025  27.595  31.527  1.00  0.00     0.029 A 
ATOM     31  N   UNL A   1      41.896  29.172  32.612  1.00  0.00    -0.354 N 
ATOM     32  N   UNL A   1      41.367  30.991  34.881  1.00  0.00    -0.248 NA
ATOM     33  C   UNL A   1      41.840  31.733  37.048  1.00  0.00     0.031 C 
ATOM     34  C   UNL A   1      43.555  27.712  32.818  1.00  0.00     0.029 A 
ATOM     35  C   UNL A   1      42.875  28.719  33.484  1.00  0.00     0.049 A 
ATOM     36  H   UNL A   1      41.248  29.885  32.815  1.00  0.00     0.167 HD
ATOM     37  C   UNL A   1      42.416  30.241  35.398  1.00  0.00     0.074 A 
ATOM     38  C   UNL A   1      42.674  30.752  36.730  1.00  0.00     0.031 C 
ATOM     39  C   UNL A   1      43.111  29.229  34.816  1.00  0.00     0.034 A 
BRANCH  26  40
ATOM     40  C   UNL A   1      41.174  27.743  29.100  1.00  0.00     0.023 A 
ATOM     41  C   UNL A   1      42.151  27.935  28.106  1.00  0.00     0.031 A 
ATOM     42  C   UNL A   1      40.256  26.691  28.920  1.00  0.00     0.131 A 
ATOM     43  C   UNL A   1      42.129  27.154  26.940  1.00  0.00     0.055 A 
ATOM     44  C   UNL A   1      40.296  25.859  27.799  1.00  0.00     0.041 A 
ATOM     45  F   UNL A   1      39.288  26.467  29.821  1.00  0.00    -0.206 F 
ATOM     46  C   UNL A   1      41.224  26.101  26.790  1.00  0.00     0.022 A 
BRANCH  43  47
ATOM     47  S   UNL A   1      43.181  27.651  25.547  1.00  0.00     0.124 S 
ATOM     48  O   UNL A   1      44.146  28.531  26.203  1.00  0.00    -0.237 OA
ATOM     49  O   UNL A   1      43.701  26.373  25.074  1.00  0.00    -0.237 OA
ATOM     50  O   UNL A   1      42.254  28.324  24.640  1.00  0.00    -0.744 OA
ENDBRANCH  43  47
ENDBRANCH  26  40
BRANCH  27  51
ATOM     51  C   UNL A   1      39.686  33.749  36.992  1.00  0.00     0.023 A 
ATOM     52  C   UNL A   1      38.950  33.232  38.067  1.00  0.00     0.031 A 
ATOM     53  C   UNL A   1      40.176  35.065  37.091  1.00  0.00     0.131 A 
ATOM     54  C   UNL A   1      38.711  34.034  39.193  1.00  0.00     0.055 A 
ATOM     55  C   UNL A   1      39.970  35.843  38.230  1.00  0.00     0.041 A 
ATOM     56  F   UNL A   1      40.900  35.595  36.092  1.00  0.00    -0.206 F 
ATOM     57  C   UNL A   1      39.229  35.329  39.289  1.00  0.00     0.022 A 
BRANCH  54  58
ATOM     58  S   UNL A   1      37.688  33.368  40.533  1.00  0.00     0.124 S 
ATOM     59  O   UNL A   1      38.561  32.340  41.090  1.00  0.00    -0.237 OA
ATOM     60  O   UNL A   1      37.470  34.547  41.365  1.00  0.00    -0.237 OA
ATOM     61  O   UNL A   1      36.501  32.871  39.840  1.00  0.00    -0.744 OA
ENDBRANCH  54  58
ENDBRANCH  27  51
BRANCH  39  62
ATOM     62  C   UNL A   1      44.256  28.646  35.602  1.00  0.00     0.023 A 
ATOM     63  C   UNL A   1      44.066  27.611  36.534  1.00  0.00     0.031 A 
ATOM     64  C   UNL A   1      45.560  29.131  35.402  1.00  0.00     0.131 A 
ATOM     65  C   UNL A   1      45.163  27.116  37.256  1.00  0.00     0.055 A 
ATOM     66  C   UNL A   1      46.654  28.602  36.088  1.00  0.00     0.041 A 
ATOM     67  F   UNL A   1      45.792  30.121  34.525  1.00  0.00    -0.206 F 
ATOM     68  C   UNL A   1      46.457  27.594  37.026  1.00  0.00     0.022 A 
BRANCH  65  69
ATOM     69  S   UNL A   1      44.874  25.871  38.544  1.00  0.00     0.124 S 
ATOM     70  O   UNL A   1      43.910  26.548  39.406  1.00  0.00    -0.237 OA
ATOM     71  O   UNL A   1      44.361  24.741  37.778  1.00  0.00    -0.237 OA
ATOM     72  O   UNL A   1      46.198  25.671  39.130  1.00  0.00    -0.744 OA
ENDBRANCH  65  69
ENDBRANCH  39  62
ENDBRANCH  13  14
ENDBRANCH   6   8
ENDBRANCH   3   4
ENDBRANCH   2   3
ENDBRANCH   1   2
BRANCH   1  73
ATOM     73  C   UNL A   1      31.703  29.579  25.277  1.00  0.00     0.116 C 
BRANCH  73  74
ATOM     74  N   UNL A   1      32.809  29.604  24.332  1.00  0.00    -0.356 N 
ATOM     75  C   UNL A   1      33.575  28.626  23.768  1.00  0.00     0.224 C 
ATOM     76  H   UNL A   1      33.056  30.511  24.040  1.00  0.00     0.163 HD
ATOM     77  O   UNL A   1      34.376  28.987  22.899  1.00  0.00    -0.275 OA
BRANCH  75  78
ATOM     78  C   UNL A   1      33.458  27.133  24.098  1.00  0.00     0.098 C 
ATOM     79  C   UNL A   1      33.705  26.801  25.580  1.00  0.00     0.017 C 
ATOM     80  C   UNL A   1      32.181  26.537  23.448  1.00  0.00     0.133 C 
ATOM     81  C   UNL A   1      33.103  25.494  26.049  1.00  0.00     0.022 C 
ATOM     82  N   UNL A   1      31.738  25.298  24.107  1.00  0.00    -0.342 N 
ATOM     83  C   UNL A   1      31.684  25.443  25.530  1.00  0.00     0.119 C 
BRANCH  82  84
ATOM     84  C   UNL A   1      31.499  24.130  23.408  1.00  0.00     0.226 C 
ATOM     85  O   UNL A   1      30.336  23.716  23.289  1.00  0.00    -0.275 OA
BRANCH  84  86
ATOM     86  C   UNL A   1      32.628  23.255  22.775  1.00  0.00     0.090 C 
ATOM     87  C   UNL A   1      32.200  21.850  22.362  1.00  0.00     0.075 C 
ATOM     88  C   UNL A   1      34.045  23.235  23.355  1.00  0.00     0.075 C 
ATOM     89  C   UNL A   1      32.374  20.823  23.469  1.00  0.00     0.263 C 
ATOM     90  C   UNL A   1      34.415  22.053  24.269  1.00  0.00     0.263 C 
ATOM     91  N   UNL A   1      33.709  20.787  24.064  1.00  0.00    -0.329 N 
ATOM     92  H   UNL A   1      34.245  20.376  23.300  1.00  0.00     0.348 HD
BRANCH  91  93
ATOM     93  C   UNL A   1      33.801  19.886  25.242  1.00  0.00     0.338 C 
BRANCH  93  94
ATOM     94  C   UNL A   1      33.584  18.418  24.987  1.00  0.00     0.157 A 
ATOM     95  C   UNL A   1      32.538  17.553  25.254  1.00  0.00     0.052 A 
ATOM     96  O   UNL A   1      34.578  17.737  24.339  1.00  0.00    -0.463 OA
ATOM     97  C   UNL A   1      32.919  16.281  24.762  1.00  0.00     0.042 A 
ATOM     98  C   UNL A   1      34.159  16.451  24.194  1.00  0.00     0.195 A 
ENDBRANCH  93  94
ENDBRANCH  91  93
ENDBRANCH  84  86
ENDBRANCH  82  84
ENDBRANCH  75  78
ENDBRANCH  73  74
ENDBRANCH   1  73
TORSDOF 18
ENDMDL
MODEL 2
REMARK VINA RESULT:     -11.9      2.673      7.940
REMARK SMILES O=C(NCCCCNC(=O)[C@H]1CCCN(C(=O)C2CC[NH+](Cc3ccco3)CC2)C1)c1ccc(-c2c3nc(c(-c4cc(S(=O)(=O)[O-])ccc4F)c4ccc([nH]4)c(-c4cc(S(=O)(=O)[O-])ccc4F)c4nc(c(-c5cc(S(=O)(=O)[O-])ccc5F)c5ccc2[nH]5)C=C4)C=C3)cc1
REMARK SMILES IDX 6 1 5 2 4 3 3 4 1 5 2 6 31 8 32 9 93 10 33 11 92 12 34 13
REMARK SMILES IDX 35 14 36 15 86 16 37 17 91 18 85 19 87 20 38 21 90 22 84 23
REMARK SMILES IDX 83 24 39 26 71 27 51 28 70 29 52 30 55 31 69 32 88 33 53 34
REMARK SMILES IDX 54 35 68 37 89 38 56 39 40 40 41 41 49 42 42 43 48 44 50 45
REMARK SMILES IDX 47 46 43 47 44 48 45 49 46 50 72 51 73 52 81 53 74 54 80 55
REMARK SMILES IDX 82 56 79 57 75 58 76 59 77 60 78 61 57 62 58 63 66 64 59 65
REMARK SMILES IDX 65 66 67 67 64 68 60 69 61 70 62 71 63 72 7 73 8 74 9 75
REMARK SMILES IDX 10 77 11 78 12 79 30 80 13 81 15 82 14 83 16 84 17 85 18 86
REMARK SMILES IDX 19 87 29 88 20 89 28 90 21 91 22 93 23 94 24 95 27 96 25 97
REMARK SMILES IDX 26 98
REMARK H PARENT 3 7 87 25 55 36 8 76 21 92
REMARK Flexibility Score: inf
ROOT
ATOM      1  C   UNL A   1      31.617  28.980  23.710  1.00  0.00     0.023 C 
ENDROOT
BRANCH   1   2
ATOM      2  C   UNL A   1      31.732  28.971  25.229  1.00  0.00     0.023 C 
BRANCH   2   3
ATOM      3  C   UNL A   1      32.905  29.745  25.804  1.00  0.00     0.116 C 
BRANCH   3   4
ATOM      4  N   UNL A   1      32.561  31.082  26.268  1.00  0.00    -0.352 N 
ATOM      5  O   UNL A   1      32.785  32.946  27.525  1.00  0.00    -0.269 OA
ATOM      6  C   UNL A   1      33.236  31.858  27.181  1.00  0.00     0.251 C 
ATOM      7  H   UNL A   1      31.747  31.478  25.881  1.00  0.00     0.163 HD
BRANCH   6   8
ATOM      8  C   UNL A   1      34.487  31.338  27.769  1.00  0.00     0.039 A 
ATOM      9  C   UNL A   1      34.554  30.021  28.235  1.00  0.00     0.014 A 
ATOM     10  C   UNL A   1      35.575  32.201  27.922  1.00  0.00     0.014 A 
ATOM     11  C   UNL A   1      35.650  29.611  28.984  1.00  0.00     0.010 A 
ATOM     12  C   UNL A   1      36.708  31.760  28.607  1.00  0.00     0.010 A 
ATOM     13  C   UNL A   1      36.739  30.475  29.174  1.00  0.00    -0.014 A 
BRANCH  13  14
ATOM     14  C   UNL A   1      37.922  30.018  29.942  1.00  0.00     0.031 A 
ATOM     15  C   UNL A   1      38.177  30.528  31.331  1.00  0.00     0.074 A 
ATOM     16  C   UNL A   1      38.780  29.156  29.364  1.00  0.00     0.049 A 
ATOM     17  N   UNL A   1      39.212  30.335  32.108  1.00  0.00    -0.248 NA
ATOM     18  C   UNL A   1      37.133  31.380  31.919  1.00  0.00     0.031 C 
ATOM     19  C   UNL A   1      38.621  28.587  28.024  1.00  0.00     0.029 A 
ATOM     20  N   UNL A   1      39.955  28.620  29.819  1.00  0.00    -0.354 N 
ATOM     21  C   UNL A   1      38.960  31.060  33.267  1.00  0.00     0.074 A 
ATOM     22  C   UNL A   1      37.683  31.720  33.075  1.00  0.00     0.031 C 
ATOM     23  C   UNL A   1      39.662  27.783  27.765  1.00  0.00     0.029 A 
ATOM     24  C   UNL A   1      40.591  27.837  28.887  1.00  0.00     0.049 A 
ATOM     25  H   UNL A   1      40.309  28.781  30.723  1.00  0.00     0.167 HD
ATOM     26  C   UNL A   1      39.724  31.160  34.385  1.00  0.00     0.034 A 
ATOM     27  C   UNL A   1      41.810  27.266  28.907  1.00  0.00     0.034 A 
ATOM     28  C   UNL A   1      40.995  30.491  34.545  1.00  0.00     0.049 A 
ATOM     29  C   UNL A   1      42.670  27.435  30.127  1.00  0.00     0.074 A 
ATOM     30  C   UNL A   1      41.839  30.490  35.643  1.00  0.00     0.029 A 
ATOM     31  N   UNL A   1      41.615  29.717  33.572  1.00  0.00    -0.354 N 
ATOM     32  N   UNL A   1      42.420  28.117  31.220  1.00  0.00    -0.248 NA
ATOM     33  C   UNL A   1      43.970  26.755  30.119  1.00  0.00     0.031 C 
ATOM     34  C   UNL A   1      42.995  29.775  35.308  1.00  0.00     0.029 A 
ATOM     35  C   UNL A   1      42.843  29.263  34.030  1.00  0.00     0.049 A 
ATOM     36  H   UNL A   1      41.237  29.518  32.684  1.00  0.00     0.167 HD
ATOM     37  C   UNL A   1      43.524  27.931  32.043  1.00  0.00     0.074 A 
ATOM     38  C   UNL A   1      44.440  27.071  31.318  1.00  0.00     0.031 C 
ATOM     39  C   UNL A   1      43.753  28.417  33.290  1.00  0.00     0.034 A 
BRANCH  26  40
ATOM     40  C   UNL A   1      39.228  32.071  35.485  1.00  0.00     0.023 A 
ATOM     41  C   UNL A   1      39.609  33.423  35.560  1.00  0.00     0.031 A 
ATOM     42  C   UNL A   1      38.403  31.566  36.507  1.00  0.00     0.131 A 
ATOM     43  C   UNL A   1      39.245  34.194  36.675  1.00  0.00     0.055 A 
ATOM     44  C   UNL A   1      37.971  32.363  37.569  1.00  0.00     0.041 A 
ATOM     45  F   UNL A   1      38.021  30.280  36.504  1.00  0.00    -0.206 F 
ATOM     46  C   UNL A   1      38.408  33.681  37.669  1.00  0.00     0.022 A 
BRANCH  43  47
ATOM     47  S   UNL A   1      40.030  35.815  36.899  1.00  0.00     0.124 S 
ATOM     48  O   UNL A   1      39.409  36.278  38.138  1.00  0.00    -0.237 OA
ATOM     49  O   UNL A   1      41.444  35.470  36.983  1.00  0.00    -0.237 OA
ATOM     50  O   UNL A   1      39.636  36.555  35.701  1.00  0.00    -0.744 OA
ENDBRANCH  43  47
ENDBRANCH  26  40
BRANCH  27  51
ATOM     51  C   UNL A   1      42.292  26.538  27.702  1.00  0.00     0.023 A 
ATOM     52  C   UNL A   1      42.330  25.137  27.665  1.00  0.00     0.031 A 
ATOM     53  C   UNL A   1      42.676  27.246  26.548  1.00  0.00     0.131 A 
ATOM     54  C   UNL A   1      42.759  24.486  26.498  1.00  0.00     0.055 A 
ATOM     55  C   UNL A   1      43.062  26.593  25.378  1.00  0.00     0.041 A 
ATOM     56  F   UNL A   1      42.640  28.589  26.534  1.00  0.00    -0.206 F 
ATOM     57  C   UNL A   1      43.109  25.204  25.350  1.00  0.00     0.022 A 
BRANCH  54  58
ATOM     58  S   UNL A   1      42.875  22.677  26.505  1.00  0.00     0.124 S 
ATOM     59  O   UNL A   1      44.318  22.473  26.574  1.00  0.00    -0.237 OA
ATOM     60  O   UNL A   1      42.119  22.329  27.704  1.00  0.00    -0.237 OA
ATOM     61  O   UNL A   1      42.249  22.291  25.243  1.00  0.00    -0.744 OA
ENDBRANCH  54  58
ENDBRANCH  27  51
BRANCH  39  62
ATOM     62  C   UNL A   1      45.024  27.983  33.971  1.00  0.00     0.023 A 
ATOM     63  C   UNL A   1      45.095  26.800  34.727  1.00  0.00     0.031 A 
ATOM     64  C   UNL A   1      46.186  28.764  33.845  1.00  0.00     0.131 A 
ATOM     65  C   UNL A   1      46.298  26.450  35.359  1.00  0.00     0.055 A 
ATOM     66  C   UNL A   1      47.392  28.386  34.436  1.00  0.00     0.041 A 
ATOM     67  F   UNL A   1      46.168  29.903  33.136  1.00  0.00    -0.206 F 
ATOM     68  C   UNL A   1      47.451  27.227  35.204  1.00  0.00     0.022 A 
BRANCH  65  69
ATOM     69  S   UNL A   1      46.330  24.989  36.434  1.00  0.00     0.124 S 
ATOM     70  O   UNL A   1      45.219  24.203  35.906  1.00  0.00    -0.237 OA
ATOM     71  O   UNL A   1      47.664  24.451  36.192  1.00  0.00    -0.237 OA
ATOM     72  O   UNL A   1      46.119  25.542  37.770  1.00  0.00    -0.744 OA
ENDBRANCH  65  69
ENDBRANCH  39  62
ENDBRANCH  13  14
ENDBRANCH   6   8
ENDBRANCH   3   4
ENDBRANCH   2   3
ENDBRANCH   1   2
BRANCH   1  73
ATOM     73  C   UNL A   1      32.876  28.590  22.919  1.00  0.00     0.116 C 
BRANCH  73  74
ATOM     74  N   UNL A   1      32.652  27.498  21.982  1.00  0.00    -0.356 N 
ATOM     75  C   UNL A   1      32.658  26.140  22.116  1.00  0.00     0.224 C 
ATOM     76  H   UNL A   1      32.458  27.800  21.066  1.00  0.00     0.163 HD
ATOM     77  O   UNL A   1      32.311  25.489  21.125  1.00  0.00    -0.275 OA
BRANCH  75  78
ATOM     78  C   UNL A   1      33.002  25.398  23.412  1.00  0.00     0.098 C 
ATOM     79  C   UNL A   1      34.174  26.017  24.194  1.00  0.00     0.017 C 
ATOM     80  C   UNL A   1      31.710  25.087  24.213  1.00  0.00     0.133 C 
ATOM     81  C   UNL A   1      34.209  25.676  25.668  1.00  0.00     0.022 C 
ATOM     82  N   UNL A   1      31.975  24.849  25.642  1.00  0.00    -0.342 N 
ATOM     83  C   UNL A   1      32.809  25.867  26.205  1.00  0.00     0.119 C 
BRANCH  82  84
ATOM     84  C   UNL A   1      31.528  23.720  26.301  1.00  0.00     0.226 C 
ATOM     85  O   UNL A   1      30.653  23.827  27.172  1.00  0.00    -0.275 OA
BRANCH  84  86
ATOM     86  C   UNL A   1      32.097  22.287  26.044  1.00  0.00     0.090 C 
ATOM     87  C   UNL A   1      33.302  21.908  26.900  1.00  0.00     0.075 C 
ATOM     88  C   UNL A   1      32.249  21.729  24.626  1.00  0.00     0.075 C 
ATOM     89  C   UNL A   1      34.630  22.274  26.257  1.00  0.00     0.263 C 
ATOM     90  C   UNL A   1      33.651  21.788  23.994  1.00  0.00     0.263 C 
ATOM     91  N   UNL A   1      34.805  21.777  24.893  1.00  0.00    -0.329 N 
ATOM     92  H   UNL A   1      34.917  20.779  25.070  1.00  0.00     0.348 HD
BRANCH  91  93
ATOM     93  C   UNL A   1      36.042  22.281  24.241  1.00  0.00     0.338 C 
BRANCH  93  94
ATOM     94  C   UNL A   1      37.189  22.635  25.150  1.00  0.00     0.157 A 
ATOM     95  C   UNL A   1      38.242  21.908  25.677  1.00  0.00     0.052 A 
ATOM     96  O   UNL A   1      37.288  23.936  25.563  1.00  0.00    -0.463 OA
ATOM     97  C   UNL A   1      39.009  22.803  26.462  1.00  0.00     0.042 A 
ATOM     98  C   UNL A   1      38.400  24.029  26.341  1.00  0.00     0.195 A 
ENDBRANCH  93  94
ENDBRANCH  91  93
ENDBRANCH  84  86
ENDBRANCH  82  84
ENDBRANCH  75  78
ENDBRANCH  73  74
ENDBRANCH   1  73
TORSDOF 18
ENDMDL
MODEL 3
REMARK VINA RESULT:     -11.7      5.696     11.661
REMARK SMILES O=C(NCCCCNC(=O)[C@H]1CCCN(C(=O)C2CC[NH+](Cc3ccco3)CC2)C1)c1ccc(-c2c3nc(c(-c4cc(S(=O)(=O)[O-])ccc4F)c4ccc([nH]4)c(-c4cc(S(=O)(=O)[O-])ccc4F)c4nc(c(-c5cc(S(=O)(=O)[O-])ccc5F)c5ccc2[nH]5)C=C4)C=C3)cc1
REMARK SMILES IDX 6 1 5 2 4 3 3 4 1 5 2 6 31 8 32 9 93 10 33 11 92 12 34 13
REMARK SMILES IDX 35 14 36 15 86 16 37 17 91 18 85 19 87 20 38 21 90 22 84 23
REMARK SMILES IDX 83 24 39 26 71 27 51 28 70 29 52 30 55 31 69 32 88 33 53 34
REMARK SMILES IDX 54 35 68 37 89 38 56 39 40 40 41 41 49 42 42 43 48 44 50 45
REMARK SMILES IDX 47 46 43 47 44 48 45 49 46 50 72 51 73 52 81 53 74 54 80 55
REMARK SMILES IDX 82 56 79 57 75 58 76 59 77 60 78 61 57 62 58 63 66 64 59 65
REMARK SMILES IDX 65 66 67 67 64 68 60 69 61 70 62 71 63 72 7 73 8 74 9 75
REMARK SMILES IDX 10 77 11 78 12 79 30 80 13 81 15 82 14 83 16 84 17 85 18 86
REMARK SMILES IDX 19 87 29 88 20 89 28 90 21 91 22 93 23 94 24 95 27 96 25 97
REMARK SMILES IDX 26 98
REMARK H PARENT 3 7 87 25 55 36 8 76 21 92
REMARK Flexibility Score: inf
ROOT
ATOM      1  C   UNL A   1      38.780  22.974  26.442  1.00  0.00     0.023 C 
ENDROOT
BRANCH   1   2
ATOM      2  C   UNL A   1      39.252  21.662  25.831  1.00  0.00     0.023 C 
BRANCH   2   3
ATOM      3  C   UNL A   1      39.952  20.708  26.782  1.00  0.00     0.116 C 
BRANCH   3   4
ATOM      4  N   UNL A   1      40.887  19.802  26.129  1.00  0.00    -0.352 N 
ATOM      5  O   UNL A   1      42.851  19.195  25.191  1.00  0.00    -0.269 OA
ATOM      6  C   UNL A   1      42.203  20.038  25.804  1.00  0.00     0.251 C 
ATOM      7  H   UNL A   1      40.536  18.913  25.893  1.00  0.00     0.163 HD
BRANCH   6   8
ATOM      8  C   UNL A   1      42.803  21.338  26.168  1.00  0.00     0.039 A 
ATOM      9  C   UNL A   1      43.156  21.606  27.494  1.00  0.00     0.014 A 
ATOM     10  C   UNL A   1      42.943  22.319  25.184  1.00  0.00     0.014 A 
ATOM     11  C   UNL A   1      43.507  22.897  27.864  1.00  0.00     0.010 A 
ATOM     12  C   UNL A   1      43.373  23.596  25.547  1.00  0.00     0.010 A 
ATOM     13  C   UNL A   1      43.623  23.904  26.894  1.00  0.00    -0.014 A 
BRANCH  13  14
ATOM     14  C   UNL A   1      44.036  25.272  27.291  1.00  0.00     0.031 A 
ATOM     15  C   UNL A   1      43.032  26.249  27.832  1.00  0.00     0.074 A 
ATOM     16  C   UNL A   1      45.323  25.634  27.135  1.00  0.00     0.049 A 
ATOM     17  N   UNL A   1      43.181  27.515  28.121  1.00  0.00    -0.248 NA
ATOM     18  C   UNL A   1      41.676  25.732  28.068  1.00  0.00     0.031 C 
ATOM     19  C   UNL A   1      46.385  24.760  26.631  1.00  0.00     0.029 A 
ATOM     20  N   UNL A   1      45.954  26.827  27.369  1.00  0.00    -0.354 N 
ATOM     21  C   UNL A   1      41.934  27.959  28.548  1.00  0.00     0.074 A 
ATOM     22  C   UNL A   1      41.035  26.826  28.452  1.00  0.00     0.031 C 
ATOM     23  C   UNL A   1      47.535  25.447  26.591  1.00  0.00     0.029 A 
ATOM     24  C   UNL A   1      47.277  26.824  26.998  1.00  0.00     0.049 A 
ATOM     25  H   UNL A   1      45.504  27.609  27.763  1.00  0.00     0.167 HD
ATOM     26  C   UNL A   1      41.579  29.196  28.981  1.00  0.00     0.034 A 
ATOM     27  C   UNL A   1      48.174  27.826  26.940  1.00  0.00     0.034 A 
ATOM     28  C   UNL A   1      42.499  30.307  29.063  1.00  0.00     0.049 A 
ATOM     29  C   UNL A   1      47.750  29.203  27.366  1.00  0.00     0.074 A 
ATOM     30  C   UNL A   1      42.263  31.594  29.519  1.00  0.00     0.029 A 
ATOM     31  N   UNL A   1      43.830  30.270  28.664  1.00  0.00    -0.354 N 
ATOM     32  N   UNL A   1      46.571  29.610  27.774  1.00  0.00    -0.248 NA
ATOM     33  C   UNL A   1      48.775  30.251  27.329  1.00  0.00     0.031 C 
ATOM     34  C   UNL A   1      43.428  32.348  29.330  1.00  0.00     0.029 A 
ATOM     35  C   UNL A   1      44.416  31.516  28.829  1.00  0.00     0.049 A 
ATOM     36  H   UNL A   1      44.291  29.473  28.314  1.00  0.00     0.167 HD
ATOM     37  C   UNL A   1      46.717  30.961  28.065  1.00  0.00     0.074 A 
ATOM     38  C   UNL A   1      48.100  31.297  27.786  1.00  0.00     0.031 C 
ATOM     39  C   UNL A   1      45.794  31.840  28.533  1.00  0.00     0.034 A 
BRANCH  26  40
ATOM     40  C   UNL A   1      40.126  29.416  29.337  1.00  0.00     0.023 A 
ATOM     41  C   UNL A   1      39.691  29.497  30.672  1.00  0.00     0.031 A 
ATOM     42  C   UNL A   1      39.151  29.493  28.326  1.00  0.00     0.131 A 
ATOM     43  C   UNL A   1      38.319  29.555  30.961  1.00  0.00     0.055 A 
ATOM     44  C   UNL A   1      37.793  29.640  28.618  1.00  0.00     0.041 A 
ATOM     45  F   UNL A   1      39.498  29.402  27.033  1.00  0.00    -0.206 F 
ATOM     46  C   UNL A   1      37.367  29.651  29.943  1.00  0.00     0.022 A 
BRANCH  43  47
ATOM     47  S   UNL A   1      37.787  29.318  32.680  1.00  0.00     0.124 S 
ATOM     48  O   UNL A   1      37.715  27.861  32.771  1.00  0.00    -0.237 OA
ATOM     49  O   UNL A   1      38.862  29.953  33.432  1.00  0.00    -0.237 OA
ATOM     50  O   UNL A   1      36.495  30.001  32.737  1.00  0.00    -0.744 OA
ENDBRANCH  43  47
ENDBRANCH  26  40
BRANCH  27  51
ATOM     51  C   UNL A   1      49.533  27.555  26.402  1.00  0.00     0.023 A 
ATOM     52  C   UNL A   1      49.871  27.877  25.081  1.00  0.00     0.031 A 
ATOM     53  C   UNL A   1      50.531  27.008  27.231  1.00  0.00     0.131 A 
ATOM     54  C   UNL A   1      51.175  27.636  24.620  1.00  0.00     0.055 A 
ATOM     55  C   UNL A   1      51.836  26.810  26.780  1.00  0.00     0.041 A 
ATOM     56  F   UNL A   1      50.256  26.699  28.509  1.00  0.00    -0.206 F 
ATOM     57  C   UNL A   1      52.163  27.120  25.465  1.00  0.00     0.022 A 
BRANCH  54  58
ATOM     58  S   UNL A   1      51.561  27.987  22.884  1.00  0.00     0.124 S 
ATOM     59  O   UNL A   1      50.955  29.302  22.705  1.00  0.00    -0.237 OA
ATOM     60  O   UNL A   1      53.020  27.947  22.883  1.00  0.00    -0.237 OA
ATOM     61  O   UNL A   1      50.911  26.895  22.163  1.00  0.00    -0.744 OA
ENDBRANCH  54  58
ENDBRANCH  27  51
BRANCH  39  62
ATOM     62  C   UNL A   1      46.268  33.239  28.824  1.00  0.00     0.023 A 
ATOM     63  C   UNL A   1      46.161  34.272  27.877  1.00  0.00     0.031 A 
ATOM     64  C   UNL A   1      46.824  33.541  30.080  1.00  0.00     0.131 A 
ATOM     65  C   UNL A   1      46.637  35.555  28.190  1.00  0.00     0.055 A 
ATOM     66  C   UNL A   1      47.251  34.830  30.403  1.00  0.00     0.041 A 
ATOM     67  F   UNL A   1      46.950  32.589  31.017  1.00  0.00    -0.206 F 
ATOM     68  C   UNL A   1      47.166  35.843  29.453  1.00  0.00     0.022 A 
BRANCH  65  69
ATOM     69  S   UNL A   1      46.607  36.837  26.908  1.00  0.00     0.124 S 
ATOM     70  O   UNL A   1      46.836  36.057  25.696  1.00  0.00    -0.237 OA
ATOM     71  O   UNL A   1      45.270  37.402  27.061  1.00  0.00    -0.237 OA
ATOM     72  O   UNL A   1      47.702  37.728  27.289  1.00  0.00    -0.744 OA
ENDBRANCH  65  69
ENDBRANCH  39  62
ENDBRANCH  13  14
ENDBRANCH   6   8
ENDBRANCH   3   4
ENDBRANCH   2   3
ENDBRANCH   1   2
BRANCH   1  73
ATOM     73  C   UNL A   1      37.601  23.676  25.747  1.00  0.00     0.116 C 
BRANCH  73  74
ATOM     74  N   UNL A   1      37.359  23.193  24.395  1.00  0.00    -0.356 N 
ATOM     75  C   UNL A   1      36.292  23.286  23.549  1.00  0.00     0.224 C 
ATOM     76  H   UNL A   1      38.119  22.697  24.013  1.00  0.00     0.163 HD
ATOM     77  O   UNL A   1      36.460  22.853  22.404  1.00  0.00    -0.275 OA
BRANCH  75  78
ATOM     78  C   UNL A   1      34.953  23.938  23.911  1.00  0.00     0.098 C 
ATOM     79  C   UNL A   1      34.096  24.321  22.691  1.00  0.00     0.017 C 
ATOM     80  C   UNL A   1      34.251  23.136  25.038  1.00  0.00     0.133 C 
ATOM     81  C   UNL A   1      32.616  24.461  22.971  1.00  0.00     0.022 C 
ATOM     82  N   UNL A   1      32.800  23.379  25.085  1.00  0.00    -0.342 N 
ATOM     83  C   UNL A   1      32.199  23.261  23.791  1.00  0.00     0.119 C 
BRANCH  82  84
ATOM     84  C   UNL A   1      32.149  23.760  26.242  1.00  0.00     0.226 C 
ATOM     85  O   UNL A   1      31.814  22.898  27.068  1.00  0.00    -0.275 OA
BRANCH  84  86
ATOM     86  C   UNL A   1      31.761  25.239  26.569  1.00  0.00     0.090 C 
ATOM     87  C   UNL A   1      30.278  25.565  26.418  1.00  0.00     0.075 C 
ATOM     88  C   UNL A   1      32.620  26.414  26.095  1.00  0.00     0.075 C 
ATOM     89  C   UNL A   1      29.911  26.044  25.024  1.00  0.00     0.263 C 
ATOM     90  C   UNL A   1      32.154  27.163  24.834  1.00  0.00     0.263 C 
ATOM     91  N   UNL A   1      30.722  27.153  24.526  1.00  0.00    -0.329 N 
ATOM     92  H   UNL A   1      30.382  27.914  25.114  1.00  0.00     0.348 HD
BRANCH  91  93
ATOM     93  C   UNL A   1      30.442  27.494  23.107  1.00  0.00     0.338 C 
BRANCH  93  94
ATOM     94  C   UNL A   1      29.915  28.877  22.836  1.00  0.00     0.157 A 
ATOM     95  C   UNL A   1      29.572  29.940  23.654  1.00  0.00     0.052 A 
ATOM     96  O   UNL A   1      29.735  29.239  21.528  1.00  0.00    -0.463 OA
ATOM     97  C   UNL A   1      29.145  30.991  22.806  1.00  0.00     0.042 A 
ATOM     98  C   UNL A   1      29.285  30.522  21.522  1.00  0.00     0.195 A 
ENDBRANCH  93  94
ENDBRANCH  91  93
ENDBRANCH  84  86
ENDBRANCH  82  84
ENDBRANCH  75  78
ENDBRANCH  73  74
ENDBRANCH   1  73
TORSDOF 18
ENDMDL
