MODEL 1
REMARK VINA RESULT:     -11.6      0.000      0.000
REMARK SMILES CCC[C@]1(C(=O)NCCCCNC(=O)c2ccc(-c3c4nc(c(-c5cc(S(=O)(=O)[O-])ccc5F)c5ccc([nH]5)c(-c5cc(S(=O)(=O)[O-])ccc5F)c5nc(c(-c6cc(S(=O)(=O)[O-])ccc6F)c6ccc3[nH]6)C=C5)C=C4)cc2)CCN(C(=O)c2cccnc2C)C1
REMARK SMILES IDX 10 1 9 2 8 3 7 4 5 5 6 6 4 8 78 9 90 10 79 11 80 12 3 13
REMARK SMILES IDX 2 14 1 15 81 16 82 17 83 18 84 19 88 20 85 21 87 22 89 23
REMARK SMILES IDX 86 24 11 25 12 26 13 27 14 29 15 30 16 31 77 32 17 33 76 34
REMARK SMILES IDX 18 35 19 36 20 37 70 38 21 39 75 40 69 41 71 42 22 43 74 44
REMARK SMILES IDX 68 45 67 46 23 48 55 49 35 50 54 51 36 52 39 53 53 54 72 55
REMARK SMILES IDX 37 56 38 57 52 59 73 60 40 61 24 62 25 63 33 64 26 65 32 66
REMARK SMILES IDX 34 67 31 68 27 69 28 70 29 71 30 72 56 73 57 74 65 75 58 76
REMARK SMILES IDX 64 77 66 78 63 79 59 80 60 81 61 82 62 83 41 84 42 85 50 86
REMARK SMILES IDX 43 87 49 88 51 89 48 90 44 91 45 92 46 93 47 94
REMARK H PARENT 7 7 12 28 71 47 39 58
REMARK Flexibility Score: inf
ROOT
ATOM      1  C   UNL A   1      31.263  32.020  26.609  1.00  0.00     0.023 C 
ENDROOT
BRANCH   1   2
ATOM      2  C   UNL A   1      31.344  30.817  25.669  1.00  0.00     0.023 C 
BRANCH   2   3
ATOM      3  C   UNL A   1      32.310  29.724  26.116  1.00  0.00     0.116 C 
BRANCH   3   4
ATOM      4  N   UNL A   1      31.619  28.509  26.492  1.00  0.00    -0.356 N 
ATOM      5  C   UNL A   1      31.411  27.336  25.839  1.00  0.00     0.228 C 
ATOM      6  O   UNL A   1      30.900  26.446  26.526  1.00  0.00    -0.274 OA
ATOM      7  H   UNL A   1      31.225  28.538  27.393  1.00  0.00     0.163 HD
BRANCH   5   8
ATOM      8  C   UNL A   1      31.832  27.078  24.376  1.00  0.00     0.068 C 
ATOM      9  C   UNL A   1      33.329  27.300  24.048  1.00  0.00     0.040 C 
ATOM     10  C   UNL A   1      31.640  25.556  24.082  1.00  0.00     0.136 C 
ATOM     11  C   UNL A   1      33.647  26.236  23.010  1.00  0.00     0.121 C 
ATOM     12  N   UNL A   1      32.903  25.103  23.502  1.00  0.00    -0.337 N 
BRANCH   8  13
ATOM     13  C   UNL A   1      30.928  27.900  23.396  1.00  0.00     0.018 C 
BRANCH  13  14
ATOM     14  C   UNL A   1      29.393  27.898  23.570  1.00  0.00    -0.002 C 
ATOM     15  C   UNL A   1      28.605  28.944  22.805  1.00  0.00     0.004 C 
ENDBRANCH  13  14
ENDBRANCH   8  13
BRANCH  12  16
ATOM     16  C   UNL A   1      33.270  23.771  23.509  1.00  0.00     0.255 C 
ATOM     17  O   UNL A   1      32.605  22.890  22.970  1.00  0.00    -0.269 OA
BRANCH  16  18
ATOM     18  C   UNL A   1      34.541  23.379  24.151  1.00  0.00     0.061 A 
ATOM     19  C   UNL A   1      35.593  23.004  23.310  1.00  0.00     0.017 A 
ATOM     20  C   UNL A   1      34.728  23.294  25.534  1.00  0.00     0.050 A 
ATOM     21  C   UNL A   1      36.812  22.627  23.861  1.00  0.00     0.021 A 
ATOM     22  N   UNL A   1      35.933  22.968  26.079  1.00  0.00    -0.261 NA
ATOM     23  C   UNL A   1      33.642  23.558  26.531  1.00  0.00     0.067 C 
ATOM     24  C   UNL A   1      36.937  22.640  25.238  1.00  0.00     0.111 A 
ENDBRANCH  16  18
ENDBRANCH  12  16
ENDBRANCH   5   8
ENDBRANCH   3   4
ENDBRANCH   2   3
ENDBRANCH   1   2
BRANCH   1  25
ATOM     25  C   UNL A   1      32.606  32.598  27.040  1.00  0.00     0.116 C 
BRANCH  25  26
ATOM     26  N   UNL A   1      32.498  33.943  27.586  1.00  0.00    -0.352 N 
ATOM     27  C   UNL A   1      33.243  34.534  28.581  1.00  0.00     0.251 C 
ATOM     28  H   UNL A   1      31.797  34.508  27.188  1.00  0.00     0.163 HD
ATOM     29  O   UNL A   1      32.925  35.634  29.011  1.00  0.00    -0.269 OA
BRANCH  27  30
ATOM     30  C   UNL A   1      34.401  33.808  29.146  1.00  0.00     0.039 A 
ATOM     31  C   UNL A   1      35.689  34.221  28.802  1.00  0.00     0.014 A 
ATOM     32  C   UNL A   1      34.213  32.749  30.040  1.00  0.00     0.014 A 
ATOM     33  C   UNL A   1      36.791  33.620  29.413  1.00  0.00     0.010 A 
ATOM     34  C   UNL A   1      35.308  32.205  30.703  1.00  0.00     0.010 A 
ATOM     35  C   UNL A   1      36.608  32.637  30.400  1.00  0.00    -0.014 A 
BRANCH  35  36
ATOM     36  C   UNL A   1      37.763  32.050  31.128  1.00  0.00     0.031 A 
ATOM     37  C   UNL A   1      38.543  30.920  30.514  1.00  0.00     0.074 A 
ATOM     38  C   UNL A   1      38.063  32.489  32.366  1.00  0.00     0.049 A 
ATOM     39  N   UNL A   1      39.527  30.223  31.020  1.00  0.00    -0.248 NA
ATOM     40  C   UNL A   1      38.140  30.499  29.164  1.00  0.00     0.031 C 
ATOM     41  C   UNL A   1      37.351  33.550  33.083  1.00  0.00     0.029 A 
ATOM     42  N   UNL A   1      39.038  32.093  33.247  1.00  0.00    -0.354 N 
ATOM     43  C   UNL A   1      39.849  29.269  30.060  1.00  0.00     0.074 A 
ATOM     44  C   UNL A   1      38.915  29.443  28.968  1.00  0.00     0.031 C 
ATOM     45  C   UNL A   1      37.930  33.738  34.280  1.00  0.00     0.029 A 
ATOM     46  C   UNL A   1      39.022  32.783  34.438  1.00  0.00     0.049 A 
ATOM     47  H   UNL A   1      39.688  31.382  33.047  1.00  0.00     0.167 HD
ATOM     48  C   UNL A   1      40.845  28.349  30.080  1.00  0.00     0.034 A 
ATOM     49  C   UNL A   1      39.793  32.654  35.536  1.00  0.00     0.034 A 
ATOM     50  C   UNL A   1      41.779  28.202  31.170  1.00  0.00     0.049 A 
ATOM     51  C   UNL A   1      40.884  31.614  35.541  1.00  0.00     0.074 A 
ATOM     52  C   UNL A   1      42.865  27.349  31.266  1.00  0.00     0.029 A 
ATOM     53  N   UNL A   1      41.733  28.920  32.359  1.00  0.00    -0.354 N 
ATOM     54  N   UNL A   1      41.210  30.754  34.603  1.00  0.00    -0.248 NA
ATOM     55  C   UNL A   1      41.718  31.536  36.747  1.00  0.00     0.031 C 
ATOM     56  C   UNL A   1      43.432  27.502  32.536  1.00  0.00     0.029 A 
ATOM     57  C   UNL A   1      42.751  28.506  33.205  1.00  0.00     0.049 A 
ATOM     58  H   UNL A   1      41.075  29.621  32.570  1.00  0.00     0.167 HD
ATOM     59  C   UNL A   1      42.307  30.053  35.096  1.00  0.00     0.074 A 
ATOM     60  C   UNL A   1      42.594  30.602  36.407  1.00  0.00     0.031 C 
ATOM     61  C   UNL A   1      43.017  29.053  34.516  1.00  0.00     0.034 A 
BRANCH  48  62
ATOM     62  C   UNL A   1      40.953  27.416  28.897  1.00  0.00     0.023 A 
ATOM     63  C   UNL A   1      41.948  27.576  27.916  1.00  0.00     0.031 A 
ATOM     64  C   UNL A   1      40.032  26.366  28.733  1.00  0.00     0.131 A 
ATOM     65  C   UNL A   1      41.952  26.751  26.780  1.00  0.00     0.055 A 
ATOM     66  C   UNL A   1      40.092  25.497  27.642  1.00  0.00     0.041 A 
ATOM     67  F   UNL A   1      39.047  26.175  29.625  1.00  0.00    -0.206 F 
ATOM     68  C   UNL A   1      41.046  25.696  26.648  1.00  0.00     0.022 A 
BRANCH  65  69
ATOM     69  S   UNL A   1      43.064  27.170  25.410  1.00  0.00     0.124 S 
ATOM     70  O   UNL A   1      43.227  25.874  24.756  1.00  0.00    -0.237 OA
ATOM     71  O   UNL A   1      42.295  28.166  24.673  1.00  0.00    -0.237 OA
ATOM     72  O   UNL A   1      44.260  27.675  26.081  1.00  0.00    -0.744 OA
ENDBRANCH  65  69
ENDBRANCH  48  62
BRANCH  49  73
ATOM     73  C   UNL A   1      39.563  33.523  36.726  1.00  0.00     0.023 A 
ATOM     74  C   UNL A   1      38.923  33.023  37.872  1.00  0.00     0.031 A 
ATOM     75  C   UNL A   1      39.948  34.875  36.722  1.00  0.00     0.131 A 
ATOM     76  C   UNL A   1      38.648  33.879  38.949  1.00  0.00     0.055 A 
ATOM     77  C   UNL A   1      39.718  35.711  37.817  1.00  0.00     0.041 A 
ATOM     78  F   UNL A   1      40.569  35.402  35.654  1.00  0.00    -0.206 F 
ATOM     79  C   UNL A   1      39.053  35.216  38.935  1.00  0.00     0.022 A 
BRANCH  76  80
ATOM     80  S   UNL A   1      37.684  33.237  40.345  1.00  0.00     0.124 S 
ATOM     81  O   UNL A   1      36.423  32.893  39.701  1.00  0.00    -0.237 OA
ATOM     82  O   UNL A   1      38.506  32.116  40.789  1.00  0.00    -0.237 OA
ATOM     83  O   UNL A   1      37.627  34.369  41.268  1.00  0.00    -0.744 OA
ENDBRANCH  76  80
ENDBRANCH  49  73
BRANCH  61  84
ATOM     84  C   UNL A   1      44.202  28.520  35.283  1.00  0.00     0.023 A 
ATOM     85  C   UNL A   1      44.069  27.497  36.238  1.00  0.00     0.031 A 
ATOM     86  C   UNL A   1      45.484  29.053  35.059  1.00  0.00     0.131 A 
ATOM     87  C   UNL A   1      45.188  27.077  36.974  1.00  0.00     0.055 A 
ATOM     88  C   UNL A   1      46.605  28.589  35.749  1.00  0.00     0.041 A 
ATOM     89  F   UNL A   1      45.669  30.034  34.161  1.00  0.00    -0.206 F 
ATOM     90  C   UNL A   1      46.458  27.604  36.722  1.00  0.00     0.022 A 
BRANCH  87  91
ATOM     91  S   UNL A   1      44.948  25.896  38.328  1.00  0.00     0.124 S 
ATOM     92  O   UNL A   1      46.306  25.739  38.838  1.00  0.00    -0.237 OA
ATOM     93  O   UNL A   1      44.017  26.605  39.200  1.00  0.00    -0.237 OA
ATOM     94  O   UNL A   1      44.396  24.717  37.662  1.00  0.00    -0.744 OA
ENDBRANCH  87  91
ENDBRANCH  61  84
ENDBRANCH  35  36
ENDBRANCH  27  30
ENDBRANCH  25  26
ENDBRANCH   1  25
TORSDOF 18
ENDMDL
MODEL 2
REMARK VINA RESULT:     -11.3      2.247      3.661
REMARK SMILES CCC[C@]1(C(=O)NCCCCNC(=O)c2ccc(-c3c4nc(c(-c5cc(S(=O)(=O)[O-])ccc5F)c5ccc([nH]5)c(-c5cc(S(=O)(=O)[O-])ccc5F)c5nc(c(-c6cc(S(=O)(=O)[O-])ccc6F)c6ccc3[nH]6)C=C5)C=C4)cc2)CCN(C(=O)c2cccnc2C)C1
REMARK SMILES IDX 10 1 9 2 8 3 7 4 5 5 6 6 4 8 78 9 90 10 79 11 80 12 3 13
REMARK SMILES IDX 2 14 1 15 81 16 82 17 83 18 84 19 88 20 85 21 87 22 89 23
REMARK SMILES IDX 86 24 11 25 12 26 13 27 14 29 15 30 16 31 77 32 17 33 76 34
REMARK SMILES IDX 18 35 19 36 20 37 70 38 21 39 75 40 69 41 71 42 22 43 74 44
REMARK SMILES IDX 68 45 67 46 23 48 55 49 35 50 54 51 36 52 39 53 53 54 72 55
REMARK SMILES IDX 37 56 38 57 52 59 73 60 40 61 24 62 25 63 33 64 26 65 32 66
REMARK SMILES IDX 34 67 31 68 27 69 28 70 29 71 30 72 56 73 57 74 65 75 58 76
REMARK SMILES IDX 64 77 66 78 63 79 59 80 60 81 61 82 62 83 41 84 42 85 50 86
REMARK SMILES IDX 43 87 49 88 51 89 48 90 44 91 45 92 46 93 47 94
REMARK H PARENT 7 7 12 28 71 47 39 58
REMARK Flexibility Score: inf
ROOT
ATOM      1  C   UNL A   1      31.533  29.212  26.611  1.00  0.00     0.023 C 
ENDROOT
BRANCH   1   2
ATOM      2  C   UNL A   1      32.091  27.866  27.072  1.00  0.00     0.023 C 
BRANCH   2   3
ATOM      3  C   UNL A   1      31.944  26.735  26.057  1.00  0.00     0.116 C 
BRANCH   3   4
ATOM      4  N   UNL A   1      31.658  25.468  26.695  1.00  0.00    -0.356 N 
ATOM      5  C   UNL A   1      32.168  24.221  26.521  1.00  0.00     0.228 C 
ATOM      6  O   UNL A   1      31.793  23.388  27.353  1.00  0.00    -0.274 OA
ATOM      7  H   UNL A   1      30.961  25.519  27.388  1.00  0.00     0.163 HD
BRANCH   5   8
ATOM      8  C   UNL A   1      33.192  23.855  25.425  1.00  0.00     0.068 C 
ATOM      9  C   UNL A   1      32.743  22.784  24.401  1.00  0.00     0.040 C 
ATOM     10  C   UNL A   1      33.408  25.115  24.527  1.00  0.00     0.136 C 
ATOM     11  C   UNL A   1      33.382  23.222  23.094  1.00  0.00     0.121 C 
ATOM     12  N   UNL A   1      33.232  24.655  23.150  1.00  0.00    -0.337 N 
BRANCH   8  13
ATOM     13  C   UNL A   1      34.562  23.455  26.071  1.00  0.00     0.018 C 
BRANCH  13  14
ATOM     14  C   UNL A   1      35.852  24.210  25.682  1.00  0.00    -0.002 C 
ATOM     15  C   UNL A   1      36.801  23.518  24.723  1.00  0.00     0.004 C 
ENDBRANCH  13  14
ENDBRANCH   8  13
BRANCH  12  16
ATOM     16  C   UNL A   1      32.924  25.529  22.126  1.00  0.00     0.255 C 
ATOM     17  O   UNL A   1      33.217  25.316  20.953  1.00  0.00    -0.269 OA
BRANCH  16  18
ATOM     18  C   UNL A   1      32.166  26.759  22.434  1.00  0.00     0.061 A 
ATOM     19  C   UNL A   1      30.774  26.648  22.516  1.00  0.00     0.017 A 
ATOM     20  C   UNL A   1      32.746  28.023  22.576  1.00  0.00     0.050 A 
ATOM     21  C   UNL A   1      30.011  27.774  22.804  1.00  0.00     0.021 A 
ATOM     22  N   UNL A   1      32.008  29.121  22.902  1.00  0.00    -0.261 NA
ATOM     23  C   UNL A   1      34.210  28.284  22.396  1.00  0.00     0.067 C 
ATOM     24  C   UNL A   1      30.670  28.974  23.003  1.00  0.00     0.111 A 
ENDBRANCH  16  18
ENDBRANCH  12  16
ENDBRANCH   5   8
ENDBRANCH   3   4
ENDBRANCH   2   3
ENDBRANCH   1   2
BRANCH   1  25
ATOM     25  C   UNL A   1      32.566  30.193  26.070  1.00  0.00     0.116 C 
BRANCH  25  26
ATOM     26  N   UNL A   1      32.292  31.573  26.444  1.00  0.00    -0.352 N 
ATOM     27  C   UNL A   1      32.985  32.388  27.309  1.00  0.00     0.251 C 
ATOM     28  H   UNL A   1      31.503  31.979  26.018  1.00  0.00     0.163 HD
ATOM     29  O   UNL A   1      32.533  33.484  27.611  1.00  0.00    -0.269 OA
BRANCH  27  30
ATOM     30  C   UNL A   1      34.256  31.908  27.895  1.00  0.00     0.039 A 
ATOM     31  C   UNL A   1      35.320  32.802  28.022  1.00  0.00     0.014 A 
ATOM     32  C   UNL A   1      34.379  30.591  28.349  1.00  0.00     0.014 A 
ATOM     33  C   UNL A   1      36.486  32.396  28.675  1.00  0.00     0.010 A 
ATOM     34  C   UNL A   1      35.511  30.213  29.064  1.00  0.00     0.010 A 
ATOM     35  C   UNL A   1      36.574  31.111  29.238  1.00  0.00    -0.014 A 
BRANCH  35  36
ATOM     36  C   UNL A   1      37.769  30.691  30.016  1.00  0.00     0.031 A 
ATOM     37  C   UNL A   1      38.719  29.677  29.443  1.00  0.00     0.074 A 
ATOM     38  C   UNL A   1      37.957  31.171  31.261  1.00  0.00     0.049 A 
ATOM     39  N   UNL A   1      39.769  29.122  29.993  1.00  0.00    -0.248 NA
ATOM     40  C   UNL A   1      38.431  29.198  28.082  1.00  0.00     0.031 C 
ATOM     41  C   UNL A   1      37.079  32.127  31.939  1.00  0.00     0.029 A 
ATOM     42  N   UNL A   1      38.941  30.916  32.182  1.00  0.00    -0.354 N 
ATOM     43  C   UNL A   1      40.255  28.217  29.054  1.00  0.00     0.074 A 
ATOM     44  C   UNL A   1      39.350  28.258  27.926  1.00  0.00     0.031 C 
ATOM     45  C   UNL A   1      37.579  32.398  33.156  1.00  0.00     0.029 A 
ATOM     46  C   UNL A   1      38.784  31.602  33.365  1.00  0.00     0.049 A 
ATOM     47  H   UNL A   1      39.690  30.299  32.014  1.00  0.00     0.167 HD
ATOM     48  C   UNL A   1      41.366  27.442  29.121  1.00  0.00     0.034 A 
ATOM     49  C   UNL A   1      39.521  31.584  34.494  1.00  0.00     0.034 A 
ATOM     50  C   UNL A   1      42.267  27.429  30.248  1.00  0.00     0.049 A 
ATOM     51  C   UNL A   1      40.743  30.703  34.549  1.00  0.00     0.074 A 
ATOM     52  C   UNL A   1      43.455  26.733  30.394  1.00  0.00     0.029 A 
ATOM     53  N   UNL A   1      42.077  28.138  31.428  1.00  0.00    -0.354 N 
ATOM     54  N   UNL A   1      41.220  29.891  33.633  1.00  0.00    -0.248 NA
ATOM     55  C   UNL A   1      41.532  30.744  35.787  1.00  0.00     0.031 C 
ATOM     56  C   UNL A   1      43.945  26.966  31.683  1.00  0.00     0.029 A 
ATOM     57  C   UNL A   1      43.107  27.870  32.316  1.00  0.00     0.049 A 
ATOM     58  H   UNL A   1      41.321  28.743  31.607  1.00  0.00     0.167 HD
ATOM     59  C   UNL A   1      42.382  29.349  34.174  1.00  0.00     0.074 A 
ATOM     60  C   UNL A   1      42.539  29.937  35.490  1.00  0.00     0.031 C 
ATOM     61  C   UNL A   1      43.245  28.453  33.631  1.00  0.00     0.034 A 
BRANCH  48  62
ATOM     62  C   UNL A   1      41.647  26.528  27.952  1.00  0.00     0.023 A 
ATOM     63  C   UNL A   1      41.139  25.219  27.896  1.00  0.00     0.031 A 
ATOM     64  C   UNL A   1      42.458  26.964  26.888  1.00  0.00     0.131 A 
ATOM     65  C   UNL A   1      41.508  24.367  26.842  1.00  0.00     0.055 A 
ATOM     66  C   UNL A   1      42.753  26.139  25.801  1.00  0.00     0.041 A 
ATOM     67  F   UNL A   1      42.990  28.197  26.895  1.00  0.00    -0.206 F 
ATOM     68  C   UNL A   1      42.291  24.827  25.781  1.00  0.00     0.022 A 
BRANCH  65  69
ATOM     69  S   UNL A   1      41.068  22.611  26.954  1.00  0.00     0.124 S 
ATOM     70  O   UNL A   1      41.809  22.050  25.826  1.00  0.00    -0.237 OA
ATOM     71  O   UNL A   1      41.552  22.249  28.281  1.00  0.00    -0.237 OA
ATOM     72  O   UNL A   1      39.615  22.610  26.796  1.00  0.00    -0.744 OA
ENDBRANCH  65  69
ENDBRANCH  48  62
BRANCH  49  73
ATOM     73  C   UNL A   1      39.128  32.417  35.666  1.00  0.00     0.023 A 
ATOM     74  C   UNL A   1      39.611  33.728  35.814  1.00  0.00     0.031 A 
ATOM     75  C   UNL A   1      38.291  31.904  36.672  1.00  0.00     0.131 A 
ATOM     76  C   UNL A   1      39.289  34.465  36.963  1.00  0.00     0.055 A 
ATOM     77  C   UNL A   1      37.933  32.661  37.790  1.00  0.00     0.041 A 
ATOM     78  F   UNL A   1      37.798  30.659  36.577  1.00  0.00    -0.206 F 
ATOM     79  C   UNL A   1      38.442  33.947  37.945  1.00  0.00     0.022 A 
BRANCH  76  80
ATOM     80  S   UNL A   1      40.055  36.094  37.192  1.00  0.00     0.124 S 
ATOM     81  O   UNL A   1      39.837  36.710  35.889  1.00  0.00    -0.237 OA
ATOM     82  O   UNL A   1      39.278  36.641  38.300  1.00  0.00    -0.237 OA
ATOM     83  O   UNL A   1      41.446  35.774  37.508  1.00  0.00    -0.744 OA
ENDBRANCH  76  80
ENDBRANCH  49  73
BRANCH  61  84
ATOM     84  C   UNL A   1      44.460  28.090  34.449  1.00  0.00     0.023 A 
ATOM     85  C   UNL A   1      44.461  26.998  35.333  1.00  0.00     0.031 A 
ATOM     86  C   UNL A   1      45.634  28.858  34.345  1.00  0.00     0.131 A 
ATOM     87  C   UNL A   1      45.593  26.736  36.120  1.00  0.00     0.055 A 
ATOM     88  C   UNL A   1      46.778  28.557  35.086  1.00  0.00     0.041 A 
ATOM     89  F   UNL A   1      45.688  29.916  33.519  1.00  0.00    -0.206 F 
ATOM     90  C   UNL A   1      46.757  27.498  35.989  1.00  0.00     0.022 A 
BRANCH  87  91
ATOM     91  S   UNL A   1      45.494  25.441  37.386  1.00  0.00     0.124 S 
ATOM     92  O   UNL A   1      45.468  24.227  36.577  1.00  0.00    -0.237 OA
ATOM     93  O   UNL A   1      46.710  25.667  38.160  1.00  0.00    -0.237 OA
ATOM     94  O   UNL A   1      44.247  25.743  38.089  1.00  0.00    -0.744 OA
ENDBRANCH  87  91
ENDBRANCH  61  84
ENDBRANCH  35  36
ENDBRANCH  27  30
ENDBRANCH  25  26
ENDBRANCH   1  25
TORSDOF 18
ENDMDL
MODEL 3
REMARK VINA RESULT:     -11.2      3.291      8.808
REMARK SMILES CCC[C@]1(C(=O)NCCCCNC(=O)c2ccc(-c3c4nc(c(-c5cc(S(=O)(=O)[O-])ccc5F)c5ccc([nH]5)c(-c5cc(S(=O)(=O)[O-])ccc5F)c5nc(c(-c6cc(S(=O)(=O)[O-])ccc6F)c6ccc3[nH]6)C=C5)C=C4)cc2)CCN(C(=O)c2cccnc2C)C1
REMARK SMILES IDX 10 1 9 2 8 3 7 4 5 5 6 6 4 8 78 9 90 10 79 11 80 12 3 13
REMARK SMILES IDX 2 14 1 15 81 16 82 17 83 18 84 19 88 20 85 21 87 22 89 23
REMARK SMILES IDX 86 24 11 25 12 26 13 27 14 29 15 30 16 31 77 32 17 33 76 34
REMARK SMILES IDX 18 35 19 36 20 37 70 38 21 39 75 40 69 41 71 42 22 43 74 44
REMARK SMILES IDX 68 45 67 46 23 48 55 49 35 50 54 51 36 52 39 53 53 54 72 55
REMARK SMILES IDX 37 56 38 57 52 59 73 60 40 61 24 62 25 63 33 64 26 65 32 66
REMARK SMILES IDX 34 67 31 68 27 69 28 70 29 71 30 72 56 73 57 74 65 75 58 76
REMARK SMILES IDX 64 77 66 78 63 79 59 80 60 81 61 82 62 83 41 84 42 85 50 86
REMARK SMILES IDX 43 87 49 88 51 89 48 90 44 91 45 92 46 93 47 94
REMARK H PARENT 7 7 12 28 71 47 39 58
REMARK Flexibility Score: inf
ROOT
ATOM      1  C   UNL A   1      31.834  29.129  26.800  1.00  0.00     0.023 C 
ENDROOT
BRANCH   1   2
ATOM      2  C   UNL A   1      31.419  27.720  27.224  1.00  0.00     0.023 C 
BRANCH   2   3
ATOM      3  C   UNL A   1      31.998  26.601  26.364  1.00  0.00     0.116 C 
BRANCH   3   4
ATOM      4  N   UNL A   1      31.712  25.292  26.912  1.00  0.00    -0.356 N 
ATOM      5  C   UNL A   1      32.198  24.056  26.629  1.00  0.00     0.228 C 
ATOM      6  O   UNL A   1      31.835  23.167  27.406  1.00  0.00    -0.274 OA
ATOM      7  H   UNL A   1      31.034  25.299  27.626  1.00  0.00     0.163 HD
BRANCH   5   8
ATOM      8  C   UNL A   1      33.187  23.762  25.480  1.00  0.00     0.068 C 
ATOM      9  C   UNL A   1      32.646  22.889  24.321  1.00  0.00     0.040 C 
ATOM     10  C   UNL A   1      33.511  25.113  24.766  1.00  0.00     0.136 C 
ATOM     11  C   UNL A   1      33.321  23.451  23.081  1.00  0.00     0.121 C 
ATOM     12  N   UNL A   1      33.296  24.869  23.341  1.00  0.00    -0.337 N 
BRANCH   8  13
ATOM     13  C   UNL A   1      34.517  23.158  26.046  1.00  0.00     0.018 C 
BRANCH  13  14
ATOM     14  C   UNL A   1      35.864  23.865  25.780  1.00  0.00    -0.002 C 
ATOM     15  C   UNL A   1      36.744  23.293  24.683  1.00  0.00     0.004 C 
ENDBRANCH  13  14
ENDBRANCH   8  13
BRANCH  12  16
ATOM     16  C   UNL A   1      33.065  25.902  22.453  1.00  0.00     0.255 C 
ATOM     17  O   UNL A   1      33.624  25.987  21.363  1.00  0.00    -0.269 OA
BRANCH  16  18
ATOM     18  C   UNL A   1      32.068  26.936  22.798  1.00  0.00     0.061 A 
ATOM     19  C   UNL A   1      30.725  26.546  22.819  1.00  0.00     0.017 A 
ATOM     20  C   UNL A   1      32.378  28.279  23.031  1.00  0.00     0.050 A 
ATOM     21  C   UNL A   1      29.744  27.478  23.137  1.00  0.00     0.021 A 
ATOM     22  N   UNL A   1      31.427  29.186  23.387  1.00  0.00    -0.261 NA
ATOM     23  C   UNL A   1      33.764  28.836  22.923  1.00  0.00     0.067 C 
ATOM     24  C   UNL A   1      30.143  28.771  23.427  1.00  0.00     0.111 A 
ENDBRANCH  16  18
ENDBRANCH  12  16
ENDBRANCH   5   8
ENDBRANCH   3   4
ENDBRANCH   2   3
ENDBRANCH   1   2
BRANCH   1  25
ATOM     25  C   UNL A   1      33.260  29.523  27.164  1.00  0.00     0.116 C 
BRANCH  25  26
ATOM     26  N   UNL A   1      33.412  30.949  27.413  1.00  0.00    -0.352 N 
ATOM     27  C   UNL A   1      34.450  31.614  28.026  1.00  0.00     0.251 C 
ATOM     28  H   UNL A   1      32.671  31.516  27.099  1.00  0.00     0.163 HD
ATOM     29  O   UNL A   1      34.350  32.807  28.273  1.00  0.00    -0.269 OA
BRANCH  27  30
ATOM     30  C   UNL A   1      35.663  30.861  28.413  1.00  0.00     0.039 A 
ATOM     31  C   UNL A   1      36.869  31.151  27.773  1.00  0.00     0.014 A 
ATOM     32  C   UNL A   1      35.614  29.901  29.429  1.00  0.00     0.014 A 
ATOM     33  C   UNL A   1      38.044  30.531  28.205  1.00  0.00     0.010 A 
ATOM     34  C   UNL A   1      36.794  29.343  29.906  1.00  0.00     0.010 A 
ATOM     35  C   UNL A   1      38.022  29.654  29.302  1.00  0.00    -0.014 A 
BRANCH  35  36
ATOM     36  C   UNL A   1      39.274  29.054  29.834  1.00  0.00     0.031 A 
ATOM     37  C   UNL A   1      39.938  29.652  31.044  1.00  0.00     0.074 A 
ATOM     38  C   UNL A   1      39.845  28.019  29.187  1.00  0.00     0.049 A 
ATOM     39  N   UNL A   1      41.071  29.328  31.611  1.00  0.00    -0.248 NA
ATOM     40  C   UNL A   1      39.251  30.786  31.679  1.00  0.00     0.031 C 
ATOM     41  C   UNL A   1      39.316  27.383  27.979  1.00  0.00     0.029 A 
ATOM     42  N   UNL A   1      40.999  27.325  29.448  1.00  0.00    -0.354 N 
ATOM     43  C   UNL A   1      41.243  30.228  32.657  1.00  0.00     0.074 A 
ATOM     44  C   UNL A   1      40.125  31.146  32.607  1.00  0.00     0.031 C 
ATOM     45  C   UNL A   1      40.129  26.375  27.620  1.00  0.00     0.029 A 
ATOM     46  C   UNL A   1      41.259  26.322  28.542  1.00  0.00     0.049 A 
ATOM     47  H   UNL A   1      41.587  27.524  30.212  1.00  0.00     0.167 HD
ATOM     48  C   UNL A   1      42.230  30.271  33.586  1.00  0.00     0.034 A 
ATOM     49  C   UNL A   1      42.296  25.465  28.456  1.00  0.00     0.034 A 
ATOM     50  C   UNL A   1      43.327  29.335  33.632  1.00  0.00     0.049 A 
ATOM     51  C   UNL A   1      43.389  25.540  29.491  1.00  0.00     0.074 A 
ATOM     52  C   UNL A   1      44.346  29.245  34.565  1.00  0.00     0.029 A 
ATOM     53  N   UNL A   1      43.558  28.332  32.698  1.00  0.00    -0.354 N 
ATOM     54  N   UNL A   1      43.510  26.364  30.507  1.00  0.00    -0.248 NA
ATOM     55  C   UNL A   1      44.479  24.563  29.374  1.00  0.00     0.031 C 
ATOM     56  C   UNL A   1      45.226  28.235  34.159  1.00  0.00     0.029 A 
ATOM     57  C   UNL A   1      44.717  27.640  33.016  1.00  0.00     0.049 A 
ATOM     58  H   UNL A   1      42.981  28.139  31.924  1.00  0.00     0.167 HD
ATOM     59  C   UNL A   1      44.675  25.983  31.167  1.00  0.00     0.074 A 
ATOM     60  C   UNL A   1      45.210  24.848  30.442  1.00  0.00     0.031 C 
ATOM     61  C   UNL A   1      45.246  26.518  32.276  1.00  0.00     0.034 A 
BRANCH  48  62
ATOM     62  C   UNL A   1      42.176  31.381  34.608  1.00  0.00     0.023 A 
ATOM     63  C   UNL A   1      41.195  31.414  35.616  1.00  0.00     0.031 A 
ATOM     64  C   UNL A   1      43.103  32.438  34.560  1.00  0.00     0.131 A 
ATOM     65  C   UNL A   1      41.117  32.515  36.483  1.00  0.00     0.055 A 
ATOM     66  C   UNL A   1      43.071  33.489  35.478  1.00  0.00     0.041 A 
ATOM     67  F   UNL A   1      44.051  32.473  33.609  1.00  0.00    -0.206 F 
ATOM     68  C   UNL A   1      42.064  33.541  36.437  1.00  0.00     0.022 A 
BRANCH  65  69
ATOM     69  S   UNL A   1      39.674  32.657  37.572  1.00  0.00     0.124 S 
ATOM     70  O   UNL A   1      39.150  33.969  37.198  1.00  0.00    -0.237 OA
ATOM     71  O   UNL A   1      38.866  31.509  37.177  1.00  0.00    -0.237 OA
ATOM     72  O   UNL A   1      40.249  32.584  38.914  1.00  0.00    -0.744 OA
ENDBRANCH  65  69
ENDBRANCH  48  62
BRANCH  49  73
ATOM     73  C   UNL A   1      42.359  24.465  27.351  1.00  0.00     0.023 A 
ATOM     74  C   UNL A   1      41.587  23.293  27.394  1.00  0.00     0.031 A 
ATOM     75  C   UNL A   1      43.218  24.650  26.254  1.00  0.00     0.131 A 
ATOM     76  C   UNL A   1      41.721  22.330  26.382  1.00  0.00     0.055 A 
ATOM     77  C   UNL A   1      43.309  23.712  25.223  1.00  0.00     0.041 A 
ATOM     78  F   UNL A   1      43.974  25.756  26.161  1.00  0.00    -0.206 F 
ATOM     79  C   UNL A   1      42.566  22.538  25.290  1.00  0.00     0.022 A 
BRANCH  76  80
ATOM     80  S   UNL A   1      40.824  20.763  26.551  1.00  0.00     0.124 S 
ATOM     81  O   UNL A   1      39.519  21.106  26.000  1.00  0.00    -0.237 OA
ATOM     82  O   UNL A   1      41.642  19.858  25.750  1.00  0.00    -0.237 OA
ATOM     83  O   UNL A   1      40.848  20.510  27.991  1.00  0.00    -0.744 OA
ENDBRANCH  76  80
ENDBRANCH  49  73
BRANCH  61  84
ATOM     84  C   UNL A   1      46.495  25.848  32.794  1.00  0.00     0.023 A 
ATOM     85  C   UNL A   1      47.765  26.129  32.262  1.00  0.00     0.031 A 
ATOM     86  C   UNL A   1      46.408  24.903  33.833  1.00  0.00     0.131 A 
ATOM     87  C   UNL A   1      48.890  25.435  32.732  1.00  0.00     0.055 A 
ATOM     88  C   UNL A   1      47.538  24.259  34.339  1.00  0.00     0.041 A 
ATOM     89  F   UNL A   1      45.220  24.592  34.377  1.00  0.00    -0.206 F 
ATOM     90  C   UNL A   1      48.787  24.515  33.779  1.00  0.00     0.022 A 
BRANCH  87  91
ATOM     91  S   UNL A   1      50.479  25.682  31.894  1.00  0.00     0.124 S 
ATOM     92  O   UNL A   1      50.969  26.902  32.527  1.00  0.00    -0.237 OA
ATOM     93  O   UNL A   1      51.200  24.458  32.225  1.00  0.00    -0.237 OA
ATOM     94  O   UNL A   1      50.107  25.821  30.486  1.00  0.00    -0.744 OA
ENDBRANCH  87  91
ENDBRANCH  61  84
ENDBRANCH  35  36
ENDBRANCH  27  30
ENDBRANCH  25  26
ENDBRANCH   1  25
TORSDOF 18
ENDMDL
