MODEL 1
REMARK VINA RESULT:     -14.5      0.000      0.000
REMARK SMILES Cc1c(CC(=O)N[C@H](CO)C(=O)NCCCCNC(=O)c2ccc(-c3c4nc(c(-c5cc(S(=O)(=O)[O-])ccc5F)c5ccc([nH]5)c(-c5cc(S(=O)(=O)[O-])ccc5F)c5nc(c(-c6cc(S(=O)(=O)[O-])ccc6F)c6ccc3[nH]6)C=C5)C=C4)cc2)cc(-c2ccc(S(C)(=O)=O)cc2)n1-c1ccc(F)cc1
REMARK SMILES IDX 14 1 13 2 11 3 12 4 8 6 7 7 5 8 6 9 4 11 3 12 1 13 2 14
REMARK SMILES IDX 96 15 84 16 85 17 97 18 98 19 103 20 99 21 102 22 100 23
REMARK SMILES IDX 101 24 86 25 87 26 95 27 88 28 94 29 89 30 90 31 91 32 92 33
REMARK SMILES IDX 93 34 9 35 10 36 15 38 16 39 17 40 18 41 19 42 20 44 21 45
REMARK SMILES IDX 22 46 83 47 23 48 82 49 24 50 25 51 26 52 76 53 27 54 81 55
REMARK SMILES IDX 75 56 77 57 28 58 80 59 74 60 73 61 29 63 61 64 41 65 60 66
REMARK SMILES IDX 42 67 45 68 59 69 78 70 43 71 44 72 58 74 79 75 46 76 30 77
REMARK SMILES IDX 31 78 39 79 32 80 38 81 40 82 37 83 33 84 34 85 35 86 36 87
REMARK SMILES IDX 62 88 63 89 71 90 64 91 70 92 72 93 69 94 65 95 66 96 67 97
REMARK SMILES IDX 68 98 47 99 48 100 56 101 49 102 55 103 57 104 54 105 50 106
REMARK SMILES IDX 51 107 52 108 53 109
REMARK H PARENT 13 5 7 10 10 37 18 43 77 62 45 73
REMARK Flexibility Score: inf
ROOT
ATOM      1  C   UNL A   1      35.395  21.177  24.929  1.00  0.00     0.116 C 
ENDROOT
BRANCH   1   2
ATOM      2  N   UNL A   1      35.323  19.726  24.992  1.00  0.00    -0.354 N 
ATOM      3  C   UNL A   1      34.383  18.834  24.573  1.00  0.00     0.244 C 
ATOM      4  O   UNL A   1      34.544  17.652  24.889  1.00  0.00    -0.273 OA
ATOM      5  H   UNL A   1      36.105  19.307  25.420  1.00  0.00     0.163 HD
BRANCH   3   6
ATOM      6  C   UNL A   1      33.111  19.283  23.842  1.00  0.00     0.197 C 
BRANCH   6   7
ATOM      7  N   UNL A   1      32.215  20.023  24.743  1.00  0.00    -0.342 N 
ATOM      8  C   UNL A   1      31.875  21.342  24.757  1.00  0.00     0.225 C 
ATOM      9  O   UNL A   1      31.120  21.715  25.659  1.00  0.00    -0.275 OA
ATOM     10  H   UNL A   1      31.794  19.478  25.447  1.00  0.00     0.164 HD
BRANCH   8  11
ATOM     11  C   UNL A   1      32.338  22.317  23.681  1.00  0.00     0.137 C 
BRANCH  11  12
ATOM     12  C   UNL A   1      32.035  23.747  23.995  1.00  0.00    -0.017 A 
ATOM     13  C   UNL A   1      33.747  24.143  25.885  1.00  0.00     0.065 C 
ATOM     14  C   UNL A   1      32.686  24.557  24.915  1.00  0.00     0.024 A 
ATOM     15  N   UNL A   1      32.131  25.830  24.842  1.00  0.00    -0.314 N 
ATOM     16  C   UNL A   1      31.010  24.531  23.405  1.00  0.00     0.033 A 
ATOM     17  C   UNL A   1      31.111  25.824  23.887  1.00  0.00     0.053 A 
BRANCH  15  18
ATOM     18  C   UNL A   1      32.507  26.946  25.633  1.00  0.00     0.046 A 
ATOM     19  C   UNL A   1      33.712  27.607  25.358  1.00  0.00     0.029 A 
ATOM     20  C   UNL A   1      31.692  27.353  26.698  1.00  0.00     0.029 A 
ATOM     21  C   UNL A   1      34.095  28.689  26.147  1.00  0.00     0.041 A 
ATOM     22  C   UNL A   1      32.093  28.428  27.491  1.00  0.00     0.041 A 
ATOM     23  C   UNL A   1      33.285  29.087  27.206  1.00  0.00     0.123 A 
ATOM     24  F   UNL A   1      33.665  30.122  27.967  1.00  0.00    -0.207 F 
ENDBRANCH  15  18
BRANCH  17  25
ATOM     25  C   UNL A   1      30.368  27.009  23.434  1.00  0.00    -0.001 A 
ATOM     26  C   UNL A   1      31.026  28.083  22.812  1.00  0.00     0.011 A 
ATOM     27  C   UNL A   1      28.981  27.078  23.618  1.00  0.00     0.011 A 
ATOM     28  C   UNL A   1      30.322  29.231  22.435  1.00  0.00     0.021 A 
ATOM     29  C   UNL A   1      28.269  28.221  23.242  1.00  0.00     0.021 A 
ATOM     30  C   UNL A   1      28.948  29.300  22.671  1.00  0.00     0.067 A 
BRANCH  30  31
ATOM     31  S   UNL A   1      28.049  30.761  22.210  1.00  0.00     0.175 S 
ATOM     32  C   UNL A   1      29.209  32.084  22.437  1.00  0.00     0.163 C 
ATOM     33  O   UNL A   1      27.759  30.651  20.785  1.00  0.00    -0.224 OA
ATOM     34  O   UNL A   1      26.986  30.950  23.167  1.00  0.00    -0.224 OA
ENDBRANCH  30  31
ENDBRANCH  17  25
ENDBRANCH  11  12
ENDBRANCH   8  11
ENDBRANCH   6   7
BRANCH   6  35
ATOM     35  C   UNL A   1      32.470  18.059  23.171  1.00  0.00     0.191 C 
BRANCH  35  36
ATOM     36  O   UNL A   1      32.257  18.240  21.773  1.00  0.00    -0.394 OA
ATOM     37  H   UNL A   1      33.045  18.645  21.376  1.00  0.00     0.210 HD
ENDBRANCH  35  36
ENDBRANCH   6  35
ENDBRANCH   3   6
ENDBRANCH   1   2
BRANCH   1  38
ATOM     38  C   UNL A   1      36.779  21.673  24.508  1.00  0.00     0.023 C 
BRANCH  38  39
ATOM     39  C   UNL A   1      37.978  21.213  25.361  1.00  0.00     0.023 C 
BRANCH  39  40
ATOM     40  C   UNL A   1      38.813  22.268  26.118  1.00  0.00     0.116 C 
BRANCH  40  41
ATOM     41  N   UNL A   1      40.223  22.277  25.821  1.00  0.00    -0.352 N 
ATOM     42  C   UNL A   1      41.202  23.114  26.348  1.00  0.00     0.251 C 
ATOM     43  H   UNL A   1      40.531  21.608  25.167  1.00  0.00     0.163 HD
ATOM     44  O   UNL A   1      42.342  22.969  25.911  1.00  0.00    -0.269 OA
BRANCH  42  45
ATOM     45  C   UNL A   1      40.889  24.236  27.331  1.00  0.00     0.039 A 
ATOM     46  C   UNL A   1      39.596  24.729  27.380  1.00  0.00     0.014 A 
ATOM     47  C   UNL A   1      41.840  24.995  28.044  1.00  0.00     0.014 A 
ATOM     48  C   UNL A   1      39.262  25.879  28.183  1.00  0.00     0.010 A 
ATOM     49  C   UNL A   1      41.504  26.229  28.794  1.00  0.00     0.010 A 
ATOM     50  C   UNL A   1      40.188  26.736  28.907  1.00  0.00    -0.014 A 
BRANCH  50  51
ATOM     51  C   UNL A   1      39.669  28.324  29.182  1.00  0.00     0.031 A 
ATOM     52  C   UNL A   1      41.006  28.980  29.303  1.00  0.00     0.074 A 
ATOM     53  C   UNL A   1      38.587  29.188  29.502  1.00  0.00     0.049 A 
ATOM     54  N   UNL A   1      41.820  28.509  30.210  1.00  0.00    -0.248 NA
ATOM     55  C   UNL A   1      41.665  29.742  28.242  1.00  0.00     0.031 C 
ATOM     56  C   UNL A   1      37.211  28.821  29.899  1.00  0.00     0.029 A 
ATOM     57  N   UNL A   1      38.433  30.641  29.582  1.00  0.00    -0.354 N 
ATOM     58  C   UNL A   1      43.016  29.154  30.048  1.00  0.00     0.074 A 
ATOM     59  C   UNL A   1      42.928  29.695  28.693  1.00  0.00     0.031 C 
ATOM     60  C   UNL A   1      36.371  29.904  29.991  1.00  0.00     0.029 A 
ATOM     61  C   UNL A   1      37.060  31.174  29.719  1.00  0.00     0.049 A 
ATOM     62  H   UNL A   1      39.213  31.241  29.547  1.00  0.00     0.167 HD
ATOM     63  C   UNL A   1      43.445  29.790  31.178  1.00  0.00     0.034 A 
ATOM     64  C   UNL A   1      36.530  32.495  29.721  1.00  0.00     0.034 A 
ATOM     65  C   UNL A   1      42.999  31.159  31.193  1.00  0.00     0.049 A 
ATOM     66  C   UNL A   1      37.586  33.312  30.305  1.00  0.00     0.074 A 
ATOM     67  C   UNL A   1      43.006  32.143  30.222  1.00  0.00     0.029 A 
ATOM     68  N   UNL A   1      42.020  31.501  32.099  1.00  0.00    -0.354 N 
ATOM     69  N   UNL A   1      37.826  33.315  31.577  1.00  0.00    -0.248 NA
ATOM     70  C   UNL A   1      38.420  34.172  29.482  1.00  0.00     0.031 C 
ATOM     71  C   UNL A   1      41.722  32.717  30.298  1.00  0.00     0.029 A 
ATOM     72  C   UNL A   1      41.198  32.470  31.559  1.00  0.00     0.049 A 
ATOM     73  H   UNL A   1      41.920  31.113  32.999  1.00  0.00     0.167 HD
ATOM     74  C   UNL A   1      39.137  33.676  31.610  1.00  0.00     0.074 A 
ATOM     75  C   UNL A   1      39.363  34.431  30.387  1.00  0.00     0.031 C 
ATOM     76  C   UNL A   1      39.980  32.829  32.254  1.00  0.00     0.034 A 
BRANCH  63  77
ATOM     77  C   UNL A   1      43.485  28.877  32.381  1.00  0.00     0.023 A 
ATOM     78  C   UNL A   1      42.941  29.340  33.584  1.00  0.00     0.031 A 
ATOM     79  C   UNL A   1      44.187  27.649  32.410  1.00  0.00     0.131 A 
ATOM     80  C   UNL A   1      43.166  28.628  34.774  1.00  0.00     0.055 A 
ATOM     81  C   UNL A   1      44.457  26.976  33.601  1.00  0.00     0.041 A 
ATOM     82  F   UNL A   1      44.637  27.083  31.277  1.00  0.00    -0.206 F 
ATOM     83  C   UNL A   1      43.952  27.471  34.797  1.00  0.00     0.022 A 
BRANCH  80  84
ATOM     84  S   UNL A   1      42.401  29.234  36.300  1.00  0.00     0.124 S 
ATOM     85  O   UNL A   1      43.477  29.079  37.273  1.00  0.00    -0.237 OA
ATOM     86  O   UNL A   1      42.063  30.612  35.951  1.00  0.00    -0.237 OA
ATOM     87  O   UNL A   1      41.255  28.348  36.492  1.00  0.00    -0.744 OA
ENDBRANCH  80  84
ENDBRANCH  63  77
BRANCH  64  88
ATOM     88  C   UNL A   1      35.243  33.451  29.564  1.00  0.00     0.023 A 
ATOM     89  C   UNL A   1      34.534  34.080  30.695  1.00  0.00     0.031 A 
ATOM     90  C   UNL A   1      34.973  34.078  28.339  1.00  0.00     0.131 A 
ATOM     91  C   UNL A   1      33.692  35.243  30.562  1.00  0.00     0.055 A 
ATOM     92  C   UNL A   1      34.142  35.229  28.218  1.00  0.00     0.041 A 
ATOM     93  F   UNL A   1      35.589  33.663  27.224  1.00  0.00    -0.206 F 
ATOM     94  C   UNL A   1      33.520  35.824  29.315  1.00  0.00     0.022 A 
BRANCH  91  95
ATOM     95  S   UNL A   1      32.934  36.163  31.999  1.00  0.00     0.124 S 
ATOM     96  O   UNL A   1      33.971  36.096  33.022  1.00  0.00    -0.237 OA
ATOM     97  O   UNL A   1      32.652  37.481  31.439  1.00  0.00    -0.237 OA
ATOM     98  O   UNL A   1      31.731  35.384  32.314  1.00  0.00    -0.744 OA
ENDBRANCH  91  95
ENDBRANCH  64  88
BRANCH  76  99
ATOM     99  C   UNL A   1      39.534  32.244  33.588  1.00  0.00     0.023 A 
ATOM    100  C   UNL A   1      39.518  32.895  34.848  1.00  0.00     0.031 A 
ATOM    101  C   UNL A   1      39.140  30.895  33.575  1.00  0.00     0.131 A 
ATOM    102  C   UNL A   1      39.124  32.198  36.013  1.00  0.00     0.055 A 
ATOM    103  C   UNL A   1      38.707  30.221  34.715  1.00  0.00     0.041 A 
ATOM    104  F   UNL A   1      39.168  30.193  32.429  1.00  0.00    -0.206 F 
ATOM    105  C   UNL A   1      38.708  30.868  35.943  1.00  0.00     0.022 A 
BRANCH 102 106
ATOM    106  S   UNL A   1      39.223  32.986  37.659  1.00  0.00     0.124 S 
ATOM    107  O   UNL A   1      39.394  34.399  37.349  1.00  0.00    -0.237 OA
ATOM    108  O   UNL A   1      37.948  32.614  38.265  1.00  0.00    -0.237 OA
ATOM    109  O   UNL A   1      40.395  32.353  38.268  1.00  0.00    -0.744 OA
ENDBRANCH 102 106
ENDBRANCH  76  99
ENDBRANCH  50  51
ENDBRANCH  42  45
ENDBRANCH  40  41
ENDBRANCH  39  40
ENDBRANCH  38  39
ENDBRANCH   1  38
TORSDOF 22
ENDMDL
MODEL 2
REMARK VINA RESULT:     -13.2      1.617      2.284
REMARK SMILES Cc1c(CC(=O)N[C@H](CO)C(=O)NCCCCNC(=O)c2ccc(-c3c4nc(c(-c5cc(S(=O)(=O)[O-])ccc5F)c5ccc([nH]5)c(-c5cc(S(=O)(=O)[O-])ccc5F)c5nc(c(-c6cc(S(=O)(=O)[O-])ccc6F)c6ccc3[nH]6)C=C5)C=C4)cc2)cc(-c2ccc(S(C)(=O)=O)cc2)n1-c1ccc(F)cc1
REMARK SMILES IDX 14 1 13 2 11 3 12 4 8 6 7 7 5 8 6 9 4 11 3 12 1 13 2 14
REMARK SMILES IDX 96 15 84 16 85 17 97 18 98 19 103 20 99 21 102 22 100 23
REMARK SMILES IDX 101 24 86 25 87 26 95 27 88 28 94 29 89 30 90 31 91 32 92 33
REMARK SMILES IDX 93 34 9 35 10 36 15 38 16 39 17 40 18 41 19 42 20 44 21 45
REMARK SMILES IDX 22 46 83 47 23 48 82 49 24 50 25 51 26 52 76 53 27 54 81 55
REMARK SMILES IDX 75 56 77 57 28 58 80 59 74 60 73 61 29 63 61 64 41 65 60 66
REMARK SMILES IDX 42 67 45 68 59 69 78 70 43 71 44 72 58 74 79 75 46 76 30 77
REMARK SMILES IDX 31 78 39 79 32 80 38 81 40 82 37 83 33 84 34 85 35 86 36 87
REMARK SMILES IDX 62 88 63 89 71 90 64 91 70 92 72 93 69 94 65 95 66 96 67 97
REMARK SMILES IDX 68 98 47 99 48 100 56 101 49 102 55 103 57 104 54 105 50 106
REMARK SMILES IDX 51 107 52 108 53 109
REMARK H PARENT 13 5 7 10 10 37 18 43 77 62 45 73
REMARK Flexibility Score: inf
ROOT
ATOM      1  C   UNL A   1      35.588  20.977  25.053  1.00  0.00     0.116 C 
ENDROOT
BRANCH   1   2
ATOM      2  N   UNL A   1      35.458  19.528  25.056  1.00  0.00    -0.354 N 
ATOM      3  C   UNL A   1      34.503  18.691  24.563  1.00  0.00     0.244 C 
ATOM      4  O   UNL A   1      34.605  17.493  24.838  1.00  0.00    -0.273 OA
ATOM      5  H   UNL A   1      36.204  19.063  25.499  1.00  0.00     0.163 HD
BRANCH   3   6
ATOM      6  C   UNL A   1      33.281  19.218  23.798  1.00  0.00     0.197 C 
BRANCH   6   7
ATOM      7  N   UNL A   1      32.365  19.937  24.694  1.00  0.00    -0.342 N 
ATOM      8  C   UNL A   1      32.028  21.257  24.734  1.00  0.00     0.225 C 
ATOM      9  O   UNL A   1      31.250  21.609  25.626  1.00  0.00    -0.275 OA
ATOM     10  H   UNL A   1      31.925  19.376  25.373  1.00  0.00     0.164 HD
BRANCH   8  11
ATOM     11  C   UNL A   1      32.520  22.258  23.695  1.00  0.00     0.137 C 
BRANCH  11  12
ATOM     12  C   UNL A   1      32.197  23.678  24.029  1.00  0.00    -0.017 A 
ATOM     13  C   UNL A   1      33.926  24.083  25.902  1.00  0.00     0.065 C 
ATOM     14  C   UNL A   1      32.846  24.490  24.950  1.00  0.00     0.024 A 
ATOM     15  N   UNL A   1      32.269  25.754  24.898  1.00  0.00    -0.314 N 
ATOM     16  C   UNL A   1      31.151  24.452  23.462  1.00  0.00     0.033 A 
ATOM     17  C   UNL A   1      31.236  25.740  23.957  1.00  0.00     0.053 A 
BRANCH  15  18
ATOM     18  C   UNL A   1      32.636  26.867  25.697  1.00  0.00     0.046 A 
ATOM     19  C   UNL A   1      31.846  27.208  26.803  1.00  0.00     0.029 A 
ATOM     20  C   UNL A   1      33.758  27.632  25.354  1.00  0.00     0.029 A 
ATOM     21  C   UNL A   1      32.191  28.314  27.576  1.00  0.00     0.041 A 
ATOM     22  C   UNL A   1      34.086  28.746  26.126  1.00  0.00     0.041 A 
ATOM     23  C   UNL A   1      33.304  29.074  27.229  1.00  0.00     0.123 A 
ATOM     24  F   UNL A   1      33.623  30.142  27.972  1.00  0.00    -0.207 F 
ENDBRANCH  15  18
BRANCH  17  25
ATOM     25  C   UNL A   1      30.467  26.917  23.527  1.00  0.00    -0.001 A 
ATOM     26  C   UNL A   1      29.085  27.008  23.767  1.00  0.00     0.011 A 
ATOM     27  C   UNL A   1      31.110  27.972  22.868  1.00  0.00     0.011 A 
ATOM     28  C   UNL A   1      28.350  28.104  23.305  1.00  0.00     0.021 A 
ATOM     29  C   UNL A   1      30.384  29.072  22.405  1.00  0.00     0.021 A 
ATOM     30  C   UNL A   1      29.002  29.121  22.609  1.00  0.00     0.067 A 
BRANCH  30  31
ATOM     31  S   UNL A   1      28.072  30.509  22.003  1.00  0.00     0.175 S 
ATOM     32  C   UNL A   1      29.162  31.894  22.206  1.00  0.00     0.163 C 
ATOM     33  O   UNL A   1      27.871  30.296  20.574  1.00  0.00    -0.224 OA
ATOM     34  O   UNL A   1      26.948  30.711  22.884  1.00  0.00    -0.224 OA
ENDBRANCH  30  31
ENDBRANCH  17  25
ENDBRANCH  11  12
ENDBRANCH   8  11
ENDBRANCH   6   7
BRANCH   6  35
ATOM     35  C   UNL A   1      32.639  18.053  23.032  1.00  0.00     0.191 C 
BRANCH  35  36
ATOM     36  O   UNL A   1      31.922  18.476  21.876  1.00  0.00    -0.394 OA
ATOM     37  H   UNL A   1      31.950  19.444  21.814  1.00  0.00     0.210 HD
ENDBRANCH  35  36
ENDBRANCH   6  35
ENDBRANCH   3   6
ENDBRANCH   1   2
BRANCH   1  38
ATOM     38  C   UNL A   1      37.013  21.432  24.733  1.00  0.00     0.023 C 
BRANCH  38  39
ATOM     39  C   UNL A   1      38.117  21.035  25.732  1.00  0.00     0.023 C 
BRANCH  39  40
ATOM     40  C   UNL A   1      39.348  21.952  25.899  1.00  0.00     0.116 C 
BRANCH  40  41
ATOM     41  N   UNL A   1      40.627  21.288  25.877  1.00  0.00    -0.352 N 
ATOM     42  C   UNL A   1      41.865  21.806  26.244  1.00  0.00     0.251 C 
ATOM     43  H   UNL A   1      40.622  20.354  25.566  1.00  0.00     0.163 HD
ATOM     44  O   UNL A   1      42.835  21.065  26.100  1.00  0.00    -0.269 OA
BRANCH  42  45
ATOM     45  C   UNL A   1      42.056  23.249  26.697  1.00  0.00     0.039 A 
ATOM     46  C   UNL A   1      41.691  23.588  27.990  1.00  0.00     0.014 A 
ATOM     47  C   UNL A   1      42.355  24.342  25.860  1.00  0.00     0.014 A 
ATOM     48  C   UNL A   1      41.714  24.958  28.439  1.00  0.00     0.010 A 
ATOM     49  C   UNL A   1      42.289  25.756  26.304  1.00  0.00     0.010 A 
ATOM     50  C   UNL A   1      41.968  26.138  27.628  1.00  0.00    -0.014 A 
BRANCH  50  51
ATOM     51  C   UNL A   1      41.294  27.585  28.193  1.00  0.00     0.031 A 
ATOM     52  C   UNL A   1      42.510  28.450  28.104  1.00  0.00     0.074 A 
ATOM     53  C   UNL A   1      40.197  28.221  28.835  1.00  0.00     0.049 A 
ATOM     54  N   UNL A   1      43.570  28.054  28.755  1.00  0.00    -0.248 NA
ATOM     55  C   UNL A   1      42.787  29.398  27.025  1.00  0.00     0.031 C 
ATOM     56  C   UNL A   1      39.019  27.591  29.469  1.00  0.00     0.029 A 
ATOM     57  N   UNL A   1      39.849  29.614  29.118  1.00  0.00    -0.354 N 
ATOM     58  C   UNL A   1      44.587  28.906  28.420  1.00  0.00     0.074 A 
ATOM     59  C   UNL A   1      44.112  29.534  27.188  1.00  0.00     0.031 C 
ATOM     60  C   UNL A   1      38.070  28.502  29.865  1.00  0.00     0.029 A 
ATOM     61  C   UNL A   1      38.480  29.889  29.606  1.00  0.00     0.049 A 
ATOM     62  H   UNL A   1      40.502  30.341  28.989  1.00  0.00     0.167 HD
ATOM     63  C   UNL A   1      45.164  29.511  29.501  1.00  0.00     0.034 A 
ATOM     64  C   UNL A   1      37.774  31.095  29.877  1.00  0.00     0.034 A 
ATOM     65  C   UNL A   1      44.533  30.778  29.772  1.00  0.00     0.049 A 
ATOM     66  C   UNL A   1      38.801  32.031  30.316  1.00  0.00     0.074 A 
ATOM     67  C   UNL A   1      44.170  31.824  28.945  1.00  0.00     0.029 A 
ATOM     68  N   UNL A   1      43.747  30.869  30.899  1.00  0.00    -0.354 N 
ATOM     69  N   UNL A   1      39.323  31.971  31.499  1.00  0.00    -0.248 NA
ATOM     70  C   UNL A   1      39.286  33.087  29.442  1.00  0.00     0.031 C 
ATOM     71  C   UNL A   1      42.867  32.160  29.360  1.00  0.00     0.029 A 
ATOM     72  C   UNL A   1      42.688  31.723  30.664  1.00  0.00     0.049 A 
ATOM     73  H   UNL A   1      43.916  30.398  31.747  1.00  0.00     0.167 HD
ATOM     74  C   UNL A   1      40.537  32.548  31.295  1.00  0.00     0.074 A 
ATOM     75  C   UNL A   1      40.361  33.429  30.150  1.00  0.00     0.031 C 
ATOM     76  C   UNL A   1      41.622  31.809  31.640  1.00  0.00     0.034 A 
BRANCH  63  77
ATOM     77  C   UNL A   1      45.614  28.524  30.550  1.00  0.00     0.023 A 
ATOM     78  C   UNL A   1      45.260  28.763  31.882  1.00  0.00     0.031 A 
ATOM     79  C   UNL A   1      46.512  27.461  30.293  1.00  0.00     0.131 A 
ATOM     80  C   UNL A   1      45.850  28.009  32.910  1.00  0.00     0.055 A 
ATOM     81  C   UNL A   1      47.139  26.753  31.319  1.00  0.00     0.041 A 
ATOM     82  F   UNL A   1      46.809  27.097  29.034  1.00  0.00    -0.206 F 
ATOM     83  C   UNL A   1      46.815  27.033  32.641  1.00  0.00     0.022 A 
BRANCH  80  84
ATOM     84  S   UNL A   1      45.325  28.316  34.617  1.00  0.00     0.124 S 
ATOM     85  O   UNL A   1      44.130  27.487  34.732  1.00  0.00    -0.237 OA
ATOM     86  O   UNL A   1      46.482  27.861  35.384  1.00  0.00    -0.237 OA
ATOM     87  O   UNL A   1      45.088  29.758  34.655  1.00  0.00    -0.744 OA
ENDBRANCH  80  84
ENDBRANCH  63  77
BRANCH  64  88
ATOM     88  C   UNL A   1      36.356  31.825  30.111  1.00  0.00     0.023 A 
ATOM     89  C   UNL A   1      35.803  32.154  31.439  1.00  0.00     0.031 A 
ATOM     90  C   UNL A   1      35.761  32.561  29.077  1.00  0.00     0.131 A 
ATOM     91  C   UNL A   1      34.792  33.160  31.654  1.00  0.00     0.055 A 
ATOM     92  C   UNL A   1      34.765  33.555  29.301  1.00  0.00     0.041 A 
ATOM     93  F   UNL A   1      36.197  32.421  27.818  1.00  0.00    -0.206 F 
ATOM     94  C   UNL A   1      34.294  33.872  30.574  1.00  0.00     0.022 A 
BRANCH  91  95
ATOM     95  S   UNL A   1      34.209  33.722  33.338  1.00  0.00     0.124 S 
ATOM     96  O   UNL A   1      34.329  35.173  33.263  1.00  0.00    -0.237 OA
ATOM     97  O   UNL A   1      32.857  33.180  33.418  1.00  0.00    -0.237 OA
ATOM     98  O   UNL A   1      35.157  33.089  34.262  1.00  0.00    -0.744 OA
ENDBRANCH  91  95
ENDBRANCH  64  88
BRANCH  76  99
ATOM     99  C   UNL A   1      41.585  31.049  32.960  1.00  0.00     0.023 A 
ATOM    100  C   UNL A   1      41.984  31.524  34.236  1.00  0.00     0.031 A 
ATOM    101  C   UNL A   1      41.155  29.712  32.895  1.00  0.00     0.131 A 
ATOM    102  C   UNL A   1      41.941  30.675  35.365  1.00  0.00     0.055 A 
ATOM    103  C   UNL A   1      41.069  28.890  34.017  1.00  0.00     0.041 A 
ATOM    104  F   UNL A   1      40.802  29.171  31.717  1.00  0.00    -0.206 F 
ATOM    105  C   UNL A   1      41.472  29.365  35.256  1.00  0.00     0.022 A 
BRANCH 102 106
ATOM    106  S   UNL A   1      42.571  31.234  36.986  1.00  0.00     0.124 S 
ATOM    107  O   UNL A   1      41.374  31.703  37.672  1.00  0.00    -0.237 OA
ATOM    108  O   UNL A   1      43.182  30.022  37.524  1.00  0.00    -0.237 OA
ATOM    109  O   UNL A   1      43.521  32.292  36.634  1.00  0.00    -0.744 OA
ENDBRANCH 102 106
ENDBRANCH  76  99
ENDBRANCH  50  51
ENDBRANCH  42  45
ENDBRANCH  40  41
ENDBRANCH  39  40
ENDBRANCH  38  39
ENDBRANCH   1  38
TORSDOF 22
ENDMDL
MODEL 3
REMARK VINA RESULT:     -12.3      2.402      3.069
REMARK SMILES Cc1c(CC(=O)N[C@H](CO)C(=O)NCCCCNC(=O)c2ccc(-c3c4nc(c(-c5cc(S(=O)(=O)[O-])ccc5F)c5ccc([nH]5)c(-c5cc(S(=O)(=O)[O-])ccc5F)c5nc(c(-c6cc(S(=O)(=O)[O-])ccc6F)c6ccc3[nH]6)C=C5)C=C4)cc2)cc(-c2ccc(S(C)(=O)=O)cc2)n1-c1ccc(F)cc1
REMARK SMILES IDX 14 1 13 2 11 3 12 4 8 6 7 7 5 8 6 9 4 11 3 12 1 13 2 14
REMARK SMILES IDX 96 15 84 16 85 17 97 18 98 19 103 20 99 21 102 22 100 23
REMARK SMILES IDX 101 24 86 25 87 26 95 27 88 28 94 29 89 30 90 31 91 32 92 33
REMARK SMILES IDX 93 34 9 35 10 36 15 38 16 39 17 40 18 41 19 42 20 44 21 45
REMARK SMILES IDX 22 46 83 47 23 48 82 49 24 50 25 51 26 52 76 53 27 54 81 55
REMARK SMILES IDX 75 56 77 57 28 58 80 59 74 60 73 61 29 63 61 64 41 65 60 66
REMARK SMILES IDX 42 67 45 68 59 69 78 70 43 71 44 72 58 74 79 75 46 76 30 77
REMARK SMILES IDX 31 78 39 79 32 80 38 81 40 82 37 83 33 84 34 85 35 86 36 87
REMARK SMILES IDX 62 88 63 89 71 90 64 91 70 92 72 93 69 94 65 95 66 96 67 97
REMARK SMILES IDX 68 98 47 99 48 100 56 101 49 102 55 103 57 104 54 105 50 106
REMARK SMILES IDX 51 107 52 108 53 109
REMARK H PARENT 13 5 7 10 10 37 18 43 77 62 45 73
REMARK Flexibility Score: inf
ROOT
ATOM      1  C   UNL A   1      35.362  21.701  24.170  1.00  0.00     0.116 C 
ENDROOT
BRANCH   1   2
ATOM      2  N   UNL A   1      35.297  20.330  24.653  1.00  0.00    -0.354 N 
ATOM      3  C   UNL A   1      34.307  19.395  24.629  1.00  0.00     0.244 C 
ATOM      4  O   UNL A   1      34.507  18.344  25.244  1.00  0.00    -0.273 OA
ATOM      5  H   UNL A   1      36.128  20.017  25.077  1.00  0.00     0.163 HD
BRANCH   3   6
ATOM      6  C   UNL A   1      32.948  19.670  23.971  1.00  0.00     0.197 C 
BRANCH   6   7
ATOM      7  N   UNL A   1      32.052  20.390  24.887  1.00  0.00    -0.342 N 
ATOM      8  C   UNL A   1      31.603  21.676  24.849  1.00  0.00     0.225 C 
ATOM      9  O   UNL A   1      30.877  22.043  25.778  1.00  0.00    -0.275 OA
ATOM     10  H   UNL A   1      31.724  19.859  25.648  1.00  0.00     0.164 HD
BRANCH   8  11
ATOM     11  C   UNL A   1      31.912  22.615  23.689  1.00  0.00     0.137 C 
BRANCH  11  12
ATOM     12  C   UNL A   1      31.680  24.057  24.006  1.00  0.00    -0.017 A 
ATOM     13  C   UNL A   1      33.448  24.380  25.857  1.00  0.00     0.065 C 
ATOM     14  C   UNL A   1      32.386  24.840  24.909  1.00  0.00     0.024 A 
ATOM     15  N   UNL A   1      31.887  26.136  24.845  1.00  0.00    -0.314 N 
ATOM     16  C   UNL A   1      30.678  24.886  23.437  1.00  0.00     0.033 A 
ATOM     17  C   UNL A   1      30.846  26.174  23.913  1.00  0.00     0.053 A 
BRANCH  15  18
ATOM     18  C   UNL A   1      32.329  27.235  25.625  1.00  0.00     0.046 A 
ATOM     19  C   UNL A   1      31.541  27.677  26.697  1.00  0.00     0.029 A 
ATOM     20  C   UNL A   1      33.525  27.887  25.297  1.00  0.00     0.029 A 
ATOM     21  C   UNL A   1      31.961  28.770  27.451  1.00  0.00     0.041 A 
ATOM     22  C   UNL A   1      33.928  28.990  26.049  1.00  0.00     0.041 A 
ATOM     23  C   UNL A   1      33.147  29.418  27.119  1.00  0.00     0.123 A 
ATOM     24  F   UNL A   1      33.540  30.474  27.842  1.00  0.00    -0.207 F 
ENDBRANCH  15  18
BRANCH  17  25
ATOM     25  C   UNL A   1      30.147  27.390  23.473  1.00  0.00    -0.001 A 
ATOM     26  C   UNL A   1      30.852  28.472  22.920  1.00  0.00     0.011 A 
ATOM     27  C   UNL A   1      28.755  27.481  23.600  1.00  0.00     0.011 A 
ATOM     28  C   UNL A   1      30.188  29.647  22.556  1.00  0.00     0.021 A 
ATOM     29  C   UNL A   1      28.082  28.652  23.237  1.00  0.00     0.021 A 
ATOM     30  C   UNL A   1      28.807  29.736  22.735  1.00  0.00     0.067 A 
BRANCH  30  31
ATOM     31  S   UNL A   1      27.957  31.232  22.292  1.00  0.00     0.175 S 
ATOM     32  C   UNL A   1      29.200  32.494  22.394  1.00  0.00     0.163 C 
ATOM     33  O   UNL A   1      27.560  31.098  20.895  1.00  0.00    -0.224 OA
ATOM     34  O   UNL A   1      26.977  31.507  23.314  1.00  0.00    -0.224 OA
ENDBRANCH  30  31
ENDBRANCH  17  25
ENDBRANCH  11  12
ENDBRANCH   8  11
ENDBRANCH   6   7
BRANCH   6  35
ATOM     35  C   UNL A   1      32.382  18.346  23.436  1.00  0.00     0.191 C 
BRANCH  35  36
ATOM     36  O   UNL A   1      31.825  17.526  24.460  1.00  0.00    -0.394 OA
ATOM     37  H   UNL A   1      31.419  16.741  24.060  1.00  0.00     0.210 HD
ENDBRANCH  35  36
ENDBRANCH   6  35
ENDBRANCH   3   6
ENDBRANCH   1   2
BRANCH   1  38
ATOM     38  C   UNL A   1      36.717  22.351  24.449  1.00  0.00     0.023 C 
BRANCH  38  39
ATOM     39  C   UNL A   1      37.195  22.376  25.914  1.00  0.00     0.023 C 
BRANCH  39  40
ATOM     40  C   UNL A   1      38.522  23.085  26.262  1.00  0.00     0.116 C 
BRANCH  40  41
ATOM     41  N   UNL A   1      39.717  22.309  26.045  1.00  0.00    -0.352 N 
ATOM     42  C   UNL A   1      41.037  22.702  26.243  1.00  0.00     0.251 C 
ATOM     43  H   UNL A   1      39.582  21.391  25.718  1.00  0.00     0.163 HD
ATOM     44  O   UNL A   1      41.904  21.882  25.946  1.00  0.00    -0.269 OA
BRANCH  42  45
ATOM     45  C   UNL A   1      41.424  24.105  26.694  1.00  0.00     0.039 A 
ATOM     46  C   UNL A   1      41.286  24.429  28.034  1.00  0.00     0.014 A 
ATOM     47  C   UNL A   1      41.696  25.198  25.845  1.00  0.00     0.014 A 
ATOM     48  C   UNL A   1      41.500  25.775  28.505  1.00  0.00     0.010 A 
ATOM     49  C   UNL A   1      41.825  26.595  26.326  1.00  0.00     0.010 A 
ATOM     50  C   UNL A   1      41.739  26.957  27.691  1.00  0.00    -0.014 A 
BRANCH  50  51
ATOM     51  C   UNL A   1      41.290  28.436  28.383  1.00  0.00     0.031 A 
ATOM     52  C   UNL A   1      42.598  29.148  28.261  1.00  0.00     0.074 A 
ATOM     53  C   UNL A   1      40.324  29.158  29.134  1.00  0.00     0.049 A 
ATOM     54  N   UNL A   1      43.637  28.582  28.814  1.00  0.00    -0.248 NA
ATOM     55  C   UNL A   1      42.928  30.123  27.221  1.00  0.00     0.031 C 
ATOM     56  C   UNL A   1      39.116  28.639  29.810  1.00  0.00     0.029 A 
ATOM     57  N   UNL A   1      40.175  30.563  29.520  1.00  0.00    -0.354 N 
ATOM     58  C   UNL A   1      44.732  29.322  28.460  1.00  0.00     0.074 A 
ATOM     59  C   UNL A   1      44.267  30.083  27.302  1.00  0.00     0.031 C 
ATOM     60  C   UNL A   1      38.317  29.632  30.322  1.00  0.00     0.029 A 
ATOM     61  C   UNL A   1      38.884  30.972  30.115  1.00  0.00     0.049 A 
ATOM     62  H   UNL A   1      40.906  31.210  29.388  1.00  0.00     0.167 HD
ATOM     63  C   UNL A   1      45.446  29.779  29.531  1.00  0.00     0.034 A 
ATOM     64  C   UNL A   1      38.354  32.236  30.502  1.00  0.00     0.034 A 
ATOM     65  C   UNL A   1      44.999  31.093  29.917  1.00  0.00     0.049 A 
ATOM     66  C   UNL A   1      39.517  33.007  30.922  1.00  0.00     0.074 A 
ATOM     67  C   UNL A   1      44.723  32.228  29.178  1.00  0.00     0.029 A 
ATOM     68  N   UNL A   1      44.301  31.208  31.099  1.00  0.00    -0.354 N 
ATOM     69  N   UNL A   1      40.098  32.805  32.062  1.00  0.00    -0.248 NA
ATOM     70  C   UNL A   1      40.079  34.049  30.080  1.00  0.00     0.031 C 
ATOM     71  C   UNL A   1      43.501  32.695  29.700  1.00  0.00     0.029 A 
ATOM     72  C   UNL A   1      43.347  32.199  30.986  1.00  0.00     0.049 A 
ATOM     73  H   UNL A   1      44.459  30.664  31.905  1.00  0.00     0.167 HD
ATOM     74  C   UNL A   1      41.362  33.240  31.809  1.00  0.00     0.074 A 
ATOM     75  C   UNL A   1      41.230  34.209  30.731  1.00  0.00     0.031 C 
ATOM     76  C   UNL A   1      42.362  32.352  32.036  1.00  0.00     0.034 A 
BRANCH  63  77
ATOM     77  C   UNL A   1      45.829  28.677  30.489  1.00  0.00     0.023 A 
ATOM     78  C   UNL A   1      47.162  28.253  30.514  1.00  0.00     0.031 A 
ATOM     79  C   UNL A   1      44.892  27.933  31.245  1.00  0.00     0.131 A 
ATOM     80  C   UNL A   1      47.512  27.083  31.209  1.00  0.00     0.055 A 
ATOM     81  C   UNL A   1      45.233  26.742  31.886  1.00  0.00     0.041 A 
ATOM     82  F   UNL A   1      43.619  28.345  31.364  1.00  0.00    -0.206 F 
ATOM     83  C   UNL A   1      46.552  26.305  31.863  1.00  0.00     0.022 A 
BRANCH  80  84
ATOM     84  S   UNL A   1      49.257  26.598  31.257  1.00  0.00     0.124 S 
ATOM     85  O   UNL A   1      49.821  27.344  30.137  1.00  0.00    -0.237 OA
ATOM     86  O   UNL A   1      49.668  27.051  32.584  1.00  0.00    -0.237 OA
ATOM     87  O   UNL A   1      49.221  25.147  31.084  1.00  0.00    -0.744 OA
ENDBRANCH  80  84
ENDBRANCH  63  77
BRANCH  64  88
ATOM     88  C   UNL A   1      37.058  33.118  30.874  1.00  0.00     0.023 A 
ATOM     89  C   UNL A   1      36.192  33.777  29.878  1.00  0.00     0.031 A 
ATOM     90  C   UNL A   1      36.436  32.970  32.121  1.00  0.00     0.131 A 
ATOM     91  C   UNL A   1      34.834  34.183  30.146  1.00  0.00     0.055 A 
ATOM     92  C   UNL A   1      35.093  33.371  32.376  1.00  0.00     0.041 A 
ATOM     93  F   UNL A   1      37.071  32.334  33.115  1.00  0.00    -0.206 F 
ATOM     94  C   UNL A   1      34.286  33.953  31.399  1.00  0.00     0.022 A 
BRANCH  91  95
ATOM     95  S   UNL A   1      33.661  34.850  28.855  1.00  0.00     0.124 S 
ATOM     96  O   UNL A   1      34.436  35.906  28.215  1.00  0.00    -0.237 OA
ATOM     97  O   UNL A   1      33.359  33.676  28.043  1.00  0.00    -0.237 OA
ATOM     98  O   UNL A   1      32.520  35.336  29.641  1.00  0.00    -0.744 OA
ENDBRANCH  91  95
ENDBRANCH  64  88
BRANCH  76  99
ATOM     99  C   UNL A   1      42.309  31.517  33.309  1.00  0.00     0.023 A 
ATOM    100  C   UNL A   1      42.775  31.885  34.597  1.00  0.00     0.031 A 
ATOM    101  C   UNL A   1      41.783  30.219  33.181  1.00  0.00     0.131 A 
ATOM    102  C   UNL A   1      42.704  30.975  35.676  1.00  0.00     0.055 A 
ATOM    103  C   UNL A   1      41.671  29.339  34.254  1.00  0.00     0.041 A 
ATOM    104  F   UNL A   1      41.361  29.777  31.985  1.00  0.00    -0.206 F 
ATOM    105  C   UNL A   1      42.141  29.709  35.506  1.00  0.00     0.022 A 
BRANCH 102 106
ATOM    106  S   UNL A   1      43.418  31.390  37.306  1.00  0.00     0.124 S 
ATOM    107  O   UNL A   1      44.427  30.359  37.507  1.00  0.00    -0.237 OA
ATOM    108  O   UNL A   1      43.921  32.744  37.096  1.00  0.00    -0.237 OA
ATOM    109  O   UNL A   1      42.270  31.299  38.211  1.00  0.00    -0.744 OA
ENDBRANCH 102 106
ENDBRANCH  76  99
ENDBRANCH  50  51
ENDBRANCH  42  45
ENDBRANCH  40  41
ENDBRANCH  39  40
ENDBRANCH  38  39
ENDBRANCH   1  38
TORSDOF 22
ENDMDL
