MODEL 1
REMARK VINA RESULT:     -12.5      0.000      0.000
REMARK SMILES CC(C)[C@H](C)CNC(=O)N1CC(n2cc(C(=O)NCCCCNC(=O)c3ccc(-c4c5nc(c(-c6cc(S(=O)(=O)[O-])ccc6F)c6ccc([nH]6)c(-c6cc(S(=O)(=O)[O-])ccc6F)c6nc(c(-c7cc(S(=O)(=O)[O-])ccc7F)c7ccc4[nH]7)C=C6)C=C5)cc3)nn2)C1
REMARK SMILES IDX 20 1 19 2 18 3 16 4 17 5 15 7 13 8 14 9 90 10 89 11 12 12
REMARK SMILES IDX 7 13 8 14 9 16 10 17 11 18 91 19 6 20 4 21 5 22 2 23 1 24
REMARK SMILES IDX 3 25 21 26 22 27 23 28 24 29 25 31 26 32 27 33 88 34 28 35
REMARK SMILES IDX 87 36 29 37 30 38 31 39 81 40 32 41 86 42 80 43 82 44 33 45
REMARK SMILES IDX 85 46 79 47 78 48 34 50 66 51 46 52 65 53 47 54 50 55 64 56
REMARK SMILES IDX 83 57 48 58 49 59 63 61 84 62 51 63 35 64 36 65 44 66 37 67
REMARK SMILES IDX 43 68 45 69 42 70 38 71 39 72 40 73 41 74 67 75 68 76 76 77
REMARK SMILES IDX 69 78 75 79 77 80 74 81 70 82 71 83 72 84 73 85 52 86 53 87
REMARK SMILES IDX 61 88 54 89 60 90 62 91 59 92 55 93 56 94 57 95 58 96
REMARK H PARENT 18 6 7 15 23 30 82 49 50 60
REMARK Flexibility Score: inf
ROOT
ATOM      1  C   UNL A   1      33.052  29.676  25.915  1.00  0.00     0.023 C 
ENDROOT
BRANCH   1   2
ATOM      2  C   UNL A   1      33.337  28.992  24.574  1.00  0.00     0.116 C 
BRANCH   2   3
ATOM      3  N   UNL A   1      32.371  29.368  23.560  1.00  0.00    -0.351 N 
ATOM      4  C   UNL A   1      31.287  28.710  23.023  1.00  0.00     0.273 C 
ATOM      5  O   UNL A   1      30.606  29.344  22.216  1.00  0.00    -0.267 OA
ATOM      6  H   UNL A   1      32.518  30.265  23.184  1.00  0.00     0.163 HD
BRANCH   4   7
ATOM      7  C   UNL A   1      30.947  27.338  23.395  1.00  0.00     0.170 A 
ATOM      8  N   UNL A   1      30.815  25.199  23.767  1.00  0.00    -0.245 N 
ATOM      9  C   UNL A   1      31.515  26.129  23.048  1.00  0.00     0.145 A 
ATOM     10  N   UNL A   1      29.812  25.765  24.446  1.00  0.00    -0.066 NA
ATOM     11  N   UNL A   1      29.864  27.070  24.212  1.00  0.00    -0.125 NA
BRANCH   8  12
ATOM     12  C   UNL A   1      31.160  23.814  23.807  1.00  0.00     0.148 C 
ATOM     13  N   UNL A   1      34.042  21.037  25.011  1.00  0.00    -0.338 N 
ATOM     14  C   UNL A   1      32.706  21.277  25.083  1.00  0.00     0.317 C 
ATOM     15  H   UNL A   1      34.289  20.107  24.803  1.00  0.00     0.165 HD
ATOM     16  O   UNL A   1      31.942  20.324  25.233  1.00  0.00    -0.249 OA
ATOM     17  N   UNL A   1      32.263  22.556  24.988  1.00  0.00    -0.320 N 
ATOM     18  C   UNL A   1      30.894  23.060  25.113  1.00  0.00     0.150 C 
ATOM     19  C   UNL A   1      32.663  23.640  24.103  1.00  0.00     0.150 C 
BRANCH  13  20
ATOM     20  C   UNL A   1      35.160  21.952  25.194  1.00  0.00     0.121 C 
BRANCH  20  21
ATOM     21  C   UNL A   1      36.222  21.807  24.079  1.00  0.00     0.008 C 
ATOM     22  C   UNL A   1      36.342  23.148  23.331  1.00  0.00     0.010 C 
BRANCH  21  23
ATOM     23  C   UNL A   1      37.614  21.340  24.609  1.00  0.00    -0.013 C 
ATOM     24  C   UNL A   1      38.046  22.048  25.901  1.00  0.00     0.008 C 
ATOM     25  C   UNL A   1      37.632  19.827  24.883  1.00  0.00     0.008 C 
ENDBRANCH  21  23
ENDBRANCH  20  21
ENDBRANCH  13  20
ENDBRANCH   8  12
ENDBRANCH   4   7
ENDBRANCH   2   3
ENDBRANCH   1   2
BRANCH   1  26
ATOM     26  C   UNL A   1      33.645  28.977  27.152  1.00  0.00     0.023 C 
BRANCH  26  27
ATOM     27  C   UNL A   1      35.105  29.311  27.449  1.00  0.00     0.116 C 
BRANCH  27  28
ATOM     28  N   UNL A   1      35.298  29.944  28.754  1.00  0.00    -0.352 N 
ATOM     29  C   UNL A   1      36.292  29.679  29.687  1.00  0.00     0.251 C 
ATOM     30  H   UNL A   1      34.645  30.639  29.000  1.00  0.00     0.163 HD
ATOM     31  O   UNL A   1      36.120  29.932  30.867  1.00  0.00    -0.269 OA
BRANCH  29  32
ATOM     32  C   UNL A   1      37.565  29.106  29.207  1.00  0.00     0.039 A 
ATOM     33  C   UNL A   1      38.188  29.549  28.036  1.00  0.00     0.014 A 
ATOM     34  C   UNL A   1      38.152  28.123  29.996  1.00  0.00     0.014 A 
ATOM     35  C   UNL A   1      39.453  29.049  27.722  1.00  0.00     0.010 A 
ATOM     36  C   UNL A   1      39.453  27.757  29.775  1.00  0.00     0.010 A 
ATOM     37  C   UNL A   1      40.091  28.167  28.611  1.00  0.00    -0.014 A 
BRANCH  37  38
ATOM     38  C   UNL A   1      41.489  27.774  28.439  1.00  0.00     0.031 A 
ATOM     39  C   UNL A   1      41.667  26.499  27.694  1.00  0.00     0.074 A 
ATOM     40  C   UNL A   1      42.523  28.607  28.700  1.00  0.00     0.049 A 
ATOM     41  N   UNL A   1      42.085  25.372  28.165  1.00  0.00    -0.248 NA
ATOM     42  C   UNL A   1      41.154  26.402  26.317  1.00  0.00     0.031 C 
ATOM     43  C   UNL A   1      42.472  29.996  29.173  1.00  0.00     0.029 A 
ATOM     44  N   UNL A   1      43.855  28.428  28.483  1.00  0.00    -0.354 N 
ATOM     45  C   UNL A   1      42.153  24.505  27.080  1.00  0.00     0.074 A 
ATOM     46  C   UNL A   1      41.353  25.107  26.051  1.00  0.00     0.031 C 
ATOM     47  C   UNL A   1      43.667  30.594  28.969  1.00  0.00     0.029 A 
ATOM     48  C   UNL A   1      44.617  29.598  28.503  1.00  0.00     0.049 A 
ATOM     49  H   UNL A   1      44.251  27.540  28.324  1.00  0.00     0.167 HD
ATOM     50  C   UNL A   1      43.083  23.509  27.043  1.00  0.00     0.034 A 
ATOM     51  C   UNL A   1      45.925  29.748  28.147  1.00  0.00     0.034 A 
ATOM     52  C   UNL A   1      43.666  23.306  28.354  1.00  0.00     0.049 A 
ATOM     53  C   UNL A   1      46.541  28.399  28.251  1.00  0.00     0.074 A 
ATOM     54  C   UNL A   1      43.148  23.014  29.604  1.00  0.00     0.029 A 
ATOM     55  N   UNL A   1      44.923  23.822  28.591  1.00  0.00    -0.354 N 
ATOM     56  N   UNL A   1      46.664  27.767  29.387  1.00  0.00    -0.248 NA
ATOM     57  C   UNL A   1      46.514  27.546  27.071  1.00  0.00     0.031 C 
ATOM     58  C   UNL A   1      43.874  23.853  30.500  1.00  0.00     0.029 A 
ATOM     59  C   UNL A   1      44.868  24.517  29.776  1.00  0.00     0.049 A 
ATOM     60  H   UNL A   1      45.716  23.712  28.017  1.00  0.00     0.167 HD
ATOM     61  C   UNL A   1      46.269  26.466  29.116  1.00  0.00     0.074 A 
ATOM     62  C   UNL A   1      46.282  26.365  27.654  1.00  0.00     0.031 C 
ATOM     63  C   UNL A   1      45.677  25.687  30.072  1.00  0.00     0.034 A 
BRANCH  50  64
ATOM     64  C   UNL A   1      43.754  22.985  25.790  1.00  0.00     0.023 A 
ATOM     65  C   UNL A   1      43.762  21.587  25.610  1.00  0.00     0.031 A 
ATOM     66  C   UNL A   1      44.619  23.714  24.942  1.00  0.00     0.131 A 
ATOM     67  C   UNL A   1      44.676  20.974  24.737  1.00  0.00     0.055 A 
ATOM     68  C   UNL A   1      45.476  23.102  24.023  1.00  0.00     0.041 A 
ATOM     69  F   UNL A   1      44.757  25.041  25.011  1.00  0.00    -0.206 F 
ATOM     70  C   UNL A   1      45.538  21.722  23.942  1.00  0.00     0.022 A 
BRANCH  67  71
ATOM     71  S   UNL A   1      44.850  19.173  24.812  1.00  0.00     0.124 S 
ATOM     72  O   UNL A   1      46.017  19.031  25.677  1.00  0.00    -0.237 OA
ATOM     73  O   UNL A   1      43.570  18.772  25.384  1.00  0.00    -0.237 OA
ATOM     74  O   UNL A   1      45.057  18.795  23.416  1.00  0.00    -0.744 OA
ENDBRANCH  67  71
ENDBRANCH  50  64
BRANCH  51  75
ATOM     75  C   UNL A   1      46.562  30.905  27.442  1.00  0.00     0.023 A 
ATOM     76  C   UNL A   1      45.834  31.962  26.841  1.00  0.00     0.031 A 
ATOM     77  C   UNL A   1      47.957  31.103  27.566  1.00  0.00     0.131 A 
ATOM     78  C   UNL A   1      46.501  33.137  26.403  1.00  0.00     0.055 A 
ATOM     79  C   UNL A   1      48.607  32.263  27.135  1.00  0.00     0.041 A 
ATOM     80  F   UNL A   1      48.732  30.205  28.194  1.00  0.00    -0.206 F 
ATOM     81  C   UNL A   1      47.880  33.290  26.560  1.00  0.00     0.022 A 
BRANCH  78  82
ATOM     82  S   UNL A   1      45.574  34.541  25.687  1.00  0.00     0.124 S 
ATOM     83  O   UNL A   1      46.640  35.471  25.332  1.00  0.00    -0.237 OA
ATOM     84  O   UNL A   1      44.860  33.916  24.579  1.00  0.00    -0.237 OA
ATOM     85  O   UNL A   1      44.718  34.986  26.789  1.00  0.00    -0.744 OA
ENDBRANCH  78  82
ENDBRANCH  51  75
BRANCH  63  86
ATOM     86  C   UNL A   1      45.686  26.168  31.513  1.00  0.00     0.023 A 
ATOM     87  C   UNL A   1      44.589  26.758  32.186  1.00  0.00     0.031 A 
ATOM     88  C   UNL A   1      46.838  25.894  32.273  1.00  0.00     0.131 A 
ATOM     89  C   UNL A   1      44.682  27.062  33.561  1.00  0.00     0.055 A 
ATOM     90  C   UNL A   1      46.916  26.171  33.637  1.00  0.00     0.041 A 
ATOM     91  F   UNL A   1      47.907  25.311  31.704  1.00  0.00    -0.206 F 
ATOM     92  C   UNL A   1      45.839  26.765  34.285  1.00  0.00     0.022 A 
BRANCH  89  93
ATOM     93  S   UNL A   1      43.303  27.878  34.434  1.00  0.00     0.124 S 
ATOM     94  O   UNL A   1      42.156  27.031  34.130  1.00  0.00    -0.237 OA
ATOM     95  O   UNL A   1      43.754  27.867  35.822  1.00  0.00    -0.237 OA
ATOM     96  O   UNL A   1      43.254  29.209  33.824  1.00  0.00    -0.744 OA
ENDBRANCH  89  93
ENDBRANCH  63  86
ENDBRANCH  37  38
ENDBRANCH  29  32
ENDBRANCH  27  28
ENDBRANCH  26  27
ENDBRANCH   1  26
TORSDOF 18
ENDMDL
MODEL 2
REMARK VINA RESULT:     -12.3      2.418      6.893
REMARK SMILES CC(C)[C@H](C)CNC(=O)N1CC(n2cc(C(=O)NCCCCNC(=O)c3ccc(-c4c5nc(c(-c6cc(S(=O)(=O)[O-])ccc6F)c6ccc([nH]6)c(-c6cc(S(=O)(=O)[O-])ccc6F)c6nc(c(-c7cc(S(=O)(=O)[O-])ccc7F)c7ccc4[nH]7)C=C6)C=C5)cc3)nn2)C1
REMARK SMILES IDX 20 1 19 2 18 3 16 4 17 5 15 7 13 8 14 9 90 10 89 11 12 12
REMARK SMILES IDX 7 13 8 14 9 16 10 17 11 18 91 19 6 20 4 21 5 22 2 23 1 24
REMARK SMILES IDX 3 25 21 26 22 27 23 28 24 29 25 31 26 32 27 33 88 34 28 35
REMARK SMILES IDX 87 36 29 37 30 38 31 39 81 40 32 41 86 42 80 43 82 44 33 45
REMARK SMILES IDX 85 46 79 47 78 48 34 50 66 51 46 52 65 53 47 54 50 55 64 56
REMARK SMILES IDX 83 57 48 58 49 59 63 61 84 62 51 63 35 64 36 65 44 66 37 67
REMARK SMILES IDX 43 68 45 69 42 70 38 71 39 72 40 73 41 74 67 75 68 76 76 77
REMARK SMILES IDX 69 78 75 79 77 80 74 81 70 82 71 83 72 84 73 85 52 86 53 87
REMARK SMILES IDX 61 88 54 89 60 90 62 91 59 92 55 93 56 94 57 95 58 96
REMARK H PARENT 18 6 7 15 23 30 82 49 50 60
REMARK Flexibility Score: inf
ROOT
ATOM      1  C   UNL A   1      33.223  29.776  25.981  1.00  0.00     0.023 C 
ENDROOT
BRANCH   1   2
ATOM      2  C   UNL A   1      31.805  29.395  25.546  1.00  0.00     0.116 C 
BRANCH   2   3
ATOM      3  N   UNL A   1      31.580  29.670  24.139  1.00  0.00    -0.351 N 
ATOM      4  C   UNL A   1      31.034  28.917  23.124  1.00  0.00     0.273 C 
ATOM      5  O   UNL A   1      30.912  29.476  22.033  1.00  0.00    -0.267 OA
ATOM      6  H   UNL A   1      31.873  30.566  23.857  1.00  0.00     0.163 HD
BRANCH   4   7
ATOM      7  C   UNL A   1      30.609  27.533  23.323  1.00  0.00     0.170 A 
ATOM      8  N   UNL A   1      30.389  25.382  23.560  1.00  0.00    -0.245 N 
ATOM      9  C   UNL A   1      31.268  26.336  23.126  1.00  0.00     0.145 A 
ATOM     10  N   UNL A   1      29.220  25.925  23.915  1.00  0.00    -0.066 NA
ATOM     11  N   UNL A   1      29.329  27.237  23.755  1.00  0.00    -0.125 NA
BRANCH   8  12
ATOM     12  C   UNL A   1      30.718  23.996  23.655  1.00  0.00     0.148 C 
ATOM     13  N   UNL A   1      33.793  21.245  24.320  1.00  0.00    -0.338 N 
ATOM     14  C   UNL A   1      32.532  21.544  24.729  1.00  0.00     0.317 C 
ATOM     15  H   UNL A   1      33.964  20.290  24.155  1.00  0.00     0.165 HD
ATOM     16  O   UNL A   1      31.830  20.642  25.186  1.00  0.00    -0.249 OA
ATOM     17  N   UNL A   1      32.092  22.823  24.619  1.00  0.00    -0.320 N 
ATOM     18  C   UNL A   1      30.817  23.391  25.059  1.00  0.00     0.150 C 
ATOM     19  C   UNL A   1      32.242  23.794  23.545  1.00  0.00     0.150 C 
BRANCH  13  20
ATOM     20  C   UNL A   1      34.927  22.129  24.087  1.00  0.00     0.121 C 
BRANCH  20  21
ATOM     21  C   UNL A   1      35.998  22.007  25.197  1.00  0.00     0.008 C 
ATOM     22  C   UNL A   1      37.317  21.528  24.561  1.00  0.00     0.010 C 
BRANCH  21  23
ATOM     23  C   UNL A   1      36.215  23.333  25.993  1.00  0.00    -0.013 C 
ATOM     24  C   UNL A   1      37.683  23.776  26.057  1.00  0.00     0.008 C 
ATOM     25  C   UNL A   1      35.408  24.492  25.383  1.00  0.00     0.008 C 
ENDBRANCH  21  23
ENDBRANCH  20  21
ENDBRANCH  13  20
ENDBRANCH   8  12
ENDBRANCH   4   7
ENDBRANCH   2   3
ENDBRANCH   1   2
BRANCH   1  26
ATOM     26  C   UNL A   1      33.310  30.752  27.169  1.00  0.00     0.023 C 
BRANCH  26  27
ATOM     27  C   UNL A   1      34.724  31.155  27.577  1.00  0.00     0.116 C 
BRANCH  27  28
ATOM     28  N   UNL A   1      34.760  32.015  28.761  1.00  0.00    -0.352 N 
ATOM     29  C   UNL A   1      35.578  31.888  29.877  1.00  0.00     0.251 C 
ATOM     30  H   UNL A   1      34.130  32.770  28.768  1.00  0.00     0.163 HD
ATOM     31  O   UNL A   1      35.246  32.367  30.948  1.00  0.00    -0.269 OA
BRANCH  29  32
ATOM     32  C   UNL A   1      36.865  31.181  29.722  1.00  0.00     0.039 A 
ATOM     33  C   UNL A   1      38.088  31.857  29.688  1.00  0.00     0.014 A 
ATOM     34  C   UNL A   1      36.817  29.793  29.652  1.00  0.00     0.014 A 
ATOM     35  C   UNL A   1      39.266  31.107  29.673  1.00  0.00     0.010 A 
ATOM     36  C   UNL A   1      37.966  29.062  29.800  1.00  0.00     0.010 A 
ATOM     37  C   UNL A   1      39.196  29.705  29.752  1.00  0.00    -0.014 A 
BRANCH  37  38
ATOM     38  C   UNL A   1      40.390  28.883  29.946  1.00  0.00     0.031 A 
ATOM     39  C   UNL A   1      40.713  28.620  31.374  1.00  0.00     0.074 A 
ATOM     40  C   UNL A   1      40.992  28.213  28.935  1.00  0.00     0.049 A 
ATOM     41  N   UNL A   1      41.715  29.081  32.043  1.00  0.00    -0.248 NA
ATOM     42  C   UNL A   1      39.724  27.920  32.210  1.00  0.00     0.031 C 
ATOM     43  C   UNL A   1      40.601  28.161  27.521  1.00  0.00     0.029 A 
ATOM     44  N   UNL A   1      42.026  27.328  28.978  1.00  0.00    -0.354 N 
ATOM     45  C   UNL A   1      41.633  28.501  33.305  1.00  0.00     0.074 A 
ATOM     46  C   UNL A   1      40.287  28.010  33.418  1.00  0.00     0.031 C 
ATOM     47  C   UNL A   1      41.216  27.122  26.913  1.00  0.00     0.029 A 
ATOM     48  C   UNL A   1      42.165  26.531  27.840  1.00  0.00     0.049 A 
ATOM     49  H   UNL A   1      42.629  27.255  29.753  1.00  0.00     0.167 HD
ATOM     50  C   UNL A   1      42.760  28.242  34.027  1.00  0.00     0.034 A 
ATOM     51  C   UNL A   1      42.984  25.453  27.672  1.00  0.00     0.034 A 
ATOM     52  C   UNL A   1      43.896  28.947  33.469  1.00  0.00     0.049 A 
ATOM     53  C   UNL A   1      44.068  25.594  28.679  1.00  0.00     0.074 A 
ATOM     54  C   UNL A   1      44.166  30.277  33.196  1.00  0.00     0.029 A 
ATOM     55  N   UNL A   1      44.793  28.228  32.706  1.00  0.00    -0.354 N 
ATOM     56  N   UNL A   1      44.935  26.570  28.649  1.00  0.00    -0.248 NA
ATOM     57  C   UNL A   1      43.861  24.993  29.989  1.00  0.00     0.031 C 
ATOM     58  C   UNL A   1      44.807  30.260  31.921  1.00  0.00     0.029 A 
ATOM     59  C   UNL A   1      45.001  28.930  31.542  1.00  0.00     0.049 A 
ATOM     60  H   UNL A   1      45.210  27.370  32.951  1.00  0.00     0.167 HD
ATOM     61  C   UNL A   1      45.027  27.006  29.962  1.00  0.00     0.074 A 
ATOM     62  C   UNL A   1      44.419  25.936  30.758  1.00  0.00     0.031 C 
ATOM     63  C   UNL A   1      45.303  28.312  30.262  1.00  0.00     0.034 A 
BRANCH  50  64
ATOM     64  C   UNL A   1      42.941  27.076  34.977  1.00  0.00     0.023 A 
ATOM     65  C   UNL A   1      43.727  26.000  34.520  1.00  0.00     0.031 A 
ATOM     66  C   UNL A   1      42.178  26.824  36.139  1.00  0.00     0.131 A 
ATOM     67  C   UNL A   1      43.635  24.731  35.115  1.00  0.00     0.055 A 
ATOM     68  C   UNL A   1      42.145  25.577  36.772  1.00  0.00     0.041 A 
ATOM     69  F   UNL A   1      41.353  27.726  36.679  1.00  0.00    -0.206 F 
ATOM     70  C   UNL A   1      42.846  24.510  36.239  1.00  0.00     0.022 A 
BRANCH  67  71
ATOM     71  S   UNL A   1      44.414  23.333  34.268  1.00  0.00     0.124 S 
ATOM     72  O   UNL A   1      45.771  23.833  34.072  1.00  0.00    -0.237 OA
ATOM     73  O   UNL A   1      44.255  22.264  35.248  1.00  0.00    -0.237 OA
ATOM     74  O   UNL A   1      43.619  23.189  33.051  1.00  0.00    -0.744 OA
ENDBRANCH  67  71
ENDBRANCH  50  64
BRANCH  51  75
ATOM     75  C   UNL A   1      42.703  24.190  26.918  1.00  0.00     0.023 A 
ATOM     76  C   UNL A   1      43.660  23.517  26.119  1.00  0.00     0.031 A 
ATOM     77  C   UNL A   1      41.507  23.483  27.182  1.00  0.00     0.131 A 
ATOM     78  C   UNL A   1      43.398  22.209  25.631  1.00  0.00     0.055 A 
ATOM     79  C   UNL A   1      41.256  22.196  26.701  1.00  0.00     0.041 A 
ATOM     80  F   UNL A   1      40.567  23.990  27.996  1.00  0.00    -0.206 F 
ATOM     81  C   UNL A   1      42.205  21.548  25.930  1.00  0.00     0.022 A 
BRANCH  78  82
ATOM     82  S   UNL A   1      44.645  21.295  24.654  1.00  0.00     0.124 S 
ATOM     83  O   UNL A   1      45.852  21.460  25.455  1.00  0.00    -0.237 OA
ATOM     84  O   UNL A   1      44.080  19.951  24.599  1.00  0.00    -0.237 OA
ATOM     85  O   UNL A   1      44.662  22.001  23.372  1.00  0.00    -0.744 OA
ENDBRANCH  78  82
ENDBRANCH  51  75
BRANCH  63  86
ATOM     86  C   UNL A   1      45.765  29.234  29.147  1.00  0.00     0.023 A 
ATOM     87  C   UNL A   1      44.923  30.078  28.382  1.00  0.00     0.031 A 
ATOM     88  C   UNL A   1      47.151  29.348  28.942  1.00  0.00     0.131 A 
ATOM     89  C   UNL A   1      45.481  30.975  27.447  1.00  0.00     0.055 A 
ATOM     90  C   UNL A   1      47.701  30.255  28.036  1.00  0.00     0.041 A 
ATOM     91  F   UNL A   1      48.009  28.597  29.652  1.00  0.00    -0.206 F 
ATOM     92  C   UNL A   1      46.866  31.068  27.279  1.00  0.00     0.022 A 
BRANCH  89  93
ATOM     93  S   UNL A   1      44.414  32.028  26.407  1.00  0.00     0.124 S 
ATOM     94  O   UNL A   1      43.970  33.074  27.320  1.00  0.00    -0.237 OA
ATOM     95  O   UNL A   1      45.321  32.451  25.345  1.00  0.00    -0.237 OA
ATOM     96  O   UNL A   1      43.356  31.114  25.971  1.00  0.00    -0.744 OA
ENDBRANCH  89  93
ENDBRANCH  63  86
ENDBRANCH  37  38
ENDBRANCH  29  32
ENDBRANCH  27  28
ENDBRANCH  26  27
ENDBRANCH   1  26
TORSDOF 18
ENDMDL
MODEL 3
REMARK VINA RESULT:     -12.2      1.374      1.857
REMARK SMILES CC(C)[C@H](C)CNC(=O)N1CC(n2cc(C(=O)NCCCCNC(=O)c3ccc(-c4c5nc(c(-c6cc(S(=O)(=O)[O-])ccc6F)c6ccc([nH]6)c(-c6cc(S(=O)(=O)[O-])ccc6F)c6nc(c(-c7cc(S(=O)(=O)[O-])ccc7F)c7ccc4[nH]7)C=C6)C=C5)cc3)nn2)C1
REMARK SMILES IDX 20 1 19 2 18 3 16 4 17 5 15 7 13 8 14 9 90 10 89 11 12 12
REMARK SMILES IDX 7 13 8 14 9 16 10 17 11 18 91 19 6 20 4 21 5 22 2 23 1 24
REMARK SMILES IDX 3 25 21 26 22 27 23 28 24 29 25 31 26 32 27 33 88 34 28 35
REMARK SMILES IDX 87 36 29 37 30 38 31 39 81 40 32 41 86 42 80 43 82 44 33 45
REMARK SMILES IDX 85 46 79 47 78 48 34 50 66 51 46 52 65 53 47 54 50 55 64 56
REMARK SMILES IDX 83 57 48 58 49 59 63 61 84 62 51 63 35 64 36 65 44 66 37 67
REMARK SMILES IDX 43 68 45 69 42 70 38 71 39 72 40 73 41 74 67 75 68 76 76 77
REMARK SMILES IDX 69 78 75 79 77 80 74 81 70 82 71 83 72 84 73 85 52 86 53 87
REMARK SMILES IDX 61 88 54 89 60 90 62 91 59 92 55 93 56 94 57 95 58 96
REMARK H PARENT 18 6 7 15 23 30 82 49 50 60
REMARK Flexibility Score: inf
ROOT
ATOM      1  C   UNL A   1      33.239  29.548  25.878  1.00  0.00     0.023 C 
ENDROOT
BRANCH   1   2
ATOM      2  C   UNL A   1      33.137  29.294  24.371  1.00  0.00     0.116 C 
BRANCH   2   3
ATOM      3  N   UNL A   1      31.785  28.957  23.970  1.00  0.00    -0.351 N 
ATOM      4  C   UNL A   1      30.962  27.898  24.282  1.00  0.00     0.273 C 
ATOM      5  O   UNL A   1      29.817  27.941  23.830  1.00  0.00    -0.267 OA
ATOM      6  H   UNL A   1      31.377  29.611  23.358  1.00  0.00     0.163 HD
BRANCH   4   7
ATOM      7  C   UNL A   1      31.411  26.783  25.115  1.00  0.00     0.170 A 
ATOM      8  N   UNL A   1      32.427  25.135  26.107  1.00  0.00    -0.245 N 
ATOM      9  C   UNL A   1      32.470  25.908  24.978  1.00  0.00     0.145 A 
ATOM     10  N   UNL A   1      31.361  25.432  26.858  1.00  0.00    -0.066 NA
ATOM     11  N   UNL A   1      30.716  26.421  26.255  1.00  0.00    -0.125 NA
BRANCH   8  12
ATOM     12  C   UNL A   1      33.429  24.173  26.439  1.00  0.00     0.148 C 
ATOM     13  N   UNL A   1      35.079  20.465  25.442  1.00  0.00    -0.338 N 
ATOM     14  C   UNL A   1      35.438  21.750  25.699  1.00  0.00     0.317 C 
ATOM     15  H   UNL A   1      35.642  19.780  25.869  1.00  0.00     0.165 HD
ATOM     16  O   UNL A   1      36.573  21.973  26.120  1.00  0.00    -0.249 OA
ATOM     17  N   UNL A   1      34.536  22.740  25.482  1.00  0.00    -0.320 N 
ATOM     18  C   UNL A   1      34.718  24.187  25.612  1.00  0.00     0.150 C 
ATOM     19  C   UNL A   1      33.113  22.815  25.781  1.00  0.00     0.150 C 
BRANCH  13  20
ATOM     20  C   UNL A   1      33.983  19.953  24.631  1.00  0.00     0.121 C 
BRANCH  20  21
ATOM     21  C   UNL A   1      33.837  18.417  24.751  1.00  0.00     0.008 C 
ATOM     22  C   UNL A   1      32.586  18.103  25.593  1.00  0.00     0.010 C 
BRANCH  21  23
ATOM     23  C   UNL A   1      33.772  17.695  23.368  1.00  0.00    -0.013 C 
ATOM     24  C   UNL A   1      34.143  16.207  23.436  1.00  0.00     0.008 C 
ATOM     25  C   UNL A   1      32.367  17.793  22.750  1.00  0.00     0.008 C 
ENDBRANCH  21  23
ENDBRANCH  20  21
ENDBRANCH  13  20
ENDBRANCH   8  12
ENDBRANCH   4   7
ENDBRANCH   2   3
ENDBRANCH   1   2
BRANCH   1  26
ATOM     26  C   UNL A   1      34.664  29.767  26.417  1.00  0.00     0.023 C 
BRANCH  26  27
ATOM     27  C   UNL A   1      35.005  28.991  27.686  1.00  0.00     0.116 C 
BRANCH  27  28
ATOM     28  N   UNL A   1      35.260  29.855  28.840  1.00  0.00    -0.352 N 
ATOM     29  C   UNL A   1      36.333  29.801  29.720  1.00  0.00     0.251 C 
ATOM     30  H   UNL A   1      34.591  30.556  29.013  1.00  0.00     0.163 HD
ATOM     31  O   UNL A   1      36.236  30.254  30.848  1.00  0.00    -0.269 OA
BRANCH  29  32
ATOM     32  C   UNL A   1      37.596  29.201  29.245  1.00  0.00     0.039 A 
ATOM     33  C   UNL A   1      38.218  29.612  28.062  1.00  0.00     0.014 A 
ATOM     34  C   UNL A   1      38.174  28.227  30.051  1.00  0.00     0.014 A 
ATOM     35  C   UNL A   1      39.475  29.089  27.751  1.00  0.00     0.010 A 
ATOM     36  C   UNL A   1      39.470  27.840  29.830  1.00  0.00     0.010 A 
ATOM     37  C   UNL A   1      40.106  28.217  28.655  1.00  0.00    -0.014 A 
BRANCH  37  38
ATOM     38  C   UNL A   1      41.498  27.803  28.484  1.00  0.00     0.031 A 
ATOM     39  C   UNL A   1      41.657  26.530  27.731  1.00  0.00     0.074 A 
ATOM     40  C   UNL A   1      42.545  28.618  28.753  1.00  0.00     0.049 A 
ATOM     41  N   UNL A   1      42.056  25.394  28.196  1.00  0.00    -0.248 NA
ATOM     42  C   UNL A   1      41.146  26.450  26.352  1.00  0.00     0.031 C 
ATOM     43  C   UNL A   1      42.515  30.004  29.234  1.00  0.00     0.029 A 
ATOM     44  N   UNL A   1      43.874  28.418  28.537  1.00  0.00    -0.354 N 
ATOM     45  C   UNL A   1      42.113  24.532  27.106  1.00  0.00     0.074 A 
ATOM     46  C   UNL A   1      41.324  25.154  26.078  1.00  0.00     0.031 C 
ATOM     47  C   UNL A   1      43.720  30.584  29.036  1.00  0.00     0.029 A 
ATOM     48  C   UNL A   1      44.655  29.576  28.566  1.00  0.00     0.049 A 
ATOM     49  H   UNL A   1      44.257  27.525  28.373  1.00  0.00     0.167 HD
ATOM     50  C   UNL A   1      43.027  23.521  27.064  1.00  0.00     0.034 A 
ATOM     51  C   UNL A   1      45.966  29.707  28.214  1.00  0.00     0.034 A 
ATOM     52  C   UNL A   1      43.603  23.301  28.376  1.00  0.00     0.049 A 
ATOM     53  C   UNL A   1      46.560  28.348  28.311  1.00  0.00     0.074 A 
ATOM     54  C   UNL A   1      43.078  23.010  29.622  1.00  0.00     0.029 A 
ATOM     55  N   UNL A   1      44.868  23.795  28.618  1.00  0.00    -0.354 N 
ATOM     56  N   UNL A   1      46.671  27.706  29.443  1.00  0.00    -0.248 NA
ATOM     57  C   UNL A   1      46.522  27.503  27.126  1.00  0.00     0.031 C 
ATOM     58  C   UNL A   1      43.815  23.831  30.525  1.00  0.00     0.029 A 
ATOM     59  C   UNL A   1      44.821  24.484  29.808  1.00  0.00     0.049 A 
ATOM     60  H   UNL A   1      45.660  23.676  28.046  1.00  0.00     0.167 HD
ATOM     61  C   UNL A   1      46.255  26.413  29.163  1.00  0.00     0.074 A 
ATOM     62  C   UNL A   1      46.270  26.322  27.701  1.00  0.00     0.031 C 
ATOM     63  C   UNL A   1      45.648  25.638  30.113  1.00  0.00     0.034 A 
BRANCH  50  64
ATOM     64  C   UNL A   1      43.692  22.994  25.810  1.00  0.00     0.023 A 
ATOM     65  C   UNL A   1      43.717  21.596  25.643  1.00  0.00     0.031 A 
ATOM     66  C   UNL A   1      44.537  23.728  24.946  1.00  0.00     0.131 A 
ATOM     67  C   UNL A   1      44.631  20.987  24.767  1.00  0.00     0.055 A 
ATOM     68  C   UNL A   1      45.394  23.118  24.024  1.00  0.00     0.041 A 
ATOM     69  F   UNL A   1      44.658  25.057  25.000  1.00  0.00    -0.206 F 
ATOM     70  C   UNL A   1      45.474  21.739  23.956  1.00  0.00     0.022 A 
BRANCH  67  71
ATOM     71  S   UNL A   1      44.831  19.189  24.857  1.00  0.00     0.124 S 
ATOM     72  O   UNL A   1      46.159  19.075  25.452  1.00  0.00    -0.237 OA
ATOM     73  O   UNL A   1      43.709  18.805  25.706  1.00  0.00    -0.237 OA
ATOM     74  O   UNL A   1      44.733  18.767  23.462  1.00  0.00    -0.744 OA
ENDBRANCH  67  71
ENDBRANCH  50  64
BRANCH  51  75
ATOM     75  C   UNL A   1      46.624  30.858  27.517  1.00  0.00     0.023 A 
ATOM     76  C   UNL A   1      45.914  31.908  26.885  1.00  0.00     0.031 A 
ATOM     77  C   UNL A   1      48.014  31.059  27.683  1.00  0.00     0.131 A 
ATOM     78  C   UNL A   1      46.593  33.080  26.456  1.00  0.00     0.055 A 
ATOM     79  C   UNL A   1      48.676  32.215  27.261  1.00  0.00     0.041 A 
ATOM     80  F   UNL A   1      48.770  30.168  28.343  1.00  0.00    -0.206 F 
ATOM     81  C   UNL A   1      47.966  33.236  26.654  1.00  0.00     0.022 A 
BRANCH  78  82
ATOM     82  S   UNL A   1      45.687  34.476  25.698  1.00  0.00     0.124 S 
ATOM     83  O   UNL A   1      46.765  35.386  25.332  1.00  0.00    -0.237 OA
ATOM     84  O   UNL A   1      44.977  33.832  24.599  1.00  0.00    -0.237 OA
ATOM     85  O   UNL A   1      44.825  34.955  26.781  1.00  0.00    -0.744 OA
ENDBRANCH  78  82
ENDBRANCH  51  75
BRANCH  63  86
ATOM     86  C   UNL A   1      45.662  26.110  31.557  1.00  0.00     0.023 A 
ATOM     87  C   UNL A   1      44.564  26.687  32.240  1.00  0.00     0.031 A 
ATOM     88  C   UNL A   1      46.820  25.841  32.309  1.00  0.00     0.131 A 
ATOM     89  C   UNL A   1      44.662  26.983  33.616  1.00  0.00     0.055 A 
ATOM     90  C   UNL A   1      46.904  26.110  33.674  1.00  0.00     0.041 A 
ATOM     91  F   UNL A   1      47.890  25.271  31.730  1.00  0.00    -0.206 F 
ATOM     92  C   UNL A   1      45.826  26.690  34.332  1.00  0.00     0.022 A 
BRANCH  89  93
ATOM     93  S   UNL A   1      43.281  27.781  34.503  1.00  0.00     0.124 S 
ATOM     94  O   UNL A   1      42.623  28.573  33.471  1.00  0.00    -0.237 OA
ATOM     95  O   UNL A   1      42.526  26.640  35.010  1.00  0.00    -0.237 OA
ATOM     96  O   UNL A   1      43.953  28.570  35.538  1.00  0.00    -0.744 OA
ENDBRANCH  89  93
ENDBRANCH  63  86
ENDBRANCH  37  38
ENDBRANCH  29  32
ENDBRANCH  27  28
ENDBRANCH  26  27
ENDBRANCH   1  26
TORSDOF 18
ENDMDL
