MODEL 1
REMARK VINA RESULT:     -11.2      0.000      0.000
REMARK SMILES C[C@H](O)[C@@H](C)C1(C(=O)NCCCCNC(=O)c2ccc(-c3c4nc(c(-c5cc(S(=O)(=O)[O-])ccc5F)c5ccc([nH]5)c(-c5cc(S(=O)(=O)[O-])ccc5F)c5nc(c(-c6cc(S(=O)(=O)[O-])ccc6F)c6ccc3[nH]6)C=C5)C=C4)cc2)CCCCC1
REMARK SMILES IDX 11 1 10 2 9 3 7 4 8 5 6 7 80 8 84 9 81 10 83 11 82 12 4 13
REMARK SMILES IDX 5 14 2 15 1 16 3 17 12 19 13 20 14 21 15 22 16 24 17 25
REMARK SMILES IDX 18 26 79 27 19 28 78 29 20 30 21 31 22 32 72 33 23 34 77 35
REMARK SMILES IDX 71 36 73 37 24 38 76 39 70 40 69 41 25 43 57 44 37 45 56 46
REMARK SMILES IDX 38 47 41 48 55 49 74 50 39 51 40 52 54 54 75 55 42 56 26 57
REMARK SMILES IDX 27 58 35 59 28 60 34 61 36 62 33 63 29 64 30 65 31 66 32 67
REMARK SMILES IDX 58 68 59 69 67 70 60 71 66 72 68 73 65 74 61 75 62 76 63 77
REMARK SMILES IDX 64 78 43 79 44 80 52 81 45 82 51 83 53 84 50 85 46 86 47 87
REMARK SMILES IDX 48 88 49 89
REMARK H PARENT 9 6 3 18 14 23 73 42 41 53
REMARK Flexibility Score: inf
ROOT
ATOM      1  C   UNL A   1      31.844  30.091  26.799  1.00  0.00     0.023 C 
ENDROOT
BRANCH   1   2
ATOM      2  C   UNL A   1      32.796  29.768  25.653  1.00  0.00     0.116 C 
BRANCH   2   3
ATOM      3  N   UNL A   1      32.141  29.698  24.372  1.00  0.00    -0.356 N 
ATOM      4  C   UNL A   1      31.586  28.709  23.637  1.00  0.00     0.226 C 
ATOM      5  O   UNL A   1      30.860  29.155  22.735  1.00  0.00    -0.274 OA
ATOM      6  H   UNL A   1      32.085  30.576  23.928  1.00  0.00     0.163 HD
BRANCH   4   7
ATOM      7  C   UNL A   1      31.734  27.151  23.855  1.00  0.00     0.054 C 
ATOM      8  C   UNL A   1      30.400  26.444  23.472  1.00  0.00     0.017 C 
ATOM      9  C   UNL A   1      32.158  26.766  25.298  1.00  0.00     0.017 C 
ATOM     10  C   UNL A   1      29.324  26.298  24.535  1.00  0.00     0.001 C 
ATOM     11  C   UNL A   1      31.106  26.409  26.350  1.00  0.00     0.001 C 
ATOM     12  C   UNL A   1      29.869  25.707  25.822  1.00  0.00     0.000 C 
BRANCH   7  13
ATOM     13  C   UNL A   1      32.921  26.717  22.761  1.00  0.00     0.030 C 
ATOM     14  C   UNL A   1      33.804  27.905  22.306  1.00  0.00     0.011 C 
BRANCH  13  15
ATOM     15  C   UNL A   1      32.545  25.835  21.528  1.00  0.00     0.115 C 
ATOM     16  C   UNL A   1      32.896  24.354  21.676  1.00  0.00     0.038 C 
BRANCH  15  17
ATOM     17  O   UNL A   1      33.278  26.281  20.373  1.00  0.00    -0.393 OA
ATOM     18  H   UNL A   1      34.209  26.411  20.612  1.00  0.00     0.210 HD
ENDBRANCH  15  17
ENDBRANCH  13  15
ENDBRANCH   7  13
ENDBRANCH   4   7
ENDBRANCH   2   3
ENDBRANCH   1   2
BRANCH   1  19
ATOM     19  C   UNL A   1      31.360  31.537  26.841  1.00  0.00     0.023 C 
BRANCH  19  20
ATOM     20  C   UNL A   1      32.429  32.599  26.593  1.00  0.00     0.116 C 
BRANCH  20  21
ATOM     21  N   UNL A   1      32.242  33.836  27.342  1.00  0.00    -0.352 N 
ATOM     22  C   UNL A   1      33.049  34.351  28.337  1.00  0.00     0.251 C 
ATOM     23  H   UNL A   1      31.446  34.367  27.111  1.00  0.00     0.163 HD
ATOM     24  O   UNL A   1      32.745  35.377  28.918  1.00  0.00    -0.269 OA
BRANCH  22  25
ATOM     25  C   UNL A   1      34.259  33.587  28.712  1.00  0.00     0.039 A 
ATOM     26  C   UNL A   1      35.509  34.192  28.565  1.00  0.00     0.014 A 
ATOM     27  C   UNL A   1      34.136  32.339  29.322  1.00  0.00     0.014 A 
ATOM     28  C   UNL A   1      36.633  33.582  29.125  1.00  0.00     0.010 A 
ATOM     29  C   UNL A   1      35.241  31.774  29.947  1.00  0.00     0.010 A 
ATOM     30  C   UNL A   1      36.498  32.396  29.866  1.00  0.00    -0.014 A 
BRANCH  30  31
ATOM     31  C   UNL A   1      37.652  31.791  30.580  1.00  0.00     0.031 A 
ATOM     32  C   UNL A   1      38.491  30.751  29.892  1.00  0.00     0.074 A 
ATOM     33  C   UNL A   1      37.882  32.107  31.870  1.00  0.00     0.049 A 
ATOM     34  N   UNL A   1      39.460  30.016  30.372  1.00  0.00    -0.248 NA
ATOM     35  C   UNL A   1      38.161  30.471  28.486  1.00  0.00     0.031 C 
ATOM     36  C   UNL A   1      37.097  33.057  32.665  1.00  0.00     0.029 A 
ATOM     37  N   UNL A   1      38.834  31.653  32.748  1.00  0.00    -0.354 N 
ATOM     38  C   UNL A   1      39.838  29.169  29.337  1.00  0.00     0.074 A 
ATOM     39  C   UNL A   1      38.949  29.440  28.227  1.00  0.00     0.031 C 
ATOM     40  C   UNL A   1      37.615  33.131  33.901  1.00  0.00     0.029 A 
ATOM     41  C   UNL A   1      38.742  32.208  34.004  1.00  0.00     0.049 A 
ATOM     42  H   UNL A   1      39.521  30.993  32.501  1.00  0.00     0.167 HD
ATOM     43  C   UNL A   1      40.851  28.267  29.305  1.00  0.00     0.034 A 
ATOM     44  C   UNL A   1      39.475  31.991  35.112  1.00  0.00     0.034 A 
ATOM     45  C   UNL A   1      41.747  28.033  30.410  1.00  0.00     0.049 A 
ATOM     46  C   UNL A   1      40.610  31.001  35.049  1.00  0.00     0.074 A 
ATOM     47  C   UNL A   1      42.845  27.194  30.471  1.00  0.00     0.029 A 
ATOM     48  N   UNL A   1      41.646  28.643  31.655  1.00  0.00    -0.354 N 
ATOM     49  N   UNL A   1      40.989  30.244  34.045  1.00  0.00    -0.248 NA
ATOM     50  C   UNL A   1      41.422  30.846  36.263  1.00  0.00     0.031 C 
ATOM     51  C   UNL A   1      43.378  27.258  31.764  1.00  0.00     0.029 A 
ATOM     52  C   UNL A   1      42.650  28.185  32.493  1.00  0.00     0.049 A 
ATOM     53  H   UNL A   1      40.961  29.305  31.904  1.00  0.00     0.167 HD
ATOM     54  C   UNL A   1      42.103  29.543  34.500  1.00  0.00     0.074 A 
ATOM     55  C   UNL A   1      42.340  29.978  35.861  1.00  0.00     0.031 C 
ATOM     56  C   UNL A   1      42.864  28.627  33.850  1.00  0.00     0.034 A 
BRANCH  43  57
ATOM     57  C   UNL A   1      41.019  27.464  28.037  1.00  0.00     0.023 A 
ATOM     58  C   UNL A   1      40.658  26.108  27.972  1.00  0.00     0.031 A 
ATOM     59  C   UNL A   1      41.597  28.046  26.895  1.00  0.00     0.131 A 
ATOM     60  C   UNL A   1      40.964  25.355  26.830  1.00  0.00     0.055 A 
ATOM     61  C   UNL A   1      41.818  27.312  25.728  1.00  0.00     0.041 A 
ATOM     62  F   UNL A   1      41.980  29.332  26.902  1.00  0.00    -0.206 F 
ATOM     63  C   UNL A   1      41.517  25.954  25.696  1.00  0.00     0.022 A 
BRANCH  60  64
ATOM     64  S   UNL A   1      40.773  23.553  26.907  1.00  0.00     0.124 S 
ATOM     65  O   UNL A   1      41.773  23.111  25.937  1.00  0.00    -0.237 OA
ATOM     66  O   UNL A   1      41.068  23.263  28.305  1.00  0.00    -0.237 OA
ATOM     67  O   UNL A   1      39.385  23.338  26.503  1.00  0.00    -0.744 OA
ENDBRANCH  60  64
ENDBRANCH  43  57
BRANCH  44  68
ATOM     68  C   UNL A   1      39.171  32.718  36.377  1.00  0.00     0.023 A 
ATOM     69  C   UNL A   1      38.324  32.156  37.344  1.00  0.00     0.031 A 
ATOM     70  C   UNL A   1      39.694  34.000  36.620  1.00  0.00     0.131 A 
ATOM     71  C   UNL A   1      37.986  32.892  38.491  1.00  0.00     0.055 A 
ATOM     72  C   UNL A   1      39.390  34.711  37.782  1.00  0.00     0.041 A 
ATOM     73  F   UNL A   1      40.517  34.577  35.731  1.00  0.00    -0.206 F 
ATOM     74  C   UNL A   1      38.521  34.162  38.721  1.00  0.00     0.022 A 
BRANCH  71  75
ATOM     75  S   UNL A   1      36.775  32.193  39.646  1.00  0.00     0.124 S 
ATOM     76  O   UNL A   1      37.258  30.825  39.793  1.00  0.00    -0.237 OA
ATOM     77  O   UNL A   1      36.934  33.059  40.810  1.00  0.00    -0.237 OA
ATOM     78  O   UNL A   1      35.507  32.335  38.935  1.00  0.00    -0.744 OA
ENDBRANCH  71  75
ENDBRANCH  44  68
BRANCH  56  79
ATOM     79  C   UNL A   1      44.051  28.074  34.598  1.00  0.00     0.023 A 
ATOM     80  C   UNL A   1      43.992  26.840  35.268  1.00  0.00     0.031 A 
ATOM     81  C   UNL A   1      45.253  28.802  34.648  1.00  0.00     0.131 A 
ATOM     82  C   UNL A   1      45.101  26.393  36.001  1.00  0.00     0.055 A 
ATOM     83  C   UNL A   1      46.370  28.327  35.336  1.00  0.00     0.041 A 
ATOM     84  F   UNL A   1      45.360  29.987  34.025  1.00  0.00    -0.206 F 
ATOM     85  C   UNL A   1      46.293  27.121  36.027  1.00  0.00     0.022 A 
BRANCH  82  86
ATOM     86  S   UNL A   1      44.939  24.879  36.988  1.00  0.00     0.124 S 
ATOM     87  O   UNL A   1      44.561  25.407  38.295  1.00  0.00    -0.237 OA
ATOM     88  O   UNL A   1      43.899  24.149  36.270  1.00  0.00    -0.237 OA
ATOM     89  O   UNL A   1      46.272  24.282  36.921  1.00  0.00    -0.744 OA
ENDBRANCH  82  86
ENDBRANCH  56  79
ENDBRANCH  30  31
ENDBRANCH  22  25
ENDBRANCH  20  21
ENDBRANCH  19  20
ENDBRANCH   1  19
TORSDOF 17
ENDMDL
MODEL 2
REMARK VINA RESULT:     -11.0      1.999      8.041
REMARK SMILES C[C@H](O)[C@@H](C)C1(C(=O)NCCCCNC(=O)c2ccc(-c3c4nc(c(-c5cc(S(=O)(=O)[O-])ccc5F)c5ccc([nH]5)c(-c5cc(S(=O)(=O)[O-])ccc5F)c5nc(c(-c6cc(S(=O)(=O)[O-])ccc6F)c6ccc3[nH]6)C=C5)C=C4)cc2)CCCCC1
REMARK SMILES IDX 11 1 10 2 9 3 7 4 8 5 6 7 80 8 84 9 81 10 83 11 82 12 4 13
REMARK SMILES IDX 5 14 2 15 1 16 3 17 12 19 13 20 14 21 15 22 16 24 17 25
REMARK SMILES IDX 18 26 79 27 19 28 78 29 20 30 21 31 22 32 72 33 23 34 77 35
REMARK SMILES IDX 71 36 73 37 24 38 76 39 70 40 69 41 25 43 57 44 37 45 56 46
REMARK SMILES IDX 38 47 41 48 55 49 74 50 39 51 40 52 54 54 75 55 42 56 26 57
REMARK SMILES IDX 27 58 35 59 28 60 34 61 36 62 33 63 29 64 30 65 31 66 32 67
REMARK SMILES IDX 58 68 59 69 67 70 60 71 66 72 68 73 65 74 61 75 62 76 63 77
REMARK SMILES IDX 64 78 43 79 44 80 52 81 45 82 51 83 53 84 50 85 46 86 47 87
REMARK SMILES IDX 48 88 49 89
REMARK H PARENT 9 6 3 18 14 23 73 42 41 53
REMARK Flexibility Score: inf
ROOT
ATOM      1  C   UNL A   1      31.612  28.351  27.331  1.00  0.00     0.023 C 
ENDROOT
BRANCH   1   2
ATOM      2  C   UNL A   1      32.289  27.082  26.826  1.00  0.00     0.116 C 
BRANCH   2   3
ATOM      3  N   UNL A   1      31.444  25.917  26.901  1.00  0.00    -0.356 N 
ATOM      4  C   UNL A   1      31.537  24.643  26.463  1.00  0.00     0.226 C 
ATOM      5  O   UNL A   1      30.716  23.900  27.024  1.00  0.00    -0.274 OA
ATOM      6  H   UNL A   1      30.604  26.091  27.384  1.00  0.00     0.163 HD
BRANCH   4   7
ATOM      7  C   UNL A   1      32.566  24.059  25.415  1.00  0.00     0.054 C 
ATOM      8  C   UNL A   1      32.160  22.602  25.044  1.00  0.00     0.017 C 
ATOM      9  C   UNL A   1      34.039  24.104  25.904  1.00  0.00     0.017 C 
ATOM     10  C   UNL A   1      32.679  21.461  25.904  1.00  0.00     0.001 C 
ATOM     11  C   UNL A   1      34.668  22.893  26.596  1.00  0.00     0.001 C 
ATOM     12  C   UNL A   1      34.181  21.540  26.111  1.00  0.00     0.000 C 
BRANCH   7  13
ATOM     13  C   UNL A   1      32.362  25.044  24.081  1.00  0.00     0.030 C 
ATOM     14  C   UNL A   1      31.439  24.433  22.998  1.00  0.00     0.011 C 
BRANCH  13  15
ATOM     15  C   UNL A   1      33.613  25.692  23.405  1.00  0.00     0.115 C 
ATOM     16  C   UNL A   1      33.568  27.218  23.317  1.00  0.00     0.038 C 
BRANCH  15  17
ATOM     17  O   UNL A   1      33.714  25.241  22.042  1.00  0.00    -0.393 OA
ATOM     18  H   UNL A   1      32.886  25.434  21.575  1.00  0.00     0.210 HD
ENDBRANCH  15  17
ENDBRANCH  13  15
ENDBRANCH   7  13
ENDBRANCH   4   7
ENDBRANCH   2   3
ENDBRANCH   1   2
BRANCH   1  19
ATOM     19  C   UNL A   1      31.507  29.474  26.302  1.00  0.00     0.023 C 
BRANCH  19  20
ATOM     20  C   UNL A   1      32.722  30.394  26.205  1.00  0.00     0.116 C 
BRANCH  20  21
ATOM     21  N   UNL A   1      32.519  31.727  26.759  1.00  0.00    -0.352 N 
ATOM     22  C   UNL A   1      33.383  32.452  27.558  1.00  0.00     0.251 C 
ATOM     23  H   UNL A   1      31.664  32.164  26.538  1.00  0.00     0.163 HD
ATOM     24  O   UNL A   1      33.063  33.542  27.995  1.00  0.00    -0.269 OA
BRANCH  22  25
ATOM     25  C   UNL A   1      34.680  31.835  27.909  1.00  0.00     0.039 A 
ATOM     26  C   UNL A   1      35.804  32.654  28.028  1.00  0.00     0.014 A 
ATOM     27  C   UNL A   1      34.742  30.482  28.244  1.00  0.00     0.014 A 
ATOM     28  C   UNL A   1      36.975  32.132  28.581  1.00  0.00     0.010 A 
ATOM     29  C   UNL A   1      35.881  29.985  28.867  1.00  0.00     0.010 A 
ATOM     30  C   UNL A   1      37.004  30.809  29.054  1.00  0.00    -0.014 A 
BRANCH  30  31
ATOM     31  C   UNL A   1      38.191  30.263  29.761  1.00  0.00     0.031 A 
ATOM     32  C   UNL A   1      38.494  30.712  31.163  1.00  0.00     0.074 A 
ATOM     33  C   UNL A   1      39.041  29.444  29.109  1.00  0.00     0.049 A 
ATOM     34  N   UNL A   1      39.537  30.454  31.909  1.00  0.00    -0.248 NA
ATOM     35  C   UNL A   1      37.512  31.609  31.789  1.00  0.00     0.031 C 
ATOM     36  C   UNL A   1      38.886  28.987  27.725  1.00  0.00     0.029 A 
ATOM     37  N   UNL A   1      40.213  28.860  29.518  1.00  0.00    -0.354 N 
ATOM     38  C   UNL A   1      39.348  31.177  33.082  1.00  0.00     0.074 A 
ATOM     39  C   UNL A   1      38.124  31.932  32.917  1.00  0.00     0.031 C 
ATOM     40  C   UNL A   1      39.909  28.177  27.411  1.00  0.00     0.029 A 
ATOM     41  C   UNL A   1      40.815  28.086  28.552  1.00  0.00     0.049 A 
ATOM     42  H   UNL A   1      40.589  28.982  30.420  1.00  0.00     0.167 HD
ATOM     43  C   UNL A   1      40.111  31.189  34.203  1.00  0.00     0.034 A 
ATOM     44  C   UNL A   1      41.968  27.391  28.581  1.00  0.00     0.034 A 
ATOM     45  C   UNL A   1      41.312  30.406  34.362  1.00  0.00     0.049 A 
ATOM     46  C   UNL A   1      42.790  27.400  29.845  1.00  0.00     0.074 A 
ATOM     47  C   UNL A   1      42.128  30.289  35.473  1.00  0.00     0.029 A 
ATOM     48  N   UNL A   1      41.870  29.603  33.374  1.00  0.00    -0.354 N 
ATOM     49  N   UNL A   1      42.571  28.048  30.966  1.00  0.00    -0.248 NA
ATOM     50  C   UNL A   1      44.005  26.575  29.851  1.00  0.00     0.031 C 
ATOM     51  C   UNL A   1      43.204  29.457  35.142  1.00  0.00     0.029 A 
ATOM     52  C   UNL A   1      43.027  29.003  33.845  1.00  0.00     0.049 A 
ATOM     53  H   UNL A   1      41.496  29.478  32.472  1.00  0.00     0.167 HD
ATOM     54  C   UNL A   1      43.608  27.685  31.821  1.00  0.00     0.074 A 
ATOM     55  C   UNL A   1      44.442  26.754  31.089  1.00  0.00     0.031 C 
ATOM     56  C   UNL A   1      43.848  28.082  33.096  1.00  0.00     0.034 A 
BRANCH  43  57
ATOM     57  C   UNL A   1      39.667  32.094  35.328  1.00  0.00     0.023 A 
ATOM     58  C   UNL A   1      38.964  31.595  36.439  1.00  0.00     0.031 A 
ATOM     59  C   UNL A   1      39.901  33.478  35.266  1.00  0.00     0.131 A 
ATOM     60  C   UNL A   1      38.438  32.481  37.390  1.00  0.00     0.055 A 
ATOM     61  C   UNL A   1      39.452  34.346  36.264  1.00  0.00     0.041 A 
ATOM     62  F   UNL A   1      40.550  34.016  34.222  1.00  0.00    -0.206 F 
ATOM     63  C   UNL A   1      38.699  33.851  37.325  1.00  0.00     0.022 A 
BRANCH  60  64
ATOM     64  S   UNL A   1      37.278  31.832  38.623  1.00  0.00     0.124 S 
ATOM     65  O   UNL A   1      38.044  31.989  39.858  1.00  0.00    -0.237 OA
ATOM     66  O   UNL A   1      36.127  32.714  38.470  1.00  0.00    -0.237 OA
ATOM     67  O   UNL A   1      37.066  30.448  38.201  1.00  0.00    -0.744 OA
ENDBRANCH  60  64
ENDBRANCH  43  57
BRANCH  44  68
ATOM     68  C   UNL A   1      42.422  26.625  27.386  1.00  0.00     0.023 A 
ATOM     69  C   UNL A   1      42.149  25.253  27.264  1.00  0.00     0.031 A 
ATOM     70  C   UNL A   1      43.166  27.245  26.367  1.00  0.00     0.131 A 
ATOM     71  C   UNL A   1      42.655  24.535  26.169  1.00  0.00     0.055 A 
ATOM     72  C   UNL A   1      43.631  26.535  25.259  1.00  0.00     0.041 A 
ATOM     73  F   UNL A   1      43.445  28.556  26.432  1.00  0.00    -0.206 F 
ATOM     74  C   UNL A   1      43.386  25.168  25.161  1.00  0.00     0.022 A 
BRANCH  71  75
ATOM     75  S   UNL A   1      42.406  22.739  26.120  1.00  0.00     0.124 S 
ATOM     76  O   UNL A   1      42.949  22.398  24.811  1.00  0.00    -0.237 OA
ATOM     77  O   UNL A   1      43.184  22.296  27.273  1.00  0.00    -0.237 OA
ATOM     78  O   UNL A   1      40.959  22.593  26.256  1.00  0.00    -0.744 OA
ENDBRANCH  71  75
ENDBRANCH  44  68
BRANCH  56  79
ATOM     79  C   UNL A   1      45.038  27.467  33.788  1.00  0.00     0.023 A 
ATOM     80  C   UNL A   1      44.953  26.222  34.435  1.00  0.00     0.031 A 
ATOM     81  C   UNL A   1      46.270  28.145  33.806  1.00  0.00     0.131 A 
ATOM     82  C   UNL A   1      46.070  25.716  35.116  1.00  0.00     0.055 A 
ATOM     83  C   UNL A   1      47.391  27.611  34.442  1.00  0.00     0.041 A 
ATOM     84  F   UNL A   1      46.402  29.338  33.203  1.00  0.00    -0.206 F 
ATOM     85  C   UNL A   1      47.291  26.395  35.112  1.00  0.00     0.022 A 
BRANCH  82  86
ATOM     86  S   UNL A   1      45.883  24.188  36.078  1.00  0.00     0.124 S 
ATOM     87  O   UNL A   1      44.431  24.070  36.180  1.00  0.00    -0.237 OA
ATOM     88  O   UNL A   1      46.545  23.203  35.230  1.00  0.00    -0.237 OA
ATOM     89  O   UNL A   1      46.571  24.487  37.333  1.00  0.00    -0.744 OA
ENDBRANCH  82  86
ENDBRANCH  56  79
ENDBRANCH  30  31
ENDBRANCH  22  25
ENDBRANCH  20  21
ENDBRANCH  19  20
ENDBRANCH   1  19
TORSDOF 17
ENDMDL
MODEL 3
REMARK VINA RESULT:     -10.9      3.355      8.800
REMARK SMILES C[C@H](O)[C@@H](C)C1(C(=O)NCCCCNC(=O)c2ccc(-c3c4nc(c(-c5cc(S(=O)(=O)[O-])ccc5F)c5ccc([nH]5)c(-c5cc(S(=O)(=O)[O-])ccc5F)c5nc(c(-c6cc(S(=O)(=O)[O-])ccc6F)c6ccc3[nH]6)C=C5)C=C4)cc2)CCCCC1
REMARK SMILES IDX 11 1 10 2 9 3 7 4 8 5 6 7 80 8 84 9 81 10 83 11 82 12 4 13
REMARK SMILES IDX 5 14 2 15 1 16 3 17 12 19 13 20 14 21 15 22 16 24 17 25
REMARK SMILES IDX 18 26 79 27 19 28 78 29 20 30 21 31 22 32 72 33 23 34 77 35
REMARK SMILES IDX 71 36 73 37 24 38 76 39 70 40 69 41 25 43 57 44 37 45 56 46
REMARK SMILES IDX 38 47 41 48 55 49 74 50 39 51 40 52 54 54 75 55 42 56 26 57
REMARK SMILES IDX 27 58 35 59 28 60 34 61 36 62 33 63 29 64 30 65 31 66 32 67
REMARK SMILES IDX 58 68 59 69 67 70 60 71 66 72 68 73 65 74 61 75 62 76 63 77
REMARK SMILES IDX 64 78 43 79 44 80 52 81 45 82 51 83 53 84 50 85 46 86 47 87
REMARK SMILES IDX 48 88 49 89
REMARK H PARENT 9 6 3 18 14 23 73 42 41 53
REMARK Flexibility Score: inf
ROOT
ATOM      1  C   UNL A   1      32.870  26.939  26.046  1.00  0.00     0.023 C 
ENDROOT
BRANCH   1   2
ATOM      2  C   UNL A   1      33.259  25.629  25.371  1.00  0.00     0.116 C 
BRANCH   2   3
ATOM      3  N   UNL A   1      33.525  24.564  26.304  1.00  0.00    -0.356 N 
ATOM      4  C   UNL A   1      34.033  23.316  26.207  1.00  0.00     0.226 C 
ATOM      5  O   UNL A   1      34.371  22.867  27.314  1.00  0.00    -0.274 OA
ATOM      6  H   UNL A   1      33.278  24.801  27.228  1.00  0.00     0.163 HD
BRANCH   4   7
ATOM      7  C   UNL A   1      34.264  22.472  24.891  1.00  0.00     0.054 C 
ATOM      8  C   UNL A   1      34.993  21.143  25.248  1.00  0.00     0.017 C 
ATOM      9  C   UNL A   1      35.045  23.242  23.793  1.00  0.00     0.017 C 
ATOM     10  C   UNL A   1      36.512  21.136  25.291  1.00  0.00     0.001 C 
ATOM     11  C   UNL A   1      36.564  23.100  23.672  1.00  0.00     0.001 C 
ATOM     12  C   UNL A   1      37.122  21.737  24.038  1.00  0.00     0.000 C 
BRANCH   7  13
ATOM     13  C   UNL A   1      32.713  22.128  24.374  1.00  0.00     0.030 C 
ATOM     14  C   UNL A   1      32.407  20.612  24.307  1.00  0.00     0.011 C 
BRANCH  13  15
ATOM     15  C   UNL A   1      32.151  22.837  23.100  1.00  0.00     0.115 C 
ATOM     16  C   UNL A   1      30.848  23.604  23.322  1.00  0.00     0.038 C 
BRANCH  15  17
ATOM     17  O   UNL A   1      31.842  21.853  22.096  1.00  0.00    -0.393 OA
ATOM     18  H   UNL A   1      32.078  22.199  21.221  1.00  0.00     0.210 HD
ENDBRANCH  15  17
ENDBRANCH  13  15
ENDBRANCH   7  13
ENDBRANCH   4   7
ENDBRANCH   2   3
ENDBRANCH   1   2
BRANCH   1  19
ATOM     19  C   UNL A   1      33.654  28.161  25.574  1.00  0.00     0.023 C 
BRANCH  19  20
ATOM     20  C   UNL A   1      34.409  28.921  26.662  1.00  0.00     0.116 C 
BRANCH  20  21
ATOM     21  N   UNL A   1      33.967  30.296  26.861  1.00  0.00    -0.352 N 
ATOM     22  C   UNL A   1      34.535  31.257  27.674  1.00  0.00     0.251 C 
ATOM     23  H   UNL A   1      33.168  30.571  26.356  1.00  0.00     0.163 HD
ATOM     24  O   UNL A   1      34.029  32.359  27.784  1.00  0.00    -0.269 OA
BRANCH  22  25
ATOM     25  C   UNL A   1      35.740  30.886  28.447  1.00  0.00     0.039 A 
ATOM     26  C   UNL A   1      35.632  29.898  29.427  1.00  0.00     0.014 A 
ATOM     27  C   UNL A   1      36.982  31.421  28.104  1.00  0.00     0.014 A 
ATOM     28  C   UNL A   1      36.793  29.373  29.999  1.00  0.00     0.010 A 
ATOM     29  C   UNL A   1      38.137  30.844  28.615  1.00  0.00     0.010 A 
ATOM     30  C   UNL A   1      38.055  29.805  29.558  1.00  0.00    -0.014 A 
BRANCH  30  31
ATOM     31  C   UNL A   1      39.307  29.178  30.054  1.00  0.00     0.031 A 
ATOM     32  C   UNL A   1      40.016  29.769  31.240  1.00  0.00     0.074 A 
ATOM     33  C   UNL A   1      39.849  28.142  29.383  1.00  0.00     0.049 A 
ATOM     34  N   UNL A   1      41.176  29.453  31.755  1.00  0.00    -0.248 NA
ATOM     35  C   UNL A   1      39.350  30.899  31.904  1.00  0.00     0.031 C 
ATOM     36  C   UNL A   1      39.285  27.520  28.182  1.00  0.00     0.029 A 
ATOM     37  N   UNL A   1      41.004  27.436  29.606  1.00  0.00    -0.354 N 
ATOM     38  C   UNL A   1      41.389  30.360  32.787  1.00  0.00     0.074 A 
ATOM     39  C   UNL A   1      40.268  31.277  32.778  1.00  0.00     0.031 C 
ATOM     40  C   UNL A   1      40.082  26.513  27.790  1.00  0.00     0.029 A 
ATOM     41  C   UNL A   1      41.234  26.440  28.684  1.00  0.00     0.049 A 
ATOM     42  H   UNL A   1      41.613  27.625  30.356  1.00  0.00     0.167 HD
ATOM     43  C   UNL A   1      42.412  30.409  33.676  1.00  0.00     0.034 A 
ATOM     44  C   UNL A   1      42.259  25.574  28.569  1.00  0.00     0.034 A 
ATOM     45  C   UNL A   1      43.505  29.468  33.689  1.00  0.00     0.049 A 
ATOM     46  C   UNL A   1      43.374  25.631  29.581  1.00  0.00     0.074 A 
ATOM     47  C   UNL A   1      44.560  29.380  34.580  1.00  0.00     0.029 A 
ATOM     48  N   UNL A   1      43.683  28.448  32.763  1.00  0.00    -0.354 N 
ATOM     49  N   UNL A   1      43.536  26.463  30.584  1.00  0.00    -0.248 NA
ATOM     50  C   UNL A   1      44.436  24.625  29.453  1.00  0.00     0.031 C 
ATOM     51  C   UNL A   1      45.401  28.341  34.165  1.00  0.00     0.029 A 
ATOM     52  C   UNL A   1      44.838  27.739  33.051  1.00  0.00     0.049 A 
ATOM     53  H   UNL A   1      43.076  28.256  32.012  1.00  0.00     0.167 HD
ATOM     54  C   UNL A   1      44.706  26.061  31.224  1.00  0.00     0.074 A 
ATOM     55  C   UNL A   1      45.198  24.907  30.500  1.00  0.00     0.031 C 
ATOM     56  C   UNL A   1      45.316  26.594  32.312  1.00  0.00     0.034 A 
BRANCH  43  57
ATOM     57  C   UNL A   1      42.392  31.529  34.689  1.00  0.00     0.023 A 
ATOM     58  C   UNL A   1      41.466  31.547  35.747  1.00  0.00     0.031 A 
ATOM     59  C   UNL A   1      43.271  32.619  34.566  1.00  0.00     0.131 A 
ATOM     60  C   UNL A   1      41.376  32.672  36.579  1.00  0.00     0.055 A 
ATOM     61  C   UNL A   1      43.235  33.696  35.454  1.00  0.00     0.041 A 
ATOM     62  F   UNL A   1      44.164  32.668  33.566  1.00  0.00    -0.206 F 
ATOM     63  C   UNL A   1      42.272  33.736  36.457  1.00  0.00     0.022 A 
BRANCH  60  64
ATOM     64  S   UNL A   1      39.971  32.790  37.720  1.00  0.00     0.124 S 
ATOM     65  O   UNL A   1      39.121  31.696  37.252  1.00  0.00    -0.237 OA
ATOM     66  O   UNL A   1      40.601  32.596  39.020  1.00  0.00    -0.237 OA
ATOM     67  O   UNL A   1      39.441  34.130  37.474  1.00  0.00    -0.744 OA
ENDBRANCH  60  64
ENDBRANCH  43  57
BRANCH  44  68
ATOM     68  C   UNL A   1      42.288  24.578  27.462  1.00  0.00     0.023 A 
ATOM     69  C   UNL A   1      41.683  23.319  27.609  1.00  0.00     0.031 A 
ATOM     70  C   UNL A   1      42.952  24.854  26.254  1.00  0.00     0.131 A 
ATOM     71  C   UNL A   1      41.792  22.366  26.584  1.00  0.00     0.055 A 
ATOM     72  C   UNL A   1      43.021  23.919  25.220  1.00  0.00     0.041 A 
ATOM     73  F   UNL A   1      43.538  26.046  26.059  1.00  0.00    -0.206 F 
ATOM     74  C   UNL A   1      42.449  22.661  25.387  1.00  0.00     0.022 A 
BRANCH  71  75
ATOM     75  S   UNL A   1      41.124  20.705  26.870  1.00  0.00     0.124 S 
ATOM     76  O   UNL A   1      40.783  20.760  28.287  1.00  0.00    -0.237 OA
ATOM     77  O   UNL A   1      40.001  20.668  25.940  1.00  0.00    -0.237 OA
ATOM     78  O   UNL A   1      42.241  19.826  26.530  1.00  0.00    -0.744 OA
ENDBRANCH  71  75
ENDBRANCH  44  68
BRANCH  56  79
ATOM     79  C   UNL A   1      46.557  25.897  32.806  1.00  0.00     0.023 A 
ATOM     80  C   UNL A   1      47.825  26.178  32.269  1.00  0.00     0.031 A 
ATOM     81  C   UNL A   1      46.465  24.930  33.823  1.00  0.00     0.131 A 
ATOM     82  C   UNL A   1      48.945  25.463  32.718  1.00  0.00     0.055 A 
ATOM     83  C   UNL A   1      47.590  24.259  34.302  1.00  0.00     0.041 A 
ATOM     84  F   UNL A   1      45.276  24.626  34.369  1.00  0.00    -0.206 F 
ATOM     85  C   UNL A   1      48.838  24.516  33.740  1.00  0.00     0.022 A 
BRANCH  82  86
ATOM     86  S   UNL A   1      50.538  25.731  31.891  1.00  0.00     0.124 S 
ATOM     87  O   UNL A   1      50.442  24.829  30.748  1.00  0.00    -0.237 OA
ATOM     88  O   UNL A   1      50.494  27.156  31.584  1.00  0.00    -0.237 OA
ATOM     89  O   UNL A   1      51.519  25.347  32.905  1.00  0.00    -0.744 OA
ENDBRANCH  82  86
ENDBRANCH  56  79
ENDBRANCH  30  31
ENDBRANCH  22  25
ENDBRANCH  20  21
ENDBRANCH  19  20
ENDBRANCH   1  19
TORSDOF 17
ENDMDL
