MODEL 1
REMARK VINA RESULT:     -10.4      0.000      0.000
REMARK SMILES O=C(COc1ccccc1/C=N/NC(=O)c1cc(-c2ccc(F)cc2)nc2ccccc12)NCCCCNC(=O)c1ccc(-c2c3nc(c(-c4cc(S(=O)(=O)[O-])ccc4F)c4ccc([nH]4)c(-c4cc(S(=O)(=O)[O-])ccc4F)c4nc(c(-c5cc(S(=O)(=O)[O-])ccc5F)c5ccc2[nH]5)C=C4)C=C3)cc1
REMARK SMILES IDX 34 1 33 2 1 3 2 4 3 6 4 7 5 8 6 9 10 10 7 11 9 12 8 13 11 14
REMARK SMILES IDX 12 15 13 16 14 17 15 19 16 20 17 21 32 22 18 23 27 24 31 25
REMARK SMILES IDX 26 26 28 27 30 28 29 29 19 30 20 31 25 32 21 33 24 34 22 35
REMARK SMILES IDX 23 36 35 37 36 38 37 39 38 40 39 41 40 43 41 44 42 45 103 46
REMARK SMILES IDX 43 47 102 48 44 49 45 50 46 51 96 52 47 53 101 54 95 55
REMARK SMILES IDX 97 56 48 57 100 58 94 59 93 60 49 62 81 63 61 64 80 65 62 66
REMARK SMILES IDX 65 67 79 68 98 69 63 70 64 71 78 73 99 74 66 75 50 76 51 77
REMARK SMILES IDX 59 78 52 79 58 80 60 81 57 82 53 83 54 84 55 85 56 86 82 87
REMARK SMILES IDX 83 88 91 89 84 90 90 91 92 92 89 93 85 94 86 95 87 96 88 97
REMARK SMILES IDX 67 98 68 99 76 100 69 101 75 102 77 103 74 104 70 105 71 106
REMARK SMILES IDX 72 107 73 108
REMARK H PARENT 33 5 13 18 38 42 97 61 65 72
REMARK Flexibility Score: inf
ROOT
ATOM      1  C   UNL A   1      42.583  23.297  29.092  1.00  0.00     0.116 C 
ENDROOT
BRANCH   1   2
ATOM      2  N   UNL A   1      42.638  21.988  28.483  1.00  0.00    -0.353 N 
ATOM      3  O   UNL A   1      40.440  21.581  27.844  1.00  0.00    -0.271 OA
ATOM      4  C   UNL A   1      41.646  21.531  27.630  1.00  0.00     0.257 C 
ATOM      5  H   UNL A   1      43.405  21.403  28.681  1.00  0.00     0.163 HD
BRANCH   4   6
ATOM      6  C   UNL A   1      42.172  20.930  26.346  1.00  0.00     0.329 C 
BRANCH   6   7
ATOM      7  O   UNL A   1      42.414  22.038  25.486  1.00  0.00    -0.483 OA
BRANCH   7   8
ATOM      8  C   UNL A   1      43.664  22.061  24.943  1.00  0.00     0.128 A 
ATOM      9  C   UNL A   1      44.225  20.774  24.824  1.00  0.00     0.047 A 
ATOM     10  C   UNL A   1      44.468  23.205  24.845  1.00  0.00     0.037 A 
ATOM     11  C   UNL A   1      45.598  20.603  24.685  1.00  0.00     0.004 A 
ATOM     12  C   UNL A   1      45.862  23.002  24.743  1.00  0.00     0.013 A 
ATOM     13  C   UNL A   1      46.421  21.719  24.678  1.00  0.00     0.001 A 
BRANCH  10  14
ATOM     14  C   UNL A   1      44.109  24.657  24.957  1.00  0.00     0.145 C 
ATOM     15  N   UNL A   1      43.031  25.228  25.445  1.00  0.00    -0.180 NA
BRANCH  15  16
ATOM     16  N   UNL A   1      42.942  26.565  25.044  1.00  0.00    -0.243 N 
ATOM     17  C   UNL A   1      42.172  27.666  25.433  1.00  0.00     0.272 C 
ATOM     18  H   UNL A   1      43.571  26.782  24.317  1.00  0.00     0.194 HD
ATOM     19  O   UNL A   1      42.234  28.620  24.645  1.00  0.00    -0.267 OA
BRANCH  17  20
ATOM     20  C   UNL A   1      41.470  27.876  26.747  1.00  0.00     0.053 A 
ATOM     21  C   UNL A   1      40.136  28.272  26.839  1.00  0.00     0.043 A 
ATOM     22  C   UNL A   1      42.186  27.745  27.998  1.00  0.00     0.013 A 
ATOM     23  C   UNL A   1      39.494  28.073  28.055  1.00  0.00     0.072 A 
ATOM     24  C   UNL A   1      41.401  27.503  29.133  1.00  0.00     0.072 A 
ATOM     25  C   UNL A   1      43.566  27.949  28.275  1.00  0.00     0.011 A 
ATOM     26  N   UNL A   1      40.102  27.451  29.082  1.00  0.00    -0.248 NA
ATOM     27  C   UNL A   1      41.891  27.483  30.422  1.00  0.00     0.029 A 
ATOM     28  C   UNL A   1      44.051  28.031  29.594  1.00  0.00     0.001 A 
ATOM     29  C   UNL A   1      43.209  27.804  30.673  1.00  0.00     0.002 A 
BRANCH  23  30
ATOM     30  C   UNL A   1      38.293  28.694  28.638  1.00  0.00     0.000 A 
ATOM     31  C   UNL A   1      37.861  29.876  27.986  1.00  0.00     0.013 A 
ATOM     32  C   UNL A   1      38.085  28.591  30.029  1.00  0.00     0.013 A 
ATOM     33  C   UNL A   1      37.446  30.986  28.724  1.00  0.00     0.040 A 
ATOM     34  C   UNL A   1      37.641  29.699  30.762  1.00  0.00     0.040 A 
ATOM     35  C   UNL A   1      37.375  30.895  30.107  1.00  0.00     0.123 A 
ATOM     36  F   UNL A   1      37.112  31.999  30.822  1.00  0.00    -0.207 F 
ENDBRANCH  23  30
ENDBRANCH  17  20
ENDBRANCH  15  16
ENDBRANCH  10  14
ENDBRANCH   7   8
ENDBRANCH   6   7
ENDBRANCH   4   6
ENDBRANCH   1   2
BRANCH   1  37
ATOM     37  C   UNL A   1      43.855  23.820  29.718  1.00  0.00     0.023 C 
BRANCH  37  38
ATOM     38  C   UNL A   1      45.066  23.777  28.815  1.00  0.00     0.023 C 
BRANCH  38  39
ATOM     39  C   UNL A   1      45.688  25.133  28.538  1.00  0.00     0.116 C 
BRANCH  39  40
ATOM     40  N   UNL A   1      47.093  25.060  28.153  1.00  0.00    -0.352 N 
ATOM     41  C   UNL A   1      47.928  26.090  27.781  1.00  0.00     0.251 C 
ATOM     42  H   UNL A   1      47.494  24.160  28.160  1.00  0.00     0.163 HD
ATOM     43  O   UNL A   1      49.056  25.861  27.357  1.00  0.00    -0.269 OA
BRANCH  41  44
ATOM     44  C   UNL A   1      47.418  27.475  27.863  1.00  0.00     0.039 A 
ATOM     45  C   UNL A   1      47.683  28.234  29.004  1.00  0.00     0.014 A 
ATOM     46  C   UNL A   1      46.787  28.051  26.758  1.00  0.00     0.014 A 
ATOM     47  C   UNL A   1      47.396  29.601  28.997  1.00  0.00     0.010 A 
ATOM     48  C   UNL A   1      46.613  29.428  26.712  1.00  0.00     0.010 A 
ATOM     49  C   UNL A   1      46.909  30.220  27.833  1.00  0.00    -0.014 A 
BRANCH  49  50
ATOM     50  C   UNL A   1      46.684  31.688  27.769  1.00  0.00     0.031 A 
ATOM     51  C   UNL A   1      47.779  32.587  27.261  1.00  0.00     0.074 A 
ATOM     52  C   UNL A   1      45.529  32.215  28.224  1.00  0.00     0.049 A 
ATOM     53  N   UNL A   1      47.818  33.893  27.199  1.00  0.00    -0.248 NA
ATOM     54  C   UNL A   1      49.011  31.929  26.797  1.00  0.00     0.031 C 
ATOM     55  C   UNL A   1      44.412  31.452  28.787  1.00  0.00     0.029 A 
ATOM     56  N   UNL A   1      45.102  33.519  28.291  1.00  0.00    -0.354 N 
ATOM     57  C   UNL A   1      49.078  34.210  26.702  1.00  0.00     0.074 A 
ATOM     58  C   UNL A   1      49.800  32.965  26.563  1.00  0.00     0.031 C 
ATOM     59  C   UNL A   1      43.417  32.296  29.104  1.00  0.00     0.029 A 
ATOM     60  C   UNL A   1      43.840  33.664  28.822  1.00  0.00     0.049 A 
ATOM     61  H   UNL A   1      45.648  34.280  27.987  1.00  0.00     0.167 HD
ATOM     62  C   UNL A   1      49.576  35.424  26.362  1.00  0.00     0.034 A 
ATOM     63  C   UNL A   1      43.113  34.773  29.066  1.00  0.00     0.034 A 
ATOM     64  C   UNL A   1      48.838  36.655  26.496  1.00  0.00     0.049 A 
ATOM     65  C   UNL A   1      43.698  36.117  28.709  1.00  0.00     0.074 A 
ATOM     66  C   UNL A   1      49.222  37.934  26.137  1.00  0.00     0.029 A 
ATOM     67  N   UNL A   1      47.564  36.761  27.041  1.00  0.00    -0.354 N 
ATOM     68  N   UNL A   1      44.873  36.395  28.190  1.00  0.00    -0.248 NA
ATOM     69  C   UNL A   1      42.857  37.294  28.960  1.00  0.00     0.031 C 
ATOM     70  C   UNL A   1      48.217  38.821  26.535  1.00  0.00     0.029 A 
ATOM     71  C   UNL A   1      47.164  38.090  27.059  1.00  0.00     0.049 A 
ATOM     72  H   UNL A   1      47.023  36.005  27.366  1.00  0.00     0.167 HD
ATOM     73  C   UNL A   1      44.895  37.778  28.023  1.00  0.00     0.074 A 
ATOM     74  C   UNL A   1      43.613  38.271  28.481  1.00  0.00     0.031 C 
ATOM     75  C   UNL A   1      45.884  38.568  27.530  1.00  0.00     0.034 A 
BRANCH  62  76
ATOM     76  C   UNL A   1      50.992  35.469  25.835  1.00  0.00     0.023 A 
ATOM     77  C   UNL A   1      51.356  34.823  24.638  1.00  0.00     0.031 A 
ATOM     78  C   UNL A   1      52.002  36.131  26.554  1.00  0.00     0.131 A 
ATOM     79  C   UNL A   1      52.702  34.778  24.246  1.00  0.00     0.055 A 
ATOM     80  C   UNL A   1      53.325  36.164  26.108  1.00  0.00     0.041 A 
ATOM     81  F   UNL A   1      51.724  36.745  27.716  1.00  0.00    -0.206 F 
ATOM     82  C   UNL A   1      53.685  35.469  24.958  1.00  0.00     0.022 A 
BRANCH  79  83
ATOM     83  S   UNL A   1      53.172  33.668  22.891  1.00  0.00     0.124 S 
ATOM     84  O   UNL A   1      54.399  33.070  23.413  1.00  0.00    -0.237 OA
ATOM     85  O   UNL A   1      52.019  32.780  22.796  1.00  0.00    -0.237 OA
ATOM     86  O   UNL A   1      53.362  34.571  21.758  1.00  0.00    -0.744 OA
ENDBRANCH  79  83
ENDBRANCH  62  76
BRANCH  63  87
ATOM     87  C   UNL A   1      41.758  34.670  29.685  1.00  0.00     0.023 A 
ATOM     88  C   UNL A   1      41.600  34.298  31.030  1.00  0.00     0.031 A 
ATOM     89  C   UNL A   1      40.596  34.901  28.926  1.00  0.00     0.131 A 
ATOM     90  C   UNL A   1      40.313  34.120  31.562  1.00  0.00     0.055 A 
ATOM     91  C   UNL A   1      39.318  34.780  29.476  1.00  0.00     0.041 A 
ATOM     92  F   UNL A   1      40.687  35.258  27.635  1.00  0.00    -0.206 F 
ATOM     93  C   UNL A   1      39.170  34.374  30.798  1.00  0.00     0.022 A 
BRANCH  90  94
ATOM     94  S   UNL A   1      40.150  33.457  33.243  1.00  0.00     0.124 S 
ATOM     95  O   UNL A   1      39.508  32.171  32.994  1.00  0.00    -0.237 OA
ATOM     96  O   UNL A   1      41.540  33.406  33.684  1.00  0.00    -0.237 OA
ATOM     97  O   UNL A   1      39.319  34.450  33.921  1.00  0.00    -0.744 OA
ENDBRANCH  90  94
ENDBRANCH  63  87
BRANCH  75  98
ATOM     98  C   UNL A   1      45.594  40.046  27.418  1.00  0.00     0.023 A 
ATOM     99  C   UNL A   1      44.955  40.595  26.294  1.00  0.00     0.031 A 
ATOM    100  C   UNL A   1      45.970  40.918  28.457  1.00  0.00     0.131 A 
ATOM    101  C   UNL A   1      44.763  41.982  26.207  1.00  0.00     0.055 A 
ATOM    102  C   UNL A   1      45.714  42.288  28.396  1.00  0.00     0.041 A 
ATOM    103  F   UNL A   1      46.587  40.450  29.554  1.00  0.00    -0.206 F 
ATOM    104  C   UNL A   1      45.120  42.830  27.260  1.00  0.00     0.022 A 
BRANCH 101 105
ATOM    105  S   UNL A   1      44.132  42.680  24.657  1.00  0.00     0.124 S 
ATOM    106  O   UNL A   1      44.322  44.111  24.870  1.00  0.00    -0.237 OA
ATOM    107  O   UNL A   1      45.003  42.064  23.660  1.00  0.00    -0.237 OA
ATOM    108  O   UNL A   1      42.741  42.236  24.621  1.00  0.00    -0.744 OA
ENDBRANCH 101 105
ENDBRANCH  75  98
ENDBRANCH  49  50
ENDBRANCH  41  44
ENDBRANCH  39  40
ENDBRANCH  38  39
ENDBRANCH  37  38
ENDBRANCH   1  37
TORSDOF 20
ENDMDL
MODEL 2
REMARK VINA RESULT:     -10.4      8.101     14.032
REMARK SMILES O=C(COc1ccccc1/C=N/NC(=O)c1cc(-c2ccc(F)cc2)nc2ccccc12)NCCCCNC(=O)c1ccc(-c2c3nc(c(-c4cc(S(=O)(=O)[O-])ccc4F)c4ccc([nH]4)c(-c4cc(S(=O)(=O)[O-])ccc4F)c4nc(c(-c5cc(S(=O)(=O)[O-])ccc5F)c5ccc2[nH]5)C=C4)C=C3)cc1
REMARK SMILES IDX 34 1 33 2 1 3 2 4 3 6 4 7 5 8 6 9 10 10 7 11 9 12 8 13 11 14
REMARK SMILES IDX 12 15 13 16 14 17 15 19 16 20 17 21 32 22 18 23 27 24 31 25
REMARK SMILES IDX 26 26 28 27 30 28 29 29 19 30 20 31 25 32 21 33 24 34 22 35
REMARK SMILES IDX 23 36 35 37 36 38 37 39 38 40 39 41 40 43 41 44 42 45 103 46
REMARK SMILES IDX 43 47 102 48 44 49 45 50 46 51 96 52 47 53 101 54 95 55
REMARK SMILES IDX 97 56 48 57 100 58 94 59 93 60 49 62 81 63 61 64 80 65 62 66
REMARK SMILES IDX 65 67 79 68 98 69 63 70 64 71 78 73 99 74 66 75 50 76 51 77
REMARK SMILES IDX 59 78 52 79 58 80 60 81 57 82 53 83 54 84 55 85 56 86 82 87
REMARK SMILES IDX 83 88 91 89 84 90 90 91 92 92 89 93 85 94 86 95 87 96 88 97
REMARK SMILES IDX 67 98 68 99 76 100 69 101 75 102 77 103 74 104 70 105 71 106
REMARK SMILES IDX 72 107 73 108
REMARK H PARENT 33 5 13 18 38 42 97 61 65 72
REMARK Flexibility Score: inf
ROOT
ATOM      1  C   UNL A   1      34.031  31.533  27.591  1.00  0.00     0.116 C 
ENDROOT
BRANCH   1   2
ATOM      2  N   UNL A   1      33.039  30.482  27.594  1.00  0.00    -0.353 N 
ATOM      3  O   UNL A   1      33.114  29.646  25.425  1.00  0.00    -0.271 OA
ATOM      4  C   UNL A   1      33.029  29.479  26.637  1.00  0.00     0.257 C 
ATOM      5  H   UNL A   1      32.351  30.479  28.297  1.00  0.00     0.163 HD
BRANCH   4   6
ATOM      6  C   UNL A   1      32.894  28.087  27.212  1.00  0.00     0.329 C 
BRANCH   6   7
ATOM      7  O   UNL A   1      33.390  27.215  26.202  1.00  0.00    -0.483 OA
BRANCH   7   8
ATOM      8  C   UNL A   1      32.598  26.132  25.961  1.00  0.00     0.128 A 
ATOM      9  C   UNL A   1      31.227  26.457  25.949  1.00  0.00     0.047 A 
ATOM     10  C   UNL A   1      33.018  24.799  26.074  1.00  0.00     0.037 A 
ATOM     11  C   UNL A   1      30.259  25.475  26.127  1.00  0.00     0.004 A 
ATOM     12  C   UNL A   1      32.016  23.828  26.292  1.00  0.00     0.013 A 
ATOM     13  C   UNL A   1      30.656  24.163  26.332  1.00  0.00     0.001 A 
BRANCH  10  14
ATOM     14  C   UNL A   1      34.399  24.218  26.130  1.00  0.00     0.145 C 
ATOM     15  N   UNL A   1      35.536  24.689  25.670  1.00  0.00    -0.180 NA
BRANCH  15  16
ATOM     16  N   UNL A   1      36.513  23.689  25.619  1.00  0.00    -0.243 N 
ATOM     17  C   UNL A   1      36.500  22.301  25.448  1.00  0.00     0.272 C 
ATOM     18  H   UNL A   1      37.424  24.047  25.729  1.00  0.00     0.194 HD
ATOM     19  O   UNL A   1      37.580  21.756  25.715  1.00  0.00    -0.267 OA
BRANCH  17  20
ATOM     20  C   UNL A   1      35.422  21.465  24.813  1.00  0.00     0.053 A 
ATOM     21  C   UNL A   1      35.339  20.083  24.978  1.00  0.00     0.043 A 
ATOM     22  C   UNL A   1      34.450  22.063  23.923  1.00  0.00     0.013 A 
ATOM     23  C   UNL A   1      34.126  19.477  24.673  1.00  0.00     0.072 A 
ATOM     24  C   UNL A   1      33.256  21.352  23.749  1.00  0.00     0.072 A 
ATOM     25  C   UNL A   1      34.572  23.212  23.093  1.00  0.00     0.011 A 
ATOM     26  N   UNL A   1      33.048  20.195  24.309  1.00  0.00    -0.248 NA
ATOM     27  C   UNL A   1      32.275  21.696  22.843  1.00  0.00     0.029 A 
ATOM     28  C   UNL A   1      33.622  23.508  22.097  1.00  0.00     0.001 A 
ATOM     29  C   UNL A   1      32.472  22.743  21.966  1.00  0.00     0.002 A 
BRANCH  23  30
ATOM     30  C   UNL A   1      33.787  18.082  24.343  1.00  0.00     0.000 A 
ATOM     31  C   UNL A   1      32.451  17.712  24.637  1.00  0.00     0.013 A 
ATOM     32  C   UNL A   1      34.788  17.097  24.460  1.00  0.00     0.013 A 
ATOM     33  C   UNL A   1      32.166  16.481  25.230  1.00  0.00     0.040 A 
ATOM     34  C   UNL A   1      34.493  15.852  25.029  1.00  0.00     0.040 A 
ATOM     35  C   UNL A   1      33.197  15.578  25.452  1.00  0.00     0.123 A 
ATOM     36  F   UNL A   1      32.948  14.458  26.146  1.00  0.00    -0.207 F 
ENDBRANCH  23  30
ENDBRANCH  17  20
ENDBRANCH  15  16
ENDBRANCH  10  14
ENDBRANCH   7   8
ENDBRANCH   6   7
ENDBRANCH   4   6
ENDBRANCH   1   2
BRANCH   1  37
ATOM     37  C   UNL A   1      33.572  32.914  27.996  1.00  0.00     0.023 C 
BRANCH  37  38
ATOM     38  C   UNL A   1      34.499  33.634  28.949  1.00  0.00     0.023 C 
BRANCH  38  39
ATOM     39  C   UNL A   1      34.260  35.128  29.044  1.00  0.00     0.116 C 
BRANCH  39  40
ATOM     40  N   UNL A   1      33.162  35.485  29.936  1.00  0.00    -0.352 N 
ATOM     41  C   UNL A   1      33.044  35.233  31.285  1.00  0.00     0.251 C 
ATOM     42  H   UNL A   1      32.411  35.967  29.520  1.00  0.00     0.163 HD
ATOM     43  O   UNL A   1      32.001  35.479  31.880  1.00  0.00    -0.269 OA
BRANCH  41  44
ATOM     44  C   UNL A   1      34.189  34.618  31.989  1.00  0.00     0.039 A 
ATOM     45  C   UNL A   1      34.087  33.299  32.435  1.00  0.00     0.014 A 
ATOM     46  C   UNL A   1      35.397  35.310  32.093  1.00  0.00     0.014 A 
ATOM     47  C   UNL A   1      35.230  32.646  32.902  1.00  0.00     0.010 A 
ATOM     48  C   UNL A   1      36.551  34.623  32.445  1.00  0.00     0.010 A 
ATOM     49  C   UNL A   1      36.481  33.284  32.860  1.00  0.00    -0.014 A 
BRANCH  49  50
ATOM     50  C   UNL A   1      37.727  32.579  33.262  1.00  0.00     0.031 A 
ATOM     51  C   UNL A   1      38.377  32.910  34.579  1.00  0.00     0.074 A 
ATOM     52  C   UNL A   1      38.306  31.697  32.424  1.00  0.00     0.049 A 
ATOM     53  N   UNL A   1      39.502  32.474  35.082  1.00  0.00    -0.248 NA
ATOM     54  C   UNL A   1      37.684  33.894  35.427  1.00  0.00     0.031 C 
ATOM     55  C   UNL A   1      37.801  31.329  31.098  1.00  0.00     0.029 A 
ATOM     56  N   UNL A   1      39.450  30.948  32.556  1.00  0.00    -0.354 N 
ATOM     57  C   UNL A   1      39.657  33.138  36.295  1.00  0.00     0.074 A 
ATOM     58  C   UNL A   1      38.555  34.068  36.408  1.00  0.00     0.031 C 
ATOM     59  C   UNL A   1      38.608  30.402  30.560  1.00  0.00     0.029 A 
ATOM     60  C   UNL A   1      39.719  30.145  31.471  1.00  0.00     0.049 A 
ATOM     61  H   UNL A   1      40.027  30.984  33.354  1.00  0.00     0.167 HD
ATOM     62  C   UNL A   1      40.611  32.965  37.242  1.00  0.00     0.034 A 
ATOM     63  C   UNL A   1      40.748  29.308  31.232  1.00  0.00     0.034 A 
ATOM     64  C   UNL A   1      41.696  32.024  37.118  1.00  0.00     0.049 A 
ATOM     65  C   UNL A   1      41.817  29.154  32.286  1.00  0.00     0.074 A 
ATOM     66  C   UNL A   1      42.689  31.729  38.034  1.00  0.00     0.029 A 
ATOM     67  N   UNL A   1      41.936  31.230  36.003  1.00  0.00    -0.354 N 
ATOM     68  N   UNL A   1      41.920  29.751  33.452  1.00  0.00    -0.248 NA
ATOM     69  C   UNL A   1      42.901  28.206  31.998  1.00  0.00     0.031 C 
ATOM     70  C   UNL A   1      43.572  30.819  37.445  1.00  0.00     0.029 A 
ATOM     71  C   UNL A   1      43.082  30.473  36.196  1.00  0.00     0.049 A 
ATOM     72  H   UNL A   1      41.375  31.208  35.194  1.00  0.00     0.167 HD
ATOM     73  C   UNL A   1      43.064  29.224  34.048  1.00  0.00     0.074 A 
ATOM     74  C   UNL A   1      43.603  28.252  33.121  1.00  0.00     0.031 C 
ATOM     75  C   UNL A   1      43.614  29.514  35.256  1.00  0.00     0.034 A 
BRANCH  62  76
ATOM     76  C   UNL A   1      40.525  33.831  38.478  1.00  0.00     0.023 A 
ATOM     77  C   UNL A   1      39.698  33.489  39.564  1.00  0.00     0.031 A 
ATOM     78  C   UNL A   1      41.247  35.035  38.559  1.00  0.00     0.131 A 
ATOM     79  C   UNL A   1      39.546  34.378  40.638  1.00  0.00     0.055 A 
ATOM     80  C   UNL A   1      41.164  35.870  39.675  1.00  0.00     0.041 A 
ATOM     81  F   UNL A   1      42.034  35.429  37.545  1.00  0.00    -0.206 F 
ATOM     82  C   UNL A   1      40.296  35.554  40.715  1.00  0.00     0.022 A 
BRANCH  79  83
ATOM     83  S   UNL A   1      38.232  34.057  41.847  1.00  0.00     0.124 S 
ATOM     84  O   UNL A   1      37.236  33.373  41.025  1.00  0.00    -0.237 OA
ATOM     85  O   UNL A   1      38.912  33.237  42.842  1.00  0.00    -0.237 OA
ATOM     86  O   UNL A   1      37.845  35.393  42.296  1.00  0.00    -0.744 OA
ENDBRANCH  79  83
ENDBRANCH  62  76
BRANCH  63  87
ATOM     87  C   UNL A   1      40.831  28.555  29.945  1.00  0.00     0.023 A 
ATOM     88  C   UNL A   1      41.738  28.932  28.941  1.00  0.00     0.031 A 
ATOM     89  C   UNL A   1      39.971  27.474  29.683  1.00  0.00     0.131 A 
ATOM     90  C   UNL A   1      41.733  28.265  27.705  1.00  0.00     0.055 A 
ATOM     91  C   UNL A   1      40.011  26.776  28.474  1.00  0.00     0.041 A 
ATOM     92  F   UNL A   1      39.084  27.071  30.606  1.00  0.00    -0.206 F 
ATOM     93  C   UNL A   1      40.886  27.179  27.471  1.00  0.00     0.022 A 
BRANCH  90  94
ATOM     94  S   UNL A   1      42.784  28.899  26.370  1.00  0.00     0.124 S 
ATOM     95  O   UNL A   1      43.088  30.244  26.845  1.00  0.00    -0.237 OA
ATOM     96  O   UNL A   1      43.892  27.949  26.379  1.00  0.00    -0.237 OA
ATOM     97  O   UNL A   1      41.918  28.831  25.194  1.00  0.00    -0.744 OA
ENDBRANCH  90  94
ENDBRANCH  63  87
BRANCH  75  98
ATOM     98  C   UNL A   1      44.841  28.731  35.659  1.00  0.00     0.023 A 
ATOM     99  C   UNL A   1      44.750  27.498  36.327  1.00  0.00     0.031 A 
ATOM    100  C   UNL A   1      46.124  29.233  35.371  1.00  0.00     0.131 A 
ATOM    101  C   UNL A   1      45.918  26.837  36.737  1.00  0.00     0.055 A 
ATOM    102  C   UNL A   1      47.282  28.537  35.720  1.00  0.00     0.041 A 
ATOM    103  F   UNL A   1      46.273  30.408  34.738  1.00  0.00    -0.206 F 
ATOM    104  C   UNL A   1      47.183  27.338  36.420  1.00  0.00     0.022 A 
BRANCH 101 105
ATOM    105  S   UNL A   1      45.764  25.361  37.780  1.00  0.00     0.124 S 
ATOM    106  O   UNL A   1      46.938  24.589  37.387  1.00  0.00    -0.237 OA
ATOM    107  O   UNL A   1      45.794  25.926  39.126  1.00  0.00    -0.237 OA
ATOM    108  O   UNL A   1      44.481  24.789  37.378  1.00  0.00    -0.744 OA
ENDBRANCH 101 105
ENDBRANCH  75  98
ENDBRANCH  49  50
ENDBRANCH  41  44
ENDBRANCH  39  40
ENDBRANCH  38  39
ENDBRANCH  37  38
ENDBRANCH   1  37
TORSDOF 20
ENDMDL
MODEL 3
REMARK VINA RESULT:     -10.2      1.814      2.091
REMARK SMILES O=C(COc1ccccc1/C=N/NC(=O)c1cc(-c2ccc(F)cc2)nc2ccccc12)NCCCCNC(=O)c1ccc(-c2c3nc(c(-c4cc(S(=O)(=O)[O-])ccc4F)c4ccc([nH]4)c(-c4cc(S(=O)(=O)[O-])ccc4F)c4nc(c(-c5cc(S(=O)(=O)[O-])ccc5F)c5ccc2[nH]5)C=C4)C=C3)cc1
REMARK SMILES IDX 34 1 33 2 1 3 2 4 3 6 4 7 5 8 6 9 10 10 7 11 9 12 8 13 11 14
REMARK SMILES IDX 12 15 13 16 14 17 15 19 16 20 17 21 32 22 18 23 27 24 31 25
REMARK SMILES IDX 26 26 28 27 30 28 29 29 19 30 20 31 25 32 21 33 24 34 22 35
REMARK SMILES IDX 23 36 35 37 36 38 37 39 38 40 39 41 40 43 41 44 42 45 103 46
REMARK SMILES IDX 43 47 102 48 44 49 45 50 46 51 96 52 47 53 101 54 95 55
REMARK SMILES IDX 97 56 48 57 100 58 94 59 93 60 49 62 81 63 61 64 80 65 62 66
REMARK SMILES IDX 65 67 79 68 98 69 63 70 64 71 78 73 99 74 66 75 50 76 51 77
REMARK SMILES IDX 59 78 52 79 58 80 60 81 57 82 53 83 54 84 55 85 56 86 82 87
REMARK SMILES IDX 83 88 91 89 84 90 90 91 92 92 89 93 85 94 86 95 87 96 88 97
REMARK SMILES IDX 67 98 68 99 76 100 69 101 75 102 77 103 74 104 70 105 71 106
REMARK SMILES IDX 72 107 73 108
REMARK H PARENT 33 5 13 18 38 42 97 61 65 72
REMARK Flexibility Score: inf
ROOT
ATOM      1  C   UNL A   1      42.823  23.473  29.196  1.00  0.00     0.116 C 
ENDROOT
BRANCH   1   2
ATOM      2  N   UNL A   1      42.894  22.138  28.646  1.00  0.00    -0.353 N 
ATOM      3  O   UNL A   1      40.701  21.679  28.024  1.00  0.00    -0.271 OA
ATOM      4  C   UNL A   1      41.908  21.633  27.813  1.00  0.00     0.257 C 
ATOM      5  H   UNL A   1      43.667  21.571  28.870  1.00  0.00     0.163 HD
BRANCH   4   6
ATOM      6  C   UNL A   1      42.443  20.982  26.557  1.00  0.00     0.329 C 
BRANCH   6   7
ATOM      7  O   UNL A   1      42.582  22.041  25.617  1.00  0.00    -0.483 OA
BRANCH   7   8
ATOM      8  C   UNL A   1      43.797  22.084  25.000  1.00  0.00     0.128 A 
ATOM      9  C   UNL A   1      44.381  20.809  24.867  1.00  0.00     0.047 A 
ATOM     10  C   UNL A   1      44.566  23.245  24.838  1.00  0.00     0.037 A 
ATOM     11  C   UNL A   1      45.748  20.668  24.650  1.00  0.00     0.004 A 
ATOM     12  C   UNL A   1      45.956  23.073  24.657  1.00  0.00     0.013 A 
ATOM     13  C   UNL A   1      46.541  21.803  24.578  1.00  0.00     0.001 A 
BRANCH  10  14
ATOM     14  C   UNL A   1      44.179  24.690  24.950  1.00  0.00     0.145 C 
ATOM     15  N   UNL A   1      43.080  25.239  25.418  1.00  0.00    -0.180 NA
BRANCH  15  16
ATOM     16  N   UNL A   1      42.976  26.577  25.022  1.00  0.00    -0.243 N 
ATOM     17  C   UNL A   1      42.197  27.668  25.419  1.00  0.00     0.272 C 
ATOM     18  H   UNL A   1      43.599  26.802  24.294  1.00  0.00     0.194 HD
ATOM     19  O   UNL A   1      42.245  28.625  24.634  1.00  0.00    -0.267 OA
BRANCH  17  20
ATOM     20  C   UNL A   1      41.498  27.866  26.737  1.00  0.00     0.053 A 
ATOM     21  C   UNL A   1      40.149  28.204  26.836  1.00  0.00     0.043 A 
ATOM     22  C   UNL A   1      42.231  27.786  27.982  1.00  0.00     0.013 A 
ATOM     23  C   UNL A   1      39.528  27.995  28.061  1.00  0.00     0.072 A 
ATOM     24  C   UNL A   1      41.469  27.527  29.128  1.00  0.00     0.072 A 
ATOM     25  C   UNL A   1      43.603  28.055  28.242  1.00  0.00     0.011 A 
ATOM     26  N   UNL A   1      40.172  27.416  29.091  1.00  0.00    -0.248 NA
ATOM     27  C   UNL A   1      41.971  27.547  30.413  1.00  0.00     0.029 A 
ATOM     28  C   UNL A   1      44.097  28.178  29.555  1.00  0.00     0.001 A 
ATOM     29  C   UNL A   1      43.276  27.930  30.645  1.00  0.00     0.002 A 
BRANCH  23  30
ATOM     30  C   UNL A   1      38.306  28.571  28.648  1.00  0.00     0.000 A 
ATOM     31  C   UNL A   1      37.846  29.753  28.015  1.00  0.00     0.013 A 
ATOM     32  C   UNL A   1      38.092  28.436  30.035  1.00  0.00     0.013 A 
ATOM     33  C   UNL A   1      37.394  30.836  28.771  1.00  0.00     0.040 A 
ATOM     34  C   UNL A   1      37.612  29.516  30.786  1.00  0.00     0.040 A 
ATOM     35  C   UNL A   1      37.317  30.717  30.152  1.00  0.00     0.123 A 
ATOM     36  F   UNL A   1      37.018  31.799  30.886  1.00  0.00    -0.207 F 
ENDBRANCH  23  30
ENDBRANCH  17  20
ENDBRANCH  15  16
ENDBRANCH  10  14
ENDBRANCH   7   8
ENDBRANCH   6   7
ENDBRANCH   4   6
ENDBRANCH   1   2
BRANCH   1  37
ATOM     37  C   UNL A   1      44.116  24.087  29.680  1.00  0.00     0.023 C 
BRANCH  37  38
ATOM     38  C   UNL A   1      45.255  24.025  28.689  1.00  0.00     0.023 C 
BRANCH  38  39
ATOM     39  C   UNL A   1      45.653  25.368  28.108  1.00  0.00     0.116 C 
BRANCH  39  40
ATOM     40  N   UNL A   1      46.928  25.340  27.400  1.00  0.00    -0.352 N 
ATOM     41  C   UNL A   1      47.636  26.400  26.877  1.00  0.00     0.251 C 
ATOM     42  H   UNL A   1      47.334  24.450  27.282  1.00  0.00     0.163 HD
ATOM     43  O   UNL A   1      48.634  26.210  26.191  1.00  0.00    -0.269 OA
BRANCH  41  44
ATOM     44  C   UNL A   1      47.137  27.769  27.123  1.00  0.00     0.039 A 
ATOM     45  C   UNL A   1      47.502  28.427  28.299  1.00  0.00     0.014 A 
ATOM     46  C   UNL A   1      46.413  28.436  26.132  1.00  0.00     0.014 A 
ATOM     47  C   UNL A   1      47.217  29.788  28.437  1.00  0.00     0.010 A 
ATOM     48  C   UNL A   1      46.238  29.810  26.222  1.00  0.00     0.010 A 
ATOM     49  C   UNL A   1      46.632  30.503  27.378  1.00  0.00    -0.014 A 
BRANCH  49  50
ATOM     50  C   UNL A   1      46.405  31.970  27.462  1.00  0.00     0.031 A 
ATOM     51  C   UNL A   1      47.496  32.918  27.041  1.00  0.00     0.074 A 
ATOM     52  C   UNL A   1      45.252  32.447  27.974  1.00  0.00     0.049 A 
ATOM     53  N   UNL A   1      47.533  34.223  27.110  1.00  0.00    -0.248 NA
ATOM     54  C   UNL A   1      48.726  32.311  26.507  1.00  0.00     0.031 C 
ATOM     55  C   UNL A   1      44.139  31.630  28.464  1.00  0.00     0.029 A 
ATOM     56  N   UNL A   1      44.823  33.737  28.173  1.00  0.00    -0.354 N 
ATOM     57  C   UNL A   1      48.791  34.590  26.640  1.00  0.00     0.074 A 
ATOM     58  C   UNL A   1      49.512  33.366  26.373  1.00  0.00     0.031 C 
ATOM     59  C   UNL A   1      43.145  32.436  28.869  1.00  0.00     0.029 A 
ATOM     60  C   UNL A   1      43.565  33.826  28.723  1.00  0.00     0.049 A 
ATOM     61  H   UNL A   1      45.367  34.526  27.944  1.00  0.00     0.167 HD
ATOM     62  C   UNL A   1      49.285  35.833  26.420  1.00  0.00     0.034 A 
ATOM     63  C   UNL A   1      42.837  34.903  29.080  1.00  0.00     0.034 A 
ATOM     64  C   UNL A   1      48.546  37.043  26.680  1.00  0.00     0.049 A 
ATOM     65  C   UNL A   1      43.419  36.278  28.857  1.00  0.00     0.074 A 
ATOM     66  C   UNL A   1      48.927  38.352  26.450  1.00  0.00     0.029 A 
ATOM     67  N   UNL A   1      47.275  37.092  27.240  1.00  0.00    -0.354 N 
ATOM     68  N   UNL A   1      44.591  36.608  28.362  1.00  0.00    -0.248 NA
ATOM     69  C   UNL A   1      42.578  37.422  29.229  1.00  0.00     0.031 C 
ATOM     70  C   UNL A   1      47.923  39.193  26.940  1.00  0.00     0.029 A 
ATOM     71  C   UNL A   1      46.873  38.411  27.394  1.00  0.00     0.049 A 
ATOM     72  H   UNL A   1      46.737  36.307  27.491  1.00  0.00     0.167 HD
ATOM     73  C   UNL A   1      44.611  38.001  28.334  1.00  0.00     0.074 A 
ATOM     74  C   UNL A   1      43.330  38.444  28.846  1.00  0.00     0.031 C 
ATOM     75  C   UNL A   1      45.596  38.838  27.917  1.00  0.00     0.034 A 
BRANCH  62  76
ATOM     76  C   UNL A   1      50.698  35.933  25.893  1.00  0.00     0.023 A 
ATOM     77  C   UNL A   1      51.814  35.790  26.738  1.00  0.00     0.031 A 
ATOM     78  C   UNL A   1      50.936  36.211  24.535  1.00  0.00     0.131 A 
ATOM     79  C   UNL A   1      53.105  36.014  26.239  1.00  0.00     0.055 A 
ATOM     80  C   UNL A   1      52.230  36.339  24.025  1.00  0.00     0.041 A 
ATOM     81  F   UNL A   1      49.913  36.383  23.683  1.00  0.00    -0.206 F 
ATOM     82  C   UNL A   1      53.323  36.259  24.881  1.00  0.00     0.022 A 
BRANCH  79  83
ATOM     83  S   UNL A   1      54.478  36.147  27.418  1.00  0.00     0.124 S 
ATOM     84  O   UNL A   1      53.993  35.326  28.526  1.00  0.00    -0.237 OA
ATOM     85  O   UNL A   1      55.598  35.601  26.662  1.00  0.00    -0.237 OA
ATOM     86  O   UNL A   1      54.550  37.579  27.700  1.00  0.00    -0.744 OA
ENDBRANCH  79  83
ENDBRANCH  62  76
BRANCH  63  87
ATOM     87  C   UNL A   1      41.486  34.737  29.694  1.00  0.00     0.023 A 
ATOM     88  C   UNL A   1      41.340  34.332  31.030  1.00  0.00     0.031 A 
ATOM     89  C   UNL A   1      40.318  34.939  28.936  1.00  0.00     0.131 A 
ATOM     90  C   UNL A   1      40.059  34.094  31.555  1.00  0.00     0.055 A 
ATOM     91  C   UNL A   1      39.045  34.759  29.481  1.00  0.00     0.041 A 
ATOM     92  F   UNL A   1      40.398  35.325  27.653  1.00  0.00    -0.206 F 
ATOM     93  C   UNL A   1      38.910  34.321  30.794  1.00  0.00     0.022 A 
BRANCH  90  94
ATOM     94  S   UNL A   1      39.918  33.392  33.222  1.00  0.00     0.124 S 
ATOM     95  O   UNL A   1      41.218  33.725  33.795  1.00  0.00    -0.237 OA
ATOM     96  O   UNL A   1      38.774  34.119  33.761  1.00  0.00    -0.237 OA
ATOM     97  O   UNL A   1      39.690  31.970  32.974  1.00  0.00    -0.744 OA
ENDBRANCH  90  94
ENDBRANCH  63  87
BRANCH  75  98
ATOM     98  C   UNL A   1      45.304  40.319  27.956  1.00  0.00     0.023 A 
ATOM     99  C   UNL A   1      45.304  41.046  29.158  1.00  0.00     0.031 A 
ATOM    100  C   UNL A   1      45.016  41.012  26.765  1.00  0.00     0.131 A 
ATOM    101  C   UNL A   1      44.966  42.407  29.153  1.00  0.00     0.055 A 
ATOM    102  C   UNL A   1      44.748  42.381  26.757  1.00  0.00     0.041 A 
ATOM    103  F   UNL A   1      44.997  40.369  25.587  1.00  0.00    -0.206 F 
ATOM    104  C   UNL A   1      44.708  43.084  27.958  1.00  0.00     0.022 A 
BRANCH 101 105
ATOM    105  S   UNL A   1      44.768  43.263  30.739  1.00  0.00     0.124 S 
ATOM    106  O   UNL A   1      44.328  44.588  30.315  1.00  0.00    -0.237 OA
ATOM    107  O   UNL A   1      43.764  42.444  31.413  1.00  0.00    -0.237 OA
ATOM    108  O   UNL A   1      46.104  43.210  31.328  1.00  0.00    -0.744 OA
ENDBRANCH 101 105
ENDBRANCH  75  98
ENDBRANCH  49  50
ENDBRANCH  41  44
ENDBRANCH  39  40
ENDBRANCH  38  39
ENDBRANCH  37  38
ENDBRANCH   1  37
TORSDOF 20
ENDMDL
