MODEL 1
REMARK VINA RESULT:     -12.1      0.000      0.000
REMARK SMILES Cc1ccc(NC(=O)NC[C@@H]2CC[C@@H](C(=O)NCCCCNC(=O)c3ccc(-c4c5nc(c(-c6cc(S(=O)(=O)[O-])ccc6F)c6ccc([nH]6)c(-c6cc(S(=O)(=O)[O-])ccc6F)c6nc(c(-c7cc(S(=O)(=O)[O-])ccc7F)c7ccc4[nH]7)C=C6)C=C5)cc3)O2)c(F)c1
REMARK SMILES IDX 19 1 18 2 17 3 15 4 16 5 14 7 11 8 12 9 88 10 13 11 10 12
REMARK SMILES IDX 9 13 6 14 7 15 8 17 5 19 1 20 2 21 3 22 91 23 4 24 89 25
REMARK SMILES IDX 90 26 20 27 21 28 22 29 23 30 24 32 25 33 26 34 87 35 27 36
REMARK SMILES IDX 86 37 28 38 29 39 30 40 80 41 31 42 85 43 79 44 81 45 32 46
REMARK SMILES IDX 84 47 78 48 77 49 33 51 65 52 45 53 64 54 46 55 49 56 63 57
REMARK SMILES IDX 82 58 47 59 48 60 62 62 83 63 50 64 34 65 35 66 43 67 36 68
REMARK SMILES IDX 42 69 44 70 41 71 37 72 38 73 39 74 40 75 66 76 67 77 75 78
REMARK SMILES IDX 68 79 74 80 76 81 73 82 69 83 70 84 71 85 72 86 51 87 52 88
REMARK SMILES IDX 60 89 53 90 59 91 61 92 58 93 54 94 55 95 56 96 57 97
REMARK H PARENT 17 6 6 16 9 18 22 31 81 50 49 61
REMARK Flexibility Score: inf
ROOT
ATOM      1  C   UNL A   1      32.118  30.249  26.977  1.00  0.00     0.023 C 
ENDROOT
BRANCH   1   2
ATOM      2  C   UNL A   1      32.505  29.596  25.657  1.00  0.00     0.116 C 
BRANCH   2   3
ATOM      3  N   UNL A   1      31.395  29.610  24.722  1.00  0.00    -0.354 N 
ATOM      4  C   UNL A   1      31.036  28.615  23.855  1.00  0.00     0.249 C 
ATOM      5  O   UNL A   1      30.141  28.821  23.037  1.00  0.00    -0.272 OA
ATOM      6  H   UNL A   1      30.841  30.423  24.711  1.00  0.00     0.163 HD
BRANCH   4   7
ATOM      7  C   UNL A   1      31.825  27.304  23.931  1.00  0.00     0.207 C 
ATOM      8  C   UNL A   1      31.116  25.245  23.075  1.00  0.00     0.138 C 
ATOM      9  C   UNL A   1      32.539  25.499  22.615  1.00  0.00     0.037 C 
ATOM     10  O   UNL A   1      30.936  26.186  24.143  1.00  0.00    -0.363 OA
ATOM     11  C   UNL A   1      32.620  27.002  22.677  1.00  0.00     0.045 C 
BRANCH   8  12
ATOM     12  C   UNL A   1      30.821  23.817  23.579  1.00  0.00     0.149 C 
BRANCH  12  13
ATOM     13  N   UNL A   1      30.307  23.825  24.949  1.00  0.00    -0.335 N 
ATOM     14  N   UNL A   1      32.144  24.054  26.466  1.00  0.00    -0.305 N 
ATOM     15  C   UNL A   1      30.832  23.996  26.171  1.00  0.00     0.319 C 
ATOM     16  H   UNL A   1      32.317  24.491  27.331  1.00  0.00     0.171 HD
ATOM     17  O   UNL A   1      30.040  24.221  27.094  1.00  0.00    -0.249 OA
ATOM     18  H   UNL A   1      29.336  23.664  24.982  1.00  0.00     0.165 HD
BRANCH  14  19
ATOM     19  C   UNL A   1      33.322  23.637  25.831  1.00  0.00     0.078 A 
ATOM     20  C   UNL A   1      36.600  22.818  23.166  1.00  0.00     0.044 C 
ATOM     21  C   UNL A   1      35.557  23.058  24.214  1.00  0.00    -0.048 A 
ATOM     22  C   UNL A   1      35.471  24.276  24.894  1.00  0.00     0.006 A 
ATOM     23  C   UNL A   1      34.601  22.081  24.482  1.00  0.00     0.045 A 
ATOM     24  C   UNL A   1      34.363  24.561  25.704  1.00  0.00     0.029 A 
ATOM     25  C   UNL A   1      33.535  22.360  25.335  1.00  0.00     0.147 A 
ATOM     26  F   UNL A   1      32.730  21.357  25.698  1.00  0.00    -0.205 F 
ENDBRANCH  14  19
ENDBRANCH  12  13
ENDBRANCH   8  12
ENDBRANCH   4   7
ENDBRANCH   2   3
ENDBRANCH   1   2
BRANCH   1  27
ATOM     27  C   UNL A   1      31.897  31.755  26.871  1.00  0.00     0.023 C 
BRANCH  27  28
ATOM     28  C   UNL A   1      33.103  32.595  27.270  1.00  0.00     0.116 C 
BRANCH  28  29
ATOM     29  N   UNL A   1      32.729  33.927  27.717  1.00  0.00    -0.352 N 
ATOM     30  C   UNL A   1      33.254  34.659  28.756  1.00  0.00     0.251 C 
ATOM     31  H   UNL A   1      32.004  34.361  27.212  1.00  0.00     0.163 HD
ATOM     32  O   UNL A   1      32.708  35.690  29.117  1.00  0.00    -0.269 OA
BRANCH  30  33
ATOM     33  C   UNL A   1      34.461  34.153  29.444  1.00  0.00     0.039 A 
ATOM     34  C   UNL A   1      34.303  33.301  30.537  1.00  0.00     0.014 A 
ATOM     35  C   UNL A   1      35.738  34.484  28.980  1.00  0.00     0.014 A 
ATOM     36  C   UNL A   1      35.433  32.739  31.133  1.00  0.00     0.010 A 
ATOM     37  C   UNL A   1      36.853  33.847  29.515  1.00  0.00     0.010 A 
ATOM     38  C   UNL A   1      36.714  32.978  30.606  1.00  0.00    -0.014 A 
BRANCH  38  39
ATOM     39  C   UNL A   1      37.911  32.329  31.202  1.00  0.00     0.031 A 
ATOM     40  C   UNL A   1      38.512  32.870  32.471  1.00  0.00     0.074 A 
ATOM     41  C   UNL A   1      38.475  31.275  30.579  1.00  0.00     0.049 A 
ATOM     42  N   UNL A   1      39.548  32.438  33.144  1.00  0.00    -0.248 NA
ATOM     43  C   UNL A   1      37.889  34.075  33.040  1.00  0.00     0.031 C 
ATOM     44  C   UNL A   1      38.019  30.703  29.309  1.00  0.00     0.029 A 
ATOM     45  N   UNL A   1      39.549  30.495  30.925  1.00  0.00    -0.354 N 
ATOM     46  C   UNL A   1      39.706  33.322  34.207  1.00  0.00     0.074 A 
ATOM     47  C   UNL A   1      38.704  34.353  34.045  1.00  0.00     0.031 C 
ATOM     48  C   UNL A   1      38.781  29.641  29.007  1.00  0.00     0.029 A 
ATOM     49  C   UNL A   1      39.809  29.481  30.031  1.00  0.00     0.049 A 
ATOM     50  H   UNL A   1      40.083  30.645  31.739  1.00  0.00     0.167 HD
ATOM     51  C   UNL A   1      40.586  33.263  35.237  1.00  0.00     0.034 A 
ATOM     52  C   UNL A   1      40.768  28.534  30.032  1.00  0.00     0.034 A 
ATOM     53  C   UNL A   1      41.571  32.218  35.383  1.00  0.00     0.049 A 
ATOM     54  C   UNL A   1      41.739  28.487  31.185  1.00  0.00     0.074 A 
ATOM     55  C   UNL A   1      42.466  32.019  36.420  1.00  0.00     0.029 A 
ATOM     56  N   UNL A   1      41.804  31.206  34.459  1.00  0.00    -0.354 N 
ATOM     57  N   UNL A   1      41.824  29.285  32.226  1.00  0.00    -0.248 NA
ATOM     58  C   UNL A   1      42.730  27.405  31.172  1.00  0.00     0.031 C 
ATOM     59  C   UNL A   1      43.293  30.943  36.084  1.00  0.00     0.029 A 
ATOM     60  C   UNL A   1      42.854  30.406  34.884  1.00  0.00     0.049 A 
ATOM     61  H   UNL A   1      41.298  31.077  33.625  1.00  0.00     0.167 HD
ATOM     62  C   UNL A   1      42.858  28.777  33.008  1.00  0.00     0.074 A 
ATOM     63  C   UNL A   1      43.353  27.599  32.325  1.00  0.00     0.031 C 
ATOM     64  C   UNL A   1      43.348  29.239  34.188  1.00  0.00     0.034 A 
BRANCH  51  65
ATOM     65  C   UNL A   1      40.538  34.374  36.261  1.00  0.00     0.023 A 
ATOM     66  C   UNL A   1      41.587  35.300  36.403  1.00  0.00     0.031 A 
ATOM     67  C   UNL A   1      39.438  34.493  37.130  1.00  0.00     0.131 A 
ATOM     68  C   UNL A   1      41.554  36.245  37.441  1.00  0.00     0.055 A 
ATOM     69  C   UNL A   1      39.371  35.494  38.102  1.00  0.00     0.041 A 
ATOM     70  F   UNL A   1      38.415  33.626  37.061  1.00  0.00    -0.206 F 
ATOM     71  C   UNL A   1      40.440  36.367  38.273  1.00  0.00     0.022 A 
BRANCH  68  72
ATOM     72  S   UNL A   1      43.056  37.201  37.788  1.00  0.00     0.124 S 
ATOM     73  O   UNL A   1      42.567  38.173  38.765  1.00  0.00    -0.237 OA
ATOM     74  O   UNL A   1      43.967  36.184  38.301  1.00  0.00    -0.237 OA
ATOM     75  O   UNL A   1      43.414  37.763  36.488  1.00  0.00    -0.744 OA
ENDBRANCH  68  72
ENDBRANCH  51  65
BRANCH  52  76
ATOM     76  C   UNL A   1      40.862  27.558  28.907  1.00  0.00     0.023 A 
ATOM     77  C   UNL A   1      41.805  27.715  27.879  1.00  0.00     0.031 A 
ATOM     78  C   UNL A   1      39.984  26.461  28.833  1.00  0.00     0.131 A 
ATOM     79  C   UNL A   1      41.819  26.817  26.800  1.00  0.00     0.055 A 
ATOM     80  C   UNL A   1      40.040  25.539  27.788  1.00  0.00     0.041 A 
ATOM     81  F   UNL A   1      39.065  26.261  29.792  1.00  0.00    -0.206 F 
ATOM     82  C   UNL A   1      40.954  25.721  26.755  1.00  0.00     0.022 A 
BRANCH  79  83
ATOM     83  S   UNL A   1      42.932  27.147  25.406  1.00  0.00     0.124 S 
ATOM     84  O   UNL A   1      42.234  28.227  24.717  1.00  0.00    -0.237 OA
ATOM     85  O   UNL A   1      44.169  27.514  26.086  1.00  0.00    -0.237 OA
ATOM     86  O   UNL A   1      42.971  25.874  24.692  1.00  0.00    -0.744 OA
ENDBRANCH  79  83
ENDBRANCH  52  76
BRANCH  64  87
ATOM     87  C   UNL A   1      44.447  28.433  34.841  1.00  0.00     0.023 A 
ATOM     88  C   UNL A   1      44.181  27.484  35.844  1.00  0.00     0.031 A 
ATOM     89  C   UNL A   1      45.786  28.627  34.455  1.00  0.00     0.131 A 
ATOM     90  C   UNL A   1      45.243  26.813  36.469  1.00  0.00     0.055 A 
ATOM     91  C   UNL A   1      46.831  27.904  35.031  1.00  0.00     0.041 A 
ATOM     92  F   UNL A   1      46.102  29.524  33.507  1.00  0.00    -0.206 F 
ATOM     93  C   UNL A   1      46.564  27.002  36.055  1.00  0.00     0.022 A 
BRANCH  90  94
ATOM     94  S   UNL A   1      44.887  25.769  37.910  1.00  0.00     0.124 S 
ATOM     95  O   UNL A   1      46.227  25.461  38.399  1.00  0.00    -0.237 OA
ATOM     96  O   UNL A   1      44.090  26.659  38.750  1.00  0.00    -0.237 OA
ATOM     97  O   UNL A   1      44.159  24.637  37.342  1.00  0.00    -0.744 OA
ENDBRANCH  90  94
ENDBRANCH  64  87
ENDBRANCH  38  39
ENDBRANCH  30  33
ENDBRANCH  28  29
ENDBRANCH  27  28
ENDBRANCH   1  27
TORSDOF 17
ENDMDL
MODEL 2
REMARK VINA RESULT:     -12.0      4.906      9.535
REMARK SMILES Cc1ccc(NC(=O)NC[C@@H]2CC[C@@H](C(=O)NCCCCNC(=O)c3ccc(-c4c5nc(c(-c6cc(S(=O)(=O)[O-])ccc6F)c6ccc([nH]6)c(-c6cc(S(=O)(=O)[O-])ccc6F)c6nc(c(-c7cc(S(=O)(=O)[O-])ccc7F)c7ccc4[nH]7)C=C6)C=C5)cc3)O2)c(F)c1
REMARK SMILES IDX 19 1 18 2 17 3 15 4 16 5 14 7 11 8 12 9 88 10 13 11 10 12
REMARK SMILES IDX 9 13 6 14 7 15 8 17 5 19 1 20 2 21 3 22 91 23 4 24 89 25
REMARK SMILES IDX 90 26 20 27 21 28 22 29 23 30 24 32 25 33 26 34 87 35 27 36
REMARK SMILES IDX 86 37 28 38 29 39 30 40 80 41 31 42 85 43 79 44 81 45 32 46
REMARK SMILES IDX 84 47 78 48 77 49 33 51 65 52 45 53 64 54 46 55 49 56 63 57
REMARK SMILES IDX 82 58 47 59 48 60 62 62 83 63 50 64 34 65 35 66 43 67 36 68
REMARK SMILES IDX 42 69 44 70 41 71 37 72 38 73 39 74 40 75 66 76 67 77 75 78
REMARK SMILES IDX 68 79 74 80 76 81 73 82 69 83 70 84 71 85 72 86 51 87 52 88
REMARK SMILES IDX 60 89 53 90 59 91 61 92 58 93 54 94 55 95 56 96 57 97
REMARK H PARENT 17 6 6 16 9 18 22 31 81 50 49 61
REMARK Flexibility Score: inf
ROOT
ATOM      1  C   UNL A   1      35.734  22.452  23.840  1.00  0.00     0.023 C 
ENDROOT
BRANCH   1   2
ATOM      2  C   UNL A   1      34.327  22.674  23.302  1.00  0.00     0.116 C 
BRANCH   2   3
ATOM      3  N   UNL A   1      33.393  21.718  23.868  1.00  0.00    -0.354 N 
ATOM      4  C   UNL A   1      32.380  21.978  24.749  1.00  0.00     0.249 C 
ATOM      5  O   UNL A   1      31.747  21.041  25.234  1.00  0.00    -0.272 OA
ATOM      6  H   UNL A   1      33.502  20.780  23.588  1.00  0.00     0.163 HD
BRANCH   4   7
ATOM      7  C   UNL A   1      32.134  23.444  25.116  1.00  0.00     0.207 C 
ATOM      8  C   UNL A   1      30.566  24.851  24.095  1.00  0.00     0.138 C 
ATOM      9  C   UNL A   1      30.413  24.963  25.601  1.00  0.00     0.037 C 
ATOM     10  O   UNL A   1      31.847  24.224  23.935  1.00  0.00    -0.363 OA
ATOM     11  C   UNL A   1      30.971  23.643  26.067  1.00  0.00     0.045 C 
BRANCH   8  12
ATOM     12  C   UNL A   1      30.534  26.184  23.319  1.00  0.00     0.149 C 
BRANCH  12  13
ATOM     13  N   UNL A   1      31.460  26.170  22.186  1.00  0.00    -0.335 N 
ATOM     14  N   UNL A   1      33.634  26.812  22.954  1.00  0.00    -0.305 N 
ATOM     15  C   UNL A   1      32.778  26.358  22.020  1.00  0.00     0.319 C 
ATOM     16  H   UNL A   1      34.570  26.582  22.750  1.00  0.00     0.171 HD
ATOM     17  O   UNL A   1      33.265  25.986  20.946  1.00  0.00    -0.249 OA
ATOM     18  H   UNL A   1      31.003  25.976  21.336  1.00  0.00     0.165 HD
BRANCH  14  19
ATOM     19  C   UNL A   1      33.507  27.536  24.146  1.00  0.00     0.078 A 
ATOM     20  C   UNL A   1      33.871  30.189  27.516  1.00  0.00     0.044 C 
ATOM     21  C   UNL A   1      33.593  29.239  26.391  1.00  0.00    -0.048 A 
ATOM     22  C   UNL A   1      33.019  29.674  25.193  1.00  0.00     0.006 A 
ATOM     23  C   UNL A   1      33.968  27.903  26.498  1.00  0.00     0.045 A 
ATOM     24  C   UNL A   1      32.970  28.825  24.079  1.00  0.00     0.029 A 
ATOM     25  C   UNL A   1      33.860  27.055  25.398  1.00  0.00     0.147 A 
ATOM     26  F   UNL A   1      34.074  25.748  25.578  1.00  0.00    -0.205 F 
ENDBRANCH  14  19
ENDBRANCH  12  13
ENDBRANCH   8  12
ENDBRANCH   4   7
ENDBRANCH   2   3
ENDBRANCH   1   2
BRANCH   1  27
ATOM     27  C   UNL A   1      36.258  23.617  24.676  1.00  0.00     0.023 C 
BRANCH  27  28
ATOM     28  C   UNL A   1      36.643  23.241  26.100  1.00  0.00     0.116 C 
BRANCH  28  29
ATOM     29  N   UNL A   1      37.806  22.370  26.150  1.00  0.00    -0.352 N 
ATOM     30  C   UNL A   1      39.114  22.704  26.411  1.00  0.00     0.251 C 
ATOM     31  H   UNL A   1      37.635  21.417  25.972  1.00  0.00     0.163 HD
ATOM     32  O   UNL A   1      40.003  21.884  26.239  1.00  0.00    -0.269 OA
BRANCH  30  33
ATOM     33  C   UNL A   1      39.421  24.077  26.866  1.00  0.00     0.039 A 
ATOM     34  C   UNL A   1      39.175  24.414  28.197  1.00  0.00     0.014 A 
ATOM     35  C   UNL A   1      39.989  25.008  25.991  1.00  0.00     0.014 A 
ATOM     36  C   UNL A   1      39.551  25.674  28.663  1.00  0.00     0.010 A 
ATOM     37  C   UNL A   1      40.448  26.225  26.483  1.00  0.00     0.010 A 
ATOM     38  C   UNL A   1      40.223  26.577  27.821  1.00  0.00    -0.014 A 
BRANCH  38  39
ATOM     39  C   UNL A   1      40.679  27.895  28.334  1.00  0.00     0.031 A 
ATOM     40  C   UNL A   1      42.149  28.211  28.410  1.00  0.00     0.074 A 
ATOM     41  C   UNL A   1      39.769  28.793  28.762  1.00  0.00     0.049 A 
ATOM     42  N   UNL A   1      42.739  29.304  28.821  1.00  0.00    -0.248 NA
ATOM     43  C   UNL A   1      43.078  27.146  28.003  1.00  0.00     0.031 C 
ATOM     44  C   UNL A   1      38.320  28.574  28.797  1.00  0.00     0.029 A 
ATOM     45  N   UNL A   1      39.922  30.067  29.248  1.00  0.00    -0.354 N 
ATOM     46  C   UNL A   1      44.105  29.055  28.732  1.00  0.00     0.074 A 
ATOM     47  C   UNL A   1      44.251  27.682  28.299  1.00  0.00     0.031 C 
ATOM     48  C   UNL A   1      37.718  29.689  29.239  1.00  0.00     0.029 A 
ATOM     49  C   UNL A   1      38.733  30.686  29.564  1.00  0.00     0.049 A 
ATOM     50  H   UNL A   1      40.800  30.499  29.360  1.00  0.00     0.167 HD
ATOM     51  C   UNL A   1      45.139  29.900  28.964  1.00  0.00     0.034 A 
ATOM     52  C   UNL A   1      38.489  31.913  30.063  1.00  0.00     0.034 A 
ATOM     53  C   UNL A   1      44.968  31.269  29.387  1.00  0.00     0.049 A 
ATOM     54  C   UNL A   1      39.653  32.837  30.318  1.00  0.00     0.074 A 
ATOM     55  C   UNL A   1      45.939  32.236  29.585  1.00  0.00     0.029 A 
ATOM     56  N   UNL A   1      43.749  31.863  29.696  1.00  0.00    -0.354 N 
ATOM     57  N   UNL A   1      40.937  32.613  30.152  1.00  0.00    -0.248 NA
ATOM     58  C   UNL A   1      39.334  34.184  30.808  1.00  0.00     0.031 C 
ATOM     59  C   UNL A   1      45.318  33.382  30.091  1.00  0.00     0.029 A 
ATOM     60  C   UNL A   1      43.949  33.169  30.118  1.00  0.00     0.049 A 
ATOM     61  H   UNL A   1      42.873  31.422  29.623  1.00  0.00     0.167 HD
ATOM     62  C   UNL A   1      41.576  33.804  30.487  1.00  0.00     0.074 A 
ATOM     63  C   UNL A   1      40.534  34.745  30.849  1.00  0.00     0.031 C 
ATOM     64  C   UNL A   1      42.903  34.095  30.489  1.00  0.00     0.034 A 
BRANCH  51  65
ATOM     65  C   UNL A   1      46.539  29.355  28.794  1.00  0.00     0.023 A 
ATOM     66  C   UNL A   1      47.115  29.169  27.524  1.00  0.00     0.031 A 
ATOM     67  C   UNL A   1      47.299  28.986  29.917  1.00  0.00     0.131 A 
ATOM     68  C   UNL A   1      48.370  28.554  27.406  1.00  0.00     0.055 A 
ATOM     69  C   UNL A   1      48.587  28.458  29.796  1.00  0.00     0.041 A 
ATOM     70  F   UNL A   1      46.798  29.116  31.156  1.00  0.00    -0.206 F 
ATOM     71  C   UNL A   1      49.123  28.223  28.534  1.00  0.00     0.022 A 
BRANCH  68  72
ATOM     72  S   UNL A   1      48.933  28.044  25.758  1.00  0.00     0.124 S 
ATOM     73  O   UNL A   1      49.106  26.604  25.937  1.00  0.00    -0.237 OA
ATOM     74  O   UNL A   1      47.823  28.453  24.905  1.00  0.00    -0.237 OA
ATOM     75  O   UNL A   1      50.174  28.794  25.572  1.00  0.00    -0.744 OA
ENDBRANCH  68  72
ENDBRANCH  51  65
BRANCH  52  76
ATOM     76  C   UNL A   1      37.090  32.339  30.361  1.00  0.00     0.023 A 
ATOM     77  C   UNL A   1      36.301  32.988  29.397  1.00  0.00     0.031 A 
ATOM     78  C   UNL A   1      36.529  32.123  31.633  1.00  0.00     0.131 A 
ATOM     79  C   UNL A   1      35.015  33.437  29.733  1.00  0.00     0.055 A 
ATOM     80  C   UNL A   1      35.228  32.520  31.944  1.00  0.00     0.041 A 
ATOM     81  F   UNL A   1      37.237  31.503  32.591  1.00  0.00    -0.206 F 
ATOM     82  C   UNL A   1      34.466  33.193  30.995  1.00  0.00     0.022 A 
BRANCH  79  83
ATOM     83  S   UNL A   1      34.092  34.422  28.521  1.00  0.00     0.124 S 
ATOM     84  O   UNL A   1      34.166  33.579  27.333  1.00  0.00    -0.237 OA
ATOM     85  O   UNL A   1      32.780  34.528  29.152  1.00  0.00    -0.237 OA
ATOM     86  O   UNL A   1      34.848  35.670  28.450  1.00  0.00    -0.744 OA
ENDBRANCH  79  83
ENDBRANCH  52  76
BRANCH  64  87
ATOM     87  C   UNL A   1      43.298  35.509  30.845  1.00  0.00     0.023 A 
ATOM     88  C   UNL A   1      43.458  36.508  29.867  1.00  0.00     0.031 A 
ATOM     89  C   UNL A   1      43.526  35.860  32.188  1.00  0.00     0.131 A 
ATOM     90  C   UNL A   1      43.895  37.788  30.242  1.00  0.00     0.055 A 
ATOM     91  C   UNL A   1      43.890  37.153  32.561  1.00  0.00     0.041 A 
ATOM     92  F   UNL A   1      43.394  34.947  33.164  1.00  0.00    -0.206 F 
ATOM     93  C   UNL A   1      44.092  38.122  31.584  1.00  0.00     0.022 A 
BRANCH  90  94
ATOM     94  S   UNL A   1      44.311  38.982  28.941  1.00  0.00     0.124 S 
ATOM     95  O   UNL A   1      45.704  39.292  29.249  1.00  0.00    -0.237 OA
ATOM     96  O   UNL A   1      44.085  38.209  27.724  1.00  0.00    -0.237 OA
ATOM     97  O   UNL A   1      43.369  40.075  29.165  1.00  0.00    -0.744 OA
ENDBRANCH  90  94
ENDBRANCH  64  87
ENDBRANCH  38  39
ENDBRANCH  30  33
ENDBRANCH  28  29
ENDBRANCH  27  28
ENDBRANCH   1  27
TORSDOF 17
ENDMDL
MODEL 3
REMARK VINA RESULT:     -12.0      6.020      9.948
REMARK SMILES Cc1ccc(NC(=O)NC[C@@H]2CC[C@@H](C(=O)NCCCCNC(=O)c3ccc(-c4c5nc(c(-c6cc(S(=O)(=O)[O-])ccc6F)c6ccc([nH]6)c(-c6cc(S(=O)(=O)[O-])ccc6F)c6nc(c(-c7cc(S(=O)(=O)[O-])ccc7F)c7ccc4[nH]7)C=C6)C=C5)cc3)O2)c(F)c1
REMARK SMILES IDX 19 1 18 2 17 3 15 4 16 5 14 7 11 8 12 9 88 10 13 11 10 12
REMARK SMILES IDX 9 13 6 14 7 15 8 17 5 19 1 20 2 21 3 22 91 23 4 24 89 25
REMARK SMILES IDX 90 26 20 27 21 28 22 29 23 30 24 32 25 33 26 34 87 35 27 36
REMARK SMILES IDX 86 37 28 38 29 39 30 40 80 41 31 42 85 43 79 44 81 45 32 46
REMARK SMILES IDX 84 47 78 48 77 49 33 51 65 52 45 53 64 54 46 55 49 56 63 57
REMARK SMILES IDX 82 58 47 59 48 60 62 62 83 63 50 64 34 65 35 66 43 67 36 68
REMARK SMILES IDX 42 69 44 70 41 71 37 72 38 73 39 74 40 75 66 76 67 77 75 78
REMARK SMILES IDX 68 79 74 80 76 81 73 82 69 83 70 84 71 85 72 86 51 87 52 88
REMARK SMILES IDX 60 89 53 90 59 91 61 92 58 93 54 94 55 95 56 96 57 97
REMARK H PARENT 17 6 6 16 9 18 22 31 81 50 49 61
REMARK Flexibility Score: inf
ROOT
ATOM      1  C   UNL A   1      36.821  19.345  24.975  1.00  0.00     0.023 C 
ENDROOT
BRANCH   1   2
ATOM      2  C   UNL A   1      35.669  20.340  25.015  1.00  0.00     0.116 C 
BRANCH   2   3
ATOM      3  N   UNL A   1      34.388  19.659  24.974  1.00  0.00    -0.354 N 
ATOM      4  C   UNL A   1      33.148  20.234  25.012  1.00  0.00     0.249 C 
ATOM      5  O   UNL A   1      32.152  19.517  25.091  1.00  0.00    -0.272 OA
ATOM      6  H   UNL A   1      34.415  18.677  24.914  1.00  0.00     0.163 HD
BRANCH   4   7
ATOM      7  C   UNL A   1      33.088  21.765  25.003  1.00  0.00     0.207 C 
ATOM      8  C   UNL A   1      31.166  23.043  24.611  1.00  0.00     0.138 C 
ATOM      9  C   UNL A   1      31.856  23.570  25.856  1.00  0.00     0.037 C 
ATOM     10  O   UNL A   1      32.174  22.233  23.988  1.00  0.00    -0.363 OA
ATOM     11  C   UNL A   1      32.626  22.360  26.318  1.00  0.00     0.045 C 
BRANCH   8  12
ATOM     12  C   UNL A   1      30.666  24.113  23.620  1.00  0.00     0.149 C 
BRANCH  12  13
ATOM     13  N   UNL A   1      31.527  24.198  22.440  1.00  0.00    -0.335 N 
ATOM     14  N   UNL A   1      33.360  25.661  22.921  1.00  0.00    -0.305 N 
ATOM     15  C   UNL A   1      32.699  24.782  22.145  1.00  0.00     0.319 C 
ATOM     16  H   UNL A   1      34.315  25.723  22.689  1.00  0.00     0.171 HD
ATOM     17  O   UNL A   1      33.271  24.400  21.117  1.00  0.00    -0.249 OA
ATOM     18  H   UNL A   1      31.154  23.708  21.672  1.00  0.00     0.165 HD
BRANCH  14  19
ATOM     19  C   UNL A   1      33.007  26.511  23.978  1.00  0.00     0.078 A 
ATOM     20  C   UNL A   1      31.557  28.362  27.583  1.00  0.00     0.044 C 
ATOM     21  C   UNL A   1      32.156  27.847  26.308  1.00  0.00    -0.048 A 
ATOM     22  C   UNL A   1      33.353  27.126  26.303  1.00  0.00     0.006 A 
ATOM     23  C   UNL A   1      31.484  28.025  25.102  1.00  0.00     0.045 A 
ATOM     24  C   UNL A   1      33.780  26.468  25.142  1.00  0.00     0.029 A 
ATOM     25  C   UNL A   1      31.953  27.410  23.943  1.00  0.00     0.147 A 
ATOM     26  F   UNL A   1      31.383  27.730  22.777  1.00  0.00    -0.205 F 
ENDBRANCH  14  19
ENDBRANCH  12  13
ENDBRANCH   8  12
ENDBRANCH   4   7
ENDBRANCH   2   3
ENDBRANCH   1   2
BRANCH   1  27
ATOM     27  C   UNL A   1      38.167  19.983  24.642  1.00  0.00     0.023 C 
BRANCH  27  28
ATOM     28  C   UNL A   1      39.067  20.209  25.849  1.00  0.00     0.116 C 
BRANCH  28  29
ATOM     29  N   UNL A   1      40.067  19.164  25.999  1.00  0.00    -0.352 N 
ATOM     30  C   UNL A   1      41.424  19.298  26.181  1.00  0.00     0.251 C 
ATOM     31  H   UNL A   1      39.729  18.240  25.966  1.00  0.00     0.163 HD
ATOM     32  O   UNL A   1      42.152  18.320  26.110  1.00  0.00    -0.269 OA
BRANCH  30  33
ATOM     33  C   UNL A   1      41.980  20.647  26.423  1.00  0.00     0.039 A 
ATOM     34  C   UNL A   1      42.235  21.474  25.328  1.00  0.00     0.014 A 
ATOM     35  C   UNL A   1      42.202  21.104  27.725  1.00  0.00     0.014 A 
ATOM     36  C   UNL A   1      42.666  22.783  25.547  1.00  0.00     0.010 A 
ATOM     37  C   UNL A   1      42.539  22.436  27.940  1.00  0.00     0.010 A 
ATOM     38  C   UNL A   1      42.787  23.287  26.854  1.00  0.00    -0.014 A 
BRANCH  38  39
ATOM     39  C   UNL A   1      43.186  24.700  27.086  1.00  0.00     0.031 A 
ATOM     40  C   UNL A   1      42.246  25.647  27.782  1.00  0.00     0.074 A 
ATOM     41  C   UNL A   1      44.381  25.135  26.639  1.00  0.00     0.049 A 
ATOM     42  N   UNL A   1      42.417  26.909  28.081  1.00  0.00    -0.248 NA
ATOM     43  C   UNL A   1      40.928  25.115  28.162  1.00  0.00     0.031 C 
ATOM     44  C   UNL A   1      45.348  24.325  25.894  1.00  0.00     0.029 A 
ATOM     45  N   UNL A   1      44.988  26.361  26.744  1.00  0.00    -0.354 N 
ATOM     46  C   UNL A   1      41.227  27.324  28.673  1.00  0.00     0.074 A 
ATOM     47  C   UNL A   1      40.321  26.197  28.622  1.00  0.00     0.031 C 
ATOM     48  C   UNL A   1      46.441  25.063  25.646  1.00  0.00     0.029 A 
ATOM     49  C   UNL A   1      46.238  26.411  26.171  1.00  0.00     0.049 A 
ATOM     50  H   UNL A   1      44.569  27.133  27.190  1.00  0.00     0.167 HD
ATOM     51  C   UNL A   1      40.930  28.523  29.230  1.00  0.00     0.034 A 
ATOM     52  C   UNL A   1      47.119  27.426  26.074  1.00  0.00     0.034 A 
ATOM     53  C   UNL A   1      41.854  29.630  29.277  1.00  0.00     0.049 A 
ATOM     54  C   UNL A   1      46.768  28.753  26.698  1.00  0.00     0.074 A 
ATOM     55  C   UNL A   1      41.686  30.866  29.878  1.00  0.00     0.029 A 
ATOM     56  N   UNL A   1      43.113  29.644  28.688  1.00  0.00    -0.354 N 
ATOM     57  N   UNL A   1      45.669  29.105  27.325  1.00  0.00    -0.248 NA
ATOM     58  C   UNL A   1      47.781  29.812  26.616  1.00  0.00     0.031 C 
ATOM     59  C   UNL A   1      42.803  31.653  29.580  1.00  0.00     0.029 A 
ATOM     60  C   UNL A   1      43.714  30.880  28.878  1.00  0.00     0.049 A 
ATOM     61  H   UNL A   1      43.519  28.888  28.208  1.00  0.00     0.167 HD
ATOM     62  C   UNL A   1      45.874  30.417  27.742  1.00  0.00     0.074 A 
ATOM     63  C   UNL A   1      47.207  30.786  27.307  1.00  0.00     0.031 C 
ATOM     64  C   UNL A   1      45.040  31.241  28.429  1.00  0.00     0.034 A 
BRANCH  51  65
ATOM     65  C   UNL A   1      39.542  28.702  29.802  1.00  0.00     0.023 A 
ATOM     66  C   UNL A   1      38.482  29.220  29.035  1.00  0.00     0.031 A 
ATOM     67  C   UNL A   1      39.279  28.376  31.144  1.00  0.00     0.131 A 
ATOM     68  C   UNL A   1      37.240  29.477  29.636  1.00  0.00     0.055 A 
ATOM     69  C   UNL A   1      38.013  28.548  31.711  1.00  0.00     0.041 A 
ATOM     70  F   UNL A   1      40.252  27.898  31.936  1.00  0.00    -0.206 F 
ATOM     71  C   UNL A   1      36.990  29.118  30.961  1.00  0.00     0.022 A 
BRANCH  68  72
ATOM     72  S   UNL A   1      36.011  30.435  28.707  1.00  0.00     0.124 S 
ATOM     73  O   UNL A   1      35.085  29.388  28.277  1.00  0.00    -0.237 OA
ATOM     74  O   UNL A   1      35.505  31.360  29.714  1.00  0.00    -0.237 OA
ATOM     75  O   UNL A   1      36.791  31.045  27.633  1.00  0.00    -0.744 OA
ENDBRANCH  68  72
ENDBRANCH  51  65
BRANCH  52  76
ATOM     76  C   UNL A   1      48.413  27.232  25.355  1.00  0.00     0.023 A 
ATOM     77  C   UNL A   1      49.561  26.777  26.024  1.00  0.00     0.031 A 
ATOM     78  C   UNL A   1      48.524  27.528  23.984  1.00  0.00     0.131 A 
ATOM     79  C   UNL A   1      50.778  26.673  25.333  1.00  0.00     0.055 A 
ATOM     80  C   UNL A   1      49.724  27.369  23.289  1.00  0.00     0.041 A 
ATOM     81  F   UNL A   1      47.457  27.964  23.294  1.00  0.00    -0.206 F 
ATOM     82  C   UNL A   1      50.864  26.950  23.966  1.00  0.00     0.022 A 
BRANCH  79  83
ATOM     83  S   UNL A   1      52.276  26.249  26.265  1.00  0.00     0.124 S 
ATOM     84  O   UNL A   1      53.323  26.537  25.292  1.00  0.00    -0.237 OA
ATOM     85  O   UNL A   1      52.191  27.156  27.404  1.00  0.00    -0.237 OA
ATOM     86  O   UNL A   1      52.090  24.835  26.582  1.00  0.00    -0.744 OA
ENDBRANCH  79  83
ENDBRANCH  52  76
BRANCH  64  87
ATOM     87  C   UNL A   1      45.569  32.607  28.797  1.00  0.00     0.023 A 
ATOM     88  C   UNL A   1      45.484  33.702  27.919  1.00  0.00     0.031 A 
ATOM     89  C   UNL A   1      46.177  32.812  30.049  1.00  0.00     0.131 A 
ATOM     90  C   UNL A   1      46.055  34.932  28.279  1.00  0.00     0.055 A 
ATOM     91  C   UNL A   1      46.678  34.057  30.430  1.00  0.00     0.041 A 
ATOM     92  F   UNL A   1      46.291  31.802  30.927  1.00  0.00    -0.206 F 
ATOM     93  C   UNL A   1      46.632  35.122  29.537  1.00  0.00     0.022 A 
BRANCH  90  94
ATOM     94  S   UNL A   1      46.132  36.255  27.039  1.00  0.00     0.124 S 
ATOM     95  O   UNL A   1      44.721  36.452  26.720  1.00  0.00    -0.237 OA
ATOM     96  O   UNL A   1      46.776  37.337  27.777  1.00  0.00    -0.237 OA
ATOM     97  O   UNL A   1      46.935  35.672  25.967  1.00  0.00    -0.744 OA
ENDBRANCH  90  94
ENDBRANCH  64  87
ENDBRANCH  38  39
ENDBRANCH  30  33
ENDBRANCH  28  29
ENDBRANCH  27  28
ENDBRANCH   1  27
TORSDOF 17
ENDMDL
