MODEL 1
REMARK VINA RESULT:     -11.7      0.000      0.000
REMARK SMILES CC(=O)N[C@H](CSCC(=O)Nc1ccc2c(c1)N1CC[NH+]=C1S2)C(=O)NCCCCNC(=O)c1ccc(-c2c3nc(c(-c4cc(S(=O)(=O)[O-])ccc4F)c4ccc([nH]4)c(-c4cc(S(=O)(=O)[O-])ccc4F)c4nc(c(-c5cc(S(=O)(=O)[O-])ccc5F)c5ccc2[nH]5)C=C4)C=C3)cc1
REMARK SMILES IDX 27 1 26 2 24 3 25 4 5 6 4 7 1 8 2 9 3 10 6 12 7 13 8 14 9 15
REMARK SMILES IDX 10 16 11 17 12 19 13 20 17 21 14 22 16 23 15 24 18 25 23 26
REMARK SMILES IDX 19 27 22 28 20 29 21 30 28 32 29 33 30 34 31 35 32 36 33 38
REMARK SMILES IDX 34 39 35 40 96 41 36 42 95 43 37 44 38 45 39 46 89 47 40 48
REMARK SMILES IDX 94 49 88 50 90 51 41 52 93 53 87 54 86 55 42 57 74 58 54 59
REMARK SMILES IDX 73 60 55 61 58 62 72 63 91 64 56 65 57 66 71 68 92 69 59 70
REMARK SMILES IDX 43 71 44 72 52 73 45 74 51 75 53 76 50 77 46 78 47 79 48 80
REMARK SMILES IDX 49 81 75 82 76 83 84 84 77 85 83 86 85 87 82 88 78 89 79 90
REMARK SMILES IDX 80 91 81 92 60 93 61 94 69 95 62 96 68 97 70 98 67 99 63 100
REMARK SMILES IDX 64 101 65 102 66 103
REMARK H PARENT 26 5 4 11 11 18 21 31 31 37 90 56 58 67
REMARK Flexibility Score: inf
ROOT
ATOM      1  C   UNL A   1      32.322  30.439  26.034  1.00  0.00     0.116 C 
ENDROOT
BRANCH   1   2
ATOM      2  N   UNL A   1      32.159  29.565  27.185  1.00  0.00    -0.354 N 
ATOM      3  C   UNL A   1      31.798  28.249  27.278  1.00  0.00     0.243 C 
ATOM      4  O   UNL A   1      31.775  27.737  28.401  1.00  0.00    -0.273 OA
ATOM      5  H   UNL A   1      32.339  29.997  28.050  1.00  0.00     0.163 HD
BRANCH   3   6
ATOM      6  C   UNL A   1      31.417  27.423  26.030  1.00  0.00     0.181 C 
BRANCH   6   7
ATOM      7  N   UNL A   1      31.185  26.035  26.456  1.00  0.00    -0.344 N 
ATOM      8  C   UNL A   1      29.135  25.599  25.147  1.00  0.00     0.114 C 
ATOM      9  C   UNL A   1      30.194  25.170  26.120  1.00  0.00     0.217 C 
ATOM     10  O   UNL A   1      30.207  24.035  26.595  1.00  0.00    -0.275 OA
ATOM     11  H   UNL A   1      31.854  25.677  27.084  1.00  0.00     0.164 HD
ENDBRANCH   6   7
BRANCH   6  12
ATOM     12  C   UNL A   1      32.476  27.553  24.931  1.00  0.00     0.105 C 
BRANCH  12  13
ATOM     13  S   UNL A   1      31.781  27.748  23.252  1.00  0.00    -0.149 SA
BRANCH  13  14
ATOM     14  C   UNL A   1      31.763  26.051  22.613  1.00  0.00     0.169 C 
BRANCH  14  15
ATOM     15  C   UNL A   1      32.999  25.592  21.860  1.00  0.00     0.234 C 
ATOM     16  O   UNL A   1      33.219  25.997  20.713  1.00  0.00    -0.274 OA
ATOM     17  N   UNL A   1      33.960  24.825  22.461  1.00  0.00    -0.325 N 
ATOM     18  H   UNL A   1      34.797  24.723  21.954  1.00  0.00     0.169 HD
BRANCH  17  19
ATOM     19  C   UNL A   1      33.922  24.166  23.695  1.00  0.00     0.045 A 
ATOM     20  C   UNL A   1      34.407  24.754  24.874  1.00  0.00     0.027 A 
ATOM     21  C   UNL A   1      33.338  22.898  23.727  1.00  0.00     0.079 A 
ATOM     22  C   UNL A   1      34.411  24.055  26.083  1.00  0.00     0.022 A 
ATOM     23  C   UNL A   1      33.380  22.178  24.908  1.00  0.00     0.144 A 
ATOM     24  C   UNL A   1      33.918  22.767  26.077  1.00  0.00     0.067 A 
ATOM     25  N   UNL A   1      33.008  20.878  25.103  1.00  0.00    -0.216 N 
ATOM     26  S   UNL A   1      33.886  21.591  27.437  1.00  0.00     0.002 SA
ATOM     27  C   UNL A   1      32.430  19.869  24.279  1.00  0.00     0.289 C 
ATOM     28  C   UNL A   1      33.259  20.380  26.344  1.00  0.00     0.316 C 
ATOM     29  C   UNL A   1      32.637  18.634  25.194  1.00  0.00     0.280 C 
ATOM     30  N   UNL A   1      33.039  19.119  26.566  1.00  0.00    -0.264 N 
ATOM     31  H   UNL A   1      33.113  18.613  27.407  1.00  0.00     0.305 HD
ENDBRANCH  17  19
ENDBRANCH  14  15
ENDBRANCH  13  14
ENDBRANCH  12  13
ENDBRANCH   6  12
ENDBRANCH   3   6
ENDBRANCH   1   2
BRANCH   1  32
ATOM     32  C   UNL A   1      31.138  31.383  25.817  1.00  0.00     0.023 C 
BRANCH  32  33
ATOM     33  C   UNL A   1      31.229  32.729  26.529  1.00  0.00     0.023 C 
BRANCH  33  34
ATOM     34  C   UNL A   1      32.584  33.059  27.137  1.00  0.00     0.116 C 
BRANCH  34  35
ATOM     35  N   UNL A   1      32.596  34.288  27.916  1.00  0.00    -0.352 N 
ATOM     36  C   UNL A   1      33.504  34.679  28.878  1.00  0.00     0.251 C 
ATOM     37  H   UNL A   1      31.863  34.920  27.735  1.00  0.00     0.163 HD
ATOM     38  O   UNL A   1      33.335  35.717  29.503  1.00  0.00    -0.269 OA
BRANCH  36  39
ATOM     39  C   UNL A   1      34.648  33.790  29.177  1.00  0.00     0.039 A 
ATOM     40  C   UNL A   1      34.458  32.631  29.933  1.00  0.00     0.014 A 
ATOM     41  C   UNL A   1      35.931  34.180  28.787  1.00  0.00     0.014 A 
ATOM     42  C   UNL A   1      35.562  31.970  30.457  1.00  0.00     0.010 A 
ATOM     43  C   UNL A   1      37.037  33.461  29.245  1.00  0.00     0.010 A 
ATOM     44  C   UNL A   1      36.864  32.387  30.132  1.00  0.00    -0.014 A 
BRANCH  44  45
ATOM     45  C   UNL A   1      38.028  31.688  30.738  1.00  0.00     0.031 A 
ATOM     46  C   UNL A   1      38.460  31.989  32.147  1.00  0.00     0.074 A 
ATOM     47  C   UNL A   1      38.660  30.737  30.024  1.00  0.00     0.049 A 
ATOM     48  N   UNL A   1      39.440  31.462  32.836  1.00  0.00    -0.248 NA
ATOM     49  C   UNL A   1      37.699  33.013  32.881  1.00  0.00     0.031 C 
ATOM     50  C   UNL A   1      38.312  30.353  28.657  1.00  0.00     0.029 A 
ATOM     51  N   UNL A   1      39.703  29.908  30.349  1.00  0.00    -0.354 N 
ATOM     52  C   UNL A   1      39.425  32.097  34.073  1.00  0.00     0.074 A 
ATOM     53  C   UNL A   1      38.358  33.072  34.032  1.00  0.00     0.031 C 
ATOM     54  C   UNL A   1      39.088  29.329  28.278  1.00  0.00     0.029 A 
ATOM     55  C   UNL A   1      40.042  29.032  29.343  1.00  0.00     0.049 A 
ATOM     56  H   UNL A   1      40.165  29.936  31.218  1.00  0.00     0.167 HD
ATOM     57  C   UNL A   1      40.220  31.874  35.147  1.00  0.00     0.034 A 
ATOM     58  C   UNL A   1      41.020  28.106  29.274  1.00  0.00     0.034 A 
ATOM     59  C   UNL A   1      41.262  30.879  35.181  1.00  0.00     0.049 A 
ATOM     60  C   UNL A   1      41.919  27.911  30.464  1.00  0.00     0.074 A 
ATOM     61  C   UNL A   1      42.095  30.552  36.236  1.00  0.00     0.029 A 
ATOM     62  N   UNL A   1      41.613  30.052  34.124  1.00  0.00    -0.354 N 
ATOM     63  N   UNL A   1      41.869  28.496  31.638  1.00  0.00    -0.248 NA
ATOM     64  C   UNL A   1      43.014  26.941  30.325  1.00  0.00     0.031 C 
ATOM     65  C   UNL A   1      42.984  29.568  35.801  1.00  0.00     0.029 A 
ATOM     66  C   UNL A   1      42.670  29.237  34.492  1.00  0.00     0.049 A 
ATOM     67  H   UNL A   1      41.176  30.045  33.242  1.00  0.00     0.167 HD
ATOM     68  C   UNL A   1      42.918  27.962  32.378  1.00  0.00     0.074 A 
ATOM     69  C   UNL A   1      43.568  26.983  31.530  1.00  0.00     0.031 C 
ATOM     70  C   UNL A   1      43.312  28.263  33.640  1.00  0.00     0.034 A 
BRANCH  57  71
ATOM     71  C   UNL A   1      40.004  32.697  36.392  1.00  0.00     0.023 A 
ATOM     72  C   UNL A   1      39.141  32.234  37.402  1.00  0.00     0.031 A 
ATOM     73  C   UNL A   1      40.545  33.989  36.518  1.00  0.00     0.131 A 
ATOM     74  C   UNL A   1      38.820  33.068  38.480  1.00  0.00     0.055 A 
ATOM     75  C   UNL A   1      40.247  34.805  37.611  1.00  0.00     0.041 A 
ATOM     76  F   UNL A   1      41.374  34.475  35.580  1.00  0.00    -0.206 F 
ATOM     77  C   UNL A   1      39.371  34.349  38.592  1.00  0.00     0.022 A 
BRANCH  74  78
ATOM     78  S   UNL A   1      37.632  32.550  39.750  1.00  0.00     0.124 S 
ATOM     79  O   UNL A   1      36.528  32.043  38.936  1.00  0.00    -0.237 OA
ATOM     80  O   UNL A   1      38.387  31.534  40.478  1.00  0.00    -0.237 OA
ATOM     81  O   UNL A   1      37.348  33.775  40.487  1.00  0.00    -0.744 OA
ENDBRANCH  74  78
ENDBRANCH  57  71
BRANCH  58  82
ATOM     82  C   UNL A   1      41.151  27.288  28.034  1.00  0.00     0.023 A 
ATOM     83  C   UNL A   1      40.774  25.932  28.022  1.00  0.00     0.031 A 
ATOM     84  C   UNL A   1      41.773  27.812  26.889  1.00  0.00     0.131 A 
ATOM     85  C   UNL A   1      41.104  25.127  26.924  1.00  0.00     0.055 A 
ATOM     86  C   UNL A   1      42.032  27.022  25.767  1.00  0.00     0.041 A 
ATOM     87  F   UNL A   1      42.159  29.097  26.858  1.00  0.00    -0.206 F 
ATOM     88  C   UNL A   1      41.716  25.667  25.790  1.00  0.00     0.022 A 
BRANCH  85  89
ATOM     89  S   UNL A   1      40.892  23.326  27.001  1.00  0.00     0.124 S 
ATOM     90  O   UNL A   1      39.445  23.185  26.882  1.00  0.00    -0.237 OA
ATOM     91  O   UNL A   1      41.666  22.885  25.842  1.00  0.00    -0.237 OA
ATOM     92  O   UNL A   1      41.459  22.967  28.296  1.00  0.00    -0.744 OA
ENDBRANCH  85  89
ENDBRANCH  58  82
BRANCH  70  93
ATOM     93  C   UNL A   1      44.515  27.552  34.206  1.00  0.00     0.023 A 
ATOM     94  C   UNL A   1      44.355  26.366  34.946  1.00  0.00     0.031 A 
ATOM     95  C   UNL A   1      45.794  28.133  34.144  1.00  0.00     0.131 A 
ATOM     96  C   UNL A   1      45.447  25.822  35.633  1.00  0.00     0.055 A 
ATOM     97  C   UNL A   1      46.888  27.563  34.793  1.00  0.00     0.041 A 
ATOM     98  F   UNL A   1      45.994  29.268  33.455  1.00  0.00    -0.206 F 
ATOM     99  C   UNL A   1      46.714  26.410  35.555  1.00  0.00     0.022 A 
BRANCH  96 100
ATOM    100  S   UNL A   1      45.249  24.381  36.716  1.00  0.00     0.124 S 
ATOM    101  O   UNL A   1      44.508  23.458  35.859  1.00  0.00    -0.237 OA
ATOM    102  O   UNL A   1      46.635  24.006  36.985  1.00  0.00    -0.237 OA
ATOM    103  O   UNL A   1      44.506  24.899  37.860  1.00  0.00    -0.744 OA
ENDBRANCH  96 100
ENDBRANCH  70  93
ENDBRANCH  44  45
ENDBRANCH  36  39
ENDBRANCH  34  35
ENDBRANCH  33  34
ENDBRANCH  32  33
ENDBRANCH   1  32
TORSDOF 20
ENDMDL
MODEL 2
REMARK VINA RESULT:     -11.6      3.147      4.571
REMARK SMILES CC(=O)N[C@H](CSCC(=O)Nc1ccc2c(c1)N1CC[NH+]=C1S2)C(=O)NCCCCNC(=O)c1ccc(-c2c3nc(c(-c4cc(S(=O)(=O)[O-])ccc4F)c4ccc([nH]4)c(-c4cc(S(=O)(=O)[O-])ccc4F)c4nc(c(-c5cc(S(=O)(=O)[O-])ccc5F)c5ccc2[nH]5)C=C4)C=C3)cc1
REMARK SMILES IDX 27 1 26 2 24 3 25 4 5 6 4 7 1 8 2 9 3 10 6 12 7 13 8 14 9 15
REMARK SMILES IDX 10 16 11 17 12 19 13 20 17 21 14 22 16 23 15 24 18 25 23 26
REMARK SMILES IDX 19 27 22 28 20 29 21 30 28 32 29 33 30 34 31 35 32 36 33 38
REMARK SMILES IDX 34 39 35 40 96 41 36 42 95 43 37 44 38 45 39 46 89 47 40 48
REMARK SMILES IDX 94 49 88 50 90 51 41 52 93 53 87 54 86 55 42 57 74 58 54 59
REMARK SMILES IDX 73 60 55 61 58 62 72 63 91 64 56 65 57 66 71 68 92 69 59 70
REMARK SMILES IDX 43 71 44 72 52 73 45 74 51 75 53 76 50 77 46 78 47 79 48 80
REMARK SMILES IDX 49 81 75 82 76 83 84 84 77 85 83 86 85 87 82 88 78 89 79 90
REMARK SMILES IDX 80 91 81 92 60 93 61 94 69 95 62 96 68 97 70 98 67 99 63 100
REMARK SMILES IDX 64 101 65 102 66 103
REMARK H PARENT 26 5 4 11 11 18 21 31 31 37 90 56 58 67
REMARK Flexibility Score: inf
ROOT
ATOM      1  C   UNL A   1      31.223  29.825  25.027  1.00  0.00     0.116 C 
ENDROOT
BRANCH   1   2
ATOM      2  N   UNL A   1      30.619  29.757  23.706  1.00  0.00    -0.354 N 
ATOM      3  C   UNL A   1      30.462  28.714  22.835  1.00  0.00     0.243 C 
ATOM      4  O   UNL A   1      29.866  28.933  21.776  1.00  0.00    -0.273 OA
ATOM      5  H   UNL A   1      30.259  30.613  23.381  1.00  0.00     0.163 HD
BRANCH   3   6
ATOM      6  C   UNL A   1      31.017  27.307  23.147  1.00  0.00     0.181 C 
BRANCH   6   7
ATOM      7  N   UNL A   1      31.609  26.768  21.914  1.00  0.00    -0.344 N 
ATOM      8  C   UNL A   1      33.866  26.272  22.791  1.00  0.00     0.114 C 
ATOM      9  C   UNL A   1      32.863  26.303  21.675  1.00  0.00     0.217 C 
ATOM     10  O   UNL A   1      33.138  25.881  20.553  1.00  0.00    -0.275 OA
ATOM     11  H   UNL A   1      31.001  26.740  21.140  1.00  0.00     0.164 HD
ENDBRANCH   6   7
BRANCH   6  12
ATOM     12  C   UNL A   1      29.937  26.403  23.749  1.00  0.00     0.105 C 
BRANCH  12  13
ATOM     13  S   UNL A   1      30.393  24.633  23.791  1.00  0.00    -0.149 SA
BRANCH  13  14
ATOM     14  C   UNL A   1      31.629  24.556  25.115  1.00  0.00     0.169 C 
BRANCH  14  15
ATOM     15  C   UNL A   1      31.238  23.798  26.371  1.00  0.00     0.234 C 
ATOM     16  O   UNL A   1      30.292  24.185  27.066  1.00  0.00    -0.274 OA
ATOM     17  N   UNL A   1      31.829  22.609  26.703  1.00  0.00    -0.325 N 
ATOM     18  H   UNL A   1      31.395  22.111  27.432  1.00  0.00     0.169 HD
BRANCH  17  19
ATOM     19  C   UNL A   1      32.963  22.002  26.153  1.00  0.00     0.045 A 
ATOM     20  C   UNL A   1      32.918  20.730  25.560  1.00  0.00     0.027 A 
ATOM     21  C   UNL A   1      34.156  22.728  26.175  1.00  0.00     0.079 A 
ATOM     22  C   UNL A   1      34.074  20.119  25.069  1.00  0.00     0.022 A 
ATOM     23  C   UNL A   1      35.315  22.114  25.736  1.00  0.00     0.144 A 
ATOM     24  C   UNL A   1      35.261  20.812  25.186  1.00  0.00     0.067 A 
ATOM     25  N   UNL A   1      36.592  22.593  25.818  1.00  0.00    -0.216 N 
ATOM     26  S   UNL A   1      36.913  20.253  24.746  1.00  0.00     0.002 SA
ATOM     27  C   UNL A   1      37.177  23.808  26.278  1.00  0.00     0.289 C 
ATOM     28  C   UNL A   1      37.563  21.733  25.410  1.00  0.00     0.316 C 
ATOM     29  C   UNL A   1      38.669  23.389  26.302  1.00  0.00     0.280 C 
ATOM     30  N   UNL A   1      38.807  22.077  25.568  1.00  0.00    -0.264 N 
ATOM     31  H   UNL A   1      39.623  21.605  25.284  1.00  0.00     0.305 HD
ENDBRANCH  17  19
ENDBRANCH  14  15
ENDBRANCH  13  14
ENDBRANCH  12  13
ENDBRANCH   6  12
ENDBRANCH   3   6
ENDBRANCH   1   2
BRANCH   1  32
ATOM     32  C   UNL A   1      32.183  28.671  25.315  1.00  0.00     0.023 C 
BRANCH  32  33
ATOM     33  C   UNL A   1      32.534  28.455  26.784  1.00  0.00     0.023 C 
BRANCH  33  34
ATOM     34  C   UNL A   1      33.912  28.940  27.207  1.00  0.00     0.116 C 
BRANCH  34  35
ATOM     35  N   UNL A   1      33.905  30.241  27.860  1.00  0.00    -0.352 N 
ATOM     36  C   UNL A   1      34.922  30.846  28.567  1.00  0.00     0.251 C 
ATOM     37  H   UNL A   1      33.067  30.753  27.788  1.00  0.00     0.163 HD
ATOM     38  O   UNL A   1      34.736  31.918  29.125  1.00  0.00    -0.269 OA
BRANCH  36  39
ATOM     39  C   UNL A   1      36.218  30.143  28.687  1.00  0.00     0.039 A 
ATOM     40  C   UNL A   1      36.506  29.388  29.826  1.00  0.00     0.014 A 
ATOM     41  C   UNL A   1      37.187  30.332  27.698  1.00  0.00     0.014 A 
ATOM     42  C   UNL A   1      37.814  28.986  30.065  1.00  0.00     0.010 A 
ATOM     43  C   UNL A   1      38.481  29.849  27.903  1.00  0.00     0.010 A 
ATOM     44  C   UNL A   1      38.820  29.225  29.113  1.00  0.00    -0.014 A 
BRANCH  44  45
ATOM     45  C   UNL A   1      40.219  28.820  29.411  1.00  0.00     0.031 A 
ATOM     46  C   UNL A   1      41.014  29.520  30.479  1.00  0.00     0.074 A 
ATOM     47  C   UNL A   1      40.751  27.777  28.745  1.00  0.00     0.049 A 
ATOM     48  N   UNL A   1      42.237  29.285  30.879  1.00  0.00    -0.248 NA
ATOM     49  C   UNL A   1      40.356  30.627  31.193  1.00  0.00     0.031 C 
ATOM     50  C   UNL A   1      40.062  27.016  27.703  1.00  0.00     0.029 A 
ATOM     51  N   UNL A   1      41.971  27.162  28.857  1.00  0.00    -0.354 N 
ATOM     52  C   UNL A   1      42.503  30.219  31.875  1.00  0.00     0.074 A 
ATOM     53  C   UNL A   1      41.323  31.047  31.999  1.00  0.00     0.031 C 
ATOM     54  C   UNL A   1      40.845  26.004  27.309  1.00  0.00     0.029 A 
ATOM     55  C   UNL A   1      42.123  26.087  28.011  1.00  0.00     0.049 A 
ATOM     56  H   UNL A   1      42.671  27.460  29.482  1.00  0.00     0.167 HD
ATOM     57  C   UNL A   1      43.622  30.360  32.625  1.00  0.00     0.034 A 
ATOM     58  C   UNL A   1      43.176  25.269  27.807  1.00  0.00     0.034 A 
ATOM     59  C   UNL A   1      44.779  29.509  32.507  1.00  0.00     0.049 A 
ATOM     60  C   UNL A   1      44.424  25.477  28.620  1.00  0.00     0.074 A 
ATOM     61  C   UNL A   1      45.946  29.550  33.249  1.00  0.00     0.029 A 
ATOM     62  N   UNL A   1      44.918  28.469  31.600  1.00  0.00    -0.354 N 
ATOM     63  N   UNL A   1      44.645  26.344  29.581  1.00  0.00    -0.248 NA
ATOM     64  C   UNL A   1      45.572  24.610  28.321  1.00  0.00     0.031 C 
ATOM     65  C   UNL A   1      46.811  28.572  32.755  1.00  0.00     0.029 A 
ATOM     66  C   UNL A   1      46.163  27.880  31.743  1.00  0.00     0.049 A 
ATOM     67  H   UNL A   1      44.233  28.190  30.950  1.00  0.00     0.167 HD
ATOM     68  C   UNL A   1      45.951  26.122  30.005  1.00  0.00     0.074 A 
ATOM     69  C   UNL A   1      46.461  25.018  29.217  1.00  0.00     0.031 C 
ATOM     70  C   UNL A   1      46.663  26.780  30.953  1.00  0.00     0.034 A 
BRANCH  57  71
ATOM     71  C   UNL A   1      43.669  31.459  33.656  1.00  0.00     0.023 A 
ATOM     72  C   UNL A   1      43.190  31.224  34.958  1.00  0.00     0.031 A 
ATOM     73  C   UNL A   1      44.063  32.765  33.317  1.00  0.00     0.131 A 
ATOM     74  C   UNL A   1      43.087  32.286  35.866  1.00  0.00     0.055 A 
ATOM     75  C   UNL A   1      43.991  33.814  34.236  1.00  0.00     0.041 A 
ATOM     76  F   UNL A   1      44.529  33.039  32.088  1.00  0.00    -0.206 F 
ATOM     77  C   UNL A   1      43.489  33.578  35.512  1.00  0.00     0.022 A 
BRANCH  74  78
ATOM     78  S   UNL A   1      42.378  32.047  37.518  1.00  0.00     0.124 S 
ATOM     79  O   UNL A   1      40.978  31.770  37.204  1.00  0.00    -0.237 OA
ATOM     80  O   UNL A   1      43.142  30.907  38.017  1.00  0.00    -0.237 OA
ATOM     81  O   UNL A   1      42.624  33.316  38.193  1.00  0.00    -0.744 OA
ENDBRANCH  74  78
ENDBRANCH  57  71
BRANCH  58  82
ATOM     82  C   UNL A   1      43.050  24.169  26.808  1.00  0.00     0.023 A 
ATOM     83  C   UNL A   1      42.311  23.008  27.103  1.00  0.00     0.031 A 
ATOM     84  C   UNL A   1      43.771  24.205  25.604  1.00  0.00     0.131 A 
ATOM     85  C   UNL A   1      42.382  21.900  26.249  1.00  0.00     0.055 A 
ATOM     86  C   UNL A   1      43.779  23.125  24.719  1.00  0.00     0.041 A 
ATOM     87  F   UNL A   1      44.499  25.287  25.284  1.00  0.00    -0.206 F 
ATOM     88  C   UNL A   1      43.099  21.957  25.051  1.00  0.00     0.022 A 
BRANCH  85  89
ATOM     89  S   UNL A   1      41.679  20.302  26.746  1.00  0.00     0.124 S 
ATOM     90  O   UNL A   1      41.164  19.791  25.480  1.00  0.00    -0.237 OA
ATOM     91  O   UNL A   1      42.854  19.611  27.274  1.00  0.00    -0.237 OA
ATOM     92  O   UNL A   1      40.675  20.662  27.740  1.00  0.00    -0.744 OA
ENDBRANCH  85  89
ENDBRANCH  58  82
BRANCH  70  93
ATOM     93  C   UNL A   1      48.089  26.356  31.202  1.00  0.00     0.023 A 
ATOM     94  C   UNL A   1      48.377  25.369  32.164  1.00  0.00     0.031 A 
ATOM     95  C   UNL A   1      49.162  27.039  30.603  1.00  0.00     0.131 A 
ATOM     96  C   UNL A   1      49.706  25.124  32.530  1.00  0.00     0.055 A 
ATOM     97  C   UNL A   1      50.486  26.759  30.940  1.00  0.00     0.041 A 
ATOM     98  F   UNL A   1      48.935  27.992  29.686  1.00  0.00    -0.206 F 
ATOM     99  C   UNL A   1      50.762  25.808  31.919  1.00  0.00     0.022 A 
BRANCH  96 100
ATOM    100  S   UNL A   1      50.110  23.968  33.869  1.00  0.00     0.124 S 
ATOM    101  O   UNL A   1      50.157  22.690  33.161  1.00  0.00    -0.237 OA
ATOM    102  O   UNL A   1      51.401  24.472  34.330  1.00  0.00    -0.237 OA
ATOM    103  O   UNL A   1      49.005  24.117  34.809  1.00  0.00    -0.744 OA
ENDBRANCH  96 100
ENDBRANCH  70  93
ENDBRANCH  44  45
ENDBRANCH  36  39
ENDBRANCH  34  35
ENDBRANCH  33  34
ENDBRANCH  32  33
ENDBRANCH   1  32
TORSDOF 20
ENDMDL
MODEL 3
REMARK VINA RESULT:     -11.3      5.028      9.888
REMARK SMILES CC(=O)N[C@H](CSCC(=O)Nc1ccc2c(c1)N1CC[NH+]=C1S2)C(=O)NCCCCNC(=O)c1ccc(-c2c3nc(c(-c4cc(S(=O)(=O)[O-])ccc4F)c4ccc([nH]4)c(-c4cc(S(=O)(=O)[O-])ccc4F)c4nc(c(-c5cc(S(=O)(=O)[O-])ccc5F)c5ccc2[nH]5)C=C4)C=C3)cc1
REMARK SMILES IDX 27 1 26 2 24 3 25 4 5 6 4 7 1 8 2 9 3 10 6 12 7 13 8 14 9 15
REMARK SMILES IDX 10 16 11 17 12 19 13 20 17 21 14 22 16 23 15 24 18 25 23 26
REMARK SMILES IDX 19 27 22 28 20 29 21 30 28 32 29 33 30 34 31 35 32 36 33 38
REMARK SMILES IDX 34 39 35 40 96 41 36 42 95 43 37 44 38 45 39 46 89 47 40 48
REMARK SMILES IDX 94 49 88 50 90 51 41 52 93 53 87 54 86 55 42 57 74 58 54 59
REMARK SMILES IDX 73 60 55 61 58 62 72 63 91 64 56 65 57 66 71 68 92 69 59 70
REMARK SMILES IDX 43 71 44 72 52 73 45 74 51 75 53 76 50 77 46 78 47 79 48 80
REMARK SMILES IDX 49 81 75 82 76 83 84 84 77 85 83 86 85 87 82 88 78 89 79 90
REMARK SMILES IDX 80 91 81 92 60 93 61 94 69 95 62 96 68 97 70 98 67 99 63 100
REMARK SMILES IDX 64 101 65 102 66 103
REMARK H PARENT 26 5 4 11 11 18 21 31 31 37 90 56 58 67
REMARK Flexibility Score: inf
ROOT
ATOM      1  C   UNL A   1      35.439  24.617  25.330  1.00  0.00     0.116 C 
ENDROOT
BRANCH   1   2
ATOM      2  N   UNL A   1      34.228  24.992  26.042  1.00  0.00    -0.354 N 
ATOM      3  C   UNL A   1      33.560  26.183  26.128  1.00  0.00     0.243 C 
ATOM      4  O   UNL A   1      32.515  26.210  26.785  1.00  0.00    -0.273 OA
ATOM      5  H   UNL A   1      33.816  24.260  26.553  1.00  0.00     0.163 HD
BRANCH   3   6
ATOM      6  C   UNL A   1      34.091  27.461  25.442  1.00  0.00     0.181 C 
BRANCH   6   7
ATOM      7  N   UNL A   1      33.507  28.622  26.130  1.00  0.00    -0.344 N 
ATOM      8  C   UNL A   1      35.462  29.238  27.511  1.00  0.00     0.114 C 
ATOM      9  C   UNL A   1      34.045  29.448  27.064  1.00  0.00     0.217 C 
ATOM     10  O   UNL A   1      33.367  30.378  27.498  1.00  0.00    -0.275 OA
ATOM     11  H   UNL A   1      32.580  28.834  25.872  1.00  0.00     0.164 HD
ENDBRANCH   6   7
BRANCH   6  12
ATOM     12  C   UNL A   1      33.811  27.442  23.937  1.00  0.00     0.105 C 
BRANCH  12  13
ATOM     13  S   UNL A   1      33.192  29.031  23.279  1.00  0.00    -0.149 SA
BRANCH  13  14
ATOM     14  C   UNL A   1      31.419  28.970  23.654  1.00  0.00     0.169 C 
BRANCH  14  15
ATOM     15  C   UNL A   1      30.507  28.449  22.558  1.00  0.00     0.234 C 
ATOM     16  O   UNL A   1      30.259  29.144  21.567  1.00  0.00    -0.274 OA
ATOM     17  N   UNL A   1      30.037  27.163  22.570  1.00  0.00    -0.325 N 
ATOM     18  H   UNL A   1      29.600  26.866  21.740  1.00  0.00     0.169 HD
BRANCH  17  19
ATOM     19  C   UNL A   1      30.088  26.212  23.594  1.00  0.00     0.045 A 
ATOM     20  C   UNL A   1      29.594  26.471  24.883  1.00  0.00     0.027 A 
ATOM     21  C   UNL A   1      30.617  24.958  23.280  1.00  0.00     0.079 A 
ATOM     22  C   UNL A   1      29.707  25.526  25.905  1.00  0.00     0.022 A 
ATOM     23  C   UNL A   1      30.778  24.033  24.296  1.00  0.00     0.144 A 
ATOM     24  C   UNL A   1      30.320  24.328  25.602  1.00  0.00     0.067 A 
ATOM     25  N   UNL A   1      31.410  22.823  24.226  1.00  0.00    -0.216 N 
ATOM     26  S   UNL A   1      30.702  22.971  26.718  1.00  0.00     0.002 SA
ATOM     27  C   UNL A   1      32.032  22.079  23.183  1.00  0.00     0.289 C 
ATOM     28  C   UNL A   1      31.524  22.157  25.407  1.00  0.00     0.316 C 
ATOM     29  C   UNL A   1      32.748  20.993  24.026  1.00  0.00     0.280 C 
ATOM     30  N   UNL A   1      32.214  21.056  25.437  1.00  0.00    -0.264 N 
ATOM     31  H   UNL A   1      32.352  20.429  26.183  1.00  0.00     0.305 HD
ENDBRANCH  17  19
ENDBRANCH  14  15
ENDBRANCH  13  14
ENDBRANCH  12  13
ENDBRANCH   6  12
ENDBRANCH   3   6
ENDBRANCH   1   2
BRANCH   1  32
ATOM     32  C   UNL A   1      35.187  23.654  24.169  1.00  0.00     0.023 C 
BRANCH  32  33
ATOM     33  C   UNL A   1      36.051  22.397  24.156  1.00  0.00     0.023 C 
BRANCH  33  34
ATOM     34  C   UNL A   1      36.578  21.950  25.511  1.00  0.00     0.116 C 
BRANCH  34  35
ATOM     35  N   UNL A   1      37.609  20.925  25.432  1.00  0.00    -0.352 N 
ATOM     36  C   UNL A   1      38.921  21.002  25.849  1.00  0.00     0.251 C 
ATOM     37  H   UNL A   1      37.335  20.069  25.031  1.00  0.00     0.163 HD
ATOM     38  O   UNL A   1      39.691  20.073  25.645  1.00  0.00    -0.269 OA
BRANCH  36  39
ATOM     39  C   UNL A   1      39.390  22.250  26.490  1.00  0.00     0.039 A 
ATOM     40  C   UNL A   1      38.892  23.485  26.071  1.00  0.00     0.014 A 
ATOM     41  C   UNL A   1      40.413  22.182  27.439  1.00  0.00     0.014 A 
ATOM     42  C   UNL A   1      39.542  24.650  26.458  1.00  0.00     0.010 A 
ATOM     43  C   UNL A   1      41.008  23.362  27.892  1.00  0.00     0.010 A 
ATOM     44  C   UNL A   1      40.618  24.601  27.360  1.00  0.00    -0.014 A 
BRANCH  44  45
ATOM     45  C   UNL A   1      41.323  25.857  27.726  1.00  0.00     0.031 A 
ATOM     46  C   UNL A   1      42.742  26.101  27.291  1.00  0.00     0.074 A 
ATOM     47  C   UNL A   1      40.653  26.804  28.411  1.00  0.00     0.049 A 
ATOM     48  N   UNL A   1      43.500  27.145  27.507  1.00  0.00    -0.248 NA
ATOM     49  C   UNL A   1      43.400  25.038  26.513  1.00  0.00     0.031 C 
ATOM     50  C   UNL A   1      39.269  26.679  28.867  1.00  0.00     0.029 A 
ATOM     51  N   UNL A   1      41.028  28.058  28.821  1.00  0.00    -0.354 N 
ATOM     52  C   UNL A   1      44.724  26.863  26.910  1.00  0.00     0.074 A 
ATOM     53  C   UNL A   1      44.620  25.534  26.347  1.00  0.00     0.031 C 
ATOM     54  C   UNL A   1      38.892  27.827  29.444  1.00  0.00     0.029 A 
ATOM     55  C   UNL A   1      40.029  28.744  29.472  1.00  0.00     0.049 A 
ATOM     56  H   UNL A   1      41.926  28.431  28.665  1.00  0.00     0.167 HD
ATOM     57  C   UNL A   1      45.825  27.647  26.828  1.00  0.00     0.034 A 
ATOM     58  C   UNL A   1      40.027  29.965  30.044  1.00  0.00     0.034 A 
ATOM     59  C   UNL A   1      45.903  28.980  27.371  1.00  0.00     0.049 A 
ATOM     60  C   UNL A   1      41.279  30.797  29.979  1.00  0.00     0.074 A 
ATOM     61  C   UNL A   1      46.963  29.867  27.305  1.00  0.00     0.029 A 
ATOM     62  N   UNL A   1      44.891  29.618  28.074  1.00  0.00    -0.354 N 
ATOM     63  N   UNL A   1      42.416  30.528  29.381  1.00  0.00    -0.248 NA
ATOM     64  C   UNL A   1      41.259  32.093  30.672  1.00  0.00     0.031 C 
ATOM     65  C   UNL A   1      46.613  31.018  28.012  1.00  0.00     0.029 A 
ATOM     66  C   UNL A   1      45.313  30.876  28.472  1.00  0.00     0.049 A 
ATOM     67  H   UNL A   1      44.004  29.234  28.261  1.00  0.00     0.167 HD
ATOM     68  C   UNL A   1      43.242  31.621  29.618  1.00  0.00     0.074 A 
ATOM     69  C   UNL A   1      42.465  32.570  30.389  1.00  0.00     0.031 C 
ATOM     70  C   UNL A   1      44.530  31.815  29.240  1.00  0.00     0.034 A 
BRANCH  57  71
ATOM     71  C   UNL A   1      47.043  27.114  26.117  1.00  0.00     0.023 A 
ATOM     72  C   UNL A   1      48.055  26.462  26.845  1.00  0.00     0.031 A 
ATOM     73  C   UNL A   1      47.262  27.366  24.751  1.00  0.00     0.131 A 
ATOM     74  C   UNL A   1      49.254  26.110  26.211  1.00  0.00     0.055 A 
ATOM     75  C   UNL A   1      48.445  26.984  24.116  1.00  0.00     0.041 A 
ATOM     76  F   UNL A   1      46.326  27.984  24.014  1.00  0.00    -0.206 F 
ATOM     77  C   UNL A   1      49.452  26.364  24.850  1.00  0.00     0.022 A 
BRANCH  74  78
ATOM     78  S   UNL A   1      50.623  25.362  27.137  1.00  0.00     0.124 S 
ATOM     79  O   UNL A   1      49.934  24.325  27.902  1.00  0.00    -0.237 OA
ATOM     80  O   UNL A   1      51.487  24.875  26.065  1.00  0.00    -0.237 OA
ATOM     81  O   UNL A   1      51.157  26.465  27.927  1.00  0.00    -0.744 OA
ENDBRANCH  74  78
ENDBRANCH  57  71
BRANCH  58  82
ATOM     82  C   UNL A   1      38.775  30.457  30.688  1.00  0.00     0.023 A 
ATOM     83  C   UNL A   1      37.801  31.143  29.939  1.00  0.00     0.031 A 
ATOM     84  C   UNL A   1      38.599  30.367  32.078  1.00  0.00     0.131 A 
ATOM     85  C   UNL A   1      36.742  31.785  30.594  1.00  0.00     0.055 A 
ATOM     86  C   UNL A   1      37.501  30.945  32.719  1.00  0.00     0.041 A 
ATOM     87  F   UNL A   1      39.507  29.732  32.835  1.00  0.00    -0.206 F 
ATOM     88  C   UNL A   1      36.578  31.677  31.978  1.00  0.00     0.022 A 
BRANCH  85  89
ATOM     89  S   UNL A   1      35.641  32.910  29.691  1.00  0.00     0.124 S 
ATOM     90  O   UNL A   1      34.331  32.534  30.211  1.00  0.00    -0.237 OA
ATOM     91  O   UNL A   1      36.137  34.218  30.115  1.00  0.00    -0.237 OA
ATOM     92  O   UNL A   1      35.884  32.580  28.291  1.00  0.00    -0.744 OA
ENDBRANCH  85  89
ENDBRANCH  58  82
BRANCH  70  93
ATOM     93  C   UNL A   1      45.217  33.090  29.659  1.00  0.00     0.023 A 
ATOM     94  C   UNL A   1      45.235  34.202  28.795  1.00  0.00     0.031 A 
ATOM     95  C   UNL A   1      45.982  33.148  30.837  1.00  0.00     0.131 A 
ATOM     96  C   UNL A   1      46.037  35.307  29.102  1.00  0.00     0.055 A 
ATOM     97  C   UNL A   1      46.745  34.270  31.159  1.00  0.00     0.041 A 
ATOM     98  F   UNL A   1      46.001  32.109  31.687  1.00  0.00    -0.206 F 
ATOM     99  C   UNL A   1      46.787  35.350  30.282  1.00  0.00     0.022 A 
BRANCH  96 100
ATOM    100  S   UNL A   1      46.203  36.694  27.945  1.00  0.00     0.124 S 
ATOM    101  O   UNL A   1      47.356  37.407  28.490  1.00  0.00    -0.237 OA
ATOM    102  O   UNL A   1      46.437  36.010  26.676  1.00  0.00    -0.237 OA
ATOM    103  O   UNL A   1      44.929  37.397  28.053  1.00  0.00    -0.744 OA
ENDBRANCH  96 100
ENDBRANCH  70  93
ENDBRANCH  44  45
ENDBRANCH  36  39
ENDBRANCH  34  35
ENDBRANCH  33  34
ENDBRANCH  32  33
ENDBRANCH   1  32
TORSDOF 20
ENDMDL
