MODEL 1
REMARK VINA RESULT:     -12.1      0.000      0.000
REMARK SMILES Cc1ccc(NC(=O)CN2C(=O)S/C(=C\c3cc(Cl)c(OCC(=O)NCCCCNC(=O)c4ccc(-c5c6nc(c(-c7cc(S(=O)(=O)[O-])ccc7F)c7ccc([nH]7)c(-c7cc(S(=O)(=O)[O-])ccc7F)c7nc(c(-c8cc(S(=O)(=O)[O-])ccc8F)c8ccc5[nH]8)C=C7)C=C6)cc4)c(Cl)c3)C2=O)cc1
REMARK SMILES IDX 26 1 25 2 23 3 24 4 22 6 21 7 20 8 16 9 17 10 98 11 18 12
REMARK SMILES IDX 96 13 19 14 97 15 15 16 10 17 11 18 99 19 12 20 13 21 14 22
REMARK SMILES IDX 100 23 9 24 7 25 6 26 8 28 5 29 1 30 2 31 3 32 102 33 4 34
REMARK SMILES IDX 101 35 27 36 28 37 29 38 30 39 31 40 32 42 33 43 34 44 95 45
REMARK SMILES IDX 35 46 94 47 36 48 37 49 38 50 88 51 39 52 93 53 87 54 89 55
REMARK SMILES IDX 40 56 92 57 86 58 85 59 41 61 73 62 53 63 72 64 54 65 57 66
REMARK SMILES IDX 71 67 90 68 55 69 56 70 70 72 91 73 58 74 42 75 43 76 51 77
REMARK SMILES IDX 44 78 50 79 52 80 49 81 45 82 46 83 47 84 48 85 74 86 75 87
REMARK SMILES IDX 83 88 76 89 82 90 84 91 81 92 77 93 78 94 79 95 80 96 59 97
REMARK SMILES IDX 60 98 68 99 61 100 67 101 69 102 66 103 62 104 63 105 64 106
REMARK SMILES IDX 65 107
REMARK H PARENT 25 5 6 27 30 41 89 60 57 71
REMARK Flexibility Score: inf
ROOT
ATOM      1  C   UNL A   1      34.380  22.771  24.980  1.00  0.00     0.116 C 
ENDROOT
BRANCH   1   2
ATOM      2  N   UNL A   1      33.135  22.396  24.328  1.00  0.00    -0.353 N 
ATOM      3  C   UNL A   1      32.379  23.103  23.440  1.00  0.00     0.257 C 
ATOM      4  O   UNL A   1      31.399  22.543  22.947  1.00  0.00    -0.271 OA
ATOM      5  H   UNL A   1      32.788  21.504  24.560  1.00  0.00     0.163 HD
BRANCH   3   6
ATOM      6  C   UNL A   1      32.782  24.538  23.058  1.00  0.00     0.329 C 
BRANCH   6   7
ATOM      7  O   UNL A   1      31.802  25.561  23.072  1.00  0.00    -0.481 OA
BRANCH   7   8
ATOM      8  C   UNL A   1      31.943  26.721  23.782  1.00  0.00     0.157 A 
ATOM      9  C   UNL A   1      32.013  28.986  25.538  1.00  0.00    -0.021 A 
ATOM     10  C   UNL A   1      31.332  27.836  25.914  1.00  0.00     0.032 A 
ATOM     11  C   UNL A   1      32.619  28.998  24.276  1.00  0.00     0.032 A 
ATOM     12  C   UNL A   1      31.296  26.727  25.045  1.00  0.00     0.085 A 
ATOM     13  C   UNL A   1      32.658  27.870  23.443  1.00  0.00     0.085 A 
ATOM     14  Cl  UNL A   1      30.443  25.327  25.619  1.00  0.00    -0.080 Cl
ATOM     15  Cl  UNL A   1      33.768  28.034  22.130  1.00  0.00    -0.080 Cl
BRANCH   9  16
ATOM     16  C   UNL A   1      32.082  30.199  26.382  1.00  0.00     0.029 C 
ATOM     17  N   UNL A   1      34.806  31.970  27.844  1.00  0.00    -0.259 N 
ATOM     18  C   UNL A   1      35.518  30.817  27.625  1.00  0.00     0.294 C 
ATOM     19  C   UNL A   1      33.443  31.881  27.627  1.00  0.00     0.268 C 
ATOM     20  O   UNL A   1      36.709  30.706  27.404  1.00  0.00    -0.261 OA
ATOM     21  S   UNL A   1      34.429  29.456  27.621  1.00  0.00    -0.022 SA
ATOM     22  C   UNL A   1      33.107  30.484  27.206  1.00  0.00     0.083 C 
ATOM     23  O   UNL A   1      32.649  32.812  27.625  1.00  0.00    -0.268 OA
BRANCH  17  24
ATOM     24  C   UNL A   1      35.497  33.250  27.830  1.00  0.00     0.230 C 
BRANCH  24  25
ATOM     25  C   UNL A   1      36.479  33.418  28.995  1.00  0.00     0.244 C 
ATOM     26  N   UNL A   1      36.038  33.546  30.282  1.00  0.00    -0.325 N 
ATOM     27  H   UNL A   1      36.642  33.167  30.960  1.00  0.00     0.169 HD
ATOM     28  O   UNL A   1      37.697  33.422  28.792  1.00  0.00    -0.273 OA
BRANCH  26  29
ATOM     29  C   UNL A   1      34.874  34.126  30.801  1.00  0.00     0.041 A 
ATOM     30  C   UNL A   1      31.513  36.098  32.656  1.00  0.00     0.044 C 
ATOM     31  C   UNL A   1      32.685  35.406  32.028  1.00  0.00    -0.051 A 
ATOM     32  C   UNL A   1      32.986  35.639  30.683  1.00  0.00     0.005 A 
ATOM     33  C   UNL A   1      33.493  34.531  32.760  1.00  0.00     0.005 A 
ATOM     34  C   UNL A   1      34.074  35.005  30.075  1.00  0.00     0.026 A 
ATOM     35  C   UNL A   1      34.587  33.907  32.153  1.00  0.00     0.026 A 
ENDBRANCH  26  29
ENDBRANCH  24  25
ENDBRANCH  17  24
ENDBRANCH   9  16
ENDBRANCH   7   8
ENDBRANCH   6   7
ENDBRANCH   3   6
ENDBRANCH   1   2
BRANCH   1  36
ATOM     36  C   UNL A   1      35.611  22.196  24.276  1.00  0.00     0.023 C 
BRANCH  36  37
ATOM     37  C   UNL A   1      36.746  21.748  25.192  1.00  0.00     0.023 C 
BRANCH  37  38
ATOM     38  C   UNL A   1      37.513  22.869  25.874  1.00  0.00     0.116 C 
BRANCH  38  39
ATOM     39  N   UNL A   1      38.774  22.480  26.494  1.00  0.00    -0.352 N 
ATOM     40  C   UNL A   1      39.773  23.277  27.038  1.00  0.00     0.251 C 
ATOM     41  H   UNL A   1      38.942  21.511  26.533  1.00  0.00     0.163 HD
ATOM     42  O   UNL A   1      40.864  22.807  27.351  1.00  0.00    -0.269 OA
BRANCH  40  43
ATOM     43  C   UNL A   1      39.459  24.676  27.425  1.00  0.00     0.039 A 
ATOM     44  C   UNL A   1      39.774  25.670  26.484  1.00  0.00     0.014 A 
ATOM     45  C   UNL A   1      39.265  25.012  28.755  1.00  0.00     0.014 A 
ATOM     46  C   UNL A   1      40.225  26.903  26.930  1.00  0.00     0.010 A 
ATOM     47  C   UNL A   1      39.884  26.144  29.212  1.00  0.00     0.010 A 
ATOM     48  C   UNL A   1      40.414  27.055  28.296  1.00  0.00    -0.014 A 
BRANCH  48  49
ATOM     49  C   UNL A   1      41.128  28.147  28.912  1.00  0.00     0.031 A 
ATOM     50  C   UNL A   1      40.328  29.267  29.418  1.00  0.00     0.074 A 
ATOM     51  C   UNL A   1      42.441  27.989  29.181  1.00  0.00     0.049 A 
ATOM     52  N   UNL A   1      40.799  30.429  29.685  1.00  0.00    -0.248 NA
ATOM     53  C   UNL A   1      38.881  29.181  29.611  1.00  0.00     0.031 C 
ATOM     54  C   UNL A   1      43.272  28.754  30.101  1.00  0.00     0.029 A 
ATOM     55  N   UNL A   1      43.348  27.201  28.475  1.00  0.00    -0.354 N 
ATOM     56  C   UNL A   1      39.834  31.104  30.400  1.00  0.00     0.074 A 
ATOM     57  C   UNL A   1      38.626  30.348  30.208  1.00  0.00     0.031 C 
ATOM     58  C   UNL A   1      44.561  28.619  29.741  1.00  0.00     0.029 A 
ATOM     59  C   UNL A   1      44.575  27.892  28.483  1.00  0.00     0.049 A 
ATOM     60  H   UNL A   1      43.166  26.330  28.052  1.00  0.00     0.167 HD
ATOM     61  C   UNL A   1      40.237  32.123  31.205  1.00  0.00     0.034 A 
ATOM     62  C   UNL A   1      45.099  28.364  27.311  1.00  0.00     0.034 A 
ATOM     63  C   UNL A   1      41.675  32.341  31.050  1.00  0.00     0.049 A 
ATOM     64  C   UNL A   1      45.182  29.875  27.290  1.00  0.00     0.074 A 
ATOM     65  C   UNL A   1      42.772  31.956  31.803  1.00  0.00     0.029 A 
ATOM     66  N   UNL A   1      42.163  32.742  29.816  1.00  0.00    -0.354 N 
ATOM     67  N   UNL A   1      44.450  30.659  28.037  1.00  0.00    -0.248 NA
ATOM     68  C   UNL A   1      46.136  30.618  26.477  1.00  0.00     0.031 C 
ATOM     69  C   UNL A   1      43.926  32.091  30.986  1.00  0.00     0.029 A 
ATOM     70  C   UNL A   1      43.530  32.584  29.754  1.00  0.00     0.049 A 
ATOM     71  H   UNL A   1      41.607  33.093  29.083  1.00  0.00     0.167 HD
ATOM     72  C   UNL A   1      44.833  31.967  27.859  1.00  0.00     0.074 A 
ATOM     73  C   UNL A   1      45.889  31.883  26.863  1.00  0.00     0.031 C 
ATOM     74  C   UNL A   1      44.256  32.993  28.562  1.00  0.00     0.034 A 
BRANCH  61  75
ATOM     75  C   UNL A   1      39.446  32.739  32.336  1.00  0.00     0.023 A 
ATOM     76  C   UNL A   1      39.358  32.011  33.541  1.00  0.00     0.031 A 
ATOM     77  C   UNL A   1      38.737  33.954  32.318  1.00  0.00     0.131 A 
ATOM     78  C   UNL A   1      38.553  32.437  34.610  1.00  0.00     0.055 A 
ATOM     79  C   UNL A   1      37.917  34.374  33.376  1.00  0.00     0.041 A 
ATOM     80  F   UNL A   1      38.825  34.822  31.306  1.00  0.00    -0.206 F 
ATOM     81  C   UNL A   1      37.815  33.611  34.529  1.00  0.00     0.022 A 
BRANCH  78  82
ATOM     82  S   UNL A   1      38.485  31.415  36.102  1.00  0.00     0.124 S 
ATOM     83  O   UNL A   1      39.831  31.576  36.644  1.00  0.00    -0.237 OA
ATOM     84  O   UNL A   1      37.405  32.039  36.857  1.00  0.00    -0.237 OA
ATOM     85  O   UNL A   1      38.184  30.082  35.584  1.00  0.00    -0.744 OA
ENDBRANCH  78  82
ENDBRANCH  61  75
BRANCH  62  86
ATOM     86  C   UNL A   1      44.786  27.456  26.161  1.00  0.00     0.023 A 
ATOM     87  C   UNL A   1      45.525  26.250  26.115  1.00  0.00     0.031 A 
ATOM     88  C   UNL A   1      43.537  27.478  25.526  1.00  0.00     0.131 A 
ATOM     89  C   UNL A   1      44.909  25.062  25.693  1.00  0.00     0.055 A 
ATOM     90  C   UNL A   1      42.972  26.305  25.000  1.00  0.00     0.041 A 
ATOM     91  F   UNL A   1      42.781  28.586  25.541  1.00  0.00    -0.206 F 
ATOM     92  C   UNL A   1      43.628  25.080  25.143  1.00  0.00     0.022 A 
BRANCH  89  93
ATOM     93  S   UNL A   1      45.680  23.487  26.189  1.00  0.00     0.124 S 
ATOM     94  O   UNL A   1      47.005  23.595  25.591  1.00  0.00    -0.237 OA
ATOM     95  O   UNL A   1      45.629  23.558  27.650  1.00  0.00    -0.237 OA
ATOM     96  O   UNL A   1      44.809  22.464  25.616  1.00  0.00    -0.744 OA
ENDBRANCH  89  93
ENDBRANCH  62  86
BRANCH  74  97
ATOM     97  C   UNL A   1      44.358  34.485  28.273  1.00  0.00     0.023 A 
ATOM     98  C   UNL A   1      44.908  35.409  29.166  1.00  0.00     0.031 A 
ATOM     99  C   UNL A   1      43.954  35.032  27.022  1.00  0.00     0.131 A 
ATOM    100  C   UNL A   1      44.984  36.779  28.854  1.00  0.00     0.055 A 
ATOM    101  C   UNL A   1      44.105  36.379  26.681  1.00  0.00     0.041 A 
ATOM    102  F   UNL A   1      43.406  34.287  26.053  1.00  0.00    -0.206 F 
ATOM    103  C   UNL A   1      44.609  37.270  27.608  1.00  0.00     0.022 A 
BRANCH 100 104
ATOM    104  S   UNL A   1      45.522  37.910  30.159  1.00  0.00     0.124 S 
ATOM    105  O   UNL A   1      46.310  38.881  29.407  1.00  0.00    -0.237 OA
ATOM    106  O   UNL A   1      44.252  38.400  30.688  1.00  0.00    -0.237 OA
ATOM    107  O   UNL A   1      46.285  37.054  31.065  1.00  0.00    -0.744 OA
ENDBRANCH 100 104
ENDBRANCH  74  97
ENDBRANCH  48  49
ENDBRANCH  40  43
ENDBRANCH  38  39
ENDBRANCH  37  38
ENDBRANCH  36  37
ENDBRANCH   1  36
TORSDOF 20
ENDMDL
MODEL 2
REMARK VINA RESULT:     -11.6      1.339      2.074
REMARK SMILES Cc1ccc(NC(=O)CN2C(=O)S/C(=C\c3cc(Cl)c(OCC(=O)NCCCCNC(=O)c4ccc(-c5c6nc(c(-c7cc(S(=O)(=O)[O-])ccc7F)c7ccc([nH]7)c(-c7cc(S(=O)(=O)[O-])ccc7F)c7nc(c(-c8cc(S(=O)(=O)[O-])ccc8F)c8ccc5[nH]8)C=C7)C=C6)cc4)c(Cl)c3)C2=O)cc1
REMARK SMILES IDX 26 1 25 2 23 3 24 4 22 6 21 7 20 8 16 9 17 10 98 11 18 12
REMARK SMILES IDX 96 13 19 14 97 15 15 16 10 17 11 18 99 19 12 20 13 21 14 22
REMARK SMILES IDX 100 23 9 24 7 25 6 26 8 28 5 29 1 30 2 31 3 32 102 33 4 34
REMARK SMILES IDX 101 35 27 36 28 37 29 38 30 39 31 40 32 42 33 43 34 44 95 45
REMARK SMILES IDX 35 46 94 47 36 48 37 49 38 50 88 51 39 52 93 53 87 54 89 55
REMARK SMILES IDX 40 56 92 57 86 58 85 59 41 61 73 62 53 63 72 64 54 65 57 66
REMARK SMILES IDX 71 67 90 68 55 69 56 70 70 72 91 73 58 74 42 75 43 76 51 77
REMARK SMILES IDX 44 78 50 79 52 80 49 81 45 82 46 83 47 84 48 85 74 86 75 87
REMARK SMILES IDX 83 88 76 89 82 90 84 91 81 92 77 93 78 94 79 95 80 96 59 97
REMARK SMILES IDX 60 98 68 99 61 100 67 101 69 102 66 103 62 104 63 105 64 106
REMARK SMILES IDX 65 107
REMARK H PARENT 25 5 6 27 30 41 89 60 57 71
REMARK Flexibility Score: inf
ROOT
ATOM      1  C   UNL A   1      34.564  23.275  24.557  1.00  0.00     0.116 C 
ENDROOT
BRANCH   1   2
ATOM      2  N   UNL A   1      33.194  23.005  24.147  1.00  0.00    -0.353 N 
ATOM      3  C   UNL A   1      32.431  23.646  23.216  1.00  0.00     0.257 C 
ATOM      4  O   UNL A   1      31.316  23.182  22.971  1.00  0.00    -0.271 OA
ATOM      5  H   UNL A   1      32.756  22.253  24.606  1.00  0.00     0.163 HD
BRANCH   3   6
ATOM      6  C   UNL A   1      32.984  24.882  22.486  1.00  0.00     0.329 C 
BRANCH   6   7
ATOM      7  O   UNL A   1      32.105  25.943  22.156  1.00  0.00    -0.481 OA
BRANCH   7   8
ATOM      8  C   UNL A   1      31.829  26.978  23.006  1.00  0.00     0.157 A 
ATOM      9  C   UNL A   1      31.564  29.319  24.639  1.00  0.00    -0.021 A 
ATOM     10  C   UNL A   1      32.585  29.237  23.703  1.00  0.00     0.032 A 
ATOM     11  C   UNL A   1      30.711  28.215  24.768  1.00  0.00     0.032 A 
ATOM     12  C   UNL A   1      32.715  28.081  22.906  1.00  0.00     0.085 A 
ATOM     13  C   UNL A   1      30.783  27.099  23.922  1.00  0.00     0.085 A 
ATOM     14  Cl  UNL A   1      34.007  28.089  21.744  1.00  0.00    -0.080 Cl
ATOM     15  Cl  UNL A   1      29.406  26.064  24.047  1.00  0.00    -0.080 Cl
BRANCH   9  16
ATOM     16  C   UNL A   1      31.371  30.486  25.527  1.00  0.00     0.029 C 
ATOM     17  N   UNL A   1      33.593  32.304  27.638  1.00  0.00    -0.259 N 
ATOM     18  C   UNL A   1      34.402  31.200  27.537  1.00  0.00     0.294 C 
ATOM     19  C   UNL A   1      32.320  32.162  27.116  1.00  0.00     0.268 C 
ATOM     20  O   UNL A   1      35.617  31.159  27.585  1.00  0.00    -0.261 OA
ATOM     21  S   UNL A   1      33.423  29.790  27.231  1.00  0.00    -0.022 SA
ATOM     22  C   UNL A   1      32.169  30.775  26.573  1.00  0.00     0.083 C 
ATOM     23  O   UNL A   1      31.493  33.052  26.975  1.00  0.00    -0.268 OA
BRANCH  17  24
ATOM     24  C   UNL A   1      34.193  33.614  27.834  1.00  0.00     0.230 C 
BRANCH  24  25
ATOM     25  C   UNL A   1      33.587  34.386  29.011  1.00  0.00     0.244 C 
ATOM     26  N   UNL A   1      34.193  34.406  30.235  1.00  0.00    -0.325 N 
ATOM     27  H   UNL A   1      34.062  35.240  30.742  1.00  0.00     0.169 HD
ATOM     28  O   UNL A   1      32.539  35.024  28.867  1.00  0.00    -0.273 OA
BRANCH  26  29
ATOM     29  C   UNL A   1      34.969  33.444  30.893  1.00  0.00     0.041 A 
ATOM     30  C   UNL A   1      37.030  30.291  32.999  1.00  0.00     0.044 C 
ATOM     31  C   UNL A   1      36.305  31.389  32.282  1.00  0.00    -0.051 A 
ATOM     32  C   UNL A   1      36.555  31.613  30.925  1.00  0.00     0.005 A 
ATOM     33  C   UNL A   1      35.374  32.198  32.940  1.00  0.00     0.005 A 
ATOM     34  C   UNL A   1      35.890  32.631  30.235  1.00  0.00     0.026 A 
ATOM     35  C   UNL A   1      34.702  33.209  32.245  1.00  0.00     0.026 A 
ENDBRANCH  26  29
ENDBRANCH  24  25
ENDBRANCH  17  24
ENDBRANCH   9  16
ENDBRANCH   7   8
ENDBRANCH   6   7
ENDBRANCH   3   6
ENDBRANCH   1   2
BRANCH   1  36
ATOM     36  C   UNL A   1      35.435  22.019  24.567  1.00  0.00     0.023 C 
BRANCH  36  37
ATOM     37  C   UNL A   1      36.395  21.889  25.747  1.00  0.00     0.023 C 
BRANCH  37  38
ATOM     38  C   UNL A   1      37.530  22.900  25.776  1.00  0.00     0.116 C 
BRANCH  38  39
ATOM     39  N   UNL A   1      38.753  22.449  26.430  1.00  0.00    -0.352 N 
ATOM     40  C   UNL A   1      39.792  23.197  26.968  1.00  0.00     0.251 C 
ATOM     41  H   UNL A   1      38.858  21.473  26.500  1.00  0.00     0.163 HD
ATOM     42  O   UNL A   1      40.846  22.668  27.314  1.00  0.00    -0.269 OA
BRANCH  40  43
ATOM     43  C   UNL A   1      39.562  24.624  27.309  1.00  0.00     0.039 A 
ATOM     44  C   UNL A   1      39.953  25.568  26.344  1.00  0.00     0.014 A 
ATOM     45  C   UNL A   1      39.371  25.012  28.625  1.00  0.00     0.014 A 
ATOM     46  C   UNL A   1      40.475  26.783  26.762  1.00  0.00     0.010 A 
ATOM     47  C   UNL A   1      40.054  26.116  29.059  1.00  0.00     0.010 A 
ATOM     48  C   UNL A   1      40.654  26.964  28.125  1.00  0.00    -0.014 A 
BRANCH  48  49
ATOM     49  C   UNL A   1      41.427  28.026  28.721  1.00  0.00     0.031 A 
ATOM     50  C   UNL A   1      40.694  29.215  29.170  1.00  0.00     0.074 A 
ATOM     51  C   UNL A   1      42.720  27.791  29.027  1.00  0.00     0.049 A 
ATOM     52  N   UNL A   1      41.237  30.352  29.408  1.00  0.00    -0.248 NA
ATOM     53  C   UNL A   1      39.241  29.234  29.331  1.00  0.00     0.031 C 
ATOM     54  C   UNL A   1      43.581  28.531  29.940  1.00  0.00     0.029 A 
ATOM     55  N   UNL A   1      43.586  26.919  28.369  1.00  0.00    -0.354 N 
ATOM     56  C   UNL A   1      40.305  31.115  30.076  1.00  0.00     0.074 A 
ATOM     57  C   UNL A   1      39.053  30.435  29.882  1.00  0.00     0.031 C 
ATOM     58  C   UNL A   1      44.865  28.297  29.615  1.00  0.00     0.029 A 
ATOM     59  C   UNL A   1      44.857  27.526  28.383  1.00  0.00     0.049 A 
ATOM     60  H   UNL A   1      43.355  26.048  27.973  1.00  0.00     0.167 HD
ATOM     61  C   UNL A   1      40.758  32.132  30.856  1.00  0.00     0.034 A 
ATOM     62  C   UNL A   1      45.437  27.920  27.209  1.00  0.00     0.034 A 
ATOM     63  C   UNL A   1      42.211  32.248  30.728  1.00  0.00     0.049 A 
ATOM     64  C   UNL A   1      45.623  29.421  27.139  1.00  0.00     0.074 A 
ATOM     65  C   UNL A   1      43.263  31.818  31.519  1.00  0.00     0.029 A 
ATOM     66  N   UNL A   1      42.751  32.572  29.493  1.00  0.00    -0.354 N 
ATOM     67  N   UNL A   1      44.929  30.278  27.840  1.00  0.00    -0.248 NA
ATOM     68  C   UNL A   1      46.642  30.068  26.324  1.00  0.00     0.031 C 
ATOM     69  C   UNL A   1      44.441  31.845  30.726  1.00  0.00     0.029 A 
ATOM     70  C   UNL A   1      44.106  32.320  29.469  1.00  0.00     0.049 A 
ATOM     71  H   UNL A   1      42.236  32.932  28.735  1.00  0.00     0.167 HD
ATOM     72  C   UNL A   1      45.404  31.550  27.628  1.00  0.00     0.074 A 
ATOM     73  C   UNL A   1      46.473  31.360  26.660  1.00  0.00     0.031 C 
ATOM     74  C   UNL A   1      44.883  32.637  28.281  1.00  0.00     0.034 A 
BRANCH  61  75
ATOM     75  C   UNL A   1      39.987  32.839  31.945  1.00  0.00     0.023 A 
ATOM     76  C   UNL A   1      40.021  32.276  33.238  1.00  0.00     0.031 A 
ATOM     77  C   UNL A   1      39.188  33.991  31.816  1.00  0.00     0.131 A 
ATOM     78  C   UNL A   1      39.247  32.787  34.293  1.00  0.00     0.055 A 
ATOM     79  C   UNL A   1      38.399  34.492  32.862  1.00  0.00     0.041 A 
ATOM     80  F   UNL A   1      39.152  34.718  30.696  1.00  0.00    -0.206 F 
ATOM     81  C   UNL A   1      38.418  33.886  34.108  1.00  0.00     0.022 A 
BRANCH  78  82
ATOM     82  S   UNL A   1      39.341  31.973  35.907  1.00  0.00     0.124 S 
ATOM     83  O   UNL A   1      40.221  30.843  35.628  1.00  0.00    -0.237 OA
ATOM     84  O   UNL A   1      39.888  33.027  36.754  1.00  0.00    -0.237 OA
ATOM     85  O   UNL A   1      37.950  31.618  36.187  1.00  0.00    -0.744 OA
ENDBRANCH  78  82
ENDBRANCH  61  75
BRANCH  62  86
ATOM     86  C   UNL A   1      45.088  26.994  26.083  1.00  0.00     0.023 A 
ATOM     87  C   UNL A   1      45.747  25.742  26.094  1.00  0.00     0.031 A 
ATOM     88  C   UNL A   1      43.856  27.076  25.420  1.00  0.00     0.131 A 
ATOM     89  C   UNL A   1      45.063  24.582  25.698  1.00  0.00     0.055 A 
ATOM     90  C   UNL A   1      43.226  25.924  24.922  1.00  0.00     0.041 A 
ATOM     91  F   UNL A   1      43.174  28.230  25.382  1.00  0.00    -0.206 F 
ATOM     92  C   UNL A   1      43.797  24.664  25.120  1.00  0.00     0.022 A 
BRANCH  89  93
ATOM     93  S   UNL A   1      45.719  22.980  26.264  1.00  0.00     0.124 S 
ATOM     94  O   UNL A   1      46.574  22.590  25.150  1.00  0.00    -0.237 OA
ATOM     95  O   UNL A   1      46.407  23.340  27.504  1.00  0.00    -0.237 OA
ATOM     96  O   UNL A   1      44.529  22.156  26.467  1.00  0.00    -0.744 OA
ENDBRANCH  89  93
ENDBRANCH  62  86
BRANCH  74  97
ATOM     97  C   UNL A   1      45.092  34.107  27.944  1.00  0.00     0.023 A 
ATOM     98  C   UNL A   1      44.082  35.069  28.023  1.00  0.00     0.031 A 
ATOM     99  C   UNL A   1      46.374  34.616  27.588  1.00  0.00     0.131 A 
ATOM    100  C   UNL A   1      44.323  36.418  27.704  1.00  0.00     0.055 A 
ATOM    101  C   UNL A   1      46.631  35.969  27.352  1.00  0.00     0.041 A 
ATOM    102  F   UNL A   1      47.452  33.830  27.467  1.00  0.00    -0.206 F 
ATOM    103  C   UNL A   1      45.596  36.883  27.393  1.00  0.00     0.022 A 
BRANCH 100 104
ATOM    104  S   UNL A   1      42.901  37.534  27.641  1.00  0.00     0.124 S 
ATOM    105  O   UNL A   1      41.812  36.614  27.329  1.00  0.00    -0.237 OA
ATOM    106  O   UNL A   1      42.887  38.097  28.988  1.00  0.00    -0.237 OA
ATOM    107  O   UNL A   1      43.247  38.474  26.577  1.00  0.00    -0.744 OA
ENDBRANCH 100 104
ENDBRANCH  74  97
ENDBRANCH  48  49
ENDBRANCH  40  43
ENDBRANCH  38  39
ENDBRANCH  37  38
ENDBRANCH  36  37
ENDBRANCH   1  36
TORSDOF 20
ENDMDL
MODEL 3
REMARK VINA RESULT:     -11.2      4.076     10.073
REMARK SMILES Cc1ccc(NC(=O)CN2C(=O)S/C(=C\c3cc(Cl)c(OCC(=O)NCCCCNC(=O)c4ccc(-c5c6nc(c(-c7cc(S(=O)(=O)[O-])ccc7F)c7ccc([nH]7)c(-c7cc(S(=O)(=O)[O-])ccc7F)c7nc(c(-c8cc(S(=O)(=O)[O-])ccc8F)c8ccc5[nH]8)C=C7)C=C6)cc4)c(Cl)c3)C2=O)cc1
REMARK SMILES IDX 26 1 25 2 23 3 24 4 22 6 21 7 20 8 16 9 17 10 98 11 18 12
REMARK SMILES IDX 96 13 19 14 97 15 15 16 10 17 11 18 99 19 12 20 13 21 14 22
REMARK SMILES IDX 100 23 9 24 7 25 6 26 8 28 5 29 1 30 2 31 3 32 102 33 4 34
REMARK SMILES IDX 101 35 27 36 28 37 29 38 30 39 31 40 32 42 33 43 34 44 95 45
REMARK SMILES IDX 35 46 94 47 36 48 37 49 38 50 88 51 39 52 93 53 87 54 89 55
REMARK SMILES IDX 40 56 92 57 86 58 85 59 41 61 73 62 53 63 72 64 54 65 57 66
REMARK SMILES IDX 71 67 90 68 55 69 56 70 70 72 91 73 58 74 42 75 43 76 51 77
REMARK SMILES IDX 44 78 50 79 52 80 49 81 45 82 46 83 47 84 48 85 74 86 75 87
REMARK SMILES IDX 83 88 76 89 82 90 84 91 81 92 77 93 78 94 79 95 80 96 59 97
REMARK SMILES IDX 60 98 68 99 61 100 67 101 69 102 66 103 62 104 63 105 64 106
REMARK SMILES IDX 65 107
REMARK H PARENT 25 5 6 27 30 41 89 60 57 71
REMARK Flexibility Score: inf
ROOT
ATOM      1  C   UNL A   1      44.058  25.426  27.104  1.00  0.00     0.116 C 
ENDROOT
BRANCH   1   2
ATOM      2  N   UNL A   1      44.021  24.683  28.354  1.00  0.00    -0.353 N 
ATOM      3  C   UNL A   1      43.539  23.432  28.600  1.00  0.00     0.257 C 
ATOM      4  O   UNL A   1      43.695  22.969  29.731  1.00  0.00    -0.271 OA
ATOM      5  H   UNL A   1      44.398  25.150  29.135  1.00  0.00     0.163 HD
BRANCH   3   6
ATOM      6  C   UNL A   1      42.859  22.634  27.474  1.00  0.00     0.329 C 
BRANCH   6   7
ATOM      7  O   UNL A   1      41.589  22.051  27.705  1.00  0.00    -0.481 OA
BRANCH   7   8
ATOM      8  C   UNL A   1      40.434  22.532  27.153  1.00  0.00     0.157 A 
ATOM      9  C   UNL A   1      37.976  23.191  25.832  1.00  0.00    -0.021 A 
ATOM     10  C   UNL A   1      38.504  21.912  25.720  1.00  0.00     0.032 A 
ATOM     11  C   UNL A   1      38.703  24.130  26.575  1.00  0.00     0.032 A 
ATOM     12  C   UNL A   1      39.716  21.595  26.367  1.00  0.00     0.085 A 
ATOM     13  C   UNL A   1      39.864  23.799  27.288  1.00  0.00     0.085 A 
ATOM     14  Cl  UNL A   1      40.277  19.960  26.190  1.00  0.00    -0.080 Cl
ATOM     15  Cl  UNL A   1      40.349  25.026  28.403  1.00  0.00    -0.080 Cl
BRANCH   9  16
ATOM     16  C   UNL A   1      36.722  23.610  25.169  1.00  0.00     0.029 C 
ATOM     17  N   UNL A   1      33.295  23.368  26.115  1.00  0.00    -0.259 N 
ATOM     18  C   UNL A   1      33.731  22.416  27.003  1.00  0.00     0.294 C 
ATOM     19  C   UNL A   1      34.233  23.801  25.196  1.00  0.00     0.268 C 
ATOM     20  O   UNL A   1      33.254  22.132  28.086  1.00  0.00    -0.261 OA
ATOM     21  S   UNL A   1      35.186  21.675  26.392  1.00  0.00    -0.022 SA
ATOM     22  C   UNL A   1      35.518  23.067  25.428  1.00  0.00     0.083 C 
ATOM     23  O   UNL A   1      34.102  24.733  24.414  1.00  0.00    -0.268 OA
BRANCH  17  24
ATOM     24  C   UNL A   1      32.124  24.166  26.441  1.00  0.00     0.230 C 
BRANCH  24  25
ATOM     25  C   UNL A   1      30.826  23.598  25.857  1.00  0.00     0.244 C 
ATOM     26  N   UNL A   1      30.363  23.996  24.636  1.00  0.00    -0.325 N 
ATOM     27  H   UNL A   1      29.874  23.302  24.137  1.00  0.00     0.169 HD
ATOM     28  O   UNL A   1      30.179  22.749  26.479  1.00  0.00    -0.273 OA
BRANCH  26  29
ATOM     29  C   UNL A   1      30.463  25.225  23.970  1.00  0.00     0.041 A 
ATOM     30  C   UNL A   1      30.973  29.137  22.222  1.00  0.00     0.044 C 
ATOM     31  C   UNL A   1      30.788  27.786  22.843  1.00  0.00    -0.051 A 
ATOM     32  C   UNL A   1      31.311  26.655  22.210  1.00  0.00     0.005 A 
ATOM     33  C   UNL A   1      30.105  27.627  24.053  1.00  0.00     0.005 A 
ATOM     34  C   UNL A   1      31.151  25.385  22.770  1.00  0.00     0.026 A 
ATOM     35  C   UNL A   1      29.956  26.356  24.617  1.00  0.00     0.026 A 
ENDBRANCH  26  29
ENDBRANCH  24  25
ENDBRANCH  17  24
ENDBRANCH   9  16
ENDBRANCH   7   8
ENDBRANCH   6   7
ENDBRANCH   3   6
ENDBRANCH   1   2
BRANCH   1  36
ATOM     36  C   UNL A   1      43.359  26.783  27.202  1.00  0.00     0.023 C 
BRANCH  36  37
ATOM     37  C   UNL A   1      42.284  27.050  26.153  1.00  0.00     0.023 C 
BRANCH  37  38
ATOM     38  C   UNL A   1      41.619  28.415  26.235  1.00  0.00     0.116 C 
BRANCH  38  39
ATOM     39  N   UNL A   1      40.221  28.408  26.645  1.00  0.00    -0.352 N 
ATOM     40  C   UNL A   1      39.676  28.389  27.922  1.00  0.00     0.251 C 
ATOM     41  H   UNL A   1      39.566  28.419  25.909  1.00  0.00     0.163 HD
ATOM     42  O   UNL A   1      38.477  28.191  28.101  1.00  0.00    -0.269 OA
BRANCH  40  43
ATOM     43  C   UNL A   1      40.514  28.799  29.078  1.00  0.00     0.039 A 
ATOM     44  C   UNL A   1      40.069  28.393  30.347  1.00  0.00     0.014 A 
ATOM     45  C   UNL A   1      41.417  29.842  28.957  1.00  0.00     0.014 A 
ATOM     46  C   UNL A   1      40.258  29.238  31.430  1.00  0.00     0.010 A 
ATOM     47  C   UNL A   1      41.444  30.769  29.964  1.00  0.00     0.010 A 
ATOM     48  C   UNL A   1      40.811  30.484  31.176  1.00  0.00    -0.014 A 
BRANCH  48  49
ATOM     49  C   UNL A   1      40.825  31.585  32.109  1.00  0.00     0.031 A 
ATOM     50  C   UNL A   1      41.876  31.580  33.132  1.00  0.00     0.074 A 
ATOM     51  C   UNL A   1      40.028  32.647  31.867  1.00  0.00     0.049 A 
ATOM     52  N   UNL A   1      41.841  32.277  34.207  1.00  0.00    -0.248 NA
ATOM     53  C   UNL A   1      43.054  30.719  33.050  1.00  0.00     0.031 C 
ATOM     54  C   UNL A   1      40.124  33.992  32.417  1.00  0.00     0.029 A 
ATOM     55  N   UNL A   1      38.801  32.634  31.205  1.00  0.00    -0.354 N 
ATOM     56  C   UNL A   1      43.103  32.237  34.758  1.00  0.00     0.074 A 
ATOM     57  C   UNL A   1      43.773  31.157  34.086  1.00  0.00     0.031 C 
ATOM     58  C   UNL A   1      38.924  34.591  32.319  1.00  0.00     0.029 A 
ATOM     59  C   UNL A   1      37.986  33.586  31.847  1.00  0.00     0.049 A 
ATOM     60  H   UNL A   1      38.553  32.070  30.437  1.00  0.00     0.167 HD
ATOM     61  C   UNL A   1      43.464  33.249  35.591  1.00  0.00     0.034 A 
ATOM     62  C   UNL A   1      36.868  33.181  32.522  1.00  0.00     0.034 A 
ATOM     63  C   UNL A   1      42.332  34.153  35.796  1.00  0.00     0.049 A 
ATOM     64  C   UNL A   1      36.962  33.463  34.006  1.00  0.00     0.074 A 
ATOM     65  C   UNL A   1      41.993  35.378  35.244  1.00  0.00     0.029 A 
ATOM     66  N   UNL A   1      41.190  33.668  36.414  1.00  0.00    -0.354 N 
ATOM     67  N   UNL A   1      38.088  33.623  34.651  1.00  0.00    -0.248 NA
ATOM     68  C   UNL A   1      35.800  33.651  34.865  1.00  0.00     0.031 C 
ATOM     69  C   UNL A   1      40.614  35.601  35.501  1.00  0.00     0.029 A 
ATOM     70  C   UNL A   1      40.131  34.530  36.233  1.00  0.00     0.049 A 
ATOM     71  H   UNL A   1      41.143  32.821  36.914  1.00  0.00     0.167 HD
ATOM     72  C   UNL A   1      37.834  33.965  35.958  1.00  0.00     0.074 A 
ATOM     73  C   UNL A   1      36.382  33.960  36.039  1.00  0.00     0.031 C 
ATOM     74  C   UNL A   1      38.843  34.238  36.845  1.00  0.00     0.034 A 
BRANCH  61  75
ATOM     75  C   UNL A   1      44.871  33.617  35.999  1.00  0.00     0.023 A 
ATOM     76  C   UNL A   1      45.757  34.031  34.982  1.00  0.00     0.031 A 
ATOM     77  C   UNL A   1      45.430  33.553  37.289  1.00  0.00     0.131 A 
ATOM     78  C   UNL A   1      47.116  34.282  35.236  1.00  0.00     0.055 A 
ATOM     79  C   UNL A   1      46.791  33.784  37.542  1.00  0.00     0.041 A 
ATOM     80  F   UNL A   1      44.697  33.307  38.378  1.00  0.00    -0.206 F 
ATOM     81  C   UNL A   1      47.645  34.143  36.512  1.00  0.00     0.022 A 
BRANCH  78  82
ATOM     82  S   UNL A   1      48.175  34.781  33.855  1.00  0.00     0.124 S 
ATOM     83  O   UNL A   1      49.011  35.809  34.468  1.00  0.00    -0.237 OA
ATOM     84  O   UNL A   1      48.838  33.530  33.506  1.00  0.00    -0.237 OA
ATOM     85  O   UNL A   1      47.222  35.272  32.860  1.00  0.00    -0.744 OA
ENDBRANCH  78  82
ENDBRANCH  61  75
BRANCH  62  86
ATOM     86  C   UNL A   1      36.221  32.001  31.861  1.00  0.00     0.023 A 
ATOM     87  C   UNL A   1      35.450  32.292  30.711  1.00  0.00     0.031 A 
ATOM     88  C   UNL A   1      36.754  30.710  31.980  1.00  0.00     0.131 A 
ATOM     89  C   UNL A   1      35.455  31.410  29.619  1.00  0.00     0.055 A 
ATOM     90  C   UNL A   1      36.656  29.789  30.924  1.00  0.00     0.041 A 
ATOM     91  F   UNL A   1      37.504  30.373  33.039  1.00  0.00    -0.206 F 
ATOM     92  C   UNL A   1      36.065  30.160  29.714  1.00  0.00     0.022 A 
BRANCH  89  93
ATOM     93  S   UNL A   1      34.950  32.072  27.998  1.00  0.00     0.124 S 
ATOM     94  O   UNL A   1      34.888  30.865  27.183  1.00  0.00    -0.237 OA
ATOM     95  O   UNL A   1      33.667  32.706  28.301  1.00  0.00    -0.237 OA
ATOM     96  O   UNL A   1      36.009  33.016  27.649  1.00  0.00    -0.744 OA
ENDBRANCH  89  93
ENDBRANCH  62  86
BRANCH  74  97
ATOM     97  C   UNL A   1      38.741  34.339  38.360  1.00  0.00     0.023 A 
ATOM     98  C   UNL A   1      39.093  35.481  39.084  1.00  0.00     0.031 A 
ATOM     99  C   UNL A   1      38.205  33.277  39.145  1.00  0.00     0.131 A 
ATOM    100  C   UNL A   1      38.979  35.529  40.486  1.00  0.00     0.055 A 
ATOM    101  C   UNL A   1      38.016  33.355  40.527  1.00  0.00     0.041 A 
ATOM    102  F   UNL A   1      37.819  32.111  38.610  1.00  0.00    -0.206 F 
ATOM    103  C   UNL A   1      38.419  34.484  41.213  1.00  0.00     0.022 A 
BRANCH 100 104
ATOM    104  S   UNL A   1      39.653  36.976  41.336  1.00  0.00     0.124 S 
ATOM    105  O   UNL A   1      38.902  38.064  40.716  1.00  0.00    -0.237 OA
ATOM    106  O   UNL A   1      39.327  36.698  42.731  1.00  0.00    -0.237 OA
ATOM    107  O   UNL A   1      41.077  36.936  41.009  1.00  0.00    -0.744 OA
ENDBRANCH 100 104
ENDBRANCH  74  97
ENDBRANCH  48  49
ENDBRANCH  40  43
ENDBRANCH  38  39
ENDBRANCH  37  38
ENDBRANCH  36  37
ENDBRANCH   1  36
TORSDOF 20
ENDMDL
