MODEL 1
REMARK VINA RESULT:     -11.5      0.000      0.000
REMARK SMILES COCC[C@H]([NH3+])C(=O)N1CC(n2cc(C(=O)NCCCCNC(=O)c3ccc(-c4c5nc(c(-c6cc(S(=O)(=O)[O-])ccc6F)c6ccc([nH]6)c(-c6cc(S(=O)(=O)[O-])ccc6F)c6nc(c(-c7cc(S(=O)(=O)[O-])ccc7F)c7ccc4[nH]7)C=C6)C=C5)cc3)nn2)C1
REMARK SMILES IDX 18 1 17 2 15 3 16 4 14 6 12 7 13 8 89 9 88 10 11 11 7 12
REMARK SMILES IDX 8 13 9 14 10 15 90 16 5 17 4 18 3 19 2 20 1 21 6 22 19 26
REMARK SMILES IDX 20 27 21 28 22 29 23 30 24 32 25 33 26 34 87 35 27 36 86 37
REMARK SMILES IDX 28 38 29 39 30 40 80 41 31 42 85 43 79 44 81 45 32 46 84 47
REMARK SMILES IDX 78 48 77 49 33 51 65 52 45 53 64 54 46 55 49 56 63 57 82 58
REMARK SMILES IDX 47 59 48 60 62 62 83 63 50 64 34 65 35 66 43 67 36 68 42 69
REMARK SMILES IDX 44 70 41 71 37 72 38 73 39 74 40 75 66 76 67 77 75 78 68 79
REMARK SMILES IDX 74 80 76 81 73 82 69 83 70 84 71 85 72 86 51 87 52 88 60 89
REMARK SMILES IDX 53 90 59 91 61 92 58 93 54 94 55 95 56 96 57 97
REMARK H PARENT 17 5 6 23 6 24 6 25 22 31 81 50 49 61
REMARK Flexibility Score: inf
ROOT
ATOM      1  C   UNL A   1      36.600  22.284  25.278  1.00  0.00     0.116 C 
ENDROOT
BRANCH   1   2
ATOM      2  N   UNL A   1      35.756  21.860  26.377  1.00  0.00    -0.351 N 
ATOM      3  C   UNL A   1      34.432  22.103  26.675  1.00  0.00     0.273 C 
ATOM      4  O   UNL A   1      33.966  21.511  27.645  1.00  0.00    -0.267 OA
ATOM      5  H   UNL A   1      36.215  21.290  27.036  1.00  0.00     0.163 HD
BRANCH   3   6
ATOM      6  C   UNL A   1      33.620  23.010  25.869  1.00  0.00     0.170 A 
ATOM      7  N   UNL A   1      32.674  24.669  24.837  1.00  0.00    -0.245 N 
ATOM      8  C   UNL A   1      33.558  24.388  25.839  1.00  0.00     0.145 A 
ATOM      9  N   UNL A   1      32.142  23.555  24.324  1.00  0.00    -0.066 NA
ATOM     10  N   UNL A   1      32.690  22.529  24.964  1.00  0.00    -0.125 NA
BRANCH   7  11
ATOM     11  C   UNL A   1      32.414  25.994  24.385  1.00  0.00     0.148 C 
ATOM     12  C   UNL A   1      30.476  28.546  23.776  1.00  0.00     0.280 C 
ATOM     13  O   UNL A   1      30.852  29.563  24.366  1.00  0.00    -0.268 OA
ATOM     14  N   UNL A   1      30.886  27.312  24.189  1.00  0.00    -0.333 N 
ATOM     15  C   UNL A   1      31.698  26.947  25.350  1.00  0.00     0.149 C 
ATOM     16  C   UNL A   1      31.119  26.040  23.535  1.00  0.00     0.149 C 
BRANCH  12  17
ATOM     17  C   UNL A   1      29.425  28.656  22.648  1.00  0.00     0.273 C 
BRANCH  17  18
ATOM     18  C   UNL A   1      29.474  30.059  22.020  1.00  0.00     0.104 C 
BRANCH  18  19
ATOM     19  C   UNL A   1      28.097  30.546  21.552  1.00  0.00     0.166 C 
BRANCH  19  20
ATOM     20  O   UNL A   1      27.798  31.879  21.974  1.00  0.00    -0.384 OA
ATOM     21  C   UNL A   1      28.893  32.575  22.548  1.00  0.00     0.194 C 
ENDBRANCH  19  20
ENDBRANCH  18  19
ENDBRANCH  17  18
BRANCH  17  22
ATOM     22  N   UNL A   1      28.055  28.330  23.072  1.00  0.00    -0.347 N 
ATOM     23  H   UNL A   1      27.874  28.746  23.986  1.00  0.00     0.345 HD
ATOM     24  H   UNL A   1      27.949  27.317  23.131  1.00  0.00     0.345 HD
ATOM     25  H   UNL A   1      27.391  28.702  22.392  1.00  0.00     0.345 HD
ENDBRANCH  17  22
ENDBRANCH  12  17
ENDBRANCH   7  11
ENDBRANCH   3   6
ENDBRANCH   1   2
BRANCH   1  26
ATOM     26  C   UNL A   1      38.010  22.647  25.748  1.00  0.00     0.023 C 
BRANCH  26  27
ATOM     27  C   UNL A   1      38.991  21.466  25.839  1.00  0.00     0.023 C 
BRANCH  27  28
ATOM     28  C   UNL A   1      40.110  21.624  26.868  1.00  0.00     0.116 C 
BRANCH  28  29
ATOM     29  N   UNL A   1      41.416  21.832  26.252  1.00  0.00    -0.352 N 
ATOM     30  C   UNL A   1      42.075  23.029  26.037  1.00  0.00     0.251 C 
ATOM     31  H   UNL A   1      41.887  21.021  25.954  1.00  0.00     0.163 HD
ATOM     32  O   UNL A   1      42.917  23.110  25.152  1.00  0.00    -0.269 OA
BRANCH  30  33
ATOM     33  C   UNL A   1      41.752  24.197  26.881  1.00  0.00     0.039 A 
ATOM     34  C   UNL A   1      42.489  24.466  28.036  1.00  0.00     0.014 A 
ATOM     35  C   UNL A   1      40.700  25.033  26.505  1.00  0.00     0.014 A 
ATOM     36  C   UNL A   1      42.223  25.635  28.750  1.00  0.00     0.010 A 
ATOM     37  C   UNL A   1      40.494  26.233  27.159  1.00  0.00     0.010 A 
ATOM     38  C   UNL A   1      41.246  26.538  28.290  1.00  0.00    -0.014 A 
BRANCH  38  39
ATOM     39  C   UNL A   1      41.178  27.891  28.855  1.00  0.00     0.031 A 
ATOM     40  C   UNL A   1      42.185  28.819  28.276  1.00  0.00     0.074 A 
ATOM     41  C   UNL A   1      40.197  28.362  29.658  1.00  0.00     0.049 A 
ATOM     42  N   UNL A   1      43.258  29.256  28.844  1.00  0.00    -0.248 NA
ATOM     43  C   UNL A   1      42.104  29.143  26.841  1.00  0.00     0.031 C 
ATOM     44  C   UNL A   1      38.992  27.657  30.101  1.00  0.00     0.029 A 
ATOM     45  N   UNL A   1      40.016  29.616  30.176  1.00  0.00    -0.354 N 
ATOM     46  C   UNL A   1      43.821  30.152  27.943  1.00  0.00     0.074 A 
ATOM     47  C   UNL A   1      43.228  29.843  26.671  1.00  0.00     0.031 C 
ATOM     48  C   UNL A   1      38.113  28.540  30.623  1.00  0.00     0.029 A 
ATOM     49  C   UNL A   1      38.740  29.849  30.696  1.00  0.00     0.049 A 
ATOM     50  H   UNL A   1      40.726  30.297  30.179  1.00  0.00     0.167 HD
ATOM     51  C   UNL A   1      44.482  31.257  28.392  1.00  0.00     0.034 A 
ATOM     52  C   UNL A   1      38.223  31.024  31.154  1.00  0.00     0.034 A 
ATOM     53  C   UNL A   1      44.823  31.112  29.796  1.00  0.00     0.049 A 
ATOM     54  C   UNL A   1      39.375  31.860  31.565  1.00  0.00     0.074 A 
ATOM     55  C   UNL A   1      45.501  30.161  30.539  1.00  0.00     0.029 A 
ATOM     56  N   UNL A   1      44.102  31.844  30.714  1.00  0.00    -0.354 N 
ATOM     57  N   UNL A   1      40.167  31.547  32.553  1.00  0.00    -0.248 NA
ATOM     58  C   UNL A   1      39.930  32.794  30.600  1.00  0.00     0.031 C 
ATOM     59  C   UNL A   1      44.766  30.052  31.757  1.00  0.00     0.029 A 
ATOM     60  C   UNL A   1      43.748  31.008  31.742  1.00  0.00     0.049 A 
ATOM     61  H   UNL A   1      43.880  32.801  30.646  1.00  0.00     0.167 HD
ATOM     62  C   UNL A   1      41.438  31.856  32.096  1.00  0.00     0.074 A 
ATOM     63  C   UNL A   1      41.219  32.727  30.942  1.00  0.00     0.031 C 
ATOM     64  C   UNL A   1      42.529  31.148  32.518  1.00  0.00     0.034 A 
BRANCH  51  65
ATOM     65  C   UNL A   1      44.426  32.621  27.722  1.00  0.00     0.023 A 
ATOM     66  C   UNL A   1      43.805  33.652  28.455  1.00  0.00     0.031 A 
ATOM     67  C   UNL A   1      44.632  32.894  26.351  1.00  0.00     0.131 A 
ATOM     68  C   UNL A   1      43.269  34.779  27.809  1.00  0.00     0.055 A 
ATOM     69  C   UNL A   1      44.164  34.055  25.727  1.00  0.00     0.041 A 
ATOM     70  F   UNL A   1      45.221  32.036  25.513  1.00  0.00    -0.206 F 
ATOM     71  C   UNL A   1      43.437  34.985  26.445  1.00  0.00     0.022 A 
BRANCH  68  72
ATOM     72  S   UNL A   1      42.162  35.850  28.759  1.00  0.00     0.124 S 
ATOM     73  O   UNL A   1      42.652  35.626  30.115  1.00  0.00    -0.237 OA
ATOM     74  O   UNL A   1      42.444  37.159  28.178  1.00  0.00    -0.237 OA
ATOM     75  O   UNL A   1      40.838  35.309  28.468  1.00  0.00    -0.744 OA
ENDBRANCH  68  72
ENDBRANCH  51  65
BRANCH  52  76
ATOM     76  C   UNL A   1      36.833  31.554  31.007  1.00  0.00     0.023 A 
ATOM     77  C   UNL A   1      36.139  32.205  32.055  1.00  0.00     0.031 A 
ATOM     78  C   UNL A   1      36.260  31.657  29.719  1.00  0.00     0.131 A 
ATOM     79  C   UNL A   1      34.944  32.922  31.790  1.00  0.00     0.055 A 
ATOM     80  C   UNL A   1      35.083  32.367  29.465  1.00  0.00     0.041 A 
ATOM     81  F   UNL A   1      36.873  31.144  28.641  1.00  0.00    -0.206 F 
ATOM     82  C   UNL A   1      34.426  33.014  30.497  1.00  0.00     0.022 A 
BRANCH  79  83
ATOM     83  S   UNL A   1      34.087  33.846  33.113  1.00  0.00     0.124 S 
ATOM     84  O   UNL A   1      33.804  35.122  32.467  1.00  0.00    -0.237 OA
ATOM     85  O   UNL A   1      32.940  32.993  33.402  1.00  0.00    -0.237 OA
ATOM     86  O   UNL A   1      35.083  33.910  34.184  1.00  0.00    -0.744 OA
ENDBRANCH  79  83
ENDBRANCH  52  76
BRANCH  64  87
ATOM     87  C   UNL A   1      42.411  30.306  33.774  1.00  0.00     0.023 A 
ATOM     88  C   UNL A   1      42.399  28.894  33.823  1.00  0.00     0.031 A 
ATOM     89  C   UNL A   1      42.408  30.999  34.999  1.00  0.00     0.131 A 
ATOM     90  C   UNL A   1      42.375  28.233  35.069  1.00  0.00     0.055 A 
ATOM     91  C   UNL A   1      42.408  30.343  36.228  1.00  0.00     0.041 A 
ATOM     92  F   UNL A   1      42.438  32.342  35.022  1.00  0.00    -0.206 F 
ATOM     93  C   UNL A   1      42.385  28.955  36.267  1.00  0.00     0.022 A 
BRANCH  90  94
ATOM     94  S   UNL A   1      42.306  26.413  35.162  1.00  0.00     0.124 S 
ATOM     95  O   UNL A   1      40.879  26.120  35.120  1.00  0.00    -0.237 OA
ATOM     96  O   UNL A   1      43.077  26.007  33.989  1.00  0.00    -0.237 OA
ATOM     97  O   UNL A   1      42.950  26.114  36.443  1.00  0.00    -0.744 OA
ENDBRANCH  90  94
ENDBRANCH  64  87
ENDBRANCH  38  39
ENDBRANCH  30  33
ENDBRANCH  28  29
ENDBRANCH  27  28
ENDBRANCH  26  27
ENDBRANCH   1  26
TORSDOF 20
ENDMDL
MODEL 2
REMARK VINA RESULT:     -11.2      5.099     10.732
REMARK SMILES COCC[C@H]([NH3+])C(=O)N1CC(n2cc(C(=O)NCCCCNC(=O)c3ccc(-c4c5nc(c(-c6cc(S(=O)(=O)[O-])ccc6F)c6ccc([nH]6)c(-c6cc(S(=O)(=O)[O-])ccc6F)c6nc(c(-c7cc(S(=O)(=O)[O-])ccc7F)c7ccc4[nH]7)C=C6)C=C5)cc3)nn2)C1
REMARK SMILES IDX 18 1 17 2 15 3 16 4 14 6 12 7 13 8 89 9 88 10 11 11 7 12
REMARK SMILES IDX 8 13 9 14 10 15 90 16 5 17 4 18 3 19 2 20 1 21 6 22 19 26
REMARK SMILES IDX 20 27 21 28 22 29 23 30 24 32 25 33 26 34 87 35 27 36 86 37
REMARK SMILES IDX 28 38 29 39 30 40 80 41 31 42 85 43 79 44 81 45 32 46 84 47
REMARK SMILES IDX 78 48 77 49 33 51 65 52 45 53 64 54 46 55 49 56 63 57 82 58
REMARK SMILES IDX 47 59 48 60 62 62 83 63 50 64 34 65 35 66 43 67 36 68 42 69
REMARK SMILES IDX 44 70 41 71 37 72 38 73 39 74 40 75 66 76 67 77 75 78 68 79
REMARK SMILES IDX 74 80 76 81 73 82 69 83 70 84 71 85 72 86 51 87 52 88 60 89
REMARK SMILES IDX 53 90 59 91 61 92 58 93 54 94 55 95 56 96 57 97
REMARK H PARENT 17 5 6 23 6 24 6 25 22 31 81 50 49 61
REMARK Flexibility Score: inf
ROOT
ATOM      1  C   UNL A   1      39.207  32.020  31.152  1.00  0.00     0.116 C 
ENDROOT
BRANCH   1   2
ATOM      2  N   UNL A   1      40.077  32.317  32.273  1.00  0.00    -0.351 N 
ATOM      3  C   UNL A   1      39.815  32.701  33.571  1.00  0.00     0.273 C 
ATOM      4  O   UNL A   1      40.778  32.783  34.328  1.00  0.00    -0.267 OA
ATOM      5  H   UNL A   1      41.036  32.229  32.069  1.00  0.00     0.163 HD
BRANCH   3   6
ATOM      6  C   UNL A   1      38.456  32.982  34.027  1.00  0.00     0.170 A 
ATOM      7  N   UNL A   1      36.431  33.685  34.370  1.00  0.00    -0.245 N 
ATOM      8  C   UNL A   1      37.566  33.971  33.665  1.00  0.00     0.145 A 
ATOM      9  N   UNL A   1      36.612  32.644  35.188  1.00  0.00    -0.066 NA
ATOM     10  N   UNL A   1      37.856  32.218  35.012  1.00  0.00    -0.125 NA
BRANCH   7  11
ATOM     11  C   UNL A   1      35.210  34.396  34.192  1.00  0.00     0.148 C 
ATOM     12  C   UNL A   1      32.856  35.755  32.390  1.00  0.00     0.280 C 
ATOM     13  O   UNL A   1      31.743  35.294  32.660  1.00  0.00    -0.268 OA
ATOM     14  N   UNL A   1      33.989  35.072  32.722  1.00  0.00    -0.333 N 
ATOM     15  C   UNL A   1      34.129  33.745  33.322  1.00  0.00     0.149 C 
ATOM     16  C   UNL A   1      35.347  35.447  33.063  1.00  0.00     0.149 C 
BRANCH  12  17
ATOM     17  C   UNL A   1      32.969  37.046  31.548  1.00  0.00     0.273 C 
BRANCH  17  18
ATOM     18  C   UNL A   1      33.211  36.690  30.072  1.00  0.00     0.104 C 
BRANCH  18  19
ATOM     19  C   UNL A   1      32.914  35.217  29.763  1.00  0.00     0.166 C 
BRANCH  19  20
ATOM     20  O   UNL A   1      33.968  34.569  29.046  1.00  0.00    -0.384 OA
ATOM     21  C   UNL A   1      34.575  35.366  28.043  1.00  0.00     0.194 C 
ENDBRANCH  19  20
ENDBRANCH  18  19
ENDBRANCH  17  18
BRANCH  17  22
ATOM     22  N   UNL A   1      33.998  37.983  32.026  1.00  0.00    -0.347 N 
ATOM     23  H   UNL A   1      34.810  37.940  31.410  1.00  0.00     0.345 HD
ATOM     24  H   UNL A   1      34.275  37.730  32.975  1.00  0.00     0.345 HD
ATOM     25  H   UNL A   1      33.620  38.932  32.025  1.00  0.00     0.345 HD
ENDBRANCH  17  22
ENDBRANCH  12  17
ENDBRANCH   7  11
ENDBRANCH   3   6
ENDBRANCH   1   2
BRANCH   1  26
ATOM     26  C   UNL A   1      39.088  33.206  30.192  1.00  0.00     0.023 C 
BRANCH  26  27
ATOM     27  C   UNL A   1      37.649  33.659  29.893  1.00  0.00     0.023 C 
BRANCH  27  28
ATOM     28  C   UNL A   1      36.555  32.891  30.632  1.00  0.00     0.116 C 
BRANCH  28  29
ATOM     29  N   UNL A   1      35.538  32.353  29.735  1.00  0.00    -0.352 N 
ATOM     30  C   UNL A   1      35.694  31.398  28.747  1.00  0.00     0.251 C 
ATOM     31  H   UNL A   1      34.629  32.715  29.847  1.00  0.00     0.163 HD
ATOM     32  O   UNL A   1      34.909  31.360  27.809  1.00  0.00    -0.269 OA
BRANCH  30  33
ATOM     33  C   UNL A   1      36.810  30.435  28.839  1.00  0.00     0.039 A 
ATOM     34  C   UNL A   1      37.888  30.509  27.955  1.00  0.00     0.014 A 
ATOM     35  C   UNL A   1      36.773  29.449  29.825  1.00  0.00     0.014 A 
ATOM     36  C   UNL A   1      38.971  29.650  28.139  1.00  0.00     0.010 A 
ATOM     37  C   UNL A   1      37.880  28.658  30.063  1.00  0.00     0.010 A 
ATOM     38  C   UNL A   1      38.982  28.745  29.217  1.00  0.00    -0.014 A 
BRANCH  38  39
ATOM     39  C   UNL A   1      40.230  28.066  29.589  1.00  0.00     0.031 A 
ATOM     40  C   UNL A   1      40.444  28.000  31.059  1.00  0.00     0.074 A 
ATOM     41  C   UNL A   1      41.030  27.370  28.750  1.00  0.00     0.049 A 
ATOM     42  N   UNL A   1      41.285  28.689  31.754  1.00  0.00    -0.248 NA
ATOM     43  C   UNL A   1      39.489  27.234  31.878  1.00  0.00     0.031 C 
ATOM     44  C   UNL A   1      40.815  27.112  27.324  1.00  0.00     0.029 A 
ATOM     45  N   UNL A   1      42.166  26.656  29.014  1.00  0.00    -0.354 N 
ATOM     46  C   UNL A   1      41.172  28.215  33.056  1.00  0.00     0.074 A 
ATOM     47  C   UNL A   1      39.906  27.536  33.110  1.00  0.00     0.031 C 
ATOM     48  C   UNL A   1      41.650  26.135  26.907  1.00  0.00     0.029 A 
ATOM     49  C   UNL A   1      42.564  25.799  27.986  1.00  0.00     0.049 A 
ATOM     50  H   UNL A   1      42.661  26.738  29.862  1.00  0.00     0.167 HD
ATOM     51  C   UNL A   1      42.266  28.161  33.868  1.00  0.00     0.034 A 
ATOM     52  C   UNL A   1      43.565  24.874  28.005  1.00  0.00     0.034 A 
ATOM     53  C   UNL A   1      43.336  28.988  33.337  1.00  0.00     0.049 A 
ATOM     54  C   UNL A   1      44.529  25.317  29.039  1.00  0.00     0.074 A 
ATOM     55  C   UNL A   1      43.440  30.313  32.953  1.00  0.00     0.029 A 
ATOM     56  N   UNL A   1      44.414  28.355  32.757  1.00  0.00    -0.354 N 
ATOM     57  N   UNL A   1      45.222  26.418  28.944  1.00  0.00    -0.248 NA
ATOM     58  C   UNL A   1      44.387  24.791  30.387  1.00  0.00     0.031 C 
ATOM     59  C   UNL A   1      44.254  30.294  31.781  1.00  0.00     0.029 A 
ATOM     60  C   UNL A   1      44.689  28.985  31.570  1.00  0.00     0.049 A 
ATOM     61  H   UNL A   1      44.904  27.587  33.130  1.00  0.00     0.167 HD
ATOM     62  C   UNL A   1      45.198  26.961  30.218  1.00  0.00     0.074 A 
ATOM     63  C   UNL A   1      44.774  25.863  31.084  1.00  0.00     0.031 C 
ATOM     64  C   UNL A   1      45.242  28.315  30.406  1.00  0.00     0.034 A 
BRANCH  51  65
ATOM     65  C   UNL A   1      42.541  27.044  34.863  1.00  0.00     0.023 A 
ATOM     66  C   UNL A   1      43.391  26.010  34.424  1.00  0.00     0.031 A 
ATOM     67  C   UNL A   1      41.806  26.766  36.037  1.00  0.00     0.131 A 
ATOM     68  C   UNL A   1      43.349  24.737  35.018  1.00  0.00     0.055 A 
ATOM     69  C   UNL A   1      41.827  25.519  36.671  1.00  0.00     0.041 A 
ATOM     70  F   UNL A   1      40.967  27.639  36.603  1.00  0.00    -0.206 F 
ATOM     71  C   UNL A   1      42.565  24.480  36.136  1.00  0.00     0.022 A 
BRANCH  68  72
ATOM     72  S   UNL A   1      44.175  23.376  34.157  1.00  0.00     0.124 S 
ATOM     73  O   UNL A   1      43.236  23.123  33.069  1.00  0.00    -0.237 OA
ATOM     74  O   UNL A   1      45.446  23.987  33.784  1.00  0.00    -0.237 OA
ATOM     75  O   UNL A   1      44.256  22.333  35.175  1.00  0.00    -0.744 OA
ENDBRANCH  68  72
ENDBRANCH  51  65
BRANCH  52  76
ATOM     76  C   UNL A   1      43.597  23.517  27.379  1.00  0.00     0.023 A 
ATOM     77  C   UNL A   1      42.519  22.603  27.459  1.00  0.00     0.031 A 
ATOM     78  C   UNL A   1      44.617  23.200  26.453  1.00  0.00     0.131 A 
ATOM     79  C   UNL A   1      42.489  21.451  26.631  1.00  0.00     0.055 A 
ATOM     80  C   UNL A   1      44.581  22.064  25.640  1.00  0.00     0.041 A 
ATOM     81  F   UNL A   1      45.647  24.034  26.240  1.00  0.00    -0.206 F 
ATOM     82  C   UNL A   1      43.510  21.191  25.716  1.00  0.00     0.022 A 
BRANCH  79  83
ATOM     83  S   UNL A   1      41.061  20.312  26.654  1.00  0.00     0.124 S 
ATOM     84  O   UNL A   1      40.914  20.026  28.076  1.00  0.00    -0.237 OA
ATOM     85  O   UNL A   1      40.008  21.112  26.039  1.00  0.00    -0.237 OA
ATOM     86  O   UNL A   1      41.515  19.179  25.846  1.00  0.00    -0.744 OA
ENDBRANCH  79  83
ENDBRANCH  52  76
BRANCH  64  87
ATOM     87  C   UNL A   1      45.722  29.195  29.268  1.00  0.00     0.023 A 
ATOM     88  C   UNL A   1      44.910  30.035  28.475  1.00  0.00     0.031 A 
ATOM     89  C   UNL A   1      47.112  29.243  29.054  1.00  0.00     0.131 A 
ATOM     90  C   UNL A   1      45.499  30.872  27.504  1.00  0.00     0.055 A 
ATOM     91  C   UNL A   1      47.693  30.088  28.111  1.00  0.00     0.041 A 
ATOM     92  F   UNL A   1      47.942  28.483  29.788  1.00  0.00    -0.206 F 
ATOM     93  C   UNL A   1      46.887  30.902  27.327  1.00  0.00     0.022 A 
BRANCH  90  94
ATOM     94  S   UNL A   1      44.472  31.928  26.430  1.00  0.00     0.124 S 
ATOM     95  O   UNL A   1      45.379  32.313  25.356  1.00  0.00    -0.237 OA
ATOM     96  O   UNL A   1      43.381  31.032  26.055  1.00  0.00    -0.237 OA
ATOM     97  O   UNL A   1      44.074  33.027  27.313  1.00  0.00    -0.744 OA
ENDBRANCH  90  94
ENDBRANCH  64  87
ENDBRANCH  38  39
ENDBRANCH  30  33
ENDBRANCH  28  29
ENDBRANCH  27  28
ENDBRANCH  26  27
ENDBRANCH   1  26
TORSDOF 20
ENDMDL
MODEL 3
REMARK VINA RESULT:     -10.6      1.891      2.099
REMARK SMILES COCC[C@H]([NH3+])C(=O)N1CC(n2cc(C(=O)NCCCCNC(=O)c3ccc(-c4c5nc(c(-c6cc(S(=O)(=O)[O-])ccc6F)c6ccc([nH]6)c(-c6cc(S(=O)(=O)[O-])ccc6F)c6nc(c(-c7cc(S(=O)(=O)[O-])ccc7F)c7ccc4[nH]7)C=C6)C=C5)cc3)nn2)C1
REMARK SMILES IDX 18 1 17 2 15 3 16 4 14 6 12 7 13 8 89 9 88 10 11 11 7 12
REMARK SMILES IDX 8 13 9 14 10 15 90 16 5 17 4 18 3 19 2 20 1 21 6 22 19 26
REMARK SMILES IDX 20 27 21 28 22 29 23 30 24 32 25 33 26 34 87 35 27 36 86 37
REMARK SMILES IDX 28 38 29 39 30 40 80 41 31 42 85 43 79 44 81 45 32 46 84 47
REMARK SMILES IDX 78 48 77 49 33 51 65 52 45 53 64 54 46 55 49 56 63 57 82 58
REMARK SMILES IDX 47 59 48 60 62 62 83 63 50 64 34 65 35 66 43 67 36 68 42 69
REMARK SMILES IDX 44 70 41 71 37 72 38 73 39 74 40 75 66 76 67 77 75 78 68 79
REMARK SMILES IDX 74 80 76 81 73 82 69 83 70 84 71 85 72 86 51 87 52 88 60 89
REMARK SMILES IDX 53 90 59 91 61 92 58 93 54 94 55 95 56 96 57 97
REMARK H PARENT 17 5 6 23 6 24 6 25 22 31 81 50 49 61
REMARK Flexibility Score: inf
ROOT
ATOM      1  C   UNL A   1      36.016  22.965  25.071  1.00  0.00     0.116 C 
ENDROOT
BRANCH   1   2
ATOM      2  N   UNL A   1      35.540  22.367  26.303  1.00  0.00    -0.351 N 
ATOM      3  C   UNL A   1      34.270  22.136  26.789  1.00  0.00     0.273 C 
ATOM      4  O   UNL A   1      34.187  21.509  27.842  1.00  0.00    -0.267 OA
ATOM      5  H   UNL A   1      36.259  22.069  26.906  1.00  0.00     0.163 HD
BRANCH   3   6
ATOM      6  C   UNL A   1      33.082  22.603  26.080  1.00  0.00     0.170 A 
ATOM      7  N   UNL A   1      31.576  23.628  24.899  1.00  0.00    -0.245 N 
ATOM      8  C   UNL A   1      32.822  23.795  25.435  1.00  0.00     0.145 A 
ATOM      9  N   UNL A   1      31.043  22.454  25.251  1.00  0.00    -0.066 NA
ATOM     10  N   UNL A   1      31.942  21.825  25.999  1.00  0.00    -0.125 NA
BRANCH   7  11
ATOM     11  C   UNL A   1      30.972  24.586  24.036  1.00  0.00     0.148 C 
ATOM     12  C   UNL A   1      30.552  27.592  22.844  1.00  0.00     0.280 C 
ATOM     13  O   UNL A   1      30.738  27.637  21.624  1.00  0.00    -0.268 OA
ATOM     14  N   UNL A   1      31.049  26.560  23.585  1.00  0.00    -0.333 N 
ATOM     15  C   UNL A   1      31.898  25.445  23.167  1.00  0.00     0.149 C 
ATOM     16  C   UNL A   1      30.645  25.890  24.805  1.00  0.00     0.149 C 
BRANCH  12  17
ATOM     17  C   UNL A   1      29.873  28.781  23.562  1.00  0.00     0.273 C 
BRANCH  17  18
ATOM     18  C   UNL A   1      28.767  29.369  22.669  1.00  0.00     0.104 C 
BRANCH  18  19
ATOM     19  C   UNL A   1      29.092  30.787  22.181  1.00  0.00     0.166 C 
BRANCH  19  20
ATOM     20  O   UNL A   1      27.935  31.521  21.774  1.00  0.00    -0.384 OA
ATOM     21  C   UNL A   1      27.980  32.000  20.439  1.00  0.00     0.194 C 
ENDBRANCH  19  20
ENDBRANCH  18  19
ENDBRANCH  17  18
BRANCH  17  22
ATOM     22  N   UNL A   1      30.805  29.836  23.987  1.00  0.00    -0.347 N 
ATOM     23  H   UNL A   1      31.580  29.418  24.502  1.00  0.00     0.345 HD
ATOM     24  H   UNL A   1      30.316  30.501  24.588  1.00  0.00     0.345 HD
ATOM     25  H   UNL A   1      31.165  30.322  23.165  1.00  0.00     0.345 HD
ENDBRANCH  17  22
ENDBRANCH  12  17
ENDBRANCH   7  11
ENDBRANCH   3   6
ENDBRANCH   1   2
BRANCH   1  26
ATOM     26  C   UNL A   1      37.245  22.238  24.522  1.00  0.00     0.023 C 
BRANCH  26  27
ATOM     27  C   UNL A   1      38.121  21.548  25.582  1.00  0.00     0.023 C 
BRANCH  27  28
ATOM     28  C   UNL A   1      39.035  22.478  26.379  1.00  0.00     0.116 C 
BRANCH  28  29
ATOM     29  N   UNL A   1      40.451  22.206  26.156  1.00  0.00    -0.352 N 
ATOM     30  C   UNL A   1      41.509  23.093  26.224  1.00  0.00     0.251 C 
ATOM     31  H   UNL A   1      40.681  21.276  25.928  1.00  0.00     0.163 HD
ATOM     32  O   UNL A   1      42.540  22.860  25.607  1.00  0.00    -0.269 OA
BRANCH  30  33
ATOM     33  C   UNL A   1      41.380  24.315  27.044  1.00  0.00     0.039 A 
ATOM     34  C   UNL A   1      42.288  24.582  28.070  1.00  0.00     0.014 A 
ATOM     35  C   UNL A   1      40.337  25.203  26.776  1.00  0.00     0.014 A 
ATOM     36  C   UNL A   1      42.197  25.795  28.753  1.00  0.00     0.010 A 
ATOM     37  C   UNL A   1      40.299  26.440  27.389  1.00  0.00     0.010 A 
ATOM     38  C   UNL A   1      41.221  26.742  28.387  1.00  0.00    -0.014 A 
BRANCH  38  39
ATOM     39  C   UNL A   1      41.315  28.119  28.887  1.00  0.00     0.031 A 
ATOM     40  C   UNL A   1      42.428  28.889  28.272  1.00  0.00     0.074 A 
ATOM     41  C   UNL A   1      40.397  28.743  29.659  1.00  0.00     0.049 A 
ATOM     42  N   UNL A   1      43.545  29.221  28.827  1.00  0.00    -0.248 NA
ATOM     43  C   UNL A   1      42.390  29.151  26.823  1.00  0.00     0.031 C 
ATOM     44  C   UNL A   1      39.114  28.210  30.125  1.00  0.00     0.029 A 
ATOM     45  N   UNL A   1      40.367  30.033  30.114  1.00  0.00    -0.354 N 
ATOM     46  C   UNL A   1      44.214  29.998  27.888  1.00  0.00     0.074 A 
ATOM     47  C   UNL A   1      43.591  29.701  26.628  1.00  0.00     0.031 C 
ATOM     48  C   UNL A   1      38.348  29.217  30.597  1.00  0.00     0.029 A 
ATOM     49  C   UNL A   1      39.128  30.443  30.613  1.00  0.00     0.049 A 
ATOM     50  H   UNL A   1      41.155  30.623  30.091  1.00  0.00     0.167 HD
ATOM     51  C   UNL A   1      45.003  31.036  28.289  1.00  0.00     0.034 A 
ATOM     52  C   UNL A   1      38.756  31.692  31.009  1.00  0.00     0.034 A 
ATOM     53  C   UNL A   1      45.320  30.920  29.701  1.00  0.00     0.049 A 
ATOM     54  C   UNL A   1      39.999  32.403  31.389  1.00  0.00     0.074 A 
ATOM     55  C   UNL A   1      45.877  29.931  30.494  1.00  0.00     0.029 A 
ATOM     56  N   UNL A   1      44.691  31.777  30.578  1.00  0.00    -0.354 N 
ATOM     57  N   UNL A   1      40.746  32.045  32.397  1.00  0.00    -0.248 NA
ATOM     58  C   UNL A   1      40.664  33.216  30.385  1.00  0.00     0.031 C 
ATOM     59  C   UNL A   1      45.132  29.971  31.710  1.00  0.00     0.029 A 
ATOM     60  C   UNL A   1      44.236  31.040  31.642  1.00  0.00     0.049 A 
ATOM     61  H   UNL A   1      44.587  32.749  30.462  1.00  0.00     0.167 HD
ATOM     62  C   UNL A   1      42.046  32.177  31.936  1.00  0.00     0.074 A 
ATOM     63  C   UNL A   1      41.935  33.010  30.740  1.00  0.00     0.031 C 
ATOM     64  C   UNL A   1      43.042  31.363  32.401  1.00  0.00     0.034 A 
BRANCH  51  65
ATOM     65  C   UNL A   1      45.112  32.363  27.555  1.00  0.00     0.023 A 
ATOM     66  C   UNL A   1      46.341  32.627  26.918  1.00  0.00     0.031 A 
ATOM     67  C   UNL A   1      44.257  33.478  27.703  1.00  0.00     0.131 A 
ATOM     68  C   UNL A   1      46.742  33.943  26.633  1.00  0.00     0.055 A 
ATOM     69  C   UNL A   1      44.631  34.778  27.345  1.00  0.00     0.041 A 
ATOM     70  F   UNL A   1      43.048  33.406  28.267  1.00  0.00    -0.206 F 
ATOM     71  C   UNL A   1      45.897  35.025  26.850  1.00  0.00     0.022 A 
BRANCH  68  72
ATOM     72  S   UNL A   1      48.472  34.220  26.180  1.00  0.00     0.124 S 
ATOM     73  O   UNL A   1      48.332  34.650  24.793  1.00  0.00    -0.237 OA
ATOM     74  O   UNL A   1      48.870  35.245  27.138  1.00  0.00    -0.237 OA
ATOM     75  O   UNL A   1      49.085  32.909  26.376  1.00  0.00    -0.744 OA
ENDBRANCH  68  72
ENDBRANCH  51  65
BRANCH  52  76
ATOM     76  C   UNL A   1      37.440  32.378  30.826  1.00  0.00     0.023 A 
ATOM     77  C   UNL A   1      36.678  32.891  31.904  1.00  0.00     0.031 A 
ATOM     78  C   UNL A   1      37.036  32.775  29.531  1.00  0.00     0.131 A 
ATOM     79  C   UNL A   1      35.585  33.762  31.662  1.00  0.00     0.055 A 
ATOM     80  C   UNL A   1      35.958  33.635  29.300  1.00  0.00     0.041 A 
ATOM     81  F   UNL A   1      37.732  32.411  28.442  1.00  0.00    -0.206 F 
ATOM     82  C   UNL A   1      35.235  34.142  30.366  1.00  0.00     0.022 A 
BRANCH  79  83
ATOM     83  S   UNL A   1      34.651  34.506  33.044  1.00  0.00     0.124 S 
ATOM     84  O   UNL A   1      35.696  35.199  33.788  1.00  0.00    -0.237 OA
ATOM     85  O   UNL A   1      33.678  35.346  32.354  1.00  0.00    -0.237 OA
ATOM     86  O   UNL A   1      34.076  33.348  33.731  1.00  0.00    -0.744 OA
ENDBRANCH  79  83
ENDBRANCH  52  76
BRANCH  64  87
ATOM     87  C   UNL A   1      42.820  30.603  33.694  1.00  0.00     0.023 A 
ATOM     88  C   UNL A   1      42.365  29.270  33.801  1.00  0.00     0.031 A 
ATOM     89  C   UNL A   1      43.193  31.260  34.882  1.00  0.00     0.131 A 
ATOM     90  C   UNL A   1      42.288  28.651  35.067  1.00  0.00     0.055 A 
ATOM     91  C   UNL A   1      43.139  30.638  36.127  1.00  0.00     0.041 A 
ATOM     92  F   UNL A   1      43.653  32.522  34.847  1.00  0.00    -0.206 F 
ATOM     93  C   UNL A   1      42.679  29.332  36.225  1.00  0.00     0.022 A 
BRANCH  90  94
ATOM     94  S   UNL A   1      41.654  26.950  35.240  1.00  0.00     0.124 S 
ATOM     95  O   UNL A   1      40.611  26.867  34.225  1.00  0.00    -0.237 OA
ATOM     96  O   UNL A   1      42.847  26.142  34.999  1.00  0.00    -0.237 OA
ATOM     97  O   UNL A   1      41.165  26.909  36.620  1.00  0.00    -0.744 OA
ENDBRANCH  90  94
ENDBRANCH  64  87
ENDBRANCH  38  39
ENDBRANCH  30  33
ENDBRANCH  28  29
ENDBRANCH  27  28
ENDBRANCH  26  27
ENDBRANCH   1  26
TORSDOF 20
ENDMDL
