MODEL 1
REMARK VINA RESULT:     -11.5      0.000      0.000
REMARK SMILES COC(=O)[C@H]1CCN(C(=O)Nc2sccc2C(=O)NCCCCNC(=O)c2ccc(-c3c4nc(c(-c5cc(S(=O)(=O)[O-])ccc5F)c5ccc([nH]5)c(-c5cc(S(=O)(=O)[O-])ccc5F)c5nc(c(-c6cc(S(=O)(=O)[O-])ccc6F)c6ccc3[nH]6)C=C5)C=C4)cc2)C1
REMARK SMILES IDX 21 1 20 2 19 3 17 4 18 5 16 7 12 8 13 9 14 10 15 11 11 12
REMARK SMILES IDX 9 13 10 14 8 16 5 17 6 18 90 19 7 20 3 21 4 22 2 23 1 24
REMARK SMILES IDX 22 25 23 26 24 27 25 28 26 30 27 31 28 32 89 33 29 34 88 35
REMARK SMILES IDX 30 36 31 37 32 38 82 39 33 40 87 41 81 42 83 43 34 44 86 45
REMARK SMILES IDX 80 46 79 47 35 49 67 50 47 51 66 52 48 53 51 54 65 55 84 56
REMARK SMILES IDX 49 57 50 58 64 60 85 61 52 62 36 63 37 64 45 65 38 66 44 67
REMARK SMILES IDX 46 68 43 69 39 70 40 71 41 72 42 73 68 74 69 75 77 76 70 77
REMARK SMILES IDX 76 78 78 79 75 80 71 81 72 82 73 83 74 84 53 85 54 86 62 87
REMARK SMILES IDX 55 88 61 89 63 90 60 91 56 92 57 93 58 94 59 95
REMARK H PARENT 19 6 11 15 24 29 83 48 51 59
REMARK Flexibility Score: inf
ROOT
ATOM      1  C   UNL A   1      32.137  30.021  26.722  1.00  0.00     0.023 C 
ENDROOT
BRANCH   1   2
ATOM      2  C   UNL A   1      32.749  29.567  25.403  1.00  0.00     0.116 C 
BRANCH   2   3
ATOM      3  N   UNL A   1      33.632  28.426  25.511  1.00  0.00    -0.352 N 
ATOM      4  C   UNL A   1      33.380  27.091  25.316  1.00  0.00     0.254 C 
ATOM      5  O   UNL A   1      34.317  26.308  25.489  1.00  0.00    -0.269 OA
ATOM      6  H   UNL A   1      34.559  28.641  25.766  1.00  0.00     0.163 HD
BRANCH   4   7
ATOM      7  C   UNL A   1      32.041  26.571  25.016  1.00  0.00     0.074 A 
ATOM      8  C   UNL A   1      31.468  26.162  23.822  1.00  0.00     0.109 A 
ATOM      9  S   UNL A   1      29.787  25.870  23.957  1.00  0.00    -0.126 S 
ATOM     10  C   UNL A   1      29.866  25.883  25.656  1.00  0.00     0.068 A 
ATOM     11  C   UNL A   1      31.105  26.292  26.092  1.00  0.00     0.028 A 
BRANCH   8  12
ATOM     12  N   UNL A   1      31.882  25.921  22.535  1.00  0.00    -0.299 N 
ATOM     13  C   UNL A   1      32.813  25.058  22.065  1.00  0.00     0.322 C 
ATOM     14  O   UNL A   1      33.394  25.363  21.021  1.00  0.00    -0.248 OA
ATOM     15  H   UNL A   1      31.431  26.460  21.846  1.00  0.00     0.172 HD
BRANCH  13  16
ATOM     16  N   UNL A   1      33.065  23.884  22.705  1.00  0.00    -0.324 N 
ATOM     17  C   UNL A   1      34.309  22.245  23.893  1.00  0.00     0.120 C 
ATOM     18  C   UNL A   1      32.839  21.844  23.794  1.00  0.00     0.039 C 
ATOM     19  C   UNL A   1      34.331  23.691  23.404  1.00  0.00     0.136 C 
ATOM     20  C   UNL A   1      32.380  22.610  22.572  1.00  0.00     0.122 C 
BRANCH  17  21
ATOM     21  C   UNL A   1      34.822  22.095  25.298  1.00  0.00     0.310 C 
ATOM     22  O   UNL A   1      35.982  22.267  25.652  1.00  0.00    -0.252 OA
BRANCH  21  23
ATOM     23  O   UNL A   1      33.784  21.775  26.122  1.00  0.00    -0.469 OA
ATOM     24  C   UNL A   1      34.128  21.710  27.506  1.00  0.00     0.282 C 
ENDBRANCH  21  23
ENDBRANCH  17  21
ENDBRANCH  13  16
ENDBRANCH   8  12
ENDBRANCH   4   7
ENDBRANCH   2   3
ENDBRANCH   1   2
BRANCH   1  25
ATOM     25  C   UNL A   1      31.885  31.524  26.855  1.00  0.00     0.023 C 
BRANCH  25  26
ATOM     26  C   UNL A   1      33.042  32.365  27.393  1.00  0.00     0.116 C 
BRANCH  26  27
ATOM     27  N   UNL A   1      32.689  33.755  27.652  1.00  0.00    -0.352 N 
ATOM     28  C   UNL A   1      33.194  34.632  28.586  1.00  0.00     0.251 C 
ATOM     29  H   UNL A   1      31.982  34.121  27.072  1.00  0.00     0.163 HD
ATOM     30  O   UNL A   1      32.670  35.731  28.745  1.00  0.00    -0.269 OA
BRANCH  28  31
ATOM     31  C   UNL A   1      34.347  34.232  29.423  1.00  0.00     0.039 A 
ATOM     32  C   UNL A   1      34.112  33.598  30.645  1.00  0.00     0.014 A 
ATOM     33  C   UNL A   1      35.656  34.448  28.986  1.00  0.00     0.014 A 
ATOM     34  C   UNL A   1      35.190  33.092  31.379  1.00  0.00     0.010 A 
ATOM     35  C   UNL A   1      36.719  33.864  29.672  1.00  0.00     0.010 A 
ATOM     36  C   UNL A   1      36.498  33.171  30.872  1.00  0.00    -0.014 A 
BRANCH  36  37
ATOM     37  C   UNL A   1      37.638  32.522  31.577  1.00  0.00     0.031 A 
ATOM     38  C   UNL A   1      38.355  31.357  30.948  1.00  0.00     0.074 A 
ATOM     39  C   UNL A   1      37.995  32.946  32.807  1.00  0.00     0.049 A 
ATOM     40  N   UNL A   1      39.325  30.624  31.429  1.00  0.00    -0.248 NA
ATOM     41  C   UNL A   1      37.901  30.948  29.610  1.00  0.00     0.031 C 
ATOM     42  C   UNL A   1      37.347  34.033  33.545  1.00  0.00     0.029 A 
ATOM     43  N   UNL A   1      38.981  32.513  33.660  1.00  0.00    -0.354 N 
ATOM     44  C   UNL A   1      39.598  29.668  30.457  1.00  0.00     0.074 A 
ATOM     45  C   UNL A   1      38.637  29.868  29.393  1.00  0.00     0.031 C 
ATOM     46  C   UNL A   1      37.971  34.201  34.723  1.00  0.00     0.029 A 
ATOM     47  C   UNL A   1      39.026  33.200  34.852  1.00  0.00     0.049 A 
ATOM     48  H   UNL A   1      39.598  31.778  33.440  1.00  0.00     0.167 HD
ATOM     49  C   UNL A   1      40.579  28.730  30.437  1.00  0.00     0.034 A 
ATOM     50  C   UNL A   1      39.815  33.038  35.934  1.00  0.00     0.034 A 
ATOM     51  C   UNL A   1      41.528  28.539  31.506  1.00  0.00     0.049 A 
ATOM     52  C   UNL A   1      40.871  31.959  35.908  1.00  0.00     0.074 A 
ATOM     53  C   UNL A   1      42.579  27.641  31.576  1.00  0.00     0.029 A 
ATOM     54  N   UNL A   1      41.541  29.254  32.699  1.00  0.00    -0.354 N 
ATOM     55  N   UNL A   1      41.143  31.092  34.959  1.00  0.00    -0.248 NA
ATOM     56  C   UNL A   1      41.732  31.844  37.091  1.00  0.00     0.031 C 
ATOM     57  C   UNL A   1      43.177  27.759  32.835  1.00  0.00     0.029 A 
ATOM     58  C   UNL A   1      42.561  28.794  33.518  1.00  0.00     0.049 A 
ATOM     59  H   UNL A   1      40.916  29.979  32.928  1.00  0.00     0.167 HD
ATOM     60  C   UNL A   1      42.230  30.354  35.420  1.00  0.00     0.074 A 
ATOM     61  C   UNL A   1      42.572  30.889  36.721  1.00  0.00     0.031 C 
ATOM     62  C   UNL A   1      42.889  29.330  34.820  1.00  0.00     0.034 A 
BRANCH  49  63
ATOM     63  C   UNL A   1      40.656  27.833  29.224  1.00  0.00     0.023 A 
ATOM     64  C   UNL A   1      41.589  28.064  28.197  1.00  0.00     0.031 A 
ATOM     65  C   UNL A   1      39.777  26.745  29.078  1.00  0.00     0.131 A 
ATOM     66  C   UNL A   1      41.572  27.269  27.041  1.00  0.00     0.055 A 
ATOM     67  C   UNL A   1      39.824  25.904  27.965  1.00  0.00     0.041 A 
ATOM     68  F   UNL A   1      38.849  26.486  30.013  1.00  0.00    -0.206 F 
ATOM     69  C   UNL A   1      40.715  26.173  26.930  1.00  0.00     0.022 A 
BRANCH  66  70
ATOM     70  S   UNL A   1      42.581  27.782  25.625  1.00  0.00     0.124 S 
ATOM     71  O   UNL A   1      42.563  26.577  24.798  1.00  0.00    -0.237 OA
ATOM     72  O   UNL A   1      41.839  28.925  25.103  1.00  0.00    -0.237 OA
ATOM     73  O   UNL A   1      43.876  28.099  26.224  1.00  0.00    -0.744 OA
ENDBRANCH  66  70
ENDBRANCH  49  63
BRANCH  50  74
ATOM     74  C   UNL A   1      39.631  33.894  37.144  1.00  0.00     0.023 A 
ATOM     75  C   UNL A   1      38.995  33.404  38.296  1.00  0.00     0.031 A 
ATOM     76  C   UNL A   1      40.043  35.240  37.144  1.00  0.00     0.131 A 
ATOM     77  C   UNL A   1      38.741  34.265  39.376  1.00  0.00     0.055 A 
ATOM     78  C   UNL A   1      39.846  36.074  38.245  1.00  0.00     0.041 A 
ATOM     79  F   UNL A   1      40.656  35.762  36.069  1.00  0.00    -0.206 F 
ATOM     80  C   UNL A   1      39.176  35.592  39.364  1.00  0.00     0.022 A 
BRANCH  77  81
ATOM     81  S   UNL A   1      37.732  33.655  40.755  1.00  0.00     0.124 S 
ATOM     82  O   UNL A   1      36.610  33.042  40.054  1.00  0.00    -0.237 OA
ATOM     83  O   UNL A   1      38.652  32.739  41.422  1.00  0.00    -0.237 OA
ATOM     84  O   UNL A   1      37.412  34.868  41.505  1.00  0.00    -0.744 OA
ENDBRANCH  77  81
ENDBRANCH  50  74
BRANCH  62  85
ATOM     85  C   UNL A   1      44.084  28.757  35.545  1.00  0.00     0.023 A 
ATOM     86  C   UNL A   1      43.967  27.672  36.432  1.00  0.00     0.031 A 
ATOM     87  C   UNL A   1      45.362  29.312  35.346  1.00  0.00     0.131 A 
ATOM     88  C   UNL A   1      45.095  27.216  37.131  1.00  0.00     0.055 A 
ATOM     89  C   UNL A   1      46.492  28.809  35.992  1.00  0.00     0.041 A 
ATOM     90  F   UNL A   1      45.534  30.351  34.514  1.00  0.00    -0.206 F 
ATOM     91  C   UNL A   1      46.360  27.763  36.900  1.00  0.00     0.022 A 
BRANCH  88  92
ATOM     92  S   UNL A   1      44.873  25.961  38.422  1.00  0.00     0.124 S 
ATOM     93  O   UNL A   1      46.243  25.760  38.887  1.00  0.00    -0.237 OA
ATOM     94  O   UNL A   1      43.974  26.629  39.355  1.00  0.00    -0.237 OA
ATOM     95  O   UNL A   1      44.292  24.828  37.703  1.00  0.00    -0.744 OA
ENDBRANCH  88  92
ENDBRANCH  62  85
ENDBRANCH  36  37
ENDBRANCH  28  31
ENDBRANCH  26  27
ENDBRANCH  25  26
ENDBRANCH   1  25
TORSDOF 18
ENDMDL
MODEL 2
REMARK VINA RESULT:     -11.3      2.918      8.399
REMARK SMILES COC(=O)[C@H]1CCN(C(=O)Nc2sccc2C(=O)NCCCCNC(=O)c2ccc(-c3c4nc(c(-c5cc(S(=O)(=O)[O-])ccc5F)c5ccc([nH]5)c(-c5cc(S(=O)(=O)[O-])ccc5F)c5nc(c(-c6cc(S(=O)(=O)[O-])ccc6F)c6ccc3[nH]6)C=C5)C=C4)cc2)C1
REMARK SMILES IDX 21 1 20 2 19 3 17 4 18 5 16 7 12 8 13 9 14 10 15 11 11 12
REMARK SMILES IDX 9 13 10 14 8 16 5 17 6 18 90 19 7 20 3 21 4 22 2 23 1 24
REMARK SMILES IDX 22 25 23 26 24 27 25 28 26 30 27 31 28 32 89 33 29 34 88 35
REMARK SMILES IDX 30 36 31 37 32 38 82 39 33 40 87 41 81 42 83 43 34 44 86 45
REMARK SMILES IDX 80 46 79 47 35 49 67 50 47 51 66 52 48 53 51 54 65 55 84 56
REMARK SMILES IDX 49 57 50 58 64 60 85 61 52 62 36 63 37 64 45 65 38 66 44 67
REMARK SMILES IDX 46 68 43 69 39 70 40 71 41 72 42 73 68 74 69 75 77 76 70 77
REMARK SMILES IDX 76 78 78 79 75 80 71 81 72 82 73 83 74 84 53 85 54 86 62 87
REMARK SMILES IDX 55 88 61 89 63 90 60 91 56 92 57 93 58 94 59 95
REMARK H PARENT 19 6 11 15 24 29 83 48 51 59
REMARK Flexibility Score: inf
ROOT
ATOM      1  C   UNL A   1      32.137  27.739  26.612  1.00  0.00     0.023 C 
ENDROOT
BRANCH   1   2
ATOM      2  C   UNL A   1      33.484  27.247  26.098  1.00  0.00     0.116 C 
BRANCH   2   3
ATOM      3  N   UNL A   1      33.461  26.740  24.742  1.00  0.00    -0.352 N 
ATOM      4  C   UNL A   1      33.821  25.509  24.252  1.00  0.00     0.254 C 
ATOM      5  O   UNL A   1      33.719  25.335  23.036  1.00  0.00    -0.269 OA
ATOM      6  H   UNL A   1      33.139  27.379  24.066  1.00  0.00     0.163 HD
BRANCH   4   7
ATOM      7  C   UNL A   1      34.405  24.459  25.094  1.00  0.00     0.074 A 
ATOM      8  C   UNL A   1      33.818  23.576  25.987  1.00  0.00     0.109 A 
ATOM      9  S   UNL A   1      34.966  22.706  26.912  1.00  0.00    -0.126 S 
ATOM     10  C   UNL A   1      36.234  23.174  25.879  1.00  0.00     0.068 A 
ATOM     11  C   UNL A   1      35.813  24.122  24.975  1.00  0.00     0.028 A 
BRANCH   8  12
ATOM     12  N   UNL A   1      32.548  23.197  26.344  1.00  0.00    -0.299 N 
ATOM     13  C   UNL A   1      31.690  22.343  25.740  1.00  0.00     0.322 C 
ATOM     14  O   UNL A   1      30.483  22.546  25.892  1.00  0.00    -0.248 OA
ATOM     15  H   UNL A   1      32.207  23.612  27.169  1.00  0.00     0.172 HD
BRANCH  13  16
ATOM     16  N   UNL A   1      32.149  21.280  25.024  1.00  0.00    -0.324 N 
ATOM     17  C   UNL A   1      33.292  19.243  24.592  1.00  0.00     0.120 C 
ATOM     18  C   UNL A   1      32.475  19.675  23.377  1.00  0.00     0.039 C 
ATOM     19  C   UNL A   1      32.824  20.180  25.703  1.00  0.00     0.136 C 
ATOM     20  C   UNL A   1      32.349  21.168  23.590  1.00  0.00     0.122 C 
BRANCH  17  21
ATOM     21  C   UNL A   1      33.062  17.793  24.916  1.00  0.00     0.310 C 
ATOM     22  O   UNL A   1      32.115  17.350  25.553  1.00  0.00    -0.252 OA
BRANCH  21  23
ATOM     23  O   UNL A   1      34.057  17.046  24.358  1.00  0.00    -0.469 OA
ATOM     24  C   UNL A   1      34.465  15.925  25.143  1.00  0.00     0.282 C 
ENDBRANCH  21  23
ENDBRANCH  17  21
ENDBRANCH  13  16
ENDBRANCH   8  12
ENDBRANCH   4   7
ENDBRANCH   2   3
ENDBRANCH   1   2
BRANCH   1  25
ATOM     25  C   UNL A   1      32.102  29.186  27.108  1.00  0.00     0.023 C 
BRANCH  25  26
ATOM     26  C   UNL A   1      33.119  30.144  26.487  1.00  0.00     0.116 C 
BRANCH  26  27
ATOM     27  N   UNL A   1      33.077  31.489  27.046  1.00  0.00    -0.352 N 
ATOM     28  C   UNL A   1      33.957  32.115  27.900  1.00  0.00     0.251 C 
ATOM     29  H   UNL A   1      32.302  32.031  26.772  1.00  0.00     0.163 HD
ATOM     30  O   UNL A   1      33.680  33.212  28.374  1.00  0.00    -0.269 OA
BRANCH  28  31
ATOM     31  C   UNL A   1      35.221  31.444  28.275  1.00  0.00     0.039 A 
ATOM     32  C   UNL A   1      36.421  32.150  28.179  1.00  0.00     0.014 A 
ATOM     33  C   UNL A   1      35.218  30.132  28.756  1.00  0.00     0.014 A 
ATOM     34  C   UNL A   1      37.602  31.576  28.659  1.00  0.00     0.010 A 
ATOM     35  C   UNL A   1      36.376  29.598  29.316  1.00  0.00     0.010 A 
ATOM     36  C   UNL A   1      37.581  30.317  29.283  1.00  0.00    -0.014 A 
BRANCH  36  37
ATOM     37  C   UNL A   1      38.803  29.749  29.917  1.00  0.00     0.031 A 
ATOM     38  C   UNL A   1      39.265  30.252  31.258  1.00  0.00     0.074 A 
ATOM     39  C   UNL A   1      39.529  28.820  29.261  1.00  0.00     0.049 A 
ATOM     40  N   UNL A   1      40.334  29.928  31.941  1.00  0.00    -0.248 NA
ATOM     41  C   UNL A   1      38.427  31.273  31.906  1.00  0.00     0.031 C 
ATOM     42  C   UNL A   1      39.213  28.286  27.933  1.00  0.00     0.029 A 
ATOM     43  N   UNL A   1      40.683  28.163  29.612  1.00  0.00    -0.354 N 
ATOM     44  C   UNL A   1      40.297  30.704  33.095  1.00  0.00     0.074 A 
ATOM     45  C   UNL A   1      39.141  31.568  32.980  1.00  0.00     0.031 C 
ATOM     46  C   UNL A   1      40.131  27.366  27.597  1.00  0.00     0.029 A 
ATOM     47  C   UNL A   1      41.132  27.280  28.657  1.00  0.00     0.049 A 
ATOM     48  H   UNL A   1      41.146  28.311  30.468  1.00  0.00     0.167 HD
ATOM     49  C   UNL A   1      41.130  30.675  34.166  1.00  0.00     0.034 A 
ATOM     50  C   UNL A   1      42.232  26.500  28.625  1.00  0.00     0.034 A 
ATOM     51  C   UNL A   1      42.280  29.810  34.265  1.00  0.00     0.049 A 
ATOM     52  C   UNL A   1      43.170  26.517  29.808  1.00  0.00     0.074 A 
ATOM     53  C   UNL A   1      43.172  29.680  35.315  1.00  0.00     0.029 A 
ATOM     54  N   UNL A   1      42.704  28.931  33.275  1.00  0.00    -0.354 N 
ATOM     55  N   UNL A   1      43.093  27.225  30.912  1.00  0.00    -0.248 NA
ATOM     56  C   UNL A   1      44.332  25.622  29.748  1.00  0.00     0.031 C 
ATOM     57  C   UNL A   1      44.174  28.782  34.933  1.00  0.00     0.029 A 
ATOM     58  C   UNL A   1      43.860  28.280  33.681  1.00  0.00     0.049 A 
ATOM     59  H   UNL A   1      42.252  28.792  32.413  1.00  0.00     0.167 HD
ATOM     60  C   UNL A   1      44.180  26.833  31.690  1.00  0.00     0.074 A 
ATOM     61  C   UNL A   1      44.884  25.817  30.937  1.00  0.00     0.031 C 
ATOM     62  C   UNL A   1      44.560  27.272  32.918  1.00  0.00     0.034 A 
BRANCH  49  63
ATOM     63  C   UNL A   1      40.829  31.622  35.304  1.00  0.00     0.023 A 
ATOM     64  C   UNL A   1      39.682  31.471  36.103  1.00  0.00     0.031 A 
ATOM     65  C   UNL A   1      41.685  32.702  35.585  1.00  0.00     0.131 A 
ATOM     66  C   UNL A   1      39.382  32.422  37.090  1.00  0.00     0.055 A 
ATOM     67  C   UNL A   1      41.428  33.595  36.627  1.00  0.00     0.041 A 
ATOM     68  F   UNL A   1      42.785  32.913  34.844  1.00  0.00    -0.206 F 
ATOM     69  C   UNL A   1      40.263  33.467  37.377  1.00  0.00     0.022 A 
BRANCH  66  70
ATOM     70  S   UNL A   1      37.756  32.357  37.888  1.00  0.00     0.124 S 
ATOM     71  O   UNL A   1      36.937  33.124  36.951  1.00  0.00    -0.237 OA
ATOM     72  O   UNL A   1      37.488  30.925  37.946  1.00  0.00    -0.237 OA
ATOM     73  O   UNL A   1      37.982  33.004  39.179  1.00  0.00    -0.744 OA
ENDBRANCH  66  70
ENDBRANCH  49  63
BRANCH  50  74
ATOM     74  C   UNL A   1      42.528  25.651  27.432  1.00  0.00     0.023 A 
ATOM     75  C   UNL A   1      42.080  24.323  27.350  1.00  0.00     0.031 A 
ATOM     76  C   UNL A   1      43.316  26.144  26.375  1.00  0.00     0.131 A 
ATOM     77  C   UNL A   1      42.467  23.518  26.266  1.00  0.00     0.055 A 
ATOM     78  C   UNL A   1      43.643  25.359  25.268  1.00  0.00     0.041 A 
ATOM     79  F   UNL A   1      43.773  27.406  26.400  1.00  0.00    -0.206 F 
ATOM     80  C   UNL A   1      43.232  24.031  25.218  1.00  0.00     0.022 A 
BRANCH  77  81
ATOM     81  S   UNL A   1      42.046  21.753  26.301  1.00  0.00     0.124 S 
ATOM     82  O   UNL A   1      42.947  21.214  25.287  1.00  0.00    -0.237 OA
ATOM     83  O   UNL A   1      42.346  21.397  27.683  1.00  0.00    -0.237 OA
ATOM     84  O   UNL A   1      40.628  21.735  25.949  1.00  0.00    -0.744 OA
ENDBRANCH  77  81
ENDBRANCH  50  74
BRANCH  62  85
ATOM     85  C   UNL A   1      45.763  26.610  33.547  1.00  0.00     0.023 A 
ATOM     86  C   UNL A   1      45.656  25.422  34.291  1.00  0.00     0.031 A 
ATOM     87  C   UNL A   1      47.040  27.185  33.401  1.00  0.00     0.131 A 
ATOM     88  C   UNL A   1      46.793  24.880  34.909  1.00  0.00     0.055 A 
ATOM     89  C   UNL A   1      48.178  26.603  33.962  1.00  0.00     0.041 A 
ATOM     90  F   UNL A   1      47.203  28.321  32.705  1.00  0.00    -0.206 F 
ATOM     91  C   UNL A   1      48.056  25.451  34.732  1.00  0.00     0.022 A 
BRANCH  88  92
ATOM     92  S   UNL A   1      46.586  23.471  36.034  1.00  0.00     0.124 S 
ATOM     93  O   UNL A   1      45.241  23.011  35.698  1.00  0.00    -0.237 OA
ATOM     94  O   UNL A   1      47.679  22.591  35.637  1.00  0.00    -0.237 OA
ATOM     95  O   UNL A   1      46.722  24.069  37.361  1.00  0.00    -0.744 OA
ENDBRANCH  88  92
ENDBRANCH  62  85
ENDBRANCH  36  37
ENDBRANCH  28  31
ENDBRANCH  26  27
ENDBRANCH  25  26
ENDBRANCH   1  25
TORSDOF 18
ENDMDL
MODEL 3
REMARK VINA RESULT:     -11.1      2.731      8.148
REMARK SMILES COC(=O)[C@H]1CCN(C(=O)Nc2sccc2C(=O)NCCCCNC(=O)c2ccc(-c3c4nc(c(-c5cc(S(=O)(=O)[O-])ccc5F)c5ccc([nH]5)c(-c5cc(S(=O)(=O)[O-])ccc5F)c5nc(c(-c6cc(S(=O)(=O)[O-])ccc6F)c6ccc3[nH]6)C=C5)C=C4)cc2)C1
REMARK SMILES IDX 21 1 20 2 19 3 17 4 18 5 16 7 12 8 13 9 14 10 15 11 11 12
REMARK SMILES IDX 9 13 10 14 8 16 5 17 6 18 90 19 7 20 3 21 4 22 2 23 1 24
REMARK SMILES IDX 22 25 23 26 24 27 25 28 26 30 27 31 28 32 89 33 29 34 88 35
REMARK SMILES IDX 30 36 31 37 32 38 82 39 33 40 87 41 81 42 83 43 34 44 86 45
REMARK SMILES IDX 80 46 79 47 35 49 67 50 47 51 66 52 48 53 51 54 65 55 84 56
REMARK SMILES IDX 49 57 50 58 64 60 85 61 52 62 36 63 37 64 45 65 38 66 44 67
REMARK SMILES IDX 46 68 43 69 39 70 40 71 41 72 42 73 68 74 69 75 77 76 70 77
REMARK SMILES IDX 76 78 78 79 75 80 71 81 72 82 73 83 74 84 53 85 54 86 62 87
REMARK SMILES IDX 55 88 61 89 63 90 60 91 56 92 57 93 58 94 59 95
REMARK H PARENT 19 6 11 15 24 29 83 48 51 59
REMARK Flexibility Score: inf
ROOT
ATOM      1  C   UNL A   1      31.402  27.574  26.302  1.00  0.00     0.023 C 
ENDROOT
BRANCH   1   2
ATOM      2  C   UNL A   1      32.214  26.324  26.615  1.00  0.00     0.116 C 
BRANCH   2   3
ATOM      3  N   UNL A   1      31.434  25.109  26.712  1.00  0.00    -0.352 N 
ATOM      4  C   UNL A   1      31.724  23.835  26.291  1.00  0.00     0.254 C 
ATOM      5  O   UNL A   1      30.869  22.969  26.483  1.00  0.00    -0.269 OA
ATOM      6  H   UNL A   1      30.557  25.213  27.147  1.00  0.00     0.163 HD
BRANCH   4   7
ATOM      7  C   UNL A   1      32.944  23.503  25.546  1.00  0.00     0.074 A 
ATOM      8  C   UNL A   1      33.126  22.837  24.345  1.00  0.00     0.109 A 
ATOM      9  S   UNL A   1      34.769  22.485  24.021  1.00  0.00    -0.126 S 
ATOM     10  C   UNL A   1      35.293  23.548  25.241  1.00  0.00     0.068 A 
ATOM     11  C   UNL A   1      34.234  24.002  25.992  1.00  0.00     0.028 A 
BRANCH   8  12
ATOM     12  N   UNL A   1      32.339  22.371  23.320  1.00  0.00    -0.299 N 
ATOM     13  C   UNL A   1      32.210  21.121  22.818  1.00  0.00     0.322 C 
ATOM     14  O   UNL A   1      31.901  21.016  21.628  1.00  0.00    -0.248 OA
ATOM     15  H   UNL A   1      31.781  23.053  22.882  1.00  0.00     0.172 HD
BRANCH  13  16
ATOM     16  N   UNL A   1      32.380  20.027  23.610  1.00  0.00    -0.324 N 
ATOM     17  C   UNL A   1      32.535  17.728  24.187  1.00  0.00     0.120 C 
ATOM     18  C   UNL A   1      32.912  18.612  25.373  1.00  0.00     0.039 C 
ATOM     19  C   UNL A   1      32.462  18.700  23.011  1.00  0.00     0.136 C 
ATOM     20  C   UNL A   1      32.201  19.908  25.046  1.00  0.00     0.122 C 
BRANCH  17  21
ATOM     21  C   UNL A   1      33.545  16.634  23.979  1.00  0.00     0.310 C 
ATOM     22  O   UNL A   1      34.019  16.302  22.901  1.00  0.00    -0.252 OA
BRANCH  21  23
ATOM     23  O   UNL A   1      33.875  16.094  25.187  1.00  0.00    -0.469 OA
ATOM     24  C   UNL A   1      35.266  15.815  25.347  1.00  0.00     0.282 C 
ENDBRANCH  21  23
ENDBRANCH  17  21
ENDBRANCH  13  16
ENDBRANCH   8  12
ENDBRANCH   4   7
ENDBRANCH   2   3
ENDBRANCH   1   2
BRANCH   1  25
ATOM     25  C   UNL A   1      31.834  28.847  27.032  1.00  0.00     0.023 C 
BRANCH  25  26
ATOM     26  C   UNL A   1      32.890  29.707  26.338  1.00  0.00     0.116 C 
BRANCH  26  27
ATOM     27  N   UNL A   1      32.772  31.130  26.625  1.00  0.00    -0.352 N 
ATOM     28  C   UNL A   1      33.574  31.943  27.396  1.00  0.00     0.251 C 
ATOM     29  H   UNL A   1      32.002  31.578  26.205  1.00  0.00     0.163 HD
ATOM     30  O   UNL A   1      33.234  33.098  27.632  1.00  0.00    -0.269 OA
BRANCH  28  31
ATOM     31  C   UNL A   1      34.828  31.407  27.970  1.00  0.00     0.039 A 
ATOM     32  C   UNL A   1      35.940  32.243  28.073  1.00  0.00     0.014 A 
ATOM     33  C   UNL A   1      34.895  30.092  28.438  1.00  0.00     0.014 A 
ATOM     34  C   UNL A   1      37.085  31.792  28.738  1.00  0.00     0.010 A 
ATOM     35  C   UNL A   1      36.000  29.677  29.178  1.00  0.00     0.010 A 
ATOM     36  C   UNL A   1      37.105  30.525  29.345  1.00  0.00    -0.014 A 
BRANCH  36  37
ATOM     37  C   UNL A   1      38.264  30.082  30.168  1.00  0.00     0.031 A 
ATOM     38  C   UNL A   1      38.463  30.630  31.556  1.00  0.00     0.074 A 
ATOM     39  C   UNL A   1      39.169  29.228  29.646  1.00  0.00     0.049 A 
ATOM     40  N   UNL A   1      39.440  30.415  32.399  1.00  0.00    -0.248 NA
ATOM     41  C   UNL A   1      37.440  31.564  32.050  1.00  0.00     0.031 C 
ATOM     42  C   UNL A   1      39.115  28.663  28.296  1.00  0.00     0.029 A 
ATOM     43  N   UNL A   1      40.313  28.688  30.181  1.00  0.00    -0.354 N 
ATOM     44  C   UNL A   1      39.151  31.185  33.521  1.00  0.00     0.074 A 
ATOM     45  C   UNL A   1      37.949  31.930  33.216  1.00  0.00     0.031 C 
ATOM     46  C   UNL A   1      40.159  27.837  28.120  1.00  0.00     0.029 A 
ATOM     47  C   UNL A   1      40.988  27.852  29.321  1.00  0.00     0.049 A 
ATOM     48  H   UNL A   1      40.623  28.882  31.096  1.00  0.00     0.167 HD
ATOM     49  C   UNL A   1      39.808  31.240  34.707  1.00  0.00     0.034 A 
ATOM     50  C   UNL A   1      42.150  27.184  29.471  1.00  0.00     0.034 A 
ATOM     51  C   UNL A   1      41.008  30.493  34.996  1.00  0.00     0.049 A 
ATOM     52  C   UNL A   1      42.889  27.296  30.784  1.00  0.00     0.074 A 
ATOM     53  C   UNL A   1      41.736  30.453  36.172  1.00  0.00     0.029 A 
ATOM     54  N   UNL A   1      41.663  29.658  34.098  1.00  0.00    -0.354 N 
ATOM     55  N   UNL A   1      42.575  27.995  31.851  1.00  0.00    -0.248 NA
ATOM     56  C   UNL A   1      44.128  26.520  30.917  1.00  0.00     0.031 C 
ATOM     57  C   UNL A   1      42.868  29.658  35.963  1.00  0.00     0.029 A 
ATOM     58  C   UNL A   1      42.800  29.126  34.686  1.00  0.00     0.049 A 
ATOM     59  H   UNL A   1      41.364  29.474  33.178  1.00  0.00     0.167 HD
ATOM     60  C   UNL A   1      43.562  27.714  32.792  1.00  0.00     0.074 A 
ATOM     61  C   UNL A   1      44.468  26.770  32.173  1.00  0.00     0.031 C 
ATOM     62  C   UNL A   1      43.703  28.190  34.056  1.00  0.00     0.034 A 
BRANCH  49  63
ATOM     63  C   UNL A   1      39.245  32.155  35.769  1.00  0.00     0.023 A 
ATOM     64  C   UNL A   1      39.668  33.491  35.888  1.00  0.00     0.031 A 
ATOM     65  C   UNL A   1      38.290  31.686  36.688  1.00  0.00     0.131 A 
ATOM     66  C   UNL A   1      39.196  34.287  36.943  1.00  0.00     0.055 A 
ATOM     67  C   UNL A   1      37.758  32.510  37.683  1.00  0.00     0.041 A 
ATOM     68  F   UNL A   1      37.863  30.414  36.642  1.00  0.00    -0.206 F 
ATOM     69  C   UNL A   1      38.222  33.814  37.824  1.00  0.00     0.022 A 
BRANCH  66  70
ATOM     70  S   UNL A   1      39.985  35.893  37.234  1.00  0.00     0.124 S 
ATOM     71  O   UNL A   1      39.282  36.354  38.429  1.00  0.00    -0.237 OA
ATOM     72  O   UNL A   1      41.385  35.530  37.418  1.00  0.00    -0.237 OA
ATOM     73  O   UNL A   1      39.688  36.646  36.017  1.00  0.00    -0.744 OA
ENDBRANCH  66  70
ENDBRANCH  49  63
BRANCH  50  74
ATOM     74  C   UNL A   1      42.708  26.367  28.352  1.00  0.00     0.023 A 
ATOM     75  C   UNL A   1      43.809  26.810  27.602  1.00  0.00     0.031 A 
ATOM     76  C   UNL A   1      42.108  25.150  27.979  1.00  0.00     0.131 A 
ATOM     77  C   UNL A   1      44.242  26.073  26.488  1.00  0.00     0.055 A 
ATOM     78  C   UNL A   1      42.582  24.388  26.911  1.00  0.00     0.041 A 
ATOM     79  F   UNL A   1      41.052  24.677  28.660  1.00  0.00    -0.206 F 
ATOM     80  C   UNL A   1      43.646  24.857  26.147  1.00  0.00     0.022 A 
BRANCH  77  81
ATOM     81  S   UNL A   1      45.527  26.782  25.421  1.00  0.00     0.124 S 
ATOM     82  O   UNL A   1      45.928  25.623  24.631  1.00  0.00    -0.237 OA
ATOM     83  O   UNL A   1      44.791  27.822  24.710  1.00  0.00    -0.237 OA
ATOM     84  O   UNL A   1      46.527  27.267  26.370  1.00  0.00    -0.744 OA
ENDBRANCH  77  81
ENDBRANCH  50  74
BRANCH  62  85
ATOM     85  C   UNL A   1      44.854  27.651  34.873  1.00  0.00     0.023 A 
ATOM     86  C   UNL A   1      44.735  26.486  35.651  1.00  0.00     0.031 A 
ATOM     87  C   UNL A   1      46.092  28.322  34.875  1.00  0.00     0.131 A 
ATOM     88  C   UNL A   1      45.812  26.061  36.443  1.00  0.00     0.055 A 
ATOM     89  C   UNL A   1      47.181  27.855  35.611  1.00  0.00     0.041 A 
ATOM     90  F   UNL A   1      46.264  29.441  34.154  1.00  0.00    -0.206 F 
ATOM     91  C   UNL A   1      47.041  26.725  36.411  1.00  0.00     0.022 A 
BRANCH  88  92
ATOM     92  S   UNL A   1      45.557  24.682  37.594  1.00  0.00     0.124 S 
ATOM     93  O   UNL A   1      44.422  25.153  38.383  1.00  0.00    -0.237 OA
ATOM     94  O   UNL A   1      45.289  23.567  36.693  1.00  0.00    -0.237 OA
ATOM     95  O   UNL A   1      46.824  24.602  38.320  1.00  0.00    -0.744 OA
ENDBRANCH  88  92
ENDBRANCH  62  85
ENDBRANCH  36  37
ENDBRANCH  28  31
ENDBRANCH  26  27
ENDBRANCH  25  26
ENDBRANCH   1  25
TORSDOF 18
ENDMDL
