MODEL 1
REMARK VINA RESULT:     -12.7      0.000      0.000
REMARK SMILES Cc1ccc(NC(=O)C[N@H+]2CCC[C@@H](C(=O)NCCCCNC(=O)c3ccc(-c4c5nc(c(-c6cc(S(=O)(=O)[O-])ccc6F)c6ccc([nH]6)c(-c6cc(S(=O)(=O)[O-])ccc6F)c6nc(c(-c7cc(S(=O)(=O)[O-])ccc7F)c7ccc4[nH]7)C=C6)C=C5)cc3)C2)cc1F
REMARK SMILES IDX 19 1 18 2 17 3 15 4 16 5 14 7 10 8 11 9 88 10 12 12 13 13
REMARK SMILES IDX 9 14 7 15 6 16 8 18 5 19 1 20 2 21 3 22 90 23 4 24 89 25
REMARK SMILES IDX 91 26 20 27 21 28 22 29 23 30 24 32 25 33 26 34 87 35 27 36
REMARK SMILES IDX 86 37 28 38 29 39 30 40 80 41 31 42 85 43 79 44 81 45 32 46
REMARK SMILES IDX 84 47 78 48 77 49 33 51 65 52 45 53 64 54 46 55 49 56 63 57
REMARK SMILES IDX 82 58 47 59 48 60 62 62 83 63 50 64 34 65 35 66 43 67 36 68
REMARK SMILES IDX 42 69 44 70 41 71 37 72 38 73 39 74 40 75 66 76 67 77 75 78
REMARK SMILES IDX 68 79 74 80 76 81 73 82 69 83 70 84 71 85 72 86 51 87 52 88
REMARK SMILES IDX 60 89 53 90 59 91 61 92 58 93 54 94 55 95 56 96 57 97
REMARK H PARENT 17 6 10 11 6 17 22 31 81 50 49 61
REMARK Flexibility Score: inf
ROOT
ATOM      1  C   UNL A   1      33.030  29.291  25.027  1.00  0.00     0.023 C 
ENDROOT
BRANCH   1   2
ATOM      2  C   UNL A   1      31.509  29.130  25.052  1.00  0.00     0.116 C 
BRANCH   2   3
ATOM      3  N   UNL A   1      30.950  28.880  23.736  1.00  0.00    -0.356 N 
ATOM      4  C   UNL A   1      31.039  27.766  22.948  1.00  0.00     0.228 C 
ATOM      5  O   UNL A   1      30.433  27.760  21.876  1.00  0.00    -0.275 OA
ATOM      6  H   UNL A   1      30.430  29.623  23.353  1.00  0.00     0.163 HD
BRANCH   4   7
ATOM      7  C   UNL A   1      31.852  26.564  23.419  1.00  0.00     0.133 C 
ATOM      8  N   UNL A   1      31.640  24.326  24.524  1.00  0.00    -0.326 N 
ATOM      9  C   UNL A   1      32.469  23.726  23.462  1.00  0.00     0.262 C 
ATOM     10  C   UNL A   1      30.910  25.505  24.015  1.00  0.00     0.276 C 
ATOM     11  H   UNL A   1      32.212  24.702  25.280  1.00  0.00     0.348 HD
ATOM     12  C   UNL A   1      33.410  24.729  22.791  1.00  0.00     0.062 C 
ATOM     13  C   UNL A   1      32.648  25.940  22.272  1.00  0.00     0.025 C 
BRANCH   8  14
ATOM     14  C   UNL A   1      30.798  23.256  25.142  1.00  0.00     0.363 C 
BRANCH  14  15
ATOM     15  C   UNL A   1      30.987  22.976  26.634  1.00  0.00     0.279 C 
ATOM     16  N   UNL A   1      32.159  22.549  27.191  1.00  0.00    -0.321 N 
ATOM     17  H   UNL A   1      32.117  22.437  28.168  1.00  0.00     0.170 HD
ATOM     18  O   UNL A   1      30.033  23.162  27.404  1.00  0.00    -0.268 OA
BRANCH  16  19
ATOM     19  C   UNL A   1      33.415  22.240  26.640  1.00  0.00     0.044 A 
ATOM     20  C   UNL A   1      37.143  21.646  24.544  1.00  0.00     0.047 C 
ATOM     21  C   UNL A   1      35.887  21.857  25.328  1.00  0.00    -0.015 A 
ATOM     22  C   UNL A   1      35.619  23.052  26.003  1.00  0.00     0.008 A 
ATOM     23  C   UNL A   1      34.930  20.854  25.373  1.00  0.00     0.128 A 
ATOM     24  C   UNL A   1      34.391  23.244  26.653  1.00  0.00     0.026 A 
ATOM     25  C   UNL A   1      33.725  21.026  26.039  1.00  0.00     0.065 A 
ATOM     26  F   UNL A   1      35.149  19.687  24.750  1.00  0.00    -0.207 F 
ENDBRANCH  16  19
ENDBRANCH  14  15
ENDBRANCH   8  14
ENDBRANCH   4   7
ENDBRANCH   2   3
ENDBRANCH   1   2
BRANCH   1  27
ATOM     27  C   UNL A   1      33.842  28.198  25.744  1.00  0.00     0.023 C 
BRANCH  27  28
ATOM     28  C   UNL A   1      34.476  28.639  27.053  1.00  0.00     0.116 C 
BRANCH  28  29
ATOM     29  N   UNL A   1      34.732  30.074  27.040  1.00  0.00    -0.352 N 
ATOM     30  C   UNL A   1      35.619  30.810  27.801  1.00  0.00     0.251 C 
ATOM     31  H   UNL A   1      34.196  30.592  26.396  1.00  0.00     0.163 HD
ATOM     32  O   UNL A   1      35.478  32.006  27.929  1.00  0.00    -0.269 OA
BRANCH  30  33
ATOM     33  C   UNL A   1      36.823  30.104  28.252  1.00  0.00     0.039 A 
ATOM     34  C   UNL A   1      36.973  29.527  29.514  1.00  0.00     0.014 A 
ATOM     35  C   UNL A   1      37.871  30.137  27.339  1.00  0.00     0.014 A 
ATOM     36  C   UNL A   1      38.205  28.967  29.847  1.00  0.00     0.010 A 
ATOM     37  C   UNL A   1      39.025  29.493  27.609  1.00  0.00     0.010 A 
ATOM     38  C   UNL A   1      39.217  28.983  28.888  1.00  0.00    -0.014 A 
BRANCH  38  39
ATOM     39  C   UNL A   1      40.542  28.428  29.027  1.00  0.00     0.031 A 
ATOM     40  C   UNL A   1      40.686  26.982  28.818  1.00  0.00     0.074 A 
ATOM     41  C   UNL A   1      41.533  29.350  29.003  1.00  0.00     0.049 A 
ATOM     42  N   UNL A   1      41.689  26.287  29.210  1.00  0.00    -0.248 NA
ATOM     43  C   UNL A   1      39.659  26.179  28.143  1.00  0.00     0.031 C 
ATOM     44  C   UNL A   1      42.940  29.208  28.683  1.00  0.00     0.029 A 
ATOM     45  N   UNL A   1      41.435  30.712  29.335  1.00  0.00    -0.354 N 
ATOM     46  C   UNL A   1      41.631  25.099  28.508  1.00  0.00     0.074 A 
ATOM     47  C   UNL A   1      40.271  24.995  28.041  1.00  0.00     0.031 C 
ATOM     48  C   UNL A   1      43.598  30.276  29.181  1.00  0.00     0.029 A 
ATOM     49  C   UNL A   1      42.634  31.033  29.971  1.00  0.00     0.049 A 
ATOM     50  H   UNL A   1      40.676  31.315  29.157  1.00  0.00     0.167 HD
ATOM     51  C   UNL A   1      42.806  24.485  28.184  1.00  0.00     0.034 A 
ATOM     52  C   UNL A   1      42.684  31.207  31.331  1.00  0.00     0.034 A 
ATOM     53  C   UNL A   1      43.926  25.243  28.764  1.00  0.00     0.049 A 
ATOM     54  C   UNL A   1      43.524  30.116  31.971  1.00  0.00     0.074 A 
ATOM     55  C   UNL A   1      44.790  26.176  28.216  1.00  0.00     0.029 A 
ATOM     56  N   UNL A   1      44.002  25.411  30.147  1.00  0.00    -0.354 N 
ATOM     57  N   UNL A   1      43.678  28.927  31.453  1.00  0.00    -0.248 NA
ATOM     58  C   UNL A   1      44.307  30.301  33.186  1.00  0.00     0.031 C 
ATOM     59  C   UNL A   1      45.303  26.977  29.276  1.00  0.00     0.029 A 
ATOM     60  C   UNL A   1      44.761  26.527  30.470  1.00  0.00     0.049 A 
ATOM     61  H   UNL A   1      43.574  24.817  30.805  1.00  0.00     0.167 HD
ATOM     62  C   UNL A   1      44.574  28.208  32.194  1.00  0.00     0.074 A 
ATOM     63  C   UNL A   1      44.942  29.118  33.267  1.00  0.00     0.031 C 
ATOM     64  C   UNL A   1      44.952  26.934  31.867  1.00  0.00     0.034 A 
BRANCH  51  65
ATOM     65  C   UNL A   1      42.957  23.440  27.084  1.00  0.00     0.023 A 
ATOM     66  C   UNL A   1      42.714  22.056  27.243  1.00  0.00     0.031 A 
ATOM     67  C   UNL A   1      43.317  23.829  25.775  1.00  0.00     0.131 A 
ATOM     68  C   UNL A   1      42.759  21.156  26.157  1.00  0.00     0.055 A 
ATOM     69  C   UNL A   1      43.392  22.931  24.700  1.00  0.00     0.041 A 
ATOM     70  F   UNL A   1      43.587  25.106  25.470  1.00  0.00    -0.206 F 
ATOM     71  C   UNL A   1      43.099  21.589  24.882  1.00  0.00     0.022 A 
BRANCH  68  72
ATOM     72  S   UNL A   1      42.324  19.400  26.361  1.00  0.00     0.124 S 
ATOM     73  O   UNL A   1      43.469  18.721  25.756  1.00  0.00    -0.237 OA
ATOM     74  O   UNL A   1      42.218  19.270  27.812  1.00  0.00    -0.237 OA
ATOM     75  O   UNL A   1      41.070  19.261  25.625  1.00  0.00    -0.744 OA
ENDBRANCH  68  72
ENDBRANCH  51  65
BRANCH  52  76
ATOM     76  C   UNL A   1      41.419  31.785  31.898  1.00  0.00     0.023 A 
ATOM     77  C   UNL A   1      40.510  31.011  32.639  1.00  0.00     0.031 A 
ATOM     78  C   UNL A   1      40.933  32.970  31.294  1.00  0.00     0.131 A 
ATOM     79  C   UNL A   1      39.140  31.347  32.621  1.00  0.00     0.055 A 
ATOM     80  C   UNL A   1      39.569  33.259  31.227  1.00  0.00     0.041 A 
ATOM     81  F   UNL A   1      41.772  33.776  30.622  1.00  0.00    -0.206 F 
ATOM     82  C   UNL A   1      38.661  32.417  31.855  1.00  0.00     0.022 A 
BRANCH  79  83
ATOM     83  S   UNL A   1      37.923  30.328  33.513  1.00  0.00     0.124 S 
ATOM     84  O   UNL A   1      36.709  30.600  32.752  1.00  0.00    -0.237 OA
ATOM     85  O   UNL A   1      38.455  28.976  33.369  1.00  0.00    -0.237 OA
ATOM     86  O   UNL A   1      37.965  30.866  34.866  1.00  0.00    -0.744 OA
ENDBRANCH  79  83
ENDBRANCH  52  76
BRANCH  64  87
ATOM     87  C   UNL A   1      45.630  25.960  32.805  1.00  0.00     0.023 A 
ATOM     88  C   UNL A   1      44.843  24.957  33.423  1.00  0.00     0.031 A 
ATOM     89  C   UNL A   1      46.955  26.063  33.261  1.00  0.00     0.131 A 
ATOM     90  C   UNL A   1      45.357  24.144  34.437  1.00  0.00     0.055 A 
ATOM     91  C   UNL A   1      47.500  25.175  34.194  1.00  0.00     0.041 A 
ATOM     92  F   UNL A   1      47.762  27.065  32.885  1.00  0.00    -0.206 F 
ATOM     93  C   UNL A   1      46.697  24.220  34.799  1.00  0.00     0.022 A 
BRANCH  90  94
ATOM     94  S   UNL A   1      44.258  23.097  35.431  1.00  0.00     0.124 S 
ATOM     95  O   UNL A   1      44.442  21.793  34.800  1.00  0.00    -0.237 OA
ATOM     96  O   UNL A   1      44.833  23.232  36.767  1.00  0.00    -0.237 OA
ATOM     97  O   UNL A   1      42.945  23.707  35.259  1.00  0.00    -0.744 OA
ENDBRANCH  90  94
ENDBRANCH  64  87
ENDBRANCH  38  39
ENDBRANCH  30  33
ENDBRANCH  28  29
ENDBRANCH  27  28
ENDBRANCH   1  27
TORSDOF 17
ENDMDL
MODEL 2
REMARK VINA RESULT:     -12.4      1.953      2.462
REMARK SMILES Cc1ccc(NC(=O)C[N@H+]2CCC[C@@H](C(=O)NCCCCNC(=O)c3ccc(-c4c5nc(c(-c6cc(S(=O)(=O)[O-])ccc6F)c6ccc([nH]6)c(-c6cc(S(=O)(=O)[O-])ccc6F)c6nc(c(-c7cc(S(=O)(=O)[O-])ccc7F)c7ccc4[nH]7)C=C6)C=C5)cc3)C2)cc1F
REMARK SMILES IDX 19 1 18 2 17 3 15 4 16 5 14 7 10 8 11 9 88 10 12 12 13 13
REMARK SMILES IDX 9 14 7 15 6 16 8 18 5 19 1 20 2 21 3 22 90 23 4 24 89 25
REMARK SMILES IDX 91 26 20 27 21 28 22 29 23 30 24 32 25 33 26 34 87 35 27 36
REMARK SMILES IDX 86 37 28 38 29 39 30 40 80 41 31 42 85 43 79 44 81 45 32 46
REMARK SMILES IDX 84 47 78 48 77 49 33 51 65 52 45 53 64 54 46 55 49 56 63 57
REMARK SMILES IDX 82 58 47 59 48 60 62 62 83 63 50 64 34 65 35 66 43 67 36 68
REMARK SMILES IDX 42 69 44 70 41 71 37 72 38 73 39 74 40 75 66 76 67 77 75 78
REMARK SMILES IDX 68 79 74 80 76 81 73 82 69 83 70 84 71 85 72 86 51 87 52 88
REMARK SMILES IDX 60 89 53 90 59 91 61 92 58 93 54 94 55 95 56 96 57 97
REMARK H PARENT 17 6 10 11 6 17 22 31 81 50 49 61
REMARK Flexibility Score: inf
ROOT
ATOM      1  C   UNL A   1      33.307  29.493  25.853  1.00  0.00     0.023 C 
ENDROOT
BRANCH   1   2
ATOM      2  C   UNL A   1      31.779  29.476  25.767  1.00  0.00     0.116 C 
BRANCH   2   3
ATOM      3  N   UNL A   1      31.294  29.494  24.399  1.00  0.00    -0.356 N 
ATOM      4  C   UNL A   1      31.411  28.548  23.420  1.00  0.00     0.228 C 
ATOM      5  O   UNL A   1      30.868  28.760  22.335  1.00  0.00    -0.275 OA
ATOM      6  H   UNL A   1      30.809  30.310  24.137  1.00  0.00     0.163 HD
BRANCH   4   7
ATOM      7  C   UNL A   1      32.176  27.257  23.697  1.00  0.00     0.133 C 
ATOM      8  N   UNL A   1      31.887  24.907  24.515  1.00  0.00    -0.326 N 
ATOM      9  C   UNL A   1      32.643  24.411  23.348  1.00  0.00     0.262 C 
ATOM     10  C   UNL A   1      31.202  26.176  24.193  1.00  0.00     0.276 C 
ATOM     11  H   UNL A   1      32.506  25.154  25.286  1.00  0.00     0.348 HD
ATOM     12  C   UNL A   1      33.611  25.446  22.772  1.00  0.00     0.062 C 
ATOM     13  C   UNL A   1      32.894  26.750  22.446  1.00  0.00     0.025 C 
BRANCH   8  14
ATOM     14  C   UNL A   1      31.013  23.807  25.026  1.00  0.00     0.363 C 
BRANCH  14  15
ATOM     15  C   UNL A   1      31.200  23.370  26.480  1.00  0.00     0.279 C 
ATOM     16  N   UNL A   1      32.354  22.833  26.977  1.00  0.00    -0.321 N 
ATOM     17  H   UNL A   1      32.314  22.625  27.939  1.00  0.00     0.170 HD
ATOM     18  O   UNL A   1      30.262  23.524  27.277  1.00  0.00    -0.268 OA
BRANCH  16  19
ATOM     19  C   UNL A   1      33.588  22.520  26.381  1.00  0.00     0.044 A 
ATOM     20  C   UNL A   1      37.431  21.178  24.943  1.00  0.00     0.047 C 
ATOM     21  C   UNL A   1      36.078  21.642  25.377  1.00  0.00    -0.015 A 
ATOM     22  C   UNL A   1      34.935  20.851  25.231  1.00  0.00     0.008 A 
ATOM     23  C   UNL A   1      35.938  22.886  25.974  1.00  0.00     0.128 A 
ATOM     24  C   UNL A   1      33.698  21.285  25.731  1.00  0.00     0.026 A 
ATOM     25  C   UNL A   1      34.712  23.335  26.444  1.00  0.00     0.065 A 
ATOM     26  F   UNL A   1      37.006  23.683  26.124  1.00  0.00    -0.207 F 
ENDBRANCH  16  19
ENDBRANCH  14  15
ENDBRANCH   8  14
ENDBRANCH   4   7
ENDBRANCH   2   3
ENDBRANCH   1   2
BRANCH   1  27
ATOM     27  C   UNL A   1      33.969  28.236  26.443  1.00  0.00     0.023 C 
BRANCH  27  28
ATOM     28  C   UNL A   1      35.387  28.448  26.950  1.00  0.00     0.116 C 
BRANCH  28  29
ATOM     29  N   UNL A   1      35.625  29.860  27.226  1.00  0.00    -0.352 N 
ATOM     30  C   UNL A   1      36.628  30.446  27.974  1.00  0.00     0.251 C 
ATOM     31  H   UNL A   1      34.979  30.484  26.823  1.00  0.00     0.163 HD
ATOM     32  O   UNL A   1      36.503  31.573  28.398  1.00  0.00    -0.269 OA
BRANCH  30  33
ATOM     33  C   UNL A   1      37.898  29.715  28.034  1.00  0.00     0.039 A 
ATOM     34  C   UNL A   1      38.791  29.597  26.969  1.00  0.00     0.014 A 
ATOM     35  C   UNL A   1      38.107  29.045  29.235  1.00  0.00     0.014 A 
ATOM     36  C   UNL A   1      39.918  28.793  27.132  1.00  0.00     0.010 A 
ATOM     37  C   UNL A   1      39.253  28.365  29.441  1.00  0.00     0.010 A 
ATOM     38  C   UNL A   1      40.113  28.174  28.366  1.00  0.00    -0.014 A 
BRANCH  38  39
ATOM     39  C   UNL A   1      41.227  27.336  28.741  1.00  0.00     0.031 A 
ATOM     40  C   UNL A   1      41.056  25.886  28.585  1.00  0.00     0.074 A 
ATOM     41  C   UNL A   1      42.400  28.001  28.871  1.00  0.00     0.049 A 
ATOM     42  N   UNL A   1      41.787  25.002  29.157  1.00  0.00    -0.248 NA
ATOM     43  C   UNL A   1      39.992  25.305  27.759  1.00  0.00     0.031 C 
ATOM     44  C   UNL A   1      43.766  27.519  28.801  1.00  0.00     0.029 A 
ATOM     45  N   UNL A   1      42.575  29.366  29.157  1.00  0.00    -0.354 N 
ATOM     46  C   UNL A   1      41.564  23.822  28.476  1.00  0.00     0.074 A 
ATOM     47  C   UNL A   1      40.313  24.008  27.784  1.00  0.00     0.031 C 
ATOM     48  C   UNL A   1      44.568  28.433  29.385  1.00  0.00     0.029 A 
ATOM     49  C   UNL A   1      43.697  29.437  29.985  1.00  0.00     0.049 A 
ATOM     50  H   UNL A   1      42.021  30.116  28.841  1.00  0.00     0.167 HD
ATOM     51  C   UNL A   1      42.595  22.934  28.370  1.00  0.00     0.034 A 
ATOM     52  C   UNL A   1      43.565  29.673  31.329  1.00  0.00     0.034 A 
ATOM     53  C   UNL A   1      43.753  23.446  29.121  1.00  0.00     0.049 A 
ATOM     54  C   UNL A   1      44.005  28.457  32.123  1.00  0.00     0.074 A 
ATOM     55  C   UNL A   1      44.892  24.120  28.713  1.00  0.00     0.029 A 
ATOM     56  N   UNL A   1      43.641  23.671  30.493  1.00  0.00    -0.354 N 
ATOM     57  N   UNL A   1      43.954  27.236  31.661  1.00  0.00    -0.248 NA
ATOM     58  C   UNL A   1      44.601  28.526  33.452  1.00  0.00     0.031 C 
ATOM     59  C   UNL A   1      45.401  24.841  29.831  1.00  0.00     0.029 A 
ATOM     60  C   UNL A   1      44.581  24.598  30.922  1.00  0.00     0.049 A 
ATOM     61  H   UNL A   1      42.983  23.231  31.078  1.00  0.00     0.167 HD
ATOM     62  C   UNL A   1      44.521  26.373  32.558  1.00  0.00     0.074 A 
ATOM     63  C   UNL A   1      44.914  27.234  33.662  1.00  0.00     0.031 C 
ATOM     64  C   UNL A   1      44.632  25.030  32.323  1.00  0.00     0.034 A 
BRANCH  51  65
ATOM     65  C   UNL A   1      42.670  21.821  27.331  1.00  0.00     0.023 A 
ATOM     66  C   UNL A   1      43.652  21.725  26.318  1.00  0.00     0.031 A 
ATOM     67  C   UNL A   1      41.747  20.753  27.362  1.00  0.00     0.131 A 
ATOM     68  C   UNL A   1      43.737  20.608  25.459  1.00  0.00     0.055 A 
ATOM     69  C   UNL A   1      41.812  19.657  26.489  1.00  0.00     0.041 A 
ATOM     70  F   UNL A   1      40.753  20.708  28.260  1.00  0.00    -0.206 F 
ATOM     71  C   UNL A   1      42.817  19.571  25.540  1.00  0.00     0.022 A 
BRANCH  68  72
ATOM     72  S   UNL A   1      45.083  20.447  24.243  1.00  0.00     0.124 S 
ATOM     73  O   UNL A   1      46.263  20.791  25.033  1.00  0.00    -0.237 OA
ATOM     74  O   UNL A   1      44.983  19.044  23.849  1.00  0.00    -0.237 OA
ATOM     75  O   UNL A   1      44.736  21.416  23.206  1.00  0.00    -0.744 OA
ENDBRANCH  68  72
ENDBRANCH  51  65
BRANCH  52  76
ATOM     76  C   UNL A   1      42.398  30.560  31.660  1.00  0.00     0.023 A 
ATOM     77  C   UNL A   1      41.289  30.096  32.388  1.00  0.00     0.031 A 
ATOM     78  C   UNL A   1      42.218  31.706  30.848  1.00  0.00     0.131 A 
ATOM     79  C   UNL A   1      40.023  30.677  32.164  1.00  0.00     0.055 A 
ATOM     80  C   UNL A   1      40.952  32.231  30.582  1.00  0.00     0.041 A 
ATOM     81  F   UNL A   1      43.259  32.225  30.174  1.00  0.00    -0.206 F 
ATOM     82  C   UNL A   1      39.841  31.683  31.208  1.00  0.00     0.022 A 
BRANCH  79  83
ATOM     83  S   UNL A   1      38.551  30.056  33.037  1.00  0.00     0.124 S 
ATOM     84  O   UNL A   1      38.752  28.614  32.949  1.00  0.00    -0.237 OA
ATOM     85  O   UNL A   1      38.697  30.623  34.375  1.00  0.00    -0.237 OA
ATOM     86  O   UNL A   1      37.447  30.598  32.256  1.00  0.00    -0.744 OA
ENDBRANCH  79  83
ENDBRANCH  52  76
BRANCH  64  87
ATOM     87  C   UNL A   1      44.897  23.981  33.381  1.00  0.00     0.023 A 
ATOM     88  C   UNL A   1      46.232  23.777  33.811  1.00  0.00     0.031 A 
ATOM     89  C   UNL A   1      43.953  23.058  33.861  1.00  0.00     0.131 A 
ATOM     90  C   UNL A   1      46.578  22.707  34.642  1.00  0.00     0.055 A 
ATOM     91  C   UNL A   1      44.281  22.057  34.781  1.00  0.00     0.041 A 
ATOM     92  F   UNL A   1      42.691  23.032  33.412  1.00  0.00    -0.206 F 
ATOM     93  C   UNL A   1      45.600  21.867  35.163  1.00  0.00     0.022 A 
BRANCH  90  94
ATOM     94  S   UNL A   1      48.318  22.275  34.917  1.00  0.00     0.124 S 
ATOM     95  O   UNL A   1      48.430  22.414  36.366  1.00  0.00    -0.237 OA
ATOM     96  O   UNL A   1      48.375  20.904  34.413  1.00  0.00    -0.237 OA
ATOM     97  O   UNL A   1      49.051  23.255  34.126  1.00  0.00    -0.744 OA
ENDBRANCH  90  94
ENDBRANCH  64  87
ENDBRANCH  38  39
ENDBRANCH  30  33
ENDBRANCH  28  29
ENDBRANCH  27  28
ENDBRANCH   1  27
TORSDOF 17
ENDMDL
MODEL 3
REMARK VINA RESULT:     -11.9      1.816      2.390
REMARK SMILES Cc1ccc(NC(=O)C[N@H+]2CCC[C@@H](C(=O)NCCCCNC(=O)c3ccc(-c4c5nc(c(-c6cc(S(=O)(=O)[O-])ccc6F)c6ccc([nH]6)c(-c6cc(S(=O)(=O)[O-])ccc6F)c6nc(c(-c7cc(S(=O)(=O)[O-])ccc7F)c7ccc4[nH]7)C=C6)C=C5)cc3)C2)cc1F
REMARK SMILES IDX 19 1 18 2 17 3 15 4 16 5 14 7 10 8 11 9 88 10 12 12 13 13
REMARK SMILES IDX 9 14 7 15 6 16 8 18 5 19 1 20 2 21 3 22 90 23 4 24 89 25
REMARK SMILES IDX 91 26 20 27 21 28 22 29 23 30 24 32 25 33 26 34 87 35 27 36
REMARK SMILES IDX 86 37 28 38 29 39 30 40 80 41 31 42 85 43 79 44 81 45 32 46
REMARK SMILES IDX 84 47 78 48 77 49 33 51 65 52 45 53 64 54 46 55 49 56 63 57
REMARK SMILES IDX 82 58 47 59 48 60 62 62 83 63 50 64 34 65 35 66 43 67 36 68
REMARK SMILES IDX 42 69 44 70 41 71 37 72 38 73 39 74 40 75 66 76 67 77 75 78
REMARK SMILES IDX 68 79 74 80 76 81 73 82 69 83 70 84 71 85 72 86 51 87 52 88
REMARK SMILES IDX 60 89 53 90 59 91 61 92 58 93 54 94 55 95 56 96 57 97
REMARK H PARENT 17 6 10 11 6 17 22 31 81 50 49 61
REMARK Flexibility Score: inf
ROOT
ATOM      1  C   UNL A   1      31.975  28.703  26.071  1.00  0.00     0.023 C 
ENDROOT
BRANCH   1   2
ATOM      2  C   UNL A   1      31.634  27.640  27.118  1.00  0.00     0.116 C 
BRANCH   2   3
ATOM      3  N   UNL A   1      30.759  26.603  26.601  1.00  0.00    -0.356 N 
ATOM      4  C   UNL A   1      31.057  25.520  25.822  1.00  0.00     0.228 C 
ATOM      5  O   UNL A   1      30.150  24.735  25.543  1.00  0.00    -0.275 OA
ATOM      6  H   UNL A   1      29.811  26.694  26.846  1.00  0.00     0.163 HD
BRANCH   4   7
ATOM      7  C   UNL A   1      32.489  25.297  25.345  1.00  0.00     0.133 C 
ATOM      8  N   UNL A   1      34.439  23.739  25.561  1.00  0.00    -0.326 N 
ATOM      9  C   UNL A   1      34.570  23.704  24.092  1.00  0.00     0.262 C 
ATOM     10  C   UNL A   1      33.039  23.997  25.955  1.00  0.00     0.276 C 
ATOM     11  H   UNL A   1      34.954  24.522  25.965  1.00  0.00     0.348 HD
ATOM     12  C   UNL A   1      34.009  24.950  23.405  1.00  0.00     0.062 C 
ATOM     13  C   UNL A   1      32.566  25.207  23.821  1.00  0.00     0.025 C 
BRANCH   8  14
ATOM     14  C   UNL A   1      35.059  22.504  26.130  1.00  0.00     0.363 C 
BRANCH  14  15
ATOM     15  C   UNL A   1      34.206  21.649  27.069  1.00  0.00     0.279 C 
ATOM     16  N   UNL A   1      33.473  20.568  26.667  1.00  0.00    -0.321 N 
ATOM     17  H   UNL A   1      32.997  20.116  27.401  1.00  0.00     0.170 HD
ATOM     18  O   UNL A   1      34.184  21.926  28.278  1.00  0.00    -0.268 OA
BRANCH  16  19
ATOM     19  C   UNL A   1      33.266  19.977  25.409  1.00  0.00     0.044 A 
ATOM     20  C   UNL A   1      32.103  18.114  21.692  1.00  0.00     0.047 C 
ATOM     21  C   UNL A   1      32.541  18.804  22.943  1.00  0.00    -0.015 A 
ATOM     22  C   UNL A   1      32.157  20.114  23.247  1.00  0.00     0.008 A 
ATOM     23  C   UNL A   1      33.331  18.128  23.860  1.00  0.00     0.128 A 
ATOM     24  C   UNL A   1      32.515  20.697  24.472  1.00  0.00     0.026 A 
ATOM     25  C   UNL A   1      33.714  18.709  25.061  1.00  0.00     0.065 A 
ATOM     26  F   UNL A   1      33.733  16.874  23.605  1.00  0.00    -0.207 F 
ENDBRANCH  16  19
ENDBRANCH  14  15
ENDBRANCH   8  14
ENDBRANCH   4   7
ENDBRANCH   2   3
ENDBRANCH   1   2
BRANCH   1  27
ATOM     27  C   UNL A   1      33.428  28.718  25.566  1.00  0.00     0.023 C 
BRANCH  27  28
ATOM     28  C   UNL A   1      34.471  28.940  26.650  1.00  0.00     0.116 C 
BRANCH  28  29
ATOM     29  N   UNL A   1      34.608  30.361  26.945  1.00  0.00    -0.352 N 
ATOM     30  C   UNL A   1      35.353  30.981  27.929  1.00  0.00     0.251 C 
ATOM     31  H   UNL A   1      34.096  30.965  26.358  1.00  0.00     0.163 HD
ATOM     32  O   UNL A   1      35.103  32.116  28.270  1.00  0.00    -0.269 OA
BRANCH  30  33
ATOM     33  C   UNL A   1      36.561  30.273  28.365  1.00  0.00     0.039 A 
ATOM     34  C   UNL A   1      36.712  29.664  29.612  1.00  0.00     0.014 A 
ATOM     35  C   UNL A   1      37.612  30.339  27.457  1.00  0.00     0.014 A 
ATOM     36  C   UNL A   1      37.948  29.107  29.934  1.00  0.00     0.010 A 
ATOM     37  C   UNL A   1      38.771  29.698  27.714  1.00  0.00     0.010 A 
ATOM     38  C   UNL A   1      38.963  29.156  28.979  1.00  0.00    -0.014 A 
BRANCH  38  39
ATOM     39  C   UNL A   1      40.292  28.609  29.108  1.00  0.00     0.031 A 
ATOM     40  C   UNL A   1      40.435  27.156  28.949  1.00  0.00     0.074 A 
ATOM     41  C   UNL A   1      41.280  29.531  29.027  1.00  0.00     0.049 A 
ATOM     42  N   UNL A   1      41.448  26.478  29.344  1.00  0.00    -0.248 NA
ATOM     43  C   UNL A   1      39.395  26.327  28.328  1.00  0.00     0.031 C 
ATOM     44  C   UNL A   1      42.680  29.380  28.681  1.00  0.00     0.029 A 
ATOM     45  N   UNL A   1      41.186  30.904  29.311  1.00  0.00    -0.354 N 
ATOM     46  C   UNL A   1      41.378  25.265  28.687  1.00  0.00     0.074 A 
ATOM     47  C   UNL A   1      40.008  25.142  28.256  1.00  0.00     0.031 C 
ATOM     48  C   UNL A   1      43.346  30.466  29.123  1.00  0.00     0.029 A 
ATOM     49  C   UNL A   1      42.399  31.250  29.908  1.00  0.00     0.049 A 
ATOM     50  H   UNL A   1      40.422  31.499  29.129  1.00  0.00     0.167 HD
ATOM     51  C   UNL A   1      42.546  24.641  28.359  1.00  0.00     0.034 A 
ATOM     52  C   UNL A   1      42.480  31.474  31.259  1.00  0.00     0.034 A 
ATOM     53  C   UNL A   1      43.677  25.422  28.885  1.00  0.00     0.049 A 
ATOM     54  C   UNL A   1      43.337  30.409  31.919  1.00  0.00     0.074 A 
ATOM     55  C   UNL A   1      44.527  26.336  28.283  1.00  0.00     0.029 A 
ATOM     56  N   UNL A   1      43.784  25.641  30.258  1.00  0.00    -0.354 N 
ATOM     57  N   UNL A   1      43.482  29.202  31.441  1.00  0.00    -0.248 NA
ATOM     58  C   UNL A   1      44.147  30.640  33.108  1.00  0.00     0.031 C 
ATOM     59  C   UNL A   1      45.061  27.176  29.301  1.00  0.00     0.029 A 
ATOM     60  C   UNL A   1      44.548  26.769  30.523  1.00  0.00     0.049 A 
ATOM     61  H   UNL A   1      43.374  25.070  30.948  1.00  0.00     0.167 HD
ATOM     62  C   UNL A   1      44.397  28.512  32.188  1.00  0.00     0.074 A 
ATOM     63  C   UNL A   1      44.787  29.461  33.218  1.00  0.00     0.031 C 
ATOM     64  C   UNL A   1      44.770  27.228  31.899  1.00  0.00     0.034 A 
BRANCH  51  65
ATOM     65  C   UNL A   1      42.674  23.556  27.295  1.00  0.00     0.023 A 
ATOM     66  C   UNL A   1      43.605  23.573  26.231  1.00  0.00     0.031 A 
ATOM     67  C   UNL A   1      41.863  22.402  27.352  1.00  0.00     0.131 A 
ATOM     68  C   UNL A   1      43.753  22.484  25.346  1.00  0.00     0.055 A 
ATOM     69  C   UNL A   1      41.988  21.331  26.455  1.00  0.00     0.041 A 
ATOM     70  F   UNL A   1      40.928  22.245  28.299  1.00  0.00    -0.206 F 
ATOM     71  C   UNL A   1      42.945  21.359  25.453  1.00  0.00     0.022 A 
BRANCH  68  72
ATOM     72  S   UNL A   1      45.041  22.476  24.058  1.00  0.00     0.124 S 
ATOM     73  O   UNL A   1      44.290  22.083  22.867  1.00  0.00    -0.237 OA
ATOM     74  O   UNL A   1      45.507  23.859  24.073  1.00  0.00    -0.237 OA
ATOM     75  O   UNL A   1      46.003  21.484  24.530  1.00  0.00    -0.744 OA
ENDBRANCH  68  72
ENDBRANCH  51  65
BRANCH  52  76
ATOM     76  C   UNL A   1      41.227  32.071  31.833  1.00  0.00     0.023 A 
ATOM     77  C   UNL A   1      40.328  31.318  32.609  1.00  0.00     0.031 A 
ATOM     78  C   UNL A   1      40.734  33.242  31.208  1.00  0.00     0.131 A 
ATOM     79  C   UNL A   1      38.959  31.659  32.607  1.00  0.00     0.055 A 
ATOM     80  C   UNL A   1      39.369  33.533  31.157  1.00  0.00     0.041 A 
ATOM     81  F   UNL A   1      41.563  34.028  30.500  1.00  0.00    -0.206 F 
ATOM     82  C   UNL A   1      38.470  32.710  31.822  1.00  0.00     0.022 A 
BRANCH  79  83
ATOM     83  S   UNL A   1      37.755  30.667  33.545  1.00  0.00     0.124 S 
ATOM     84  O   UNL A   1      38.337  29.333  33.436  1.00  0.00    -0.237 OA
ATOM     85  O   UNL A   1      37.806  31.259  34.878  1.00  0.00    -0.237 OA
ATOM     86  O   UNL A   1      36.509  30.883  32.822  1.00  0.00    -0.744 OA
ENDBRANCH  79  83
ENDBRANCH  52  76
BRANCH  64  87
ATOM     87  C   UNL A   1      45.472  26.290  32.857  1.00  0.00     0.023 A 
ATOM     88  C   UNL A   1      44.683  25.458  33.689  1.00  0.00     0.031 A 
ATOM     89  C   UNL A   1      46.851  26.289  33.124  1.00  0.00     0.131 A 
ATOM     90  C   UNL A   1      45.250  24.706  34.722  1.00  0.00     0.055 A 
ATOM     91  C   UNL A   1      47.429  25.450  34.083  1.00  0.00     0.041 A 
ATOM     92  F   UNL A   1      47.693  27.143  32.527  1.00  0.00    -0.206 F 
ATOM     93  C   UNL A   1      46.628  24.666  34.898  1.00  0.00     0.022 A 
BRANCH  90  94
ATOM     94  S   UNL A   1      44.201  23.908  35.969  1.00  0.00     0.124 S 
ATOM     95  O   UNL A   1      43.502  25.054  36.544  1.00  0.00    -0.237 OA
ATOM     96  O   UNL A   1      43.378  23.019  35.151  1.00  0.00    -0.237 OA
ATOM     97  O   UNL A   1      45.151  23.238  36.847  1.00  0.00    -0.744 OA
ENDBRANCH  90  94
ENDBRANCH  64  87
ENDBRANCH  38  39
ENDBRANCH  30  33
ENDBRANCH  28  29
ENDBRANCH  27  28
ENDBRANCH   1  27
TORSDOF 17
ENDMDL
