MODEL 1
REMARK VINA RESULT:     -12.1      0.000      0.000
REMARK SMILES Nc1cc(C(=O)NCCCCNC(=O)c2ccc(-c3c4nc(c(-c5cc(S(=O)(=O)[O-])ccc5F)c5ccc([nH]5)c(-c5cc(S(=O)(=O)[O-])ccc5F)c5nc(c(-c6cc(S(=O)(=O)[O-])ccc6F)c6ccc3[nH]6)C=C5)C=C4)cc2)c(-c2ccc(F)cc2O)cn1
REMARK SMILES IDX 10 1 9 2 8 3 7 4 5 5 6 6 4 8 2 9 3 10 88 11 87 12 78 13 1 14
REMARK SMILES IDX 79 17 80 18 85 19 81 20 84 21 82 22 83 23 86 24 11 26 12 27
REMARK SMILES IDX 13 28 14 30 15 31 16 32 77 33 17 34 76 35 18 36 19 37 20 38
REMARK SMILES IDX 70 39 21 40 75 41 69 42 71 43 22 44 74 45 68 46 67 47 23 49
REMARK SMILES IDX 55 50 35 51 54 52 36 53 39 54 53 55 72 56 37 57 38 58 52 60
REMARK SMILES IDX 73 61 40 62 24 63 25 64 33 65 26 66 32 67 34 68 31 69 27 70
REMARK SMILES IDX 28 71 29 72 30 73 56 74 57 75 65 76 58 77 64 78 66 79 63 80
REMARK SMILES IDX 59 81 60 82 61 83 62 84 41 85 42 86 50 87 43 88 49 89 51 90
REMARK SMILES IDX 48 91 44 92 45 93 46 94 47 95
REMARK H PARENT 7 7 1 15 1 16 86 25 12 29 71 48 39 59
REMARK Flexibility Score: inf
ROOT
ATOM      1  C   UNL A   1      31.323  32.062  26.637  1.00  0.00     0.023 C 
ENDROOT
BRANCH   1   2
ATOM      2  C   UNL A   1      31.442  30.801  25.771  1.00  0.00     0.023 C 
BRANCH   2   3
ATOM      3  C   UNL A   1      32.493  29.799  26.262  1.00  0.00     0.116 C 
BRANCH   3   4
ATOM      4  N   UNL A   1      31.834  28.628  26.805  1.00  0.00    -0.352 N 
ATOM      5  C   UNL A   1      31.612  27.357  26.344  1.00  0.00     0.252 C 
ATOM      6  O   UNL A   1      30.741  26.738  26.955  1.00  0.00    -0.269 OA
ATOM      7  H   UNL A   1      31.464  28.780  27.705  1.00  0.00     0.163 HD
BRANCH   5   8
ATOM      8  C   UNL A   1      32.334  26.707  25.197  1.00  0.00     0.052 A 
ATOM      9  C   UNL A   1      34.068  25.239  24.360  1.00  0.00     0.124 A 
ATOM     10  C   UNL A   1      33.477  25.925  25.408  1.00  0.00     0.061 A 
ATOM     11  N   UNL A   1      33.642  25.352  23.101  1.00  0.00    -0.239 NA
ATOM     12  C   UNL A   1      32.596  26.180  22.883  1.00  0.00     0.123 A 
ATOM     13  C   UNL A   1      31.889  26.887  23.865  1.00  0.00     0.017 A 
BRANCH   9  14
ATOM     14  N   UNL A   1      35.177  24.446  24.569  1.00  0.00    -0.384 N 
ATOM     15  H   UNL A   1      35.226  23.868  25.364  1.00  0.00     0.158 HD
ATOM     16  H   UNL A   1      35.920  24.457  23.922  1.00  0.00     0.158 HD
ENDBRANCH   9  14
BRANCH  13  17
ATOM     17  C   UNL A   1      30.791  27.764  23.401  1.00  0.00     0.026 A 
ATOM     18  C   UNL A   1      29.449  27.413  23.638  1.00  0.00     0.015 A 
ATOM     19  C   UNL A   1      31.021  28.917  22.622  1.00  0.00     0.126 A 
ATOM     20  C   UNL A   1      28.400  28.185  23.128  1.00  0.00     0.040 A 
ATOM     21  C   UNL A   1      29.987  29.691  22.106  1.00  0.00     0.086 A 
ATOM     22  C   UNL A   1      28.680  29.316  22.368  1.00  0.00     0.126 A 
ATOM     23  F   UNL A   1      27.671  30.054  21.886  1.00  0.00    -0.207 F 
BRANCH  19  24
ATOM     24  O   UNL A   1      32.294  29.371  22.400  1.00  0.00    -0.507 OA
ATOM     25  H   UNL A   1      32.939  28.797  22.035  1.00  0.00     0.293 HD
ENDBRANCH  19  24
ENDBRANCH  13  17
ENDBRANCH   5   8
ENDBRANCH   3   4
ENDBRANCH   2   3
ENDBRANCH   1   2
BRANCH   1  26
ATOM     26  C   UNL A   1      32.650  32.662  27.094  1.00  0.00     0.116 C 
BRANCH  26  27
ATOM     27  N   UNL A   1      32.507  34.000  27.641  1.00  0.00    -0.352 N 
ATOM     28  C   UNL A   1      33.235  34.603  28.641  1.00  0.00     0.251 C 
ATOM     29  H   UNL A   1      31.794  34.551  27.243  1.00  0.00     0.163 HD
ATOM     30  O   UNL A   1      32.902  35.703  29.057  1.00  0.00    -0.269 OA
BRANCH  28  31
ATOM     31  C   UNL A   1      34.385  33.886  29.231  1.00  0.00     0.039 A 
ATOM     32  C   UNL A   1      35.675  34.267  28.853  1.00  0.00     0.014 A 
ATOM     33  C   UNL A   1      34.192  32.868  30.168  1.00  0.00     0.014 A 
ATOM     34  C   UNL A   1      36.777  33.668  29.466  1.00  0.00     0.010 A 
ATOM     35  C   UNL A   1      35.291  32.314  30.820  1.00  0.00     0.010 A 
ATOM     36  C   UNL A   1      36.593  32.713  30.479  1.00  0.00    -0.014 A 
BRANCH  36  37
ATOM     37  C   UNL A   1      37.752  32.121  31.195  1.00  0.00     0.031 A 
ATOM     38  C   UNL A   1      38.520  30.987  30.575  1.00  0.00     0.074 A 
ATOM     39  C   UNL A   1      38.066  32.563  32.429  1.00  0.00     0.049 A 
ATOM     40  N   UNL A   1      39.504  30.284  31.073  1.00  0.00    -0.248 NA
ATOM     41  C   UNL A   1      38.105  30.573  29.226  1.00  0.00     0.031 C 
ATOM     42  C   UNL A   1      37.366  33.630  33.148  1.00  0.00     0.029 A 
ATOM     43  N   UNL A   1      39.046  32.164  33.302  1.00  0.00    -0.354 N 
ATOM     44  C   UNL A   1      39.819  29.336  30.105  1.00  0.00     0.074 A 
ATOM     45  C   UNL A   1      38.882  29.520  29.018  1.00  0.00     0.031 C 
ATOM     46  C   UNL A   1      37.950  33.812  34.343  1.00  0.00     0.029 A 
ATOM     47  C   UNL A   1      39.037  32.850  34.495  1.00  0.00     0.049 A 
ATOM     48  H   UNL A   1      39.696  31.453  33.095  1.00  0.00     0.167 HD
ATOM     49  C   UNL A   1      40.814  28.413  30.115  1.00  0.00     0.034 A 
ATOM     50  C   UNL A   1      39.809  32.710  35.591  1.00  0.00     0.034 A 
ATOM     51  C   UNL A   1      41.748  28.253  31.203  1.00  0.00     0.049 A 
ATOM     52  C   UNL A   1      40.897  31.666  35.584  1.00  0.00     0.074 A 
ATOM     53  C   UNL A   1      42.823  27.386  31.297  1.00  0.00     0.029 A 
ATOM     54  N   UNL A   1      41.715  28.973  32.391  1.00  0.00    -0.354 N 
ATOM     55  N   UNL A   1      41.214  30.809  34.641  1.00  0.00    -0.248 NA
ATOM     56  C   UNL A   1      41.739  31.578  36.784  1.00  0.00     0.031 C 
ATOM     57  C   UNL A   1      43.402  27.540  32.562  1.00  0.00     0.029 A 
ATOM     58  C   UNL A   1      42.734  28.552  33.231  1.00  0.00     0.049 A 
ATOM     59  H   UNL A   1      41.064  29.679  32.605  1.00  0.00     0.167 HD
ATOM     60  C   UNL A   1      42.312  30.103  35.124  1.00  0.00     0.074 A 
ATOM     61  C   UNL A   1      42.610  30.645  36.433  1.00  0.00     0.031 C 
ATOM     62  C   UNL A   1      43.013  29.099  34.538  1.00  0.00     0.034 A 
BRANCH  49  63
ATOM     63  C   UNL A   1      40.920  27.496  28.921  1.00  0.00     0.023 A 
ATOM     64  C   UNL A   1      41.918  27.671  27.944  1.00  0.00     0.031 A 
ATOM     65  C   UNL A   1      40.001  26.449  28.740  1.00  0.00     0.131 A 
ATOM     66  C   UNL A   1      41.927  26.861  26.798  1.00  0.00     0.055 A 
ATOM     67  C   UNL A   1      40.064  25.595  27.637  1.00  0.00     0.041 A 
ATOM     68  F   UNL A   1      39.014  26.245  29.627  1.00  0.00    -0.206 F 
ATOM     69  C   UNL A   1      41.022  25.809  26.650  1.00  0.00     0.022 A 
BRANCH  66  70
ATOM     70  S   UNL A   1      43.049  27.294  25.442  1.00  0.00     0.124 S 
ATOM     71  O   UNL A   1      44.198  27.829  26.170  1.00  0.00    -0.237 OA
ATOM     72  O   UNL A   1      43.254  26.012  24.779  1.00  0.00    -0.237 OA
ATOM     73  O   UNL A   1      42.294  28.281  24.673  1.00  0.00    -0.744 OA
ENDBRANCH  66  70
ENDBRANCH  49  63
BRANCH  50  74
ATOM     74  C   UNL A   1      39.585  33.565  36.791  1.00  0.00     0.023 A 
ATOM     75  C   UNL A   1      38.913  33.066  37.918  1.00  0.00     0.031 A 
ATOM     76  C   UNL A   1      39.993  34.910  36.810  1.00  0.00     0.131 A 
ATOM     77  C   UNL A   1      38.622  33.919  38.995  1.00  0.00     0.055 A 
ATOM     78  C   UNL A   1      39.749  35.741  37.905  1.00  0.00     0.041 A 
ATOM     79  F   UNL A   1      40.646  35.436  35.761  1.00  0.00    -0.206 F 
ATOM     80  C   UNL A   1      39.046  35.249  39.001  1.00  0.00     0.022 A 
BRANCH  77  81
ATOM     81  S   UNL A   1      37.599  33.284  40.351  1.00  0.00     0.124 S 
ATOM     82  O   UNL A   1      37.451  34.466  41.192  1.00  0.00    -0.237 OA
ATOM     83  O   UNL A   1      36.400  32.844  39.644  1.00  0.00    -0.237 OA
ATOM     84  O   UNL A   1      38.413  32.212  40.918  1.00  0.00    -0.744 OA
ENDBRANCH  77  81
ENDBRANCH  50  74
BRANCH  62  85
ATOM     85  C   UNL A   1      44.199  28.561  35.299  1.00  0.00     0.023 A 
ATOM     86  C   UNL A   1      44.064  27.540  36.256  1.00  0.00     0.031 A 
ATOM     87  C   UNL A   1      45.482  29.091  35.071  1.00  0.00     0.131 A 
ATOM     88  C   UNL A   1      45.183  27.118  36.989  1.00  0.00     0.055 A 
ATOM     89  C   UNL A   1      46.601  28.627  35.764  1.00  0.00     0.041 A 
ATOM     90  F   UNL A   1      45.668  30.069  34.170  1.00  0.00    -0.206 F 
ATOM     91  C   UNL A   1      46.453  27.644  36.738  1.00  0.00     0.022 A 
BRANCH  88  92
ATOM     92  S   UNL A   1      44.942  25.933  38.340  1.00  0.00     0.124 S 
ATOM     93  O   UNL A   1      43.848  26.544  39.089  1.00  0.00    -0.237 OA
ATOM     94  O   UNL A   1      44.614  24.704  37.622  1.00  0.00    -0.237 OA
ATOM     95  O   UNL A   1      46.234  25.924  39.024  1.00  0.00    -0.744 OA
ENDBRANCH  88  92
ENDBRANCH  62  85
ENDBRANCH  36  37
ENDBRANCH  28  31
ENDBRANCH  26  27
ENDBRANCH   1  26
TORSDOF 17
ENDMDL
MODEL 2
REMARK VINA RESULT:     -12.1      1.362      1.609
REMARK SMILES Nc1cc(C(=O)NCCCCNC(=O)c2ccc(-c3c4nc(c(-c5cc(S(=O)(=O)[O-])ccc5F)c5ccc([nH]5)c(-c5cc(S(=O)(=O)[O-])ccc5F)c5nc(c(-c6cc(S(=O)(=O)[O-])ccc6F)c6ccc3[nH]6)C=C5)C=C4)cc2)c(-c2ccc(F)cc2O)cn1
REMARK SMILES IDX 10 1 9 2 8 3 7 4 5 5 6 6 4 8 2 9 3 10 88 11 87 12 78 13 1 14
REMARK SMILES IDX 79 17 80 18 85 19 81 20 84 21 82 22 83 23 86 24 11 26 12 27
REMARK SMILES IDX 13 28 14 30 15 31 16 32 77 33 17 34 76 35 18 36 19 37 20 38
REMARK SMILES IDX 70 39 21 40 75 41 69 42 71 43 22 44 74 45 68 46 67 47 23 49
REMARK SMILES IDX 55 50 35 51 54 52 36 53 39 54 53 55 72 56 37 57 38 58 52 60
REMARK SMILES IDX 73 61 40 62 24 63 25 64 33 65 26 66 32 67 34 68 31 69 27 70
REMARK SMILES IDX 28 71 29 72 30 73 56 74 57 75 65 76 58 77 64 78 66 79 63 80
REMARK SMILES IDX 59 81 60 82 61 83 62 84 41 85 42 86 50 87 43 88 49 89 51 90
REMARK SMILES IDX 48 91 44 92 45 93 46 94 47 95
REMARK H PARENT 7 7 1 15 1 16 86 25 12 29 71 48 39 59
REMARK Flexibility Score: inf
ROOT
ATOM      1  C   UNL A   1      31.179  31.852  26.514  1.00  0.00     0.023 C 
ENDROOT
BRANCH   1   2
ATOM      2  C   UNL A   1      31.233  30.733  25.465  1.00  0.00     0.023 C 
BRANCH   2   3
ATOM      3  C   UNL A   1      32.326  29.689  25.717  1.00  0.00     0.116 C 
BRANCH   3   4
ATOM      4  N   UNL A   1      31.741  28.507  26.317  1.00  0.00    -0.352 N 
ATOM      5  C   UNL A   1      31.444  27.250  25.858  1.00  0.00     0.252 C 
ATOM      6  O   UNL A   1      30.663  26.618  26.571  1.00  0.00    -0.269 OA
ATOM      7  H   UNL A   1      31.504  28.635  27.264  1.00  0.00     0.163 HD
BRANCH   5   8
ATOM      8  C   UNL A   1      31.988  26.629  24.602  1.00  0.00     0.052 A 
ATOM      9  C   UNL A   1      33.510  25.106  23.494  1.00  0.00     0.124 A 
ATOM     10  C   UNL A   1      33.087  25.760  24.639  1.00  0.00     0.061 A 
ATOM     11  N   UNL A   1      32.960  25.329  22.300  1.00  0.00    -0.239 NA
ATOM     12  C   UNL A   1      31.960  26.236  22.248  1.00  0.00     0.123 A 
ATOM     13  C   UNL A   1      31.417  26.924  23.341  1.00  0.00     0.017 A 
BRANCH   9  14
ATOM     14  N   UNL A   1      34.574  24.229  23.532  1.00  0.00    -0.384 N 
ATOM     15  H   UNL A   1      35.147  24.184  24.331  1.00  0.00     0.158 HD
ATOM     16  H   UNL A   1      34.761  23.646  22.760  1.00  0.00     0.158 HD
ENDBRANCH   9  14
BRANCH  13  17
ATOM     17  C   UNL A   1      30.343  27.900  23.053  1.00  0.00     0.026 A 
ATOM     18  C   UNL A   1      29.006  27.606  23.379  1.00  0.00     0.015 A 
ATOM     19  C   UNL A   1      30.580  29.104  22.357  1.00  0.00     0.126 A 
ATOM     20  C   UNL A   1      27.970  28.480  23.033  1.00  0.00     0.040 A 
ATOM     21  C   UNL A   1      29.558  29.979  22.004  1.00  0.00     0.086 A 
ATOM     22  C   UNL A   1      28.256  29.657  22.349  1.00  0.00     0.126 A 
ATOM     23  F   UNL A   1      27.260  30.492  22.025  1.00  0.00    -0.207 F 
BRANCH  19  24
ATOM     24  O   UNL A   1      31.856  29.503  22.061  1.00  0.00    -0.507 OA
ATOM     25  H   UNL A   1      32.271  29.201  21.277  1.00  0.00     0.293 HD
ENDBRANCH  19  24
ENDBRANCH  13  17
ENDBRANCH   5   8
ENDBRANCH   3   4
ENDBRANCH   2   3
ENDBRANCH   1   2
BRANCH   1  26
ATOM     26  C   UNL A   1      32.531  32.444  26.901  1.00  0.00     0.116 C 
BRANCH  26  27
ATOM     27  N   UNL A   1      32.427  33.789  27.442  1.00  0.00    -0.352 N 
ATOM     28  C   UNL A   1      33.210  34.395  28.395  1.00  0.00     0.251 C 
ATOM     29  H   UNL A   1      31.697  34.340  27.076  1.00  0.00     0.163 HD
ATOM     30  O   UNL A   1      32.908  35.502  28.817  1.00  0.00    -0.269 OA
BRANCH  28  31
ATOM     31  C   UNL A   1      34.386  33.676  28.930  1.00  0.00     0.039 A 
ATOM     32  C   UNL A   1      35.658  34.193  28.676  1.00  0.00     0.014 A 
ATOM     33  C   UNL A   1      34.231  32.520  29.698  1.00  0.00     0.014 A 
ATOM     34  C   UNL A   1      36.776  33.583  29.248  1.00  0.00     0.010 A 
ATOM     35  C   UNL A   1      35.341  31.949  30.316  1.00  0.00     0.010 A 
ATOM     36  C   UNL A   1      36.623  32.478  30.101  1.00  0.00    -0.014 A 
BRANCH  36  37
ATOM     37  C   UNL A   1      37.792  31.864  30.779  1.00  0.00     0.031 A 
ATOM     38  C   UNL A   1      38.609  30.819  30.072  1.00  0.00     0.074 A 
ATOM     39  C   UNL A   1      38.075  32.203  32.053  1.00  0.00     0.049 A 
ATOM     40  N   UNL A   1      39.611  30.108  30.520  1.00  0.00    -0.248 NA
ATOM     41  C   UNL A   1      38.227  30.515  28.684  1.00  0.00     0.031 C 
ATOM     42  C   UNL A   1      37.327  33.175  32.854  1.00  0.00     0.029 A 
ATOM     43  N   UNL A   1      39.057  31.760  32.903  1.00  0.00    -0.354 N 
ATOM     44  C   UNL A   1      39.973  29.263  29.476  1.00  0.00     0.074 A 
ATOM     45  C   UNL A   1      39.044  29.513  28.394  1.00  0.00     0.031 C 
ATOM     46  C   UNL A   1      37.889  33.268  34.070  1.00  0.00     0.029 A 
ATOM     47  C   UNL A   1      39.007  32.334  34.152  1.00  0.00     0.049 A 
ATOM     48  H   UNL A   1      39.734  31.094  32.643  1.00  0.00     0.167 HD
ATOM     49  C   UNL A   1      41.000  28.378  29.418  1.00  0.00     0.034 A 
ATOM     50  C   UNL A   1      39.769  32.121  35.244  1.00  0.00     0.034 A 
ATOM     51  C   UNL A   1      41.924  28.152  30.502  1.00  0.00     0.049 A 
ATOM     52  C   UNL A   1      40.894  31.120  35.160  1.00  0.00     0.074 A 
ATOM     53  C   UNL A   1      43.028  27.318  30.535  1.00  0.00     0.029 A 
ATOM     54  N   UNL A   1      41.851  28.759  31.750  1.00  0.00    -0.354 N 
ATOM     55  N   UNL A   1      41.254  30.364  34.148  1.00  0.00    -0.248 NA
ATOM     56  C   UNL A   1      41.723  30.953  36.361  1.00  0.00     0.031 C 
ATOM     57  C   UNL A   1      43.585  27.375  31.818  1.00  0.00     0.029 A 
ATOM     58  C   UNL A   1      42.873  28.299  32.565  1.00  0.00     0.049 A 
ATOM     59  H   UNL A   1      41.171  29.420  32.016  1.00  0.00     0.167 HD
ATOM     60  C   UNL A   1      42.370  29.655  34.583  1.00  0.00     0.074 A 
ATOM     61  C   UNL A   1      42.631  30.086  35.941  1.00  0.00     0.031 C 
ATOM     62  C   UNL A   1      43.114  28.734  33.921  1.00  0.00     0.034 A 
BRANCH  49  63
ATOM     63  C   UNL A   1      41.154  27.578  28.148  1.00  0.00     0.023 A 
ATOM     64  C   UNL A   1      40.799  26.218  28.085  1.00  0.00     0.031 A 
ATOM     65  C   UNL A   1      41.685  28.172  26.990  1.00  0.00     0.131 A 
ATOM     66  C   UNL A   1      41.048  25.481  26.918  1.00  0.00     0.055 A 
ATOM     67  C   UNL A   1      41.856  27.453  25.805  1.00  0.00     0.041 A 
ATOM     68  F   UNL A   1      42.061  29.460  26.994  1.00  0.00    -0.206 F 
ATOM     69  C   UNL A   1      41.551  26.095  25.769  1.00  0.00     0.022 A 
BRANCH  66  70
ATOM     70  S   UNL A   1      40.836  23.682  26.969  1.00  0.00     0.124 S 
ATOM     71  O   UNL A   1      39.404  23.547  26.707  1.00  0.00    -0.237 OA
ATOM     72  O   UNL A   1      41.725  23.227  25.906  1.00  0.00    -0.237 OA
ATOM     73  O   UNL A   1      41.250  23.325  28.324  1.00  0.00    -0.744 OA
ENDBRANCH  66  70
ENDBRANCH  49  63
BRANCH  50  74
ATOM     74  C   UNL A   1      39.499  32.855  36.512  1.00  0.00     0.023 A 
ATOM     75  C   UNL A   1      38.610  32.340  37.469  1.00  0.00     0.031 A 
ATOM     76  C   UNL A   1      40.085  34.107  36.765  1.00  0.00     0.131 A 
ATOM     77  C   UNL A   1      38.292  33.097  38.608  1.00  0.00     0.055 A 
ATOM     78  C   UNL A   1      39.807  34.832  37.925  1.00  0.00     0.041 A 
ATOM     79  F   UNL A   1      40.949  34.643  35.887  1.00  0.00    -0.206 F 
ATOM     80  C   UNL A   1      38.892  34.333  38.848  1.00  0.00     0.022 A 
BRANCH  77  81
ATOM     81  S   UNL A   1      37.006  32.478  39.727  1.00  0.00     0.124 S 
ATOM     82  O   UNL A   1      37.100  33.418  40.839  1.00  0.00    -0.237 OA
ATOM     83  O   UNL A   1      35.809  32.580  38.899  1.00  0.00    -0.237 OA
ATOM     84  O   UNL A   1      37.441  31.115  40.024  1.00  0.00    -0.744 OA
ENDBRANCH  77  81
ENDBRANCH  50  74
BRANCH  62  85
ATOM     85  C   UNL A   1      44.309  28.170  34.649  1.00  0.00     0.023 A 
ATOM     86  C   UNL A   1      44.219  27.001  35.424  1.00  0.00     0.031 A 
ATOM     87  C   UNL A   1      45.552  28.825  34.577  1.00  0.00     0.131 A 
ATOM     88  C   UNL A   1      45.339  26.551  36.140  1.00  0.00     0.055 A 
ATOM     89  C   UNL A   1      46.677  28.340  35.245  1.00  0.00     0.041 A 
ATOM     90  F   UNL A   1      45.693  29.947  33.853  1.00  0.00    -0.206 F 
ATOM     91  C   UNL A   1      46.570  27.203  36.043  1.00  0.00     0.022 A 
BRANCH  88  92
ATOM     92  S   UNL A   1      45.142  25.147  37.271  1.00  0.00     0.124 S 
ATOM     93  O   UNL A   1      44.619  24.113  36.384  1.00  0.00    -0.237 OA
ATOM     94  O   UNL A   1      46.504  24.943  37.755  1.00  0.00    -0.237 OA
ATOM     95  O   UNL A   1      44.198  25.642  38.271  1.00  0.00    -0.744 OA
ENDBRANCH  88  92
ENDBRANCH  62  85
ENDBRANCH  36  37
ENDBRANCH  28  31
ENDBRANCH  26  27
ENDBRANCH   1  26
TORSDOF 17
ENDMDL
MODEL 3
REMARK VINA RESULT:     -12.1      6.466     11.626
REMARK SMILES Nc1cc(C(=O)NCCCCNC(=O)c2ccc(-c3c4nc(c(-c5cc(S(=O)(=O)[O-])ccc5F)c5ccc([nH]5)c(-c5cc(S(=O)(=O)[O-])ccc5F)c5nc(c(-c6cc(S(=O)(=O)[O-])ccc6F)c6ccc3[nH]6)C=C5)C=C4)cc2)c(-c2ccc(F)cc2O)cn1
REMARK SMILES IDX 10 1 9 2 8 3 7 4 5 5 6 6 4 8 2 9 3 10 88 11 87 12 78 13 1 14
REMARK SMILES IDX 79 17 80 18 85 19 81 20 84 21 82 22 83 23 86 24 11 26 12 27
REMARK SMILES IDX 13 28 14 30 15 31 16 32 77 33 17 34 76 35 18 36 19 37 20 38
REMARK SMILES IDX 70 39 21 40 75 41 69 42 71 43 22 44 74 45 68 46 67 47 23 49
REMARK SMILES IDX 55 50 35 51 54 52 36 53 39 54 53 55 72 56 37 57 38 58 52 60
REMARK SMILES IDX 73 61 40 62 24 63 25 64 33 65 26 66 32 67 34 68 31 69 27 70
REMARK SMILES IDX 28 71 29 72 30 73 56 74 57 75 65 76 58 77 64 78 66 79 63 80
REMARK SMILES IDX 59 81 60 82 61 83 62 84 41 85 42 86 50 87 43 88 49 89 51 90
REMARK SMILES IDX 48 91 44 92 45 93 46 94 47 95
REMARK H PARENT 7 7 1 15 1 16 86 25 12 29 71 48 39 59
REMARK Flexibility Score: inf
ROOT
ATOM      1  C   UNL A   1      37.767  19.702  24.764  1.00  0.00     0.023 C 
ENDROOT
BRANCH   1   2
ATOM      2  C   UNL A   1      36.308  20.119  24.994  1.00  0.00     0.023 C 
BRANCH   2   3
ATOM      3  C   UNL A   1      36.134  21.580  25.424  1.00  0.00     0.116 C 
BRANCH   3   4
ATOM      4  N   UNL A   1      35.707  22.375  24.290  1.00  0.00    -0.352 N 
ATOM      5  C   UNL A   1      34.507  22.901  23.890  1.00  0.00     0.252 C 
ATOM      6  O   UNL A   1      34.471  23.250  22.709  1.00  0.00    -0.269 OA
ATOM      7  H   UNL A   1      36.443  22.582  23.670  1.00  0.00     0.163 HD
BRANCH   5   8
ATOM      8  C   UNL A   1      33.295  23.071  24.762  1.00  0.00     0.052 A 
ATOM      9  C   UNL A   1      31.833  24.477  26.086  1.00  0.00     0.124 A 
ATOM     10  C   UNL A   1      33.009  24.298  25.376  1.00  0.00     0.061 A 
ATOM     11  N   UNL A   1      30.965  23.485  26.292  1.00  0.00    -0.239 NA
ATOM     12  C   UNL A   1      31.286  22.277  25.778  1.00  0.00     0.123 A 
ATOM     13  C   UNL A   1      32.419  21.987  25.007  1.00  0.00     0.017 A 
BRANCH   9  14
ATOM     14  N   UNL A   1      31.535  25.691  26.668  1.00  0.00    -0.384 N 
ATOM     15  H   UNL A   1      32.005  25.974  27.485  1.00  0.00     0.158 HD
ATOM     16  H   UNL A   1      30.852  26.276  26.266  1.00  0.00     0.158 HD
ENDBRANCH   9  14
BRANCH  13  17
ATOM     17  C   UNL A   1      32.591  20.583  24.570  1.00  0.00     0.026 A 
ATOM     18  C   UNL A   1      32.320  20.213  23.239  1.00  0.00     0.015 A 
ATOM     19  C   UNL A   1      32.926  19.546  25.465  1.00  0.00     0.126 A 
ATOM     20  C   UNL A   1      32.393  18.876  22.833  1.00  0.00     0.040 A 
ATOM     21  C   UNL A   1      32.997  18.214  25.075  1.00  0.00     0.086 A 
ATOM     22  C   UNL A   1      32.731  17.890  23.755  1.00  0.00     0.126 A 
ATOM     23  F   UNL A   1      32.803  16.613  23.359  1.00  0.00    -0.207 F 
BRANCH  19  24
ATOM     24  O   UNL A   1      33.272  19.823  26.761  1.00  0.00    -0.507 OA
ATOM     25  H   UNL A   1      32.739  19.511  27.465  1.00  0.00     0.293 HD
ENDBRANCH  19  24
ENDBRANCH  13  17
ENDBRANCH   5   8
ENDBRANCH   3   4
ENDBRANCH   2   3
ENDBRANCH   1   2
BRANCH   1  26
ATOM     26  C   UNL A   1      38.762  20.226  25.796  1.00  0.00     0.116 C 
BRANCH  26  27
ATOM     27  N   UNL A   1      39.911  19.355  25.968  1.00  0.00    -0.352 N 
ATOM     28  C   UNL A   1      41.199  19.688  26.319  1.00  0.00     0.251 C 
ATOM     29  H   UNL A   1      39.747  18.396  25.812  1.00  0.00     0.163 HD
ATOM     30  O   UNL A   1      42.073  18.834  26.306  1.00  0.00    -0.269 OA
BRANCH  28  31
ATOM     31  C   UNL A   1      41.515  21.091  26.662  1.00  0.00     0.039 A 
ATOM     32  C   UNL A   1      42.111  21.358  27.896  1.00  0.00     0.014 A 
ATOM     33  C   UNL A   1      41.249  22.127  25.764  1.00  0.00     0.014 A 
ATOM     34  C   UNL A   1      42.503  22.663  28.204  1.00  0.00     0.010 A 
ATOM     35  C   UNL A   1      41.694  23.416  26.047  1.00  0.00     0.010 A 
ATOM     36  C   UNL A   1      42.329  23.695  27.268  1.00  0.00    -0.014 A 
BRANCH  36  37
ATOM     37  C   UNL A   1      42.809  25.072  27.546  1.00  0.00     0.031 A 
ATOM     38  C   UNL A   1      41.889  26.073  28.189  1.00  0.00     0.074 A 
ATOM     39  C   UNL A   1      44.048  25.436  27.160  1.00  0.00     0.049 A 
ATOM     40  N   UNL A   1      42.090  27.341  28.438  1.00  0.00    -0.248 NA
ATOM     41  C   UNL A   1      40.557  25.586  28.578  1.00  0.00     0.031 C 
ATOM     42  C   UNL A   1      45.014  24.561  26.490  1.00  0.00     0.029 A 
ATOM     43  N   UNL A   1      44.704  26.636  27.261  1.00  0.00    -0.354 N 
ATOM     44  C   UNL A   1      40.907  27.809  29.000  1.00  0.00     0.074 A 
ATOM     45  C   UNL A   1      39.977  26.700  29.001  1.00  0.00     0.031 C 
ATOM     46  C   UNL A   1      46.144  25.249  26.258  1.00  0.00     0.029 A 
ATOM     47  C   UNL A   1      45.970  26.622  26.722  1.00  0.00     0.049 A 
ATOM     48  H   UNL A   1      44.306  27.433  27.681  1.00  0.00     0.167 HD
ATOM     49  C   UNL A   1      40.631  29.043  29.491  1.00  0.00     0.034 A 
ATOM     50  C   UNL A   1      46.882  27.608  26.604  1.00  0.00     0.034 A 
ATOM     51  C   UNL A   1      41.576  30.134  29.494  1.00  0.00     0.049 A 
ATOM     52  C   UNL A   1      46.545  28.976  27.142  1.00  0.00     0.074 A 
ATOM     53  C   UNL A   1      41.421  31.409  30.010  1.00  0.00     0.029 A 
ATOM     54  N   UNL A   1      42.854  30.080  28.950  1.00  0.00    -0.354 N 
ATOM     55  N   UNL A   1      45.439  29.389  27.716  1.00  0.00    -0.248 NA
ATOM     56  C   UNL A   1      47.585  30.006  27.028  1.00  0.00     0.031 C 
ATOM     57  C   UNL A   1      42.578  32.142  29.725  1.00  0.00     0.029 A 
ATOM     58  C   UNL A   1      43.485  31.306  29.095  1.00  0.00     0.049 A 
ATOM     59  H   UNL A   1      43.252  29.288  28.523  1.00  0.00     0.167 HD
ATOM     60  C   UNL A   1      45.664  30.719  28.058  1.00  0.00     0.074 A 
ATOM     61  C   UNL A   1      47.015  31.032  27.641  1.00  0.00     0.031 C 
ATOM     62  C   UNL A   1      44.831  31.603  28.665  1.00  0.00     0.034 A 
BRANCH  49  63
ATOM     63  C   UNL A   1      39.245  29.277  30.041  1.00  0.00     0.023 A 
ATOM     64  C   UNL A   1      38.261  29.953  29.297  1.00  0.00     0.031 A 
ATOM     65  C   UNL A   1      38.907  28.841  31.334  1.00  0.00     0.131 A 
ATOM     66  C   UNL A   1      37.016  30.238  29.878  1.00  0.00     0.055 A 
ATOM     67  C   UNL A   1      37.639  29.057  31.876  1.00  0.00     0.041 A 
ATOM     68  F   UNL A   1      39.811  28.208  32.099  1.00  0.00    -0.206 F 
ATOM     69  C   UNL A   1      36.689  29.773  31.153  1.00  0.00     0.022 A 
BRANCH  66  70
ATOM     70  S   UNL A   1      35.884  31.345  28.995  1.00  0.00     0.124 S 
ATOM     71  O   UNL A   1      36.813  32.301  28.397  1.00  0.00    -0.237 OA
ATOM     72  O   UNL A   1      35.215  30.440  28.068  1.00  0.00    -0.237 OA
ATOM     73  O   UNL A   1      35.038  31.888  30.056  1.00  0.00    -0.744 OA
ENDBRANCH  66  70
ENDBRANCH  49  63
BRANCH  50  74
ATOM     74  C   UNL A   1      48.194  27.353  25.945  1.00  0.00     0.023 A 
ATOM     75  C   UNL A   1      48.351  27.520  24.560  1.00  0.00     0.031 A 
ATOM     76  C   UNL A   1      49.297  26.888  26.682  1.00  0.00     0.131 A 
ATOM     77  C   UNL A   1      49.566  27.175  23.946  1.00  0.00     0.055 A 
ATOM     78  C   UNL A   1      50.520  26.597  26.075  1.00  0.00     0.041 A 
ATOM     79  F   UNL A   1      49.204  26.717  28.010  1.00  0.00    -0.206 F 
ATOM     80  C   UNL A   1      50.654  26.726  24.695  1.00  0.00     0.022 A 
BRANCH  77  81
ATOM     81  S   UNL A   1      49.669  27.236  22.137  1.00  0.00     0.124 S 
ATOM     82  O   UNL A   1      48.659  26.258  21.747  1.00  0.00    -0.237 OA
ATOM     83  O   UNL A   1      49.351  28.633  21.862  1.00  0.00    -0.237 OA
ATOM     84  O   UNL A   1      51.051  26.848  21.863  1.00  0.00    -0.744 OA
ENDBRANCH  77  81
ENDBRANCH  50  74
BRANCH  62  85
ATOM     85  C   UNL A   1      45.385  32.976  28.953  1.00  0.00     0.023 A 
ATOM     86  C   UNL A   1      45.287  34.024  28.020  1.00  0.00     0.031 A 
ATOM     87  C   UNL A   1      46.035  33.233  30.173  1.00  0.00     0.131 A 
ATOM     88  C   UNL A   1      45.877  35.265  28.301  1.00  0.00     0.055 A 
ATOM     89  C   UNL A   1      46.570  34.487  30.470  1.00  0.00     0.041 A 
ATOM     90  F   UNL A   1      46.158  32.269  31.099  1.00  0.00    -0.206 F 
ATOM     91  C   UNL A   1      46.504  35.508  29.525  1.00  0.00     0.022 A 
BRANCH  88  92
ATOM     92  S   UNL A   1      45.892  36.534  27.006  1.00  0.00     0.124 S 
ATOM     93  O   UNL A   1      46.860  37.492  27.531  1.00  0.00    -0.237 OA
ATOM     94  O   UNL A   1      46.317  35.778  25.832  1.00  0.00    -0.237 OA
ATOM     95  O   UNL A   1      44.509  37.006  26.971  1.00  0.00    -0.744 OA
ENDBRANCH  88  92
ENDBRANCH  62  85
ENDBRANCH  36  37
ENDBRANCH  28  31
ENDBRANCH  26  27
ENDBRANCH   1  26
TORSDOF 17
ENDMDL
