MODEL 1
REMARK VINA RESULT:     -12.8      0.000      0.000
REMARK SMILES Cc1c(Cc2nc(C(C)(C)C)cs2)cccc1C(=O)NCCCCNC(=O)c1ccc(-c2c3nc(c(-c4cc(S(=O)(=O)[O-])ccc4F)c4ccc([nH]4)c(-c4cc(S(=O)(=O)[O-])ccc4F)c4nc(c(-c5cc(S(=O)(=O)[O-])ccc5F)c5ccc2[nH]5)C=C4)C=C3)cc1
REMARK SMILES IDX 22 1 21 2 20 3 18 4 19 5 17 7 1 8 2 9 3 10 14 11 16 12 15 13
REMARK SMILES IDX 4 14 5 15 6 16 13 17 7 18 12 19 8 20 9 21 10 22 11 23 23 24
REMARK SMILES IDX 24 25 25 26 26 27 27 29 28 30 29 31 90 32 30 33 89 34 31 35
REMARK SMILES IDX 32 36 33 37 83 38 34 39 88 40 82 41 84 42 35 43 87 44 81 45
REMARK SMILES IDX 80 46 36 48 68 49 48 50 67 51 49 52 52 53 66 54 85 55 50 56
REMARK SMILES IDX 51 57 65 59 86 60 53 61 37 62 38 63 46 64 39 65 45 66 47 67
REMARK SMILES IDX 44 68 40 69 41 70 42 71 43 72 69 73 70 74 78 75 71 76 77 77
REMARK SMILES IDX 79 78 76 79 72 80 73 81 74 82 75 83 54 84 55 85 63 86 56 87
REMARK SMILES IDX 62 88 64 89 61 90 57 91 58 92 59 93 60 94
REMARK H PARENT 20 6 25 28 84 47 52 58
REMARK Flexibility Score: inf
ROOT
ATOM      1  C   UNL A   1      37.383  21.393  24.881  1.00  0.00     0.023 C 
ENDROOT
BRANCH   1   2
ATOM      2  C   UNL A   1      36.089  21.283  25.711  1.00  0.00     0.116 C 
BRANCH   2   3
ATOM      3  N   UNL A   1      35.168  20.335  25.097  1.00  0.00    -0.352 N 
ATOM      4  C   UNL A   1      33.852  20.390  24.720  1.00  0.00     0.251 C 
ATOM      5  O   UNL A   1      33.369  19.344  24.268  1.00  0.00    -0.269 OA
ATOM      6  H   UNL A   1      35.584  19.461  24.912  1.00  0.00     0.163 HD
BRANCH   4   7
ATOM      7  C   UNL A   1      32.994  21.620  24.711  1.00  0.00     0.043 A 
ATOM      8  C   UNL A   1      34.310  23.016  23.025  1.00  0.00     0.045 C 
ATOM      9  C   UNL A   1      33.115  22.766  23.893  1.00  0.00    -0.035 A 
ATOM     10  C   UNL A   1      32.130  23.785  23.965  1.00  0.00    -0.037 A 
ATOM     11  C   UNL A   1      31.224  23.780  25.040  1.00  0.00     0.004 A 
ATOM     12  C   UNL A   1      32.029  21.634  25.740  1.00  0.00     0.014 A 
ATOM     13  C   UNL A   1      31.186  22.723  25.936  1.00  0.00     0.001 A 
BRANCH  10  14
ATOM     14  C   UNL A   1      32.043  24.900  22.924  1.00  0.00     0.103 C 
BRANCH  14  15
ATOM     15  C   UNL A   1      32.643  26.187  23.420  1.00  0.00     0.097 A 
ATOM     16  N   UNL A   1      32.470  26.645  24.642  1.00  0.00    -0.245 NA
ATOM     17  S   UNL A   1      33.533  27.212  22.370  1.00  0.00    -0.127 S 
ATOM     18  C   UNL A   1      32.942  27.942  24.742  1.00  0.00     0.057 A 
ATOM     19  C   UNL A   1      33.599  28.393  23.609  1.00  0.00     0.091 A 
BRANCH  18  20
ATOM     20  C   UNL A   1      32.687  28.707  26.029  1.00  0.00     0.005 C 
ATOM     21  C   UNL A   1      34.018  29.219  26.604  1.00  0.00     0.017 C 
ATOM     22  C   UNL A   1      31.743  29.897  25.770  1.00  0.00     0.017 C 
ATOM     23  C   UNL A   1      32.016  27.800  27.086  1.00  0.00     0.017 C 
ENDBRANCH  18  20
ENDBRANCH  14  15
ENDBRANCH  10  14
ENDBRANCH   4   7
ENDBRANCH   2   3
ENDBRANCH   1   2
BRANCH   1  24
ATOM     24  C   UNL A   1      38.675  21.409  25.690  1.00  0.00     0.023 C 
BRANCH  24  25
ATOM     25  C   UNL A   1      39.039  22.802  26.167  1.00  0.00     0.116 C 
BRANCH  25  26
ATOM     26  N   UNL A   1      40.434  22.967  26.570  1.00  0.00    -0.352 N 
ATOM     27  C   UNL A   1      41.105  24.145  26.854  1.00  0.00     0.251 C 
ATOM     28  H   UNL A   1      40.962  22.140  26.650  1.00  0.00     0.163 HD
ATOM     29  O   UNL A   1      42.313  24.165  27.085  1.00  0.00    -0.269 OA
BRANCH  27  30
ATOM     30  C   UNL A   1      40.308  25.384  26.992  1.00  0.00     0.039 A 
ATOM     31  C   UNL A   1      40.755  26.515  26.301  1.00  0.00     0.014 A 
ATOM     32  C   UNL A   1      39.392  25.502  28.032  1.00  0.00     0.014 A 
ATOM     33  C   UNL A   1      40.496  27.775  26.834  1.00  0.00     0.010 A 
ATOM     34  C   UNL A   1      39.261  26.733  28.638  1.00  0.00     0.010 A 
ATOM     35  C   UNL A   1      39.870  27.864  28.076  1.00  0.00    -0.014 A 
BRANCH  35  36
ATOM     36  C   UNL A   1      39.960  29.049  28.926  1.00  0.00     0.031 A 
ATOM     37  C   UNL A   1      38.914  30.092  28.890  1.00  0.00     0.074 A 
ATOM     38  C   UNL A   1      40.979  29.168  29.809  1.00  0.00     0.049 A 
ATOM     39  N   UNL A   1      39.090  31.320  29.247  1.00  0.00    -0.248 NA
ATOM     40  C   UNL A   1      37.572  29.835  28.385  1.00  0.00     0.031 C 
ATOM     41  C   UNL A   1      41.097  30.127  30.904  1.00  0.00     0.029 A 
ATOM     42  N   UNL A   1      42.241  28.583  29.726  1.00  0.00    -0.354 N 
ATOM     43  C   UNL A   1      37.852  31.917  29.325  1.00  0.00     0.074 A 
ATOM     44  C   UNL A   1      36.957  30.979  28.692  1.00  0.00     0.031 C 
ATOM     45  C   UNL A   1      42.393  30.267  31.221  1.00  0.00     0.029 A 
ATOM     46  C   UNL A   1      43.163  29.502  30.257  1.00  0.00     0.049 A 
ATOM     47  H   UNL A   1      42.448  27.691  29.363  1.00  0.00     0.167 HD
ATOM     48  C   UNL A   1      37.709  33.065  30.051  1.00  0.00     0.034 A 
ATOM     49  C   UNL A   1      44.181  29.992  29.494  1.00  0.00     0.034 A 
ATOM     50  C   UNL A   1      39.009  33.574  30.507  1.00  0.00     0.049 A 
ATOM     51  C   UNL A   1      44.118  31.490  29.288  1.00  0.00     0.074 A 
ATOM     52  C   UNL A   1      39.654  33.562  31.734  1.00  0.00     0.029 A 
ATOM     53  N   UNL A   1      39.963  33.963  29.571  1.00  0.00    -0.354 N 
ATOM     54  N   UNL A   1      43.084  32.228  29.588  1.00  0.00    -0.248 NA
ATOM     55  C   UNL A   1      45.206  32.275  28.711  1.00  0.00     0.031 C 
ATOM     56  C   UNL A   1      41.022  33.876  31.517  1.00  0.00     0.029 A 
ATOM     57  C   UNL A   1      41.203  34.113  30.165  1.00  0.00     0.049 A 
ATOM     58  H   UNL A   1      39.781  34.112  28.616  1.00  0.00     0.167 HD
ATOM     59  C   UNL A   1      43.320  33.531  29.229  1.00  0.00     0.074 A 
ATOM     60  C   UNL A   1      44.680  33.513  28.716  1.00  0.00     0.031 C 
ATOM     61  C   UNL A   1      42.367  34.503  29.374  1.00  0.00     0.034 A 
BRANCH  48  62
ATOM     62  C   UNL A   1      36.384  33.546  30.622  1.00  0.00     0.023 A 
ATOM     63  C   UNL A   1      35.471  34.213  29.775  1.00  0.00     0.031 A 
ATOM     64  C   UNL A   1      35.982  33.464  31.970  1.00  0.00     0.131 A 
ATOM     65  C   UNL A   1      34.321  34.853  30.280  1.00  0.00     0.055 A 
ATOM     66  C   UNL A   1      34.873  34.150  32.485  1.00  0.00     0.041 A 
ATOM     67  F   UNL A   1      36.596  32.663  32.847  1.00  0.00    -0.206 F 
ATOM     68  C   UNL A   1      34.042  34.865  31.641  1.00  0.00     0.022 A 
BRANCH  65  69
ATOM     69  S   UNL A   1      33.185  35.673  29.127  1.00  0.00     0.124 S 
ATOM     70  O   UNL A   1      32.589  34.544  28.423  1.00  0.00    -0.237 OA
ATOM     71  O   UNL A   1      32.310  36.410  30.031  1.00  0.00    -0.237 OA
ATOM     72  O   UNL A   1      34.071  36.507  28.315  1.00  0.00    -0.744 OA
ENDBRANCH  65  69
ENDBRANCH  48  62
BRANCH  49  73
ATOM     73  C   UNL A   1      44.718  28.988  28.531  1.00  0.00     0.023 A 
ATOM     74  C   UNL A   1      45.494  27.940  29.075  1.00  0.00     0.031 A 
ATOM     75  C   UNL A   1      44.171  28.805  27.255  1.00  0.00     0.131 A 
ATOM     76  C   UNL A   1      45.560  26.697  28.432  1.00  0.00     0.055 A 
ATOM     77  C   UNL A   1      44.300  27.582  26.581  1.00  0.00     0.041 A 
ATOM     78  F   UNL A   1      43.393  29.746  26.702  1.00  0.00    -0.206 F 
ATOM     79  C   UNL A   1      44.955  26.508  27.188  1.00  0.00     0.022 A 
BRANCH  76  80
ATOM     80  S   UNL A   1      46.194  25.271  29.368  1.00  0.00     0.124 S 
ATOM     81  O   UNL A   1      45.465  25.384  30.626  1.00  0.00    -0.237 OA
ATOM     82  O   UNL A   1      45.831  24.135  28.522  1.00  0.00    -0.237 OA
ATOM     83  O   UNL A   1      47.630  25.524  29.445  1.00  0.00    -0.744 OA
ENDBRANCH  76  80
ENDBRANCH  49  73
BRANCH  61  84
ATOM     84  C   UNL A   1      42.456  35.928  28.858  1.00  0.00     0.023 A 
ATOM     85  C   UNL A   1      43.053  36.980  29.570  1.00  0.00     0.031 A 
ATOM     86  C   UNL A   1      41.991  36.260  27.560  1.00  0.00     0.131 A 
ATOM     87  C   UNL A   1      43.096  38.287  29.044  1.00  0.00     0.055 A 
ATOM     88  C   UNL A   1      42.108  37.539  27.008  1.00  0.00     0.041 A 
ATOM     89  F   UNL A   1      41.405  35.352  26.765  1.00  0.00    -0.206 F 
ATOM     90  C   UNL A   1      42.649  38.570  27.757  1.00  0.00     0.022 A 
BRANCH  87  91
ATOM     91  S   UNL A   1      43.693  39.626  30.111  1.00  0.00     0.124 S 
ATOM     92  O   UNL A   1      44.921  40.027  29.430  1.00  0.00    -0.237 OA
ATOM     93  O   UNL A   1      42.595  40.585  30.054  1.00  0.00    -0.237 OA
ATOM     94  O   UNL A   1      43.887  38.977  31.406  1.00  0.00    -0.744 OA
ENDBRANCH  87  91
ENDBRANCH  61  84
ENDBRANCH  35  36
ENDBRANCH  27  30
ENDBRANCH  25  26
ENDBRANCH  24  25
ENDBRANCH   1  24
TORSDOF 17
ENDMDL
MODEL 2
REMARK VINA RESULT:     -12.7      4.087     10.701
REMARK SMILES Cc1c(Cc2nc(C(C)(C)C)cs2)cccc1C(=O)NCCCCNC(=O)c1ccc(-c2c3nc(c(-c4cc(S(=O)(=O)[O-])ccc4F)c4ccc([nH]4)c(-c4cc(S(=O)(=O)[O-])ccc4F)c4nc(c(-c5cc(S(=O)(=O)[O-])ccc5F)c5ccc2[nH]5)C=C4)C=C3)cc1
REMARK SMILES IDX 22 1 21 2 20 3 18 4 19 5 17 7 1 8 2 9 3 10 14 11 16 12 15 13
REMARK SMILES IDX 4 14 5 15 6 16 13 17 7 18 12 19 8 20 9 21 10 22 11 23 23 24
REMARK SMILES IDX 24 25 25 26 26 27 27 29 28 30 29 31 90 32 30 33 89 34 31 35
REMARK SMILES IDX 32 36 33 37 83 38 34 39 88 40 82 41 84 42 35 43 87 44 81 45
REMARK SMILES IDX 80 46 36 48 68 49 48 50 67 51 49 52 52 53 66 54 85 55 50 56
REMARK SMILES IDX 51 57 65 59 86 60 53 61 37 62 38 63 46 64 39 65 45 66 47 67
REMARK SMILES IDX 44 68 40 69 41 70 42 71 43 72 69 73 70 74 78 75 71 76 77 77
REMARK SMILES IDX 79 78 76 79 72 80 73 81 74 82 75 83 54 84 55 85 63 86 56 87
REMARK SMILES IDX 62 88 64 89 61 90 57 91 58 92 59 93 60 94
REMARK H PARENT 20 6 25 28 84 47 52 58
REMARK Flexibility Score: inf
ROOT
ATOM      1  C   UNL A   1      33.075  29.632  26.505  1.00  0.00     0.023 C 
ENDROOT
BRANCH   1   2
ATOM      2  C   UNL A   1      31.794  29.976  25.719  1.00  0.00     0.116 C 
BRANCH   2   3
ATOM      3  N   UNL A   1      31.978  29.704  24.299  1.00  0.00    -0.352 N 
ATOM      4  C   UNL A   1      32.006  28.562  23.541  1.00  0.00     0.251 C 
ATOM      5  O   UNL A   1      32.249  28.712  22.338  1.00  0.00    -0.269 OA
ATOM      6  H   UNL A   1      32.112  30.521  23.766  1.00  0.00     0.163 HD
BRANCH   4   7
ATOM      7  C   UNL A   1      31.668  27.183  24.023  1.00  0.00     0.043 A 
ATOM      8  C   UNL A   1      33.813  26.671  25.312  1.00  0.00     0.045 C 
ATOM      9  C   UNL A   1      32.409  26.355  24.896  1.00  0.00    -0.035 A 
ATOM     10  C   UNL A   1      31.861  25.115  25.318  1.00  0.00    -0.037 A 
ATOM     11  C   UNL A   1      30.740  24.601  24.643  1.00  0.00     0.004 A 
ATOM     12  C   UNL A   1      30.515  26.646  23.413  1.00  0.00     0.014 A 
ATOM     13  C   UNL A   1      30.082  25.352  23.681  1.00  0.00     0.001 A 
BRANCH  10  14
ATOM     14  C   UNL A   1      32.469  24.312  26.467  1.00  0.00     0.103 C 
BRANCH  14  15
ATOM     15  C   UNL A   1      33.390  23.230  25.977  1.00  0.00     0.097 A 
ATOM     16  N   UNL A   1      34.670  23.419  25.734  1.00  0.00    -0.245 NA
ATOM     17  S   UNL A   1      32.796  21.664  25.602  1.00  0.00    -0.127 S 
ATOM     18  C   UNL A   1      35.207  22.321  25.086  1.00  0.00     0.057 A 
ATOM     19  C   UNL A   1      34.336  21.249  24.976  1.00  0.00     0.091 A 
BRANCH  18  20
ATOM     20  C   UNL A   1      36.633  22.409  24.573  1.00  0.00     0.005 C 
ATOM     21  C   UNL A   1      37.293  21.021  24.625  1.00  0.00     0.017 C 
ATOM     22  C   UNL A   1      36.653  22.938  23.126  1.00  0.00     0.017 C 
ATOM     23  C   UNL A   1      37.470  23.381  25.436  1.00  0.00     0.017 C 
ENDBRANCH  18  20
ENDBRANCH  14  15
ENDBRANCH  10  14
ENDBRANCH   4   7
ENDBRANCH   2   3
ENDBRANCH   1   2
BRANCH   1  24
ATOM     24  C   UNL A   1      33.826  30.829  27.077  1.00  0.00     0.023 C 
BRANCH  24  25
ATOM     25  C   UNL A   1      34.252  30.608  28.516  1.00  0.00     0.116 C 
BRANCH  25  26
ATOM     26  N   UNL A   1      35.239  31.563  29.017  1.00  0.00    -0.352 N 
ATOM     27  C   UNL A   1      36.534  31.310  29.436  1.00  0.00     0.251 C 
ATOM     28  H   UNL A   1      34.947  32.503  29.061  1.00  0.00     0.163 HD
ATOM     29  O   UNL A   1      37.238  32.185  29.936  1.00  0.00    -0.269 OA
BRANCH  27  30
ATOM     30  C   UNL A   1      37.105  29.972  29.160  1.00  0.00     0.039 A 
ATOM     31  C   UNL A   1      37.327  29.131  30.256  1.00  0.00     0.014 A 
ATOM     32  C   UNL A   1      37.718  29.723  27.937  1.00  0.00     0.014 A 
ATOM     33  C   UNL A   1      38.371  28.212  30.198  1.00  0.00     0.010 A 
ATOM     34  C   UNL A   1      38.840  28.922  27.930  1.00  0.00     0.010 A 
ATOM     35  C   UNL A   1      39.208  28.215  29.083  1.00  0.00    -0.014 A 
BRANCH  35  36
ATOM     36  C   UNL A   1      40.558  27.655  29.104  1.00  0.00     0.031 A 
ATOM     37  C   UNL A   1      40.807  26.258  28.690  1.00  0.00     0.074 A 
ATOM     38  C   UNL A   1      41.607  28.440  29.442  1.00  0.00     0.049 A 
ATOM     39  N   UNL A   1      41.824  25.555  29.060  1.00  0.00    -0.248 NA
ATOM     40  C   UNL A   1      39.877  25.513  27.852  1.00  0.00     0.031 C 
ATOM     41  C   UNL A   1      43.027  28.145  29.270  1.00  0.00     0.029 A 
ATOM     42  N   UNL A   1      41.586  29.579  30.244  1.00  0.00    -0.354 N 
ATOM     43  C   UNL A   1      41.855  24.419  28.282  1.00  0.00     0.074 A 
ATOM     44  C   UNL A   1      40.576  24.401  27.617  1.00  0.00     0.031 C 
ATOM     45  C   UNL A   1      43.732  28.890  30.135  1.00  0.00     0.029 A 
ATOM     46  C   UNL A   1      42.784  29.594  30.979  1.00  0.00     0.049 A 
ATOM     47  H   UNL A   1      40.866  30.249  30.287  1.00  0.00     0.167 HD
ATOM     48  C   UNL A   1      43.019  23.712  28.180  1.00  0.00     0.034 A 
ATOM     49  C   UNL A   1      42.770  29.565  32.343  1.00  0.00     0.034 A 
ATOM     50  C   UNL A   1      44.041  24.228  29.100  1.00  0.00     0.049 A 
ATOM     51  C   UNL A   1      43.433  28.338  32.930  1.00  0.00     0.074 A 
ATOM     52  C   UNL A   1      45.172  25.008  28.920  1.00  0.00     0.029 A 
ATOM     53  N   UNL A   1      43.817  24.182  30.474  1.00  0.00    -0.354 N 
ATOM     54  N   UNL A   1      43.775  27.286  32.237  1.00  0.00    -0.248 NA
ATOM     55  C   UNL A   1      43.748  28.189  34.349  1.00  0.00     0.031 C 
ATOM     56  C   UNL A   1      45.584  25.490  30.191  1.00  0.00     0.029 A 
ATOM     57  C   UNL A   1      44.725  24.977  31.148  1.00  0.00     0.049 A 
ATOM     58  H   UNL A   1      43.108  23.654  30.907  1.00  0.00     0.167 HD
ATOM     59  C   UNL A   1      44.299  26.329  33.068  1.00  0.00     0.074 A 
ATOM     60  C   UNL A   1      44.292  26.959  34.377  1.00  0.00     0.031 C 
ATOM     61  C   UNL A   1      44.675  25.098  32.602  1.00  0.00     0.034 A 
BRANCH  48  62
ATOM     62  C   UNL A   1      43.341  22.773  27.027  1.00  0.00     0.023 A 
ATOM     63  C   UNL A   1      42.820  21.461  27.042  1.00  0.00     0.031 A 
ATOM     64  C   UNL A   1      44.194  23.054  25.941  1.00  0.00     0.131 A 
ATOM     65  C   UNL A   1      43.235  20.486  26.114  1.00  0.00     0.055 A 
ATOM     66  C   UNL A   1      44.657  22.072  25.053  1.00  0.00     0.041 A 
ATOM     67  F   UNL A   1      44.571  24.300  25.638  1.00  0.00    -0.206 F 
ATOM     68  C   UNL A   1      44.190  20.773  25.145  1.00  0.00     0.022 A 
BRANCH  65  69
ATOM     69  S   UNL A   1      42.507  18.826  26.185  1.00  0.00     0.124 S 
ATOM     70  O   UNL A   1      41.136  19.070  25.751  1.00  0.00    -0.237 OA
ATOM     71  O   UNL A   1      43.356  18.078  25.265  1.00  0.00    -0.237 OA
ATOM     72  O   UNL A   1      42.650  18.453  27.593  1.00  0.00    -0.744 OA
ENDBRANCH  65  69
ENDBRANCH  48  62
BRANCH  49  73
ATOM     73  C   UNL A   1      41.619  30.314  32.924  1.00  0.00     0.023 A 
ATOM     74  C   UNL A   1      41.682  31.724  32.858  1.00  0.00     0.031 A 
ATOM     75  C   UNL A   1      40.367  29.723  33.134  1.00  0.00     0.131 A 
ATOM     76  C   UNL A   1      40.507  32.487  32.823  1.00  0.00     0.055 A 
ATOM     77  C   UNL A   1      39.198  30.496  33.172  1.00  0.00     0.041 A 
ATOM     78  F   UNL A   1      40.237  28.389  33.167  1.00  0.00    -0.206 F 
ATOM     79  C   UNL A   1      39.260  31.877  32.969  1.00  0.00     0.022 A 
BRANCH  76  80
ATOM     80  S   UNL A   1      40.620  34.227  32.304  1.00  0.00     0.124 S 
ATOM     81  O   UNL A   1      39.223  34.561  32.053  1.00  0.00    -0.237 OA
ATOM     82  O   UNL A   1      41.232  34.877  33.462  1.00  0.00    -0.237 OA
ATOM     83  O   UNL A   1      41.481  34.176  31.124  1.00  0.00    -0.744 OA
ENDBRANCH  76  80
ENDBRANCH  49  73
BRANCH  61  84
ATOM     84  C   UNL A   1      45.104  23.913  33.450  1.00  0.00     0.023 A 
ATOM     85  C   UNL A   1      46.393  23.758  33.980  1.00  0.00     0.031 A 
ATOM     86  C   UNL A   1      44.171  22.911  33.819  1.00  0.00     0.131 A 
ATOM     87  C   UNL A   1      46.736  22.629  34.751  1.00  0.00     0.055 A 
ATOM     88  C   UNL A   1      44.491  21.834  34.651  1.00  0.00     0.041 A 
ATOM     89  F   UNL A   1      42.899  22.936  33.391  1.00  0.00    -0.206 F 
ATOM     90  C   UNL A   1      45.787  21.677  35.111  1.00  0.00     0.022 A 
BRANCH  87  91
ATOM     91  S   UNL A   1      48.473  22.400  35.220  1.00  0.00     0.124 S 
ATOM     92  O   UNL A   1      48.653  20.966  35.013  1.00  0.00    -0.237 OA
ATOM     93  O   UNL A   1      49.169  23.269  34.276  1.00  0.00    -0.237 OA
ATOM     94  O   UNL A   1      48.515  22.836  36.613  1.00  0.00    -0.744 OA
ENDBRANCH  87  91
ENDBRANCH  61  84
ENDBRANCH  35  36
ENDBRANCH  27  30
ENDBRANCH  25  26
ENDBRANCH  24  25
ENDBRANCH   1  24
TORSDOF 17
ENDMDL
MODEL 3
REMARK VINA RESULT:     -12.6      4.240     10.720
REMARK SMILES Cc1c(Cc2nc(C(C)(C)C)cs2)cccc1C(=O)NCCCCNC(=O)c1ccc(-c2c3nc(c(-c4cc(S(=O)(=O)[O-])ccc4F)c4ccc([nH]4)c(-c4cc(S(=O)(=O)[O-])ccc4F)c4nc(c(-c5cc(S(=O)(=O)[O-])ccc5F)c5ccc2[nH]5)C=C4)C=C3)cc1
REMARK SMILES IDX 22 1 21 2 20 3 18 4 19 5 17 7 1 8 2 9 3 10 14 11 16 12 15 13
REMARK SMILES IDX 4 14 5 15 6 16 13 17 7 18 12 19 8 20 9 21 10 22 11 23 23 24
REMARK SMILES IDX 24 25 25 26 26 27 27 29 28 30 29 31 90 32 30 33 89 34 31 35
REMARK SMILES IDX 32 36 33 37 83 38 34 39 88 40 82 41 84 42 35 43 87 44 81 45
REMARK SMILES IDX 80 46 36 48 68 49 48 50 67 51 49 52 52 53 66 54 85 55 50 56
REMARK SMILES IDX 51 57 65 59 86 60 53 61 37 62 38 63 46 64 39 65 45 66 47 67
REMARK SMILES IDX 44 68 40 69 41 70 42 71 43 72 69 73 70 74 78 75 71 76 77 77
REMARK SMILES IDX 79 78 76 79 72 80 73 81 74 82 75 83 54 84 55 85 63 86 56 87
REMARK SMILES IDX 62 88 64 89 61 90 57 91 58 92 59 93 60 94
REMARK H PARENT 20 6 25 28 84 47 52 58
REMARK Flexibility Score: inf
ROOT
ATOM      1  C   UNL A   1      31.815  29.527  26.350  1.00  0.00     0.023 C 
ENDROOT
BRANCH   1   2
ATOM      2  C   UNL A   1      31.459  29.189  24.888  1.00  0.00     0.116 C 
BRANCH   2   3
ATOM      3  N   UNL A   1      32.632  29.324  24.034  1.00  0.00    -0.352 N 
ATOM      4  C   UNL A   1      33.443  28.435  23.377  1.00  0.00     0.251 C 
ATOM      5  O   UNL A   1      34.407  28.920  22.773  1.00  0.00    -0.269 OA
ATOM      6  H   UNL A   1      32.901  30.262  23.897  1.00  0.00     0.163 HD
BRANCH   4   7
ATOM      7  C   UNL A   1      33.201  26.961  23.247  1.00  0.00     0.043 A 
ATOM      8  C   UNL A   1      33.728  26.253  25.644  1.00  0.00     0.045 C 
ATOM      9  C   UNL A   1      33.222  25.978  24.261  1.00  0.00    -0.035 A 
ATOM     10  C   UNL A   1      32.858  24.642  23.948  1.00  0.00    -0.037 A 
ATOM     11  C   UNL A   1      32.769  24.259  22.598  1.00  0.00     0.004 A 
ATOM     12  C   UNL A   1      33.048  26.537  21.910  1.00  0.00     0.014 A 
ATOM     13  C   UNL A   1      32.884  25.195  21.583  1.00  0.00     0.001 A 
BRANCH  10  14
ATOM     14  C   UNL A   1      32.586  23.603  25.036  1.00  0.00     0.103 C 
BRANCH  14  15
ATOM     15  C   UNL A   1      33.433  22.372  24.868  1.00  0.00     0.097 A 
ATOM     16  N   UNL A   1      32.947  21.197  24.523  1.00  0.00    -0.245 NA
ATOM     17  S   UNL A   1      35.113  22.398  25.218  1.00  0.00    -0.127 S 
ATOM     18  C   UNL A   1      33.912  20.215  24.668  1.00  0.00     0.057 A 
ATOM     19  C   UNL A   1      35.168  20.701  24.992  1.00  0.00     0.091 A 
BRANCH  18  20
ATOM     20  C   UNL A   1      33.502  18.766  24.475  1.00  0.00     0.005 C 
ATOM     21  C   UNL A   1      32.560  18.646  23.266  1.00  0.00     0.017 C 
ATOM     22  C   UNL A   1      34.745  17.881  24.252  1.00  0.00     0.017 C 
ATOM     23  C   UNL A   1      32.765  18.230  25.723  1.00  0.00     0.017 C 
ENDBRANCH  18  20
ENDBRANCH  14  15
ENDBRANCH  10  14
ENDBRANCH   4   7
ENDBRANCH   2   3
ENDBRANCH   1   2
BRANCH   1  24
ATOM     24  C   UNL A   1      32.988  30.486  26.527  1.00  0.00     0.023 C 
BRANCH  24  25
ATOM     25  C   UNL A   1      33.954  30.021  27.600  1.00  0.00     0.116 C 
BRANCH  25  26
ATOM     26  N   UNL A   1      34.684  31.094  28.274  1.00  0.00    -0.352 N 
ATOM     27  C   UNL A   1      35.944  31.039  28.845  1.00  0.00     0.251 C 
ATOM     28  H   UNL A   1      34.223  31.962  28.328  1.00  0.00     0.163 HD
ATOM     29  O   UNL A   1      36.413  31.984  29.477  1.00  0.00    -0.269 OA
BRANCH  27  30
ATOM     30  C   UNL A   1      36.777  29.845  28.578  1.00  0.00     0.039 A 
ATOM     31  C   UNL A   1      36.987  28.957  29.639  1.00  0.00     0.014 A 
ATOM     32  C   UNL A   1      37.593  29.812  27.452  1.00  0.00     0.014 A 
ATOM     33  C   UNL A   1      38.175  28.234  29.687  1.00  0.00     0.010 A 
ATOM     34  C   UNL A   1      38.829  29.212  27.570  1.00  0.00     0.010 A 
ATOM     35  C   UNL A   1      39.148  28.476  28.718  1.00  0.00    -0.014 A 
BRANCH  35  36
ATOM     36  C   UNL A   1      40.559  28.148  28.914  1.00  0.00     0.031 A 
ATOM     37  C   UNL A   1      41.143  26.923  28.329  1.00  0.00     0.074 A 
ATOM     38  C   UNL A   1      41.363  29.007  29.584  1.00  0.00     0.049 A 
ATOM     39  N   UNL A   1      42.203  26.333  28.770  1.00  0.00    -0.248 NA
ATOM     40  C   UNL A   1      40.530  26.224  27.207  1.00  0.00     0.031 C 
ATOM     41  C   UNL A   1      42.821  28.986  29.653  1.00  0.00     0.029 A 
ATOM     42  N   UNL A   1      40.985  29.941  30.547  1.00  0.00    -0.354 N 
ATOM     43  C   UNL A   1      42.585  25.399  27.834  1.00  0.00     0.074 A 
ATOM     44  C   UNL A   1      41.462  25.310  26.932  1.00  0.00     0.031 C 
ATOM     45  C   UNL A   1      43.213  29.643  30.755  1.00  0.00     0.029 A 
ATOM     46  C   UNL A   1      42.018  29.999  31.499  1.00  0.00     0.049 A 
ATOM     47  H   UNL A   1      40.150  30.463  30.558  1.00  0.00     0.167 HD
ATOM     48  C   UNL A   1      43.865  24.925  27.849  1.00  0.00     0.034 A 
ATOM     49  C   UNL A   1      41.783  29.691  32.807  1.00  0.00     0.034 A 
ATOM     50  C   UNL A   1      44.598  25.401  29.029  1.00  0.00     0.049 A 
ATOM     51  C   UNL A   1      42.567  28.494  33.299  1.00  0.00     0.074 A 
ATOM     52  C   UNL A   1      45.569  26.373  29.214  1.00  0.00     0.029 A 
ATOM     53  N   UNL A   1      44.162  25.041  30.302  1.00  0.00    -0.354 N 
ATOM     54  N   UNL A   1      43.219  27.674  32.520  1.00  0.00    -0.248 NA
ATOM     55  C   UNL A   1      42.664  28.113  34.705  1.00  0.00     0.031 C 
ATOM     56  C   UNL A   1      45.660  26.646  30.604  1.00  0.00     0.029 A 
ATOM     57  C   UNL A   1      44.771  25.819  31.269  1.00  0.00     0.049 A 
ATOM     58  H   UNL A   1      43.509  24.329  30.488  1.00  0.00     0.167 HD
ATOM     59  C   UNL A   1      43.775  26.665  33.265  1.00  0.00     0.074 A 
ATOM     60  C   UNL A   1      43.427  27.007  34.634  1.00  0.00     0.031 C 
ATOM     61  C   UNL A   1      44.458  25.632  32.683  1.00  0.00     0.034 A 
BRANCH  48  62
ATOM     62  C   UNL A   1      44.553  24.304  26.641  1.00  0.00     0.023 A 
ATOM     63  C   UNL A   1      44.301  22.950  26.327  1.00  0.00     0.031 A 
ATOM     64  C   UNL A   1      45.505  24.932  25.814  1.00  0.00     0.131 A 
ATOM     65  C   UNL A   1      45.048  22.264  25.349  1.00  0.00     0.055 A 
ATOM     66  C   UNL A   1      46.292  24.239  24.883  1.00  0.00     0.041 A 
ATOM     67  F   UNL A   1      45.678  26.257  25.810  1.00  0.00    -0.206 F 
ATOM     68  C   UNL A   1      46.078  22.891  24.657  1.00  0.00     0.022 A 
BRANCH  65  69
ATOM     69  S   UNL A   1      44.655  20.530  24.988  1.00  0.00     0.124 S 
ATOM     70  O   UNL A   1      43.425  20.327  25.744  1.00  0.00    -0.237 OA
ATOM     71  O   UNL A   1      44.530  20.539  23.536  1.00  0.00    -0.237 OA
ATOM     72  O   UNL A   1      45.819  19.805  25.500  1.00  0.00    -0.744 OA
ENDBRANCH  65  69
ENDBRANCH  48  62
BRANCH  49  73
ATOM     73  C   UNL A   1      40.427  30.112  33.264  1.00  0.00     0.023 A 
ATOM     74  C   UNL A   1      40.236  31.492  33.498  1.00  0.00     0.031 A 
ATOM     75  C   UNL A   1      39.291  29.315  33.075  1.00  0.00     0.131 A 
ATOM     76  C   UNL A   1      38.965  32.066  33.364  1.00  0.00     0.055 A 
ATOM     77  C   UNL A   1      38.010  29.884  33.014  1.00  0.00     0.041 A 
ATOM     78  F   UNL A   1      39.409  28.006  32.809  1.00  0.00    -0.206 F 
ATOM     79  C   UNL A   1      37.848  31.267  33.111  1.00  0.00     0.022 A 
BRANCH  76  80
ATOM     80  S   UNL A   1      38.842  33.877  33.243  1.00  0.00     0.124 S 
ATOM     81  O   UNL A   1      37.419  34.101  33.465  1.00  0.00    -0.237 OA
ATOM     82  O   UNL A   1      39.734  34.340  34.306  1.00  0.00    -0.237 OA
ATOM     83  O   UNL A   1      39.324  34.162  31.893  1.00  0.00    -0.744 OA
ENDBRANCH  76  80
ENDBRANCH  49  73
BRANCH  61  84
ATOM     84  C   UNL A   1      44.963  24.385  33.386  1.00  0.00     0.023 A 
ATOM     85  C   UNL A   1      46.149  24.336  34.134  1.00  0.00     0.031 A 
ATOM     86  C   UNL A   1      44.200  23.189  33.380  1.00  0.00     0.131 A 
ATOM     87  C   UNL A   1      46.574  23.144  34.755  1.00  0.00     0.055 A 
ATOM     88  C   UNL A   1      44.582  22.032  34.065  1.00  0.00     0.041 A 
ATOM     89  F   UNL A   1      43.040  23.094  32.712  1.00  0.00    -0.206 F 
ATOM     90  C   UNL A   1      45.787  21.997  34.746  1.00  0.00     0.022 A 
BRANCH  87  91
ATOM     91  S   UNL A   1      48.216  23.111  35.523  1.00  0.00     0.124 S 
ATOM     92  O   UNL A   1      48.655  24.493  35.354  1.00  0.00    -0.237 OA
ATOM     93  O   UNL A   1      47.913  22.705  36.892  1.00  0.00    -0.237 OA
ATOM     94  O   UNL A   1      48.949  22.126  34.731  1.00  0.00    -0.744 OA
ENDBRANCH  87  91
ENDBRANCH  61  84
ENDBRANCH  35  36
ENDBRANCH  27  30
ENDBRANCH  25  26
ENDBRANCH  24  25
ENDBRANCH   1  24
TORSDOF 17
ENDMDL
