MODEL 1
REMARK VINA RESULT:     -12.5      0.000      0.000
REMARK SMILES Cc1cc(NCc2ccc(C(=O)NCCCCNC(=O)c3ccc(-c4c5nc(c(-c6cc(S(=O)(=O)[O-])ccc6F)c6ccc([nH]6)c(-c6cc(S(=O)(=O)[O-])ccc6F)c6nc(c(-c7cc(S(=O)(=O)[O-])ccc7F)c7ccc4[nH]7)C=C6)C=C5)cc3)o2)ccc1F
REMARK SMILES IDX 15 1 14 2 13 3 11 4 12 5 10 7 7 8 8 9 84 10 9 11 6 12 5 13
REMARK SMILES IDX 4 15 1 16 2 17 3 18 87 19 86 20 88 21 85 22 16 23 17 24
REMARK SMILES IDX 18 25 19 26 20 28 21 29 22 30 83 31 23 32 82 33 24 34 25 35
REMARK SMILES IDX 26 36 76 37 27 38 81 39 75 40 77 41 28 42 80 43 74 44 73 45
REMARK SMILES IDX 29 47 61 48 41 49 60 50 42 51 45 52 59 53 78 54 43 55 44 56
REMARK SMILES IDX 58 58 79 59 46 60 30 61 31 62 39 63 32 64 38 65 40 66 37 67
REMARK SMILES IDX 33 68 34 69 35 70 36 71 62 72 63 73 71 74 64 75 70 76 72 77
REMARK SMILES IDX 69 78 65 79 66 80 67 81 68 82 47 83 48 84 56 85 49 86 55 87
REMARK SMILES IDX 57 88 54 89 50 90 51 91 52 92 53 93
REMARK H PARENT 13 6 5 14 18 27 77 46 45 57
REMARK Flexibility Score: inf
ROOT
ATOM      1  C   UNL A   1      31.759  28.883  26.133  1.00  0.00     0.023 C 
ENDROOT
BRANCH   1   2
ATOM      2  C   UNL A   1      32.253  29.492  24.818  1.00  0.00     0.116 C 
BRANCH   2   3
ATOM      3  N   UNL A   1      31.302  29.266  23.753  1.00  0.00    -0.349 N 
ATOM      4  C   UNL A   1      31.219  28.260  22.822  1.00  0.00     0.286 C 
ATOM      5  O   UNL A   1      30.289  28.358  22.011  1.00  0.00    -0.266 OA
ATOM      6  H   UNL A   1      30.595  29.949  23.683  1.00  0.00     0.163 HD
BRANCH   4   7
ATOM      7  C   UNL A   1      32.153  27.146  22.804  1.00  0.00     0.191 A 
ATOM      8  C   UNL A   1      32.966  25.273  23.674  1.00  0.00     0.124 A 
ATOM      9  C   UNL A   1      33.728  25.537  22.562  1.00  0.00     0.048 A 
ATOM     10  O   UNL A   1      32.020  26.237  23.828  1.00  0.00    -0.454 OA
ATOM     11  C   UNL A   1      33.192  26.719  21.992  1.00  0.00     0.056 A 
BRANCH   8  12
ATOM     12  C   UNL A   1      32.965  24.194  24.694  1.00  0.00     0.188 C 
BRANCH  12  13
ATOM     13  N   UNL A   1      33.787  23.049  24.338  1.00  0.00    -0.378 N 
ATOM     14  H   UNL A   1      33.351  22.333  23.822  1.00  0.00     0.161 HD
BRANCH  13  15
ATOM     15  C   UNL A   1      35.118  22.868  24.652  1.00  0.00     0.035 A 
ATOM     16  C   UNL A   1      37.500  19.879  24.859  1.00  0.00     0.047 C 
ATOM     17  C   UNL A   1      36.961  21.272  24.950  1.00  0.00    -0.013 A 
ATOM     18  C   UNL A   1      35.649  21.570  24.554  1.00  0.00     0.032 A 
ATOM     19  C   UNL A   1      37.749  22.300  25.460  1.00  0.00     0.126 A 
ATOM     20  C   UNL A   1      37.254  23.593  25.568  1.00  0.00     0.041 A 
ATOM     21  F   UNL A   1      39.001  22.045  25.867  1.00  0.00    -0.207 F 
ATOM     22  C   UNL A   1      35.942  23.870  25.173  1.00  0.00     0.029 A 
ENDBRANCH  13  15
ENDBRANCH  12  13
ENDBRANCH   8  12
ENDBRANCH   4   7
ENDBRANCH   2   3
ENDBRANCH   1   2
BRANCH   1  23
ATOM     23  C   UNL A   1      32.796  28.884  27.268  1.00  0.00     0.023 C 
BRANCH  23  24
ATOM     24  C   UNL A   1      34.176  29.345  26.827  1.00  0.00     0.116 C 
BRANCH  24  25
ATOM     25  N   UNL A   1      34.471  30.687  27.325  1.00  0.00    -0.352 N 
ATOM     26  C   UNL A   1      35.403  31.061  28.265  1.00  0.00     0.251 C 
ATOM     27  H   UNL A   1      33.935  31.416  26.939  1.00  0.00     0.163 HD
ATOM     28  O   UNL A   1      35.261  32.144  28.846  1.00  0.00    -0.269 OA
BRANCH  26  29
ATOM     29  C   UNL A   1      36.556  30.184  28.501  1.00  0.00     0.039 A 
ATOM     30  C   UNL A   1      36.764  29.480  29.693  1.00  0.00     0.014 A 
ATOM     31  C   UNL A   1      37.485  30.120  27.471  1.00  0.00     0.014 A 
ATOM     32  C   UNL A   1      37.919  28.709  29.837  1.00  0.00     0.010 A 
ATOM     33  C   UNL A   1      38.490  29.207  27.524  1.00  0.00     0.010 A 
ATOM     34  C   UNL A   1      38.775  28.594  28.744  1.00  0.00    -0.014 A 
BRANCH  34  35
ATOM     35  C   UNL A   1      40.099  28.000  28.759  1.00  0.00     0.031 A 
ATOM     36  C   UNL A   1      40.286  26.562  28.571  1.00  0.00     0.074 A 
ATOM     37  C   UNL A   1      41.109  28.899  28.709  1.00  0.00     0.049 A 
ATOM     38  N   UNL A   1      41.296  25.916  29.030  1.00  0.00    -0.248 NA
ATOM     39  C   UNL A   1      39.329  25.720  27.857  1.00  0.00     0.031 C 
ATOM     40  C   UNL A   1      42.473  28.741  28.245  1.00  0.00     0.029 A 
ATOM     41  N   UNL A   1      41.055  30.233  29.143  1.00  0.00    -0.354 N 
ATOM     42  C   UNL A   1      41.305  24.698  28.385  1.00  0.00     0.074 A 
ATOM     43  C   UNL A   1      39.987  24.554  27.812  1.00  0.00     0.031 C 
ATOM     44  C   UNL A   1      43.190  29.808  28.647  1.00  0.00     0.029 A 
ATOM     45  C   UNL A   1      42.342  30.604  29.526  1.00  0.00     0.049 A 
ATOM     46  H   UNL A   1      40.253  30.803  29.171  1.00  0.00     0.167 HD
ATOM     47  C   UNL A   1      42.497  24.065  28.192  1.00  0.00     0.034 A 
ATOM     48  C   UNL A   1      42.630  30.978  30.808  1.00  0.00     0.034 A 
ATOM     49  C   UNL A   1      43.590  24.909  28.683  1.00  0.00     0.049 A 
ATOM     50  C   UNL A   1      43.559  29.973  31.443  1.00  0.00     0.074 A 
ATOM     51  C   UNL A   1      44.414  25.801  28.016  1.00  0.00     0.029 A 
ATOM     52  N   UNL A   1      43.709  25.196  30.037  1.00  0.00    -0.354 N 
ATOM     53  N   UNL A   1      43.683  28.747  31.020  1.00  0.00    -0.248 NA
ATOM     54  C   UNL A   1      44.421  30.261  32.581  1.00  0.00     0.031 C 
ATOM     55  C   UNL A   1      45.011  26.651  28.976  1.00  0.00     0.029 A 
ATOM     56  C   UNL A   1      44.557  26.276  30.230  1.00  0.00     0.049 A 
ATOM     57  H   UNL A   1      43.257  24.702  30.757  1.00  0.00     0.167 HD
ATOM     58  C   UNL A   1      44.590  28.078  31.792  1.00  0.00     0.074 A 
ATOM     59  C   UNL A   1      45.036  29.076  32.747  1.00  0.00     0.031 C 
ATOM     60  C   UNL A   1      44.879  26.761  31.570  1.00  0.00     0.034 A 
BRANCH  47  61
ATOM     61  C   UNL A   1      42.720  22.887  27.260  1.00  0.00     0.023 A 
ATOM     62  C   UNL A   1      43.647  22.874  26.192  1.00  0.00     0.031 A 
ATOM     63  C   UNL A   1      41.980  21.692  27.431  1.00  0.00     0.131 A 
ATOM     64  C   UNL A   1      43.863  21.708  25.426  1.00  0.00     0.055 A 
ATOM     65  C   UNL A   1      42.172  20.551  26.647  1.00  0.00     0.041 A 
ATOM     66  F   UNL A   1      41.053  21.563  28.390  1.00  0.00    -0.206 F 
ATOM     67  C   UNL A   1      43.128  20.547  25.649  1.00  0.00     0.022 A 
BRANCH  64  68
ATOM     68  S   UNL A   1      45.158  21.631  24.152  1.00  0.00     0.124 S 
ATOM     69  O   UNL A   1      44.650  20.595  23.254  1.00  0.00    -0.237 OA
ATOM     70  O   UNL A   1      45.145  22.985  23.607  1.00  0.00    -0.237 OA
ATOM     71  O   UNL A   1      46.358  21.260  24.896  1.00  0.00    -0.744 OA
ENDBRANCH  64  68
ENDBRANCH  47  61
BRANCH  48  72
ATOM     72  C   UNL A   1      41.490  31.652  31.505  1.00  0.00     0.023 A 
ATOM     73  C   UNL A   1      40.656  30.941  32.385  1.00  0.00     0.031 A 
ATOM     74  C   UNL A   1      40.991  32.845  30.935  1.00  0.00     0.131 A 
ATOM     75  C   UNL A   1      39.322  31.357  32.560  1.00  0.00     0.055 A 
ATOM     76  C   UNL A   1      39.662  33.238  31.098  1.00  0.00     0.041 A 
ATOM     77  F   UNL A   1      41.762  33.572  30.108  1.00  0.00    -0.206 F 
ATOM     78  C   UNL A   1      38.810  32.468  31.881  1.00  0.00     0.022 A 
BRANCH  75  79
ATOM     79  S   UNL A   1      38.181  30.362  33.568  1.00  0.00     0.124 S 
ATOM     80  O   UNL A   1      36.889  30.775  33.030  1.00  0.00    -0.237 OA
ATOM     81  O   UNL A   1      38.578  28.992  33.253  1.00  0.00    -0.237 OA
ATOM     82  O   UNL A   1      38.479  30.789  34.928  1.00  0.00    -0.744 OA
ENDBRANCH  75  79
ENDBRANCH  48  72
BRANCH  60  83
ATOM     83  C   UNL A   1      45.576  25.816  32.523  1.00  0.00     0.023 A 
ATOM     84  C   UNL A   1      44.786  24.893  33.254  1.00  0.00     0.031 A 
ATOM     85  C   UNL A   1      46.932  25.871  32.880  1.00  0.00     0.131 A 
ATOM     86  C   UNL A   1      45.321  24.122  34.291  1.00  0.00     0.055 A 
ATOM     87  C   UNL A   1      47.488  25.026  33.849  1.00  0.00     0.041 A 
ATOM     88  F   UNL A   1      47.769  26.781  32.367  1.00  0.00    -0.206 F 
ATOM     89  C   UNL A   1      46.681  24.160  34.572  1.00  0.00     0.022 A 
BRANCH  86  90
ATOM     90  S   UNL A   1      44.231  23.193  35.406  1.00  0.00     0.124 S 
ATOM     91  O   UNL A   1      42.911  23.622  34.953  1.00  0.00    -0.237 OA
ATOM     92  O   UNL A   1      44.580  21.808  35.093  1.00  0.00    -0.237 OA
ATOM     93  O   UNL A   1      44.628  23.645  36.732  1.00  0.00    -0.744 OA
ENDBRANCH  86  90
ENDBRANCH  60  83
ENDBRANCH  34  35
ENDBRANCH  26  29
ENDBRANCH  24  25
ENDBRANCH  23  24
ENDBRANCH   1  23
TORSDOF 17
ENDMDL
MODEL 2
REMARK VINA RESULT:     -12.2      1.759      2.323
REMARK SMILES Cc1cc(NCc2ccc(C(=O)NCCCCNC(=O)c3ccc(-c4c5nc(c(-c6cc(S(=O)(=O)[O-])ccc6F)c6ccc([nH]6)c(-c6cc(S(=O)(=O)[O-])ccc6F)c6nc(c(-c7cc(S(=O)(=O)[O-])ccc7F)c7ccc4[nH]7)C=C6)C=C5)cc3)o2)ccc1F
REMARK SMILES IDX 15 1 14 2 13 3 11 4 12 5 10 7 7 8 8 9 84 10 9 11 6 12 5 13
REMARK SMILES IDX 4 15 1 16 2 17 3 18 87 19 86 20 88 21 85 22 16 23 17 24
REMARK SMILES IDX 18 25 19 26 20 28 21 29 22 30 83 31 23 32 82 33 24 34 25 35
REMARK SMILES IDX 26 36 76 37 27 38 81 39 75 40 77 41 28 42 80 43 74 44 73 45
REMARK SMILES IDX 29 47 61 48 41 49 60 50 42 51 45 52 59 53 78 54 43 55 44 56
REMARK SMILES IDX 58 58 79 59 46 60 30 61 31 62 39 63 32 64 38 65 40 66 37 67
REMARK SMILES IDX 33 68 34 69 35 70 36 71 62 72 63 73 71 74 64 75 70 76 72 77
REMARK SMILES IDX 69 78 65 79 66 80 67 81 68 82 47 83 48 84 56 85 49 86 55 87
REMARK SMILES IDX 57 88 54 89 50 90 51 91 52 92 53 93
REMARK H PARENT 13 6 5 14 18 27 77 46 45 57
REMARK Flexibility Score: inf
ROOT
ATOM      1  C   UNL A   1      33.617  28.513  24.314  1.00  0.00     0.023 C 
ENDROOT
BRANCH   1   2
ATOM      2  C   UNL A   1      32.924  27.182  24.009  1.00  0.00     0.116 C 
BRANCH   2   3
ATOM      3  N   UNL A   1      32.132  26.740  25.134  1.00  0.00    -0.349 N 
ATOM      4  C   UNL A   1      32.306  25.686  25.996  1.00  0.00     0.286 C 
ATOM      5  O   UNL A   1      31.429  25.550  26.859  1.00  0.00    -0.266 OA
ATOM      6  H   UNL A   1      31.332  27.288  25.313  1.00  0.00     0.163 HD
BRANCH   4   7
ATOM      7  C   UNL A   1      33.454  24.798  25.907  1.00  0.00     0.191 A 
ATOM      8  C   UNL A   1      34.435  22.842  26.276  1.00  0.00     0.124 A 
ATOM      9  C   UNL A   1      35.381  23.632  25.671  1.00  0.00     0.048 A 
ATOM     10  O   UNL A   1      33.276  23.536  26.424  1.00  0.00    -0.454 OA
ATOM     11  C   UNL A   1      34.746  24.874  25.412  1.00  0.00     0.056 A 
BRANCH   8  12
ATOM     12  C   UNL A   1      34.422  21.443  26.774  1.00  0.00     0.188 C 
BRANCH  12  13
ATOM     13  N   UNL A   1      33.197  20.723  26.469  1.00  0.00    -0.378 N 
ATOM     14  H   UNL A   1      32.517  20.683  27.180  1.00  0.00     0.161 HD
BRANCH  13  15
ATOM     15  C   UNL A   1      32.892  20.091  25.281  1.00  0.00     0.035 A 
ATOM     16  C   UNL A   1      33.510  16.622  23.786  1.00  0.00     0.047 C 
ATOM     17  C   UNL A   1      33.087  18.050  23.929  1.00  0.00    -0.013 A 
ATOM     18  C   UNL A   1      33.263  18.743  25.135  1.00  0.00     0.032 A 
ATOM     19  C   UNL A   1      32.532  18.731  22.848  1.00  0.00     0.126 A 
ATOM     20  C   UNL A   1      32.154  20.062  22.961  1.00  0.00     0.041 A 
ATOM     21  F   UNL A   1      32.369  18.104  21.674  1.00  0.00    -0.207 F 
ATOM     22  C   UNL A   1      32.341  20.738  24.170  1.00  0.00     0.029 A 
ENDBRANCH  13  15
ENDBRANCH  12  13
ENDBRANCH   8  12
ENDBRANCH   4   7
ENDBRANCH   2   3
ENDBRANCH   1   2
BRANCH   1  23
ATOM     23  C   UNL A   1      33.109  29.225  25.578  1.00  0.00     0.023 C 
BRANCH  23  24
ATOM     24  C   UNL A   1      34.113  29.226  26.718  1.00  0.00     0.116 C 
BRANCH  24  25
ATOM     25  N   UNL A   1      34.401  30.585  27.170  1.00  0.00    -0.352 N 
ATOM     26  C   UNL A   1      35.333  30.997  28.094  1.00  0.00     0.251 C 
ATOM     27  H   UNL A   1      33.860  31.298  26.761  1.00  0.00     0.163 HD
ATOM     28  O   UNL A   1      35.186  32.098  28.639  1.00  0.00    -0.269 OA
BRANCH  26  29
ATOM     29  C   UNL A   1      36.492  30.136  28.357  1.00  0.00     0.039 A 
ATOM     30  C   UNL A   1      36.707  29.473  29.570  1.00  0.00     0.014 A 
ATOM     31  C   UNL A   1      37.420  30.044  27.327  1.00  0.00     0.014 A 
ATOM     32  C   UNL A   1      37.867  28.714  29.737  1.00  0.00     0.010 A 
ATOM     33  C   UNL A   1      38.431  29.140  27.408  1.00  0.00     0.010 A 
ATOM     34  C   UNL A   1      38.722  28.569  28.647  1.00  0.00    -0.014 A 
BRANCH  34  35
ATOM     35  C   UNL A   1      40.050  27.985  28.679  1.00  0.00     0.031 A 
ATOM     36  C   UNL A   1      40.248  26.545  28.515  1.00  0.00     0.074 A 
ATOM     37  C   UNL A   1      41.055  28.889  28.618  1.00  0.00     0.049 A 
ATOM     38  N   UNL A   1      41.260  25.913  28.990  1.00  0.00    -0.248 NA
ATOM     39  C   UNL A   1      39.300  25.685  27.811  1.00  0.00     0.031 C 
ATOM     40  C   UNL A   1      42.422  28.733  28.164  1.00  0.00     0.029 A 
ATOM     41  N   UNL A   1      40.989  30.230  29.029  1.00  0.00    -0.354 N 
ATOM     42  C   UNL A   1      41.280  24.685  28.365  1.00  0.00     0.074 A 
ATOM     43  C   UNL A   1      39.966  24.523  27.788  1.00  0.00     0.031 C 
ATOM     44  C   UNL A   1      43.130  29.812  28.552  1.00  0.00     0.029 A 
ATOM     45  C   UNL A   1      42.271  30.616  29.413  1.00  0.00     0.049 A 
ATOM     46  H   UNL A   1      40.183  30.794  29.044  1.00  0.00     0.167 HD
ATOM     47  C   UNL A   1      42.478  24.056  28.189  1.00  0.00     0.034 A 
ATOM     48  C   UNL A   1      42.550  31.013  30.689  1.00  0.00     0.034 A 
ATOM     49  C   UNL A   1      43.562  24.917  28.671  1.00  0.00     0.049 A 
ATOM     50  C   UNL A   1      43.483  30.025  31.346  1.00  0.00     0.074 A 
ATOM     51  C   UNL A   1      44.384  25.803  27.993  1.00  0.00     0.029 A 
ATOM     52  N   UNL A   1      43.673  25.226  30.021  1.00  0.00    -0.354 N 
ATOM     53  N   UNL A   1      43.617  28.793  30.944  1.00  0.00    -0.248 NA
ATOM     54  C   UNL A   1      44.337  30.338  32.484  1.00  0.00     0.031 C 
ATOM     55  C   UNL A   1      44.970  26.672  28.942  1.00  0.00     0.029 A 
ATOM     56  C   UNL A   1      44.512  26.315  30.200  1.00  0.00     0.049 A 
ATOM     57  H   UNL A   1      43.220  24.741  30.747  1.00  0.00     0.167 HD
ATOM     58  C   UNL A   1      44.525  28.144  31.732  1.00  0.00     0.074 A 
ATOM     59  C   UNL A   1      44.959  29.160  32.672  1.00  0.00     0.031 C 
ATOM     60  C   UNL A   1      44.824  26.825  31.534  1.00  0.00     0.034 A 
BRANCH  47  61
ATOM     61  C   UNL A   1      42.713  22.865  27.277  1.00  0.00     0.023 A 
ATOM     62  C   UNL A   1      43.671  22.828  26.239  1.00  0.00     0.031 A 
ATOM     63  C   UNL A   1      41.953  21.682  27.441  1.00  0.00     0.131 A 
ATOM     64  C   UNL A   1      43.896  21.650  25.493  1.00  0.00     0.055 A 
ATOM     65  C   UNL A   1      42.154  20.529  26.676  1.00  0.00     0.041 A 
ATOM     66  F   UNL A   1      40.997  21.575  28.373  1.00  0.00    -0.206 F 
ATOM     67  C   UNL A   1      43.139  20.501  25.707  1.00  0.00     0.022 A 
BRANCH  64  68
ATOM     68  S   UNL A   1      45.227  21.542  24.259  1.00  0.00     0.124 S 
ATOM     69  O   UNL A   1      44.726  20.511  23.351  1.00  0.00    -0.237 OA
ATOM     70  O   UNL A   1      45.257  22.893  23.708  1.00  0.00    -0.237 OA
ATOM     71  O   UNL A   1      46.397  21.151  25.041  1.00  0.00    -0.744 OA
ENDBRANCH  64  68
ENDBRANCH  47  61
BRANCH  48  72
ATOM     72  C   UNL A   1      41.403  31.691  31.370  1.00  0.00     0.023 A 
ATOM     73  C   UNL A   1      40.586  30.996  32.278  1.00  0.00     0.031 A 
ATOM     74  C   UNL A   1      40.881  32.855  30.763  1.00  0.00     0.131 A 
ATOM     75  C   UNL A   1      39.245  31.395  32.446  1.00  0.00     0.055 A 
ATOM     76  C   UNL A   1      39.545  33.231  30.919  1.00  0.00     0.041 A 
ATOM     77  F   UNL A   1      41.634  33.567  29.907  1.00  0.00    -0.206 F 
ATOM     78  C   UNL A   1      38.710  32.474  31.732  1.00  0.00     0.022 A 
BRANCH  75  79
ATOM     79  S   UNL A   1      38.127  30.415  33.493  1.00  0.00     0.124 S 
ATOM     80  O   UNL A   1      38.275  31.089  34.779  1.00  0.00    -0.237 OA
ATOM     81  O   UNL A   1      36.831  30.594  32.842  1.00  0.00    -0.237 OA
ATOM     82  O   UNL A   1      38.678  29.071  33.403  1.00  0.00    -0.744 OA
ENDBRANCH  75  79
ENDBRANCH  48  72
BRANCH  60  83
ATOM     83  C   UNL A   1      45.523  25.901  32.506  1.00  0.00     0.023 A 
ATOM     84  C   UNL A   1      44.731  25.014  33.279  1.00  0.00     0.031 A 
ATOM     85  C   UNL A   1      46.885  25.946  32.839  1.00  0.00     0.131 A 
ATOM     86  C   UNL A   1      45.271  24.269  34.332  1.00  0.00     0.055 A 
ATOM     87  C   UNL A   1      47.445  25.125  33.825  1.00  0.00     0.041 A 
ATOM     88  F   UNL A   1      47.727  26.827  32.283  1.00  0.00    -0.206 F 
ATOM     89  C   UNL A   1      46.636  24.295  34.589  1.00  0.00     0.022 A 
BRANCH  86  90
ATOM     90  S   UNL A   1      44.186  23.394  35.494  1.00  0.00     0.124 S 
ATOM     91  O   UNL A   1      43.134  24.382  35.716  1.00  0.00    -0.237 OA
ATOM     92  O   UNL A   1      43.788  22.221  34.718  1.00  0.00    -0.237 OA
ATOM     93  O   UNL A   1      45.052  23.117  36.632  1.00  0.00    -0.744 OA
ENDBRANCH  86  90
ENDBRANCH  60  83
ENDBRANCH  34  35
ENDBRANCH  26  29
ENDBRANCH  24  25
ENDBRANCH  23  24
ENDBRANCH   1  23
TORSDOF 17
ENDMDL
MODEL 3
REMARK VINA RESULT:     -11.9      1.504      2.011
REMARK SMILES Cc1cc(NCc2ccc(C(=O)NCCCCNC(=O)c3ccc(-c4c5nc(c(-c6cc(S(=O)(=O)[O-])ccc6F)c6ccc([nH]6)c(-c6cc(S(=O)(=O)[O-])ccc6F)c6nc(c(-c7cc(S(=O)(=O)[O-])ccc7F)c7ccc4[nH]7)C=C6)C=C5)cc3)o2)ccc1F
REMARK SMILES IDX 15 1 14 2 13 3 11 4 12 5 10 7 7 8 8 9 84 10 9 11 6 12 5 13
REMARK SMILES IDX 4 15 1 16 2 17 3 18 87 19 86 20 88 21 85 22 16 23 17 24
REMARK SMILES IDX 18 25 19 26 20 28 21 29 22 30 83 31 23 32 82 33 24 34 25 35
REMARK SMILES IDX 26 36 76 37 27 38 81 39 75 40 77 41 28 42 80 43 74 44 73 45
REMARK SMILES IDX 29 47 61 48 41 49 60 50 42 51 45 52 59 53 78 54 43 55 44 56
REMARK SMILES IDX 58 58 79 59 46 60 30 61 31 62 39 63 32 64 38 65 40 66 37 67
REMARK SMILES IDX 33 68 34 69 35 70 36 71 62 72 63 73 71 74 64 75 70 76 72 77
REMARK SMILES IDX 69 78 65 79 66 80 67 81 68 82 47 83 48 84 56 85 49 86 55 87
REMARK SMILES IDX 57 88 54 89 50 90 51 91 52 92 53 93
REMARK H PARENT 13 6 5 14 18 27 77 46 45 57
REMARK Flexibility Score: inf
ROOT
ATOM      1  C   UNL A   1      31.829  29.877  26.289  1.00  0.00     0.023 C 
ENDROOT
BRANCH   1   2
ATOM      2  C   UNL A   1      32.125  29.631  24.807  1.00  0.00     0.116 C 
BRANCH   2   3
ATOM      3  N   UNL A   1      30.927  29.761  24.010  1.00  0.00    -0.349 N 
ATOM      4  C   UNL A   1      30.104  28.808  23.463  1.00  0.00     0.286 C 
ATOM      5  O   UNL A   1      29.153  29.240  22.799  1.00  0.00    -0.266 OA
ATOM      6  H   UNL A   1      30.655  30.691  23.828  1.00  0.00     0.163 HD
BRANCH   4   7
ATOM      7  C   UNL A   1      30.330  27.386  23.665  1.00  0.00     0.191 A 
ATOM      8  C   UNL A   1      31.298  25.469  23.104  1.00  0.00     0.124 A 
ATOM      9  C   UNL A   1      30.485  25.185  24.174  1.00  0.00     0.048 A 
ATOM     10  O   UNL A   1      31.208  26.789  22.791  1.00  0.00    -0.454 OA
ATOM     11  C   UNL A   1      29.886  26.415  24.548  1.00  0.00     0.056 A 
BRANCH   8  12
ATOM     12  C   UNL A   1      32.218  24.664  22.262  1.00  0.00     0.188 C 
BRANCH  12  13
ATOM     13  N   UNL A   1      32.173  23.238  22.542  1.00  0.00    -0.378 N 
ATOM     14  H   UNL A   1      31.432  22.730  22.140  1.00  0.00     0.161 HD
BRANCH  13  15
ATOM     15  C   UNL A   1      33.067  22.527  23.315  1.00  0.00     0.035 A 
ATOM     16  C   UNL A   1      36.812  22.749  24.077  1.00  0.00     0.047 C 
ATOM     17  C   UNL A   1      35.397  22.264  24.048  1.00  0.00    -0.013 A 
ATOM     18  C   UNL A   1      34.398  22.978  23.372  1.00  0.00     0.032 A 
ATOM     19  C   UNL A   1      35.050  21.068  24.671  1.00  0.00     0.126 A 
ATOM     20  C   UNL A   1      33.745  20.596  24.635  1.00  0.00     0.041 A 
ATOM     21  F   UNL A   1      35.986  20.349  25.308  1.00  0.00    -0.207 F 
ATOM     22  C   UNL A   1      32.763  21.320  23.953  1.00  0.00     0.029 A 
ENDBRANCH  13  15
ENDBRANCH  12  13
ENDBRANCH   8  12
ENDBRANCH   4   7
ENDBRANCH   2   3
ENDBRANCH   1   2
BRANCH   1  23
ATOM     23  C   UNL A   1      32.434  28.836  27.245  1.00  0.00     0.023 C 
BRANCH  23  24
ATOM     24  C   UNL A   1      33.922  29.029  27.487  1.00  0.00     0.116 C 
BRANCH  24  25
ATOM     25  N   UNL A   1      34.242  30.436  27.723  1.00  0.00    -0.352 N 
ATOM     26  C   UNL A   1      35.279  30.962  28.457  1.00  0.00     0.251 C 
ATOM     27  H   UNL A   1      33.638  31.091  27.303  1.00  0.00     0.163 HD
ATOM     28  O   UNL A   1      35.184  32.123  28.875  1.00  0.00    -0.269 OA
BRANCH  26  29
ATOM     29  C   UNL A   1      36.478  30.144  28.670  1.00  0.00     0.039 A 
ATOM     30  C   UNL A   1      36.766  29.487  29.872  1.00  0.00     0.014 A 
ATOM     31  C   UNL A   1      37.366  30.087  27.603  1.00  0.00     0.014 A 
ATOM     32  C   UNL A   1      37.958  28.770  29.989  1.00  0.00     0.010 A 
ATOM     33  C   UNL A   1      38.411  29.219  27.640  1.00  0.00     0.010 A 
ATOM     34  C   UNL A   1      38.773  28.658  28.865  1.00  0.00    -0.014 A 
BRANCH  34  35
ATOM     35  C   UNL A   1      40.121  28.122  28.841  1.00  0.00     0.031 A 
ATOM     36  C   UNL A   1      40.368  26.706  28.570  1.00  0.00     0.074 A 
ATOM     37  C   UNL A   1      41.092  29.065  28.837  1.00  0.00     0.049 A 
ATOM     38  N   UNL A   1      41.408  26.078  28.988  1.00  0.00    -0.248 NA
ATOM     39  C   UNL A   1      39.443  25.865  27.814  1.00  0.00     0.031 C 
ATOM     40  C   UNL A   1      42.458  28.992  28.360  1.00  0.00     0.029 A 
ATOM     41  N   UNL A   1      40.983  30.368  29.346  1.00  0.00    -0.354 N 
ATOM     42  C   UNL A   1      41.465  24.901  28.274  1.00  0.00     0.074 A 
ATOM     43  C   UNL A   1      40.150  24.733  27.700  1.00  0.00     0.031 C 
ATOM     44  C   UNL A   1      43.132  30.065  28.819  1.00  0.00     0.029 A 
ATOM     45  C   UNL A   1      42.255  30.772  29.745  1.00  0.00     0.049 A 
ATOM     46  H   UNL A   1      40.158  30.900  29.410  1.00  0.00     0.167 HD
ATOM     47  C   UNL A   1      42.682  24.331  28.041  1.00  0.00     0.034 A 
ATOM     48  C   UNL A   1      42.535  31.085  31.044  1.00  0.00     0.034 A 
ATOM     49  C   UNL A   1      43.740  25.193  28.575  1.00  0.00     0.049 A 
ATOM     50  C   UNL A   1      43.511  30.087  31.618  1.00  0.00     0.074 A 
ATOM     51  C   UNL A   1      44.522  26.156  27.956  1.00  0.00     0.029 A 
ATOM     52  N   UNL A   1      43.856  25.407  29.942  1.00  0.00    -0.354 N 
ATOM     53  N   UNL A   1      43.684  28.893  31.125  1.00  0.00    -0.248 NA
ATOM     54  C   UNL A   1      44.367  30.347  32.767  1.00  0.00     0.031 C 
ATOM     55  C   UNL A   1      45.088  26.975  28.960  1.00  0.00     0.029 A 
ATOM     56  C   UNL A   1      44.658  26.511  30.193  1.00  0.00     0.049 A 
ATOM     57  H   UNL A   1      43.430  24.854  30.635  1.00  0.00     0.167 HD
ATOM     58  C   UNL A   1      44.625  28.221  31.855  1.00  0.00     0.074 A 
ATOM     59  C   UNL A   1      45.034  29.182  32.863  1.00  0.00     0.031 C 
ATOM     60  C   UNL A   1      44.968  26.932  31.557  1.00  0.00     0.034 A 
BRANCH  47  61
ATOM     61  C   UNL A   1      42.949  23.219  27.043  1.00  0.00     0.023 A 
ATOM     62  C   UNL A   1      42.642  21.857  27.260  1.00  0.00     0.031 A 
ATOM     63  C   UNL A   1      43.535  23.513  25.788  1.00  0.00     0.131 A 
ATOM     64  C   UNL A   1      42.834  20.892  26.246  1.00  0.00     0.055 A 
ATOM     65  C   UNL A   1      43.757  22.550  24.799  1.00  0.00     0.041 A 
ATOM     66  F   UNL A   1      43.895  24.758  25.447  1.00  0.00    -0.206 F 
ATOM     67  C   UNL A   1      43.392  21.235  25.017  1.00  0.00     0.022 A 
BRANCH  64  68
ATOM     68  S   UNL A   1      42.304  19.167  26.458  1.00  0.00     0.124 S 
ATOM     69  O   UNL A   1      42.308  19.016  27.912  1.00  0.00    -0.237 OA
ATOM     70  O   UNL A   1      40.983  19.164  25.838  1.00  0.00    -0.237 OA
ATOM     71  O   UNL A   1      43.331  18.398  25.761  1.00  0.00    -0.744 OA
ENDBRANCH  64  68
ENDBRANCH  47  61
BRANCH  48  72
ATOM     72  C   UNL A   1      41.373  31.669  31.784  1.00  0.00     0.023 A 
ATOM     73  C   UNL A   1      40.723  30.946  32.799  1.00  0.00     0.031 A 
ATOM     74  C   UNL A   1      40.665  32.721  31.160  1.00  0.00     0.131 A 
ATOM     75  C   UNL A   1      39.362  31.196  33.062  1.00  0.00     0.055 A 
ATOM     76  C   UNL A   1      39.311  32.948  31.412  1.00  0.00     0.041 A 
ATOM     77  F   UNL A   1      41.255  33.456  30.201  1.00  0.00    -0.206 F 
ATOM     78  C   UNL A   1      38.643  32.155  32.337  1.00  0.00     0.022 A 
BRANCH  75  79
ATOM     79  S   UNL A   1      38.459  30.166  34.258  1.00  0.00     0.124 S 
ATOM     80  O   UNL A   1      39.536  29.761  35.157  1.00  0.00    -0.237 OA
ATOM     81  O   UNL A   1      37.491  31.100  34.828  1.00  0.00    -0.237 OA
ATOM     82  O   UNL A   1      37.885  29.117  33.427  1.00  0.00    -0.744 OA
ENDBRANCH  75  79
ENDBRANCH  48  72
BRANCH  60  83
ATOM     83  C   UNL A   1      45.711  25.966  32.453  1.00  0.00     0.023 A 
ATOM     84  C   UNL A   1      44.960  25.004  33.174  1.00  0.00     0.031 A 
ATOM     85  C   UNL A   1      47.077  26.031  32.767  1.00  0.00     0.131 A 
ATOM     86  C   UNL A   1      45.541  24.206  34.165  1.00  0.00     0.055 A 
ATOM     87  C   UNL A   1      47.679  25.162  33.685  1.00  0.00     0.041 A 
ATOM     88  F   UNL A   1      47.882  26.973  32.260  1.00  0.00    -0.206 F 
ATOM     89  C   UNL A   1      46.909  24.257  34.403  1.00  0.00     0.022 A 
BRANCH  86  90
ATOM     90  S   UNL A   1      44.504  23.220  35.280  1.00  0.00     0.124 S 
ATOM     91  O   UNL A   1      45.285  21.993  35.404  1.00  0.00    -0.237 OA
ATOM     92  O   UNL A   1      44.460  24.057  36.478  1.00  0.00    -0.237 OA
ATOM     93  O   UNL A   1      43.241  23.103  34.563  1.00  0.00    -0.744 OA
ENDBRANCH  86  90
ENDBRANCH  60  83
ENDBRANCH  34  35
ENDBRANCH  26  29
ENDBRANCH  24  25
ENDBRANCH  23  24
ENDBRANCH   1  23
TORSDOF 17
ENDMDL
