MODEL 1
REMARK VINA RESULT:     -12.9      0.000      0.000
REMARK SMILES O=C(NCCCCNC(=O)c1ccc(-c2c3nc(c(-c4cc(S(=O)(=O)[O-])ccc4F)c4ccc([nH]4)c(-c4cc(S(=O)(=O)[O-])ccc4F)c4nc(c(-c5cc(S(=O)(=O)[O-])ccc5F)c5ccc2[nH]5)C=C4)C=C3)cc1)C1=Cc2c(ccc(Cl)c2Sc2ccccc2)O[C@H]1C(F)(F)F
REMARK SMILES IDX 6 1 5 2 4 3 3 4 1 5 2 6 74 8 75 9 91 10 76 11 90 12 77 13
REMARK SMILES IDX 82 14 78 15 80 16 79 17 81 18 92 19 93 20 94 21 95 22 83 23
REMARK SMILES IDX 84 24 85 25 89 26 86 27 88 28 87 29 7 30 8 31 9 32 10 34
REMARK SMILES IDX 11 35 12 36 73 37 13 38 72 39 14 40 15 41 16 42 66 43 17 44
REMARK SMILES IDX 71 45 65 46 67 47 18 48 70 49 64 50 63 51 19 53 51 54 31 55
REMARK SMILES IDX 50 56 32 57 35 58 49 59 68 60 33 61 34 62 48 64 69 65 36 66
REMARK SMILES IDX 20 67 21 68 29 69 22 70 28 71 30 72 27 73 23 74 24 75 25 76
REMARK SMILES IDX 26 77 52 78 53 79 61 80 54 81 60 82 62 83 59 84 55 85 56 86
REMARK SMILES IDX 57 87 58 88 37 89 38 90 46 91 39 92 45 93 47 94 44 95 40 96
REMARK SMILES IDX 41 97 42 98 43 99
REMARK H PARENT 3 7 8 33 67 52 35 63
REMARK Flexibility Score: inf
ROOT
ATOM      1  C   UNL A   1      31.525  29.485  26.115  1.00  0.00     0.023 C 
ENDROOT
BRANCH   1   2
ATOM      2  C   UNL A   1      31.539  28.351  27.131  1.00  0.00     0.023 C 
BRANCH   2   3
ATOM      3  C   UNL A   1      32.111  27.037  26.617  1.00  0.00     0.116 C 
BRANCH   3   4
ATOM      4  N   UNL A   1      31.329  25.871  26.981  1.00  0.00    -0.352 N 
ATOM      5  O   UNL A   1      30.795  23.681  27.088  1.00  0.00    -0.270 OA
ATOM      6  C   UNL A   1      31.605  24.548  26.777  1.00  0.00     0.251 C 
ATOM      7  H   UNL A   1      30.478  26.059  27.441  1.00  0.00     0.163 HD
BRANCH   6   8
ATOM      8  C   UNL A   1      32.880  24.149  26.146  1.00  0.00     0.067 C 
ATOM      9  C   UNL A   1      33.496  24.985  25.303  1.00  0.00     0.026 C 
ATOM     10  C   UNL A   1      33.264  22.708  26.158  1.00  0.00     0.314 C 
ATOM     11  C   UNL A   1      33.470  24.485  23.907  1.00  0.00     0.033 A 
ATOM     12  O   UNL A   1      33.490  22.188  24.809  1.00  0.00    -0.475 OA
ATOM     13  C   UNL A   1      33.435  23.076  23.755  1.00  0.00     0.129 A 
ATOM     14  C   UNL A   1      33.301  25.352  22.795  1.00  0.00     0.042 A 
ATOM     15  C   UNL A   1      33.198  22.512  22.508  1.00  0.00     0.049 A 
ATOM     16  C   UNL A   1      33.012  24.740  21.553  1.00  0.00     0.055 A 
ATOM     17  C   UNL A   1      32.958  23.342  21.418  1.00  0.00     0.025 A 
ATOM     18  Cl  UNL A   1      32.634  25.644  20.119  1.00  0.00    -0.083 Cl
BRANCH  10  19
ATOM     19  C   UNL A   1      34.508  22.472  27.027  1.00  0.00     0.429 C 
ATOM     20  F   UNL A   1      34.805  21.159  27.166  1.00  0.00    -0.167 F 
ATOM     21  F   UNL A   1      35.601  23.066  26.488  1.00  0.00    -0.167 F 
ATOM     22  F   UNL A   1      34.355  22.976  28.277  1.00  0.00    -0.167 F 
ENDBRANCH  10  19
BRANCH  14  23
ATOM     23  S   UNL A   1      33.276  27.169  22.887  1.00  0.00    -0.088 SA
BRANCH  23  24
ATOM     24  C   UNL A   1      31.565  27.657  22.838  1.00  0.00     0.012 A 
ATOM     25  C   UNL A   1      30.593  26.780  23.339  1.00  0.00     0.015 A 
ATOM     26  C   UNL A   1      31.184  28.931  22.404  1.00  0.00     0.015 A 
ATOM     27  C   UNL A   1      29.275  27.209  23.501  1.00  0.00     0.001 A 
ATOM     28  C   UNL A   1      29.860  29.355  22.559  1.00  0.00     0.001 A 
ATOM     29  C   UNL A   1      28.913  28.502  23.126  1.00  0.00     0.000 A 
ENDBRANCH  23  24
ENDBRANCH  14  23
ENDBRANCH   6   8
ENDBRANCH   3   4
ENDBRANCH   2   3
ENDBRANCH   1   2
BRANCH   1  30
ATOM     30  C   UNL A   1      32.777  30.359  26.069  1.00  0.00     0.116 C 
BRANCH  30  31
ATOM     31  N   UNL A   1      32.602  31.694  26.630  1.00  0.00    -0.352 N 
ATOM     32  C   UNL A   1      33.461  32.386  27.460  1.00  0.00     0.251 C 
ATOM     33  H   UNL A   1      31.769  32.159  26.388  1.00  0.00     0.163 HD
ATOM     34  O   UNL A   1      33.153  33.489  27.900  1.00  0.00    -0.269 OA
BRANCH  32  35
ATOM     35  C   UNL A   1      34.733  31.739  27.849  1.00  0.00     0.039 A 
ATOM     36  C   UNL A   1      35.856  32.536  28.081  1.00  0.00     0.014 A 
ATOM     37  C   UNL A   1      34.759  30.371  28.126  1.00  0.00     0.014 A 
ATOM     38  C   UNL A   1      36.975  31.977  28.705  1.00  0.00     0.010 A 
ATOM     39  C   UNL A   1      35.845  29.838  28.812  1.00  0.00     0.010 A 
ATOM     40  C   UNL A   1      36.954  30.640  29.133  1.00  0.00    -0.014 A 
BRANCH  40  41
ATOM     41  C   UNL A   1      38.057  30.052  29.941  1.00  0.00     0.031 A 
ATOM     42  C   UNL A   1      38.280  30.533  31.348  1.00  0.00     0.074 A 
ATOM     43  C   UNL A   1      38.922  29.185  29.375  1.00  0.00     0.049 A 
ATOM     44  N   UNL A   1      39.286  30.306  32.152  1.00  0.00    -0.248 NA
ATOM     45  C   UNL A   1      37.250  31.422  31.906  1.00  0.00     0.031 C 
ATOM     46  C   UNL A   1      38.838  28.672  28.004  1.00  0.00     0.029 A 
ATOM     47  N   UNL A   1      40.061  28.597  29.872  1.00  0.00    -0.354 N 
ATOM     48  C   UNL A   1      39.031  31.057  33.295  1.00  0.00     0.074 A 
ATOM     49  C   UNL A   1      37.795  31.773  33.061  1.00  0.00     0.031 C 
ATOM     50  C   UNL A   1      39.872  27.844  27.778  1.00  0.00     0.029 A 
ATOM     51  C   UNL A   1      40.722  27.802  28.962  1.00  0.00     0.049 A 
ATOM     52  H   UNL A   1      40.375  28.732  30.796  1.00  0.00     0.167 HD
ATOM     53  C   UNL A   1      39.755  31.130  34.439  1.00  0.00     0.034 A 
ATOM     54  C   UNL A   1      41.891  27.136  29.063  1.00  0.00     0.034 A 
ATOM     55  C   UNL A   1      40.960  30.375  34.675  1.00  0.00     0.049 A 
ATOM     56  C   UNL A   1      42.664  27.213  30.358  1.00  0.00     0.074 A 
ATOM     57  C   UNL A   1      41.735  30.325  35.820  1.00  0.00     0.029 A 
ATOM     58  N   UNL A   1      41.563  29.533  33.750  1.00  0.00    -0.354 N 
ATOM     59  N   UNL A   1      42.387  27.898  31.443  1.00  0.00    -0.248 NA
ATOM     60  C   UNL A   1      43.900  26.422  30.446  1.00  0.00     0.031 C 
ATOM     61  C   UNL A   1      42.831  29.492  35.573  1.00  0.00     0.029 A 
ATOM     62  C   UNL A   1      42.705  28.971  34.294  1.00  0.00     0.049 A 
ATOM     63  H   UNL A   1      41.227  29.361  32.840  1.00  0.00     0.167 HD
ATOM     64  C   UNL A   1      43.391  27.584  32.356  1.00  0.00     0.074 A 
ATOM     65  C   UNL A   1      44.276  26.649  31.696  1.00  0.00     0.031 C 
ATOM     66  C   UNL A   1      43.562  28.022  33.628  1.00  0.00     0.034 A 
BRANCH  53  67
ATOM     67  C   UNL A   1      39.270  32.075  35.509  1.00  0.00     0.023 A 
ATOM     68  C   UNL A   1      39.688  33.415  35.554  1.00  0.00     0.031 A 
ATOM     69  C   UNL A   1      38.389  31.624  36.508  1.00  0.00     0.131 A 
ATOM     70  C   UNL A   1      39.282  34.238  36.615  1.00  0.00     0.055 A 
ATOM     71  C   UNL A   1      37.927  32.469  37.518  1.00  0.00     0.041 A 
ATOM     72  F   UNL A   1      37.971  30.348  36.525  1.00  0.00    -0.206 F 
ATOM     73  C   UNL A   1      38.384  33.782  37.583  1.00  0.00     0.022 A 
BRANCH  70  74
ATOM     74  S   UNL A   1      40.041  35.877  36.778  1.00  0.00     0.124 S 
ATOM     75  O   UNL A   1      39.650  36.506  35.519  1.00  0.00    -0.237 OA
ATOM     76  O   UNL A   1      39.401  36.403  37.980  1.00  0.00    -0.237 OA
ATOM     77  O   UNL A   1      41.466  35.584  36.907  1.00  0.00    -0.744 OA
ENDBRANCH  70  74
ENDBRANCH  53  67
BRANCH  54  78
ATOM     78  C   UNL A   1      42.425  26.347  27.914  1.00  0.00     0.023 A 
ATOM     79  C   UNL A   1      41.974  25.041  27.665  1.00  0.00     0.031 A 
ATOM     80  C   UNL A   1      43.444  26.859  27.090  1.00  0.00     0.131 A 
ATOM     81  C   UNL A   1      42.581  24.269  26.662  1.00  0.00     0.055 A 
ATOM     82  C   UNL A   1      44.006  26.107  26.057  1.00  0.00     0.041 A 
ATOM     83  F   UNL A   1      43.908  28.105  27.279  1.00  0.00    -0.206 F 
ATOM     84  C   UNL A   1      43.586  24.796  25.849  1.00  0.00     0.022 A 
BRANCH  81  85
ATOM     85  S   UNL A   1      42.111  22.523  26.508  1.00  0.00     0.124 S 
ATOM     86  O   UNL A   1      40.658  22.612  26.427  1.00  0.00    -0.237 OA
ATOM     87  O   UNL A   1      42.802  22.132  25.283  1.00  0.00    -0.237 OA
ATOM     88  O   UNL A   1      42.633  21.922  27.735  1.00  0.00    -0.744 OA
ENDBRANCH  81  85
ENDBRANCH  54  78
BRANCH  66  89
ATOM     89  C   UNL A   1      44.702  27.431  34.413  1.00  0.00     0.023 A 
ATOM     90  C   UNL A   1      44.555  26.256  35.169  1.00  0.00     0.031 A 
ATOM     91  C   UNL A   1      45.963  28.053  34.387  1.00  0.00     0.131 A 
ATOM     92  C   UNL A   1      45.644  25.760  35.902  1.00  0.00     0.055 A 
ATOM     93  C   UNL A   1      47.055  27.529  35.079  1.00  0.00     0.041 A 
ATOM     94  F   UNL A   1      46.155  29.178  33.678  1.00  0.00    -0.206 F 
ATOM     95  C   UNL A   1      46.897  26.381  35.849  1.00  0.00     0.022 A 
BRANCH  92  96
ATOM     96  S   UNL A   1      45.391  24.319  36.974  1.00  0.00     0.124 S 
ATOM     97  O   UNL A   1      46.762  23.922  37.277  1.00  0.00    -0.237 OA
ATOM     98  O   UNL A   1      44.632  24.884  38.085  1.00  0.00    -0.237 OA
ATOM     99  O   UNL A   1      44.647  23.387  36.127  1.00  0.00    -0.744 OA
ENDBRANCH  92  96
ENDBRANCH  66  89
ENDBRANCH  40  41
ENDBRANCH  32  35
ENDBRANCH  30  31
ENDBRANCH   1  30
TORSDOF 17
ENDMDL
MODEL 2
REMARK VINA RESULT:     -12.9      1.369      7.386
REMARK SMILES O=C(NCCCCNC(=O)c1ccc(-c2c3nc(c(-c4cc(S(=O)(=O)[O-])ccc4F)c4ccc([nH]4)c(-c4cc(S(=O)(=O)[O-])ccc4F)c4nc(c(-c5cc(S(=O)(=O)[O-])ccc5F)c5ccc2[nH]5)C=C4)C=C3)cc1)C1=Cc2c(ccc(Cl)c2Sc2ccccc2)O[C@H]1C(F)(F)F
REMARK SMILES IDX 6 1 5 2 4 3 3 4 1 5 2 6 74 8 75 9 91 10 76 11 90 12 77 13
REMARK SMILES IDX 82 14 78 15 80 16 79 17 81 18 92 19 93 20 94 21 95 22 83 23
REMARK SMILES IDX 84 24 85 25 89 26 86 27 88 28 87 29 7 30 8 31 9 32 10 34
REMARK SMILES IDX 11 35 12 36 73 37 13 38 72 39 14 40 15 41 16 42 66 43 17 44
REMARK SMILES IDX 71 45 65 46 67 47 18 48 70 49 64 50 63 51 19 53 51 54 31 55
REMARK SMILES IDX 50 56 32 57 35 58 49 59 68 60 33 61 34 62 48 64 69 65 36 66
REMARK SMILES IDX 20 67 21 68 29 69 22 70 28 71 30 72 27 73 23 74 24 75 25 76
REMARK SMILES IDX 26 77 52 78 53 79 61 80 54 81 60 82 62 83 59 84 55 85 56 86
REMARK SMILES IDX 57 87 58 88 37 89 38 90 46 91 39 92 45 93 47 94 44 95 40 96
REMARK SMILES IDX 41 97 42 98 43 99
REMARK H PARENT 3 7 8 33 67 52 35 63
REMARK Flexibility Score: inf
ROOT
ATOM      1  C   UNL A   1      31.648  29.444  26.471  1.00  0.00     0.023 C 
ENDROOT
BRANCH   1   2
ATOM      2  C   UNL A   1      31.827  28.245  27.392  1.00  0.00     0.023 C 
BRANCH   2   3
ATOM      3  C   UNL A   1      32.214  26.950  26.691  1.00  0.00     0.116 C 
BRANCH   3   4
ATOM      4  N   UNL A   1      31.392  25.813  27.058  1.00  0.00    -0.352 N 
ATOM      5  O   UNL A   1      30.779  23.643  27.161  1.00  0.00    -0.270 OA
ATOM      6  C   UNL A   1      31.617  24.481  26.845  1.00  0.00     0.251 C 
ATOM      7  H   UNL A   1      30.554  26.030  27.528  1.00  0.00     0.163 HD
BRANCH   6   8
ATOM      8  C   UNL A   1      32.869  24.038  26.199  1.00  0.00     0.067 C 
ATOM      9  C   UNL A   1      33.517  24.861  25.366  1.00  0.00     0.026 C 
ATOM     10  C   UNL A   1      33.190  22.581  26.184  1.00  0.00     0.314 C 
ATOM     11  C   UNL A   1      33.460  24.387  23.962  1.00  0.00     0.033 A 
ATOM     12  O   UNL A   1      33.385  22.076  24.825  1.00  0.00    -0.475 OA
ATOM     13  C   UNL A   1      33.362  22.984  23.787  1.00  0.00     0.129 A 
ATOM     14  C   UNL A   1      33.322  25.279  22.867  1.00  0.00     0.042 A 
ATOM     15  C   UNL A   1      33.093  22.452  22.532  1.00  0.00     0.049 A 
ATOM     16  C   UNL A   1      32.999  24.702  21.616  1.00  0.00     0.055 A 
ATOM     17  C   UNL A   1      32.883  23.311  21.458  1.00  0.00     0.025 A 
ATOM     18  Cl  UNL A   1      32.652  25.646  20.200  1.00  0.00    -0.083 Cl
BRANCH  10  19
ATOM     19  C   UNL A   1      34.428  22.276  27.040  1.00  0.00     0.429 C 
ATOM     20  F   UNL A   1      35.581  22.361  26.338  1.00  0.00    -0.167 F 
ATOM     21  F   UNL A   1      34.534  23.147  28.073  1.00  0.00    -0.167 F 
ATOM     22  F   UNL A   1      34.381  21.029  27.573  1.00  0.00    -0.167 F 
ENDBRANCH  10  19
BRANCH  14  23
ATOM     23  S   UNL A   1      33.377  27.094  22.990  1.00  0.00    -0.088 SA
BRANCH  23  24
ATOM     24  C   UNL A   1      31.692  27.644  23.139  1.00  0.00     0.012 A 
ATOM     25  C   UNL A   1      31.368  28.956  22.763  1.00  0.00     0.015 A 
ATOM     26  C   UNL A   1      30.671  26.768  23.525  1.00  0.00     0.015 A 
ATOM     27  C   UNL A   1      30.033  29.354  22.676  1.00  0.00     0.001 A 
ATOM     28  C   UNL A   1      29.335  27.173  23.447  1.00  0.00     0.001 A 
ATOM     29  C   UNL A   1      29.017  28.457  23.001  1.00  0.00     0.000 A 
ENDBRANCH  23  24
ENDBRANCH  14  23
ENDBRANCH   6   8
ENDBRANCH   3   4
ENDBRANCH   2   3
ENDBRANCH   1   2
BRANCH   1  30
ATOM     30  C   UNL A   1      32.841  30.391  26.364  1.00  0.00     0.116 C 
BRANCH  30  31
ATOM     31  N   UNL A   1      32.597  31.731  26.884  1.00  0.00    -0.352 N 
ATOM     32  C   UNL A   1      33.449  32.521  27.630  1.00  0.00     0.251 C 
ATOM     33  H   UNL A   1      31.717  32.121  26.679  1.00  0.00     0.163 HD
ATOM     34  O   UNL A   1      33.084  33.615  28.047  1.00  0.00    -0.269 OA
BRANCH  32  35
ATOM     35  C   UNL A   1      34.789  31.990  27.960  1.00  0.00     0.039 A 
ATOM     36  C   UNL A   1      35.887  32.853  27.932  1.00  0.00     0.014 A 
ATOM     37  C   UNL A   1      34.920  30.685  28.437  1.00  0.00     0.014 A 
ATOM     38  C   UNL A   1      37.097  32.440  28.496  1.00  0.00     0.010 A 
ATOM     39  C   UNL A   1      36.103  30.306  29.063  1.00  0.00     0.010 A 
ATOM     40  C   UNL A   1      37.196  31.188  29.123  1.00  0.00    -0.014 A 
BRANCH  40  41
ATOM     41  C   UNL A   1      38.412  30.774  29.875  1.00  0.00     0.031 A 
ATOM     42  C   UNL A   1      39.337  29.749  29.277  1.00  0.00     0.074 A 
ATOM     43  C   UNL A   1      38.619  31.224  31.130  1.00  0.00     0.049 A 
ATOM     44  N   UNL A   1      40.332  29.106  29.831  1.00  0.00    -0.248 NA
ATOM     45  C   UNL A   1      39.076  29.369  27.880  1.00  0.00     0.031 C 
ATOM     46  C   UNL A   1      37.772  32.189  31.838  1.00  0.00     0.029 A 
ATOM     47  N   UNL A   1      39.592  30.910  32.049  1.00  0.00    -0.354 N 
ATOM     48  C   UNL A   1      40.790  28.217  28.865  1.00  0.00     0.074 A 
ATOM     49  C   UNL A   1      39.938  28.378  27.706  1.00  0.00     0.031 C 
ATOM     50  C   UNL A   1      38.268  32.393  33.069  1.00  0.00     0.029 A 
ATOM     51  C   UNL A   1      39.435  31.540  33.264  1.00  0.00     0.049 A 
ATOM     52  H   UNL A   1      40.334  30.292  31.855  1.00  0.00     0.167 HD
ATOM     53  C   UNL A   1      41.834  27.355  28.935  1.00  0.00     0.034 A 
ATOM     54  C   UNL A   1      40.137  31.424  34.410  1.00  0.00     0.034 A 
ATOM     55  C   UNL A   1      42.701  27.238  30.081  1.00  0.00     0.049 A 
ATOM     56  C   UNL A   1      41.312  30.477  34.453  1.00  0.00     0.074 A 
ATOM     57  C   UNL A   1      43.825  26.445  30.233  1.00  0.00     0.029 A 
ATOM     58  N   UNL A   1      42.546  27.939  31.269  1.00  0.00    -0.354 N 
ATOM     59  N   UNL A   1      41.755  29.671  33.515  1.00  0.00    -0.248 NA
ATOM     60  C   UNL A   1      42.087  30.429  35.701  1.00  0.00     0.031 C 
ATOM     61  C   UNL A   1      44.321  26.629  31.527  1.00  0.00     0.029 A 
ATOM     62  C   UNL A   1      43.544  27.586  32.161  1.00  0.00     0.049 A 
ATOM     63  H   UNL A   1      41.830  28.591  31.450  1.00  0.00     0.167 HD
ATOM     64  C   UNL A   1      42.885  29.055  34.048  1.00  0.00     0.074 A 
ATOM     65  C   UNL A   1      43.056  29.583  35.384  1.00  0.00     0.031 C 
ATOM     66  C   UNL A   1      43.711  28.141  33.481  1.00  0.00     0.034 A 
BRANCH  53  67
ATOM     67  C   UNL A   1      42.077  26.459  27.747  1.00  0.00     0.023 A 
ATOM     68  C   UNL A   1      41.597  25.139  27.708  1.00  0.00     0.031 A 
ATOM     69  C   UNL A   1      42.812  26.928  26.644  1.00  0.00     0.131 A 
ATOM     70  C   UNL A   1      41.918  24.312  26.623  1.00  0.00     0.055 A 
ATOM     71  C   UNL A   1      43.063  26.123  25.531  1.00  0.00     0.041 A 
ATOM     72  F   UNL A   1      43.311  28.174  26.634  1.00  0.00    -0.206 F 
ATOM     73  C   UNL A   1      42.625  24.802  25.522  1.00  0.00     0.022 A 
BRANCH  70  74
ATOM     74  S   UNL A   1      41.501  22.550  26.724  1.00  0.00     0.124 S 
ATOM     75  O   UNL A   1      42.269  22.134  27.895  1.00  0.00    -0.237 OA
ATOM     76  O   UNL A   1      40.051  22.577  26.889  1.00  0.00    -0.237 OA
ATOM     77  O   UNL A   1      41.973  22.011  25.451  1.00  0.00    -0.744 OA
ENDBRANCH  70  74
ENDBRANCH  53  67
BRANCH  54  78
ATOM     78  C   UNL A   1      39.757  32.205  35.624  1.00  0.00     0.023 A 
ATOM     79  C   UNL A   1      38.920  31.649  36.606  1.00  0.00     0.031 A 
ATOM     80  C   UNL A   1      40.165  33.540  35.788  1.00  0.00     0.131 A 
ATOM     81  C   UNL A   1      38.468  32.442  37.672  1.00  0.00     0.055 A 
ATOM     82  C   UNL A   1      39.758  34.308  36.881  1.00  0.00     0.041 A 
ATOM     83  F   UNL A   1      40.971  34.120  34.884  1.00  0.00    -0.206 F 
ATOM     84  C   UNL A   1      38.889  33.764  37.823  1.00  0.00     0.022 A 
BRANCH  81  85
ATOM     85  S   UNL A   1      37.229  31.748  38.803  1.00  0.00     0.124 S 
ATOM     86  O   UNL A   1      37.938  31.780  40.077  1.00  0.00    -0.237 OA
ATOM     87  O   UNL A   1      36.126  32.694  38.657  1.00  0.00    -0.237 OA
ATOM     88  O   UNL A   1      36.981  30.414  38.259  1.00  0.00    -0.744 OA
ENDBRANCH  81  85
ENDBRANCH  54  78
BRANCH  66  89
ATOM     89  C   UNL A   1      44.920  27.720  34.274  1.00  0.00     0.023 A 
ATOM     90  C   UNL A   1      44.899  26.603  35.126  1.00  0.00     0.031 A 
ATOM     91  C   UNL A   1      46.118  28.446  34.157  1.00  0.00     0.131 A 
ATOM     92  C   UNL A   1      46.046  26.267  35.860  1.00  0.00     0.055 A 
ATOM     93  C   UNL A   1      47.270  28.079  34.853  1.00  0.00     0.041 A 
ATOM     94  F   UNL A   1      46.189  29.521  33.355  1.00  0.00    -0.206 F 
ATOM     95  C   UNL A   1      47.236  26.989  35.717  1.00  0.00     0.022 A 
BRANCH  92  96
ATOM     96  S   UNL A   1      45.952  24.903  37.051  1.00  0.00     0.124 S 
ATOM     97  O   UNL A   1      47.245  24.994  37.721  1.00  0.00    -0.237 OA
ATOM     98  O   UNL A   1      44.791  25.269  37.857  1.00  0.00    -0.237 OA
ATOM     99  O   UNL A   1      45.771  23.722  36.208  1.00  0.00    -0.744 OA
ENDBRANCH  92  96
ENDBRANCH  66  89
ENDBRANCH  40  41
ENDBRANCH  32  35
ENDBRANCH  30  31
ENDBRANCH   1  30
TORSDOF 17
ENDMDL
MODEL 3
REMARK VINA RESULT:     -12.7      5.015      7.505
REMARK SMILES O=C(NCCCCNC(=O)c1ccc(-c2c3nc(c(-c4cc(S(=O)(=O)[O-])ccc4F)c4ccc([nH]4)c(-c4cc(S(=O)(=O)[O-])ccc4F)c4nc(c(-c5cc(S(=O)(=O)[O-])ccc5F)c5ccc2[nH]5)C=C4)C=C3)cc1)C1=Cc2c(ccc(Cl)c2Sc2ccccc2)O[C@H]1C(F)(F)F
REMARK SMILES IDX 6 1 5 2 4 3 3 4 1 5 2 6 74 8 75 9 91 10 76 11 90 12 77 13
REMARK SMILES IDX 82 14 78 15 80 16 79 17 81 18 92 19 93 20 94 21 95 22 83 23
REMARK SMILES IDX 84 24 85 25 89 26 86 27 88 28 87 29 7 30 8 31 9 32 10 34
REMARK SMILES IDX 11 35 12 36 73 37 13 38 72 39 14 40 15 41 16 42 66 43 17 44
REMARK SMILES IDX 71 45 65 46 67 47 18 48 70 49 64 50 63 51 19 53 51 54 31 55
REMARK SMILES IDX 50 56 32 57 35 58 49 59 68 60 33 61 34 62 48 64 69 65 36 66
REMARK SMILES IDX 20 67 21 68 29 69 22 70 28 71 30 72 27 73 23 74 24 75 25 76
REMARK SMILES IDX 26 77 52 78 53 79 61 80 54 81 60 82 62 83 59 84 55 85 56 86
REMARK SMILES IDX 57 87 58 88 37 89 38 90 46 91 39 92 45 93 47 94 44 95 40 96
REMARK SMILES IDX 41 97 42 98 43 99
REMARK H PARENT 3 7 8 33 67 52 35 63
REMARK Flexibility Score: inf
ROOT
ATOM      1  C   UNL A   1      36.928  21.937  23.881  1.00  0.00     0.023 C 
ENDROOT
BRANCH   1   2
ATOM      2  C   UNL A   1      36.001  23.129  23.680  1.00  0.00     0.023 C 
BRANCH   2   3
ATOM      3  C   UNL A   1      34.632  22.993  24.334  1.00  0.00     0.116 C 
BRANCH   3   4
ATOM      4  N   UNL A   1      33.616  22.436  23.461  1.00  0.00    -0.352 N 
ATOM      5  O   UNL A   1      31.529  22.016  22.710  1.00  0.00    -0.270 OA
ATOM      6  C   UNL A   1      32.262  22.623  23.485  1.00  0.00     0.251 C 
ATOM      7  H   UNL A   1      33.948  21.841  22.750  1.00  0.00     0.163 HD
BRANCH   6   8
ATOM      8  C   UNL A   1      31.661  23.541  24.474  1.00  0.00     0.067 C 
ATOM      9  C   UNL A   1      31.134  24.702  24.070  1.00  0.00     0.026 C 
ATOM     10  C   UNL A   1      31.977  23.345  25.919  1.00  0.00     0.314 C 
ATOM     11  C   UNL A   1      31.930  25.864  24.534  1.00  0.00     0.033 A 
ATOM     12  O   UNL A   1      32.560  24.543  26.521  1.00  0.00    -0.475 OA
ATOM     13  C   UNL A   1      32.636  25.684  25.750  1.00  0.00     0.129 A 
ATOM     14  C   UNL A   1      32.130  27.015  23.728  1.00  0.00     0.042 A 
ATOM     15  C   UNL A   1      33.570  26.625  26.164  1.00  0.00     0.049 A 
ATOM     16  C   UNL A   1      33.126  27.925  24.157  1.00  0.00     0.055 A 
ATOM     17  C   UNL A   1      33.835  27.725  25.354  1.00  0.00     0.025 A 
ATOM     18  Cl  UNL A   1      33.607  29.309  23.226  1.00  0.00    -0.083 Cl
BRANCH  10  19
ATOM     19  C   UNL A   1      30.731  22.913  26.706  1.00  0.00     0.429 C 
ATOM     20  F   UNL A   1      30.057  21.906  26.102  1.00  0.00    -0.167 F 
ATOM     21  F   UNL A   1      31.063  22.474  27.944  1.00  0.00    -0.167 F 
ATOM     22  F   UNL A   1      29.854  23.935  26.867  1.00  0.00    -0.167 F 
ENDBRANCH  10  19
BRANCH  14  23
ATOM     23  S   UNL A   1      31.319  27.319  22.128  1.00  0.00    -0.088 SA
BRANCH  23  24
ATOM     24  C   UNL A   1      29.952  28.412  22.450  1.00  0.00     0.012 A 
ATOM     25  C   UNL A   1      30.017  29.736  21.994  1.00  0.00     0.015 A 
ATOM     26  C   UNL A   1      28.779  27.951  23.058  1.00  0.00     0.015 A 
ATOM     27  C   UNL A   1      28.889  30.556  22.051  1.00  0.00     0.001 A 
ATOM     28  C   UNL A   1      27.653  28.777  23.123  1.00  0.00     0.001 A 
ATOM     29  C   UNL A   1      27.703  30.070  22.600  1.00  0.00     0.000 A 
ENDBRANCH  23  24
ENDBRANCH  14  23
ENDBRANCH   6   8
ENDBRANCH   3   4
ENDBRANCH   2   3
ENDBRANCH   1   2
BRANCH   1  30
ATOM     30  C   UNL A   1      37.332  21.638  25.323  1.00  0.00     0.116 C 
BRANCH  30  31
ATOM     31  N   UNL A   1      38.343  20.597  25.464  1.00  0.00    -0.352 N 
ATOM     32  C   UNL A   1      39.557  20.673  26.118  1.00  0.00     0.251 C 
ATOM     33  H   UNL A   1      38.136  19.733  25.040  1.00  0.00     0.163 HD
ATOM     34  O   UNL A   1      40.335  19.725  26.107  1.00  0.00    -0.269 OA
BRANCH  32  35
ATOM     35  C   UNL A   1      39.917  21.945  26.780  1.00  0.00     0.039 A 
ATOM     36  C   UNL A   1      40.876  21.934  27.795  1.00  0.00     0.014 A 
ATOM     37  C   UNL A   1      39.414  23.151  26.288  1.00  0.00     0.014 A 
ATOM     38  C   UNL A   1      41.420  23.143  28.238  1.00  0.00     0.010 A 
ATOM     39  C   UNL A   1      40.011  24.346  26.679  1.00  0.00     0.010 A 
ATOM     40  C   UNL A   1      41.038  24.353  27.638  1.00  0.00    -0.014 A 
BRANCH  40  41
ATOM     41  C   UNL A   1      41.705  25.643  27.966  1.00  0.00     0.031 A 
ATOM     42  C   UNL A   1      40.932  26.711  28.689  1.00  0.00     0.074 A 
ATOM     43  C   UNL A   1      42.950  25.895  27.512  1.00  0.00     0.049 A 
ATOM     44  N   UNL A   1      41.246  27.964  28.898  1.00  0.00    -0.248 NA
ATOM     45  C   UNL A   1      39.611  26.326  29.208  1.00  0.00     0.031 C 
ATOM     46  C   UNL A   1      43.789  24.955  26.762  1.00  0.00     0.029 A 
ATOM     47  N   UNL A   1      43.723  27.029  27.591  1.00  0.00    -0.354 N 
ATOM     48  C   UNL A   1      40.145  28.526  29.536  1.00  0.00     0.074 A 
ATOM     49  C   UNL A   1      39.144  27.486  29.643  1.00  0.00     0.031 C 
ATOM     50  C   UNL A   1      44.957  25.548  26.462  1.00  0.00     0.029 A 
ATOM     51  C   UNL A   1      44.937  26.923  26.947  1.00  0.00     0.049 A 
ATOM     52  H   UNL A   1      43.435  27.843  28.065  1.00  0.00     0.167 HD
ATOM     53  C   UNL A   1      39.991  29.790  30.002  1.00  0.00     0.034 A 
ATOM     54  C   UNL A   1      45.910  27.837  26.751  1.00  0.00     0.034 A 
ATOM     55  C   UNL A   1      41.015  30.802  29.928  1.00  0.00     0.049 A 
ATOM     56  C   UNL A   1      45.724  29.229  27.303  1.00  0.00     0.074 A 
ATOM     57  C   UNL A   1      40.987  32.093  30.425  1.00  0.00     0.029 A 
ATOM     58  N   UNL A   1      42.254  30.635  29.324  1.00  0.00    -0.354 N 
ATOM     59  N   UNL A   1      44.691  29.733  27.939  1.00  0.00    -0.248 NA
ATOM     60  C   UNL A   1      46.836  30.174  27.121  1.00  0.00     0.031 C 
ATOM     61  C   UNL A   1      42.188  32.722  30.081  1.00  0.00     0.029 A 
ATOM     62  C   UNL A   1      42.991  31.803  29.425  1.00  0.00     0.049 A 
ATOM     63  H   UNL A   1      42.562  29.808  28.887  1.00  0.00     0.167 HD
ATOM     64  C   UNL A   1      45.049  31.037  28.270  1.00  0.00     0.074 A 
ATOM     65  C   UNL A   1      46.390  31.242  27.766  1.00  0.00     0.031 C 
ATOM     66  C   UNL A   1      44.336  31.979  28.936  1.00  0.00     0.034 A 
BRANCH  53  67
ATOM     67  C   UNL A   1      38.659  30.149  30.610  1.00  0.00     0.023 A 
ATOM     68  C   UNL A   1      37.651  30.778  29.860  1.00  0.00     0.031 A 
ATOM     69  C   UNL A   1      38.400  29.871  31.964  1.00  0.00     0.131 A 
ATOM     70  C   UNL A   1      36.460  31.173  30.486  1.00  0.00     0.055 A 
ATOM     71  C   UNL A   1      37.181  30.197  32.561  1.00  0.00     0.041 A 
ATOM     72  F   UNL A   1      39.333  29.287  32.733  1.00  0.00    -0.206 F 
ATOM     73  C   UNL A   1      36.207  30.864  31.824  1.00  0.00     0.022 A 
BRANCH  70  74
ATOM     74  S   UNL A   1      35.294  32.205  29.555  1.00  0.00     0.124 S 
ATOM     75  O   UNL A   1      34.353  32.598  30.600  1.00  0.00    -0.237 OA
ATOM     76  O   UNL A   1      36.153  33.264  29.037  1.00  0.00    -0.237 OA
ATOM     77  O   UNL A   1      34.756  31.291  28.550  1.00  0.00    -0.744 OA
ENDBRANCH  70  74
ENDBRANCH  53  67
BRANCH  54  78
ATOM     78  C   UNL A   1      47.145  27.488  25.989  1.00  0.00     0.023 A 
ATOM     79  C   UNL A   1      47.271  27.818  24.630  1.00  0.00     0.031 A 
ATOM     80  C   UNL A   1      48.189  26.760  26.588  1.00  0.00     0.131 A 
ATOM     81  C   UNL A   1      48.382  27.368  23.899  1.00  0.00     0.055 A 
ATOM     82  C   UNL A   1      49.319  26.363  25.871  1.00  0.00     0.041 A 
ATOM     83  F   UNL A   1      48.125  26.425  27.887  1.00  0.00    -0.206 F 
ATOM     84  C   UNL A   1      49.412  26.652  24.512  1.00  0.00     0.022 A 
BRANCH  81  85
ATOM     85  S   UNL A   1      48.406  27.638  22.105  1.00  0.00     0.124 S 
ATOM     86  O   UNL A   1      48.618  26.285  21.603  1.00  0.00    -0.237 OA
ATOM     87  O   UNL A   1      47.085  28.212  21.869  1.00  0.00    -0.237 OA
ATOM     88  O   UNL A   1      49.527  28.557  21.915  1.00  0.00    -0.744 OA
ENDBRANCH  81  85
ENDBRANCH  54  78
BRANCH  66  89
ATOM     89  C   UNL A   1      45.026  33.285  29.231  1.00  0.00     0.023 A 
ATOM     90  C   UNL A   1      44.894  34.403  28.390  1.00  0.00     0.031 A 
ATOM     91  C   UNL A   1      45.817  33.410  30.387  1.00  0.00     0.131 A 
ATOM     92  C   UNL A   1      45.577  35.589  28.699  1.00  0.00     0.055 A 
ATOM     93  C   UNL A   1      46.456  34.606  30.713  1.00  0.00     0.041 A 
ATOM     94  F   UNL A   1      45.974  32.370  31.223  1.00  0.00    -0.206 F 
ATOM     95  C   UNL A   1      46.345  35.702  29.863  1.00  0.00     0.022 A 
BRANCH  92  96
ATOM     96  S   UNL A   1      45.496  36.972  27.529  1.00  0.00     0.124 S 
ATOM     97  O   UNL A   1      44.284  36.664  26.777  1.00  0.00    -0.237 OA
ATOM     98  O   UNL A   1      45.419  38.129  28.416  1.00  0.00    -0.237 OA
ATOM     99  O   UNL A   1      46.743  36.856  26.772  1.00  0.00    -0.744 OA
ENDBRANCH  92  96
ENDBRANCH  66  89
ENDBRANCH  40  41
ENDBRANCH  32  35
ENDBRANCH  30  31
ENDBRANCH   1  30
TORSDOF 17
ENDMDL
