MODEL 1
REMARK VINA RESULT:     -12.6      0.000      0.000
REMARK SMILES Cc1nccn1CCC[NH+]1CCC2(CC1)[C@@H](C(=O)NCCCCNC(=O)c1ccc(-c3c4nc(c(-c5cc(S(=O)(=O)[O-])ccc5F)c5ccc([nH]5)c(-c5cc(S(=O)(=O)[O-])ccc5F)c5nc(c(-c6cc(S(=O)(=O)[O-])ccc6F)c6ccc3[nH]6)C=C5)C=C4)cc1)CC(=O)N2C
REMARK SMILES IDX 21 1 20 2 19 3 17 4 18 5 16 7 10 8 11 9 15 10 12 12 14 13
REMARK SMILES IDX 13 14 93 15 90 16 91 17 94 18 92 19 9 20 8 21 7 22 6 23 1 24
REMARK SMILES IDX 2 25 3 26 4 27 5 28 22 29 23 30 24 31 25 32 26 34 27 35
REMARK SMILES IDX 28 36 89 37 29 38 88 39 30 40 31 41 32 42 82 43 33 44 87 45
REMARK SMILES IDX 81 46 83 47 34 48 86 49 80 50 79 51 35 53 67 54 47 55 66 56
REMARK SMILES IDX 48 57 51 58 65 59 84 60 49 61 50 62 64 64 85 65 52 66 36 67
REMARK SMILES IDX 37 68 45 69 38 70 44 71 46 72 43 73 39 74 40 75 41 76 42 77
REMARK SMILES IDX 68 78 69 79 77 80 70 81 76 82 78 83 75 84 71 85 72 86 73 87
REMARK SMILES IDX 74 88 53 89 54 90 62 91 55 92 61 93 63 94 60 95 56 96 57 97
REMARK SMILES IDX 58 98 59 99
REMARK H PARENT 19 6 10 11 24 33 83 52 51 63
REMARK Flexibility Score: inf
ROOT
ATOM      1  C   UNL A   1      32.837  28.213  27.326  1.00  0.00     0.023 C 
ENDROOT
BRANCH   1   2
ATOM      2  C   UNL A   1      31.519  27.942  26.600  1.00  0.00     0.116 C 
BRANCH   2   3
ATOM      3  N   UNL A   1      30.923  26.662  26.929  1.00  0.00    -0.356 N 
ATOM      4  C   UNL A   1      30.680  25.522  26.235  1.00  0.00     0.226 C 
ATOM      5  O   UNL A   1      30.164  24.650  26.941  1.00  0.00    -0.275 OA
ATOM      6  H   UNL A   1      30.629  26.608  27.867  1.00  0.00     0.163 HD
BRANCH   4   7
ATOM      7  C   UNL A   1      30.779  25.386  24.698  1.00  0.00     0.114 C 
ATOM      8  N   UNL A   1      34.544  23.477  23.755  1.00  0.00    -0.335 N 
ATOM      9  C   UNL A   1      33.609  23.575  22.657  1.00  0.00     0.264 C 
ATOM     10  C   UNL A   1      34.747  24.722  24.468  1.00  0.00     0.264 C 
ATOM     11  H   UNL A   1      35.458  23.374  23.314  1.00  0.00     0.348 HD
ATOM     12  C   UNL A   1      32.234  24.032  23.113  1.00  0.00     0.091 C 
ATOM     13  C   UNL A   1      33.448  25.379  24.949  1.00  0.00     0.091 C 
ATOM     14  C   UNL A   1      32.220  25.317  23.997  1.00  0.00     0.065 C 
ATOM     15  N   UNL A   1      32.169  26.470  23.068  1.00  0.00    -0.339 N 
ATOM     16  C   UNL A   1      29.994  26.413  23.888  1.00  0.00     0.116 C 
ATOM     17  C   UNL A   1      30.894  26.929  22.818  1.00  0.00     0.223 C 
ATOM     18  C   UNL A   1      33.291  27.064  22.373  1.00  0.00     0.147 C 
ATOM     19  O   UNL A   1      30.542  27.682  21.934  1.00  0.00    -0.275 OA
BRANCH   8  20
ATOM     20  C   UNL A   1      34.684  22.196  24.430  1.00  0.00     0.264 C 
BRANCH  20  21
ATOM     21  C   UNL A   1      35.945  21.785  25.211  1.00  0.00     0.083 C 
BRANCH  21  22
ATOM     22  C   UNL A   1      37.344  22.053  24.658  1.00  0.00     0.129 C 
BRANCH  22  23
ATOM     23  N   UNL A   1      38.537  21.949  25.474  1.00  0.00    -0.335 N 
ATOM     24  C   UNL A   1      38.269  24.224  26.571  1.00  0.00     0.087 C 
ATOM     25  C   UNL A   1      38.892  22.881  26.439  1.00  0.00     0.105 A 
ATOM     26  N   UNL A   1      39.822  22.397  27.238  1.00  0.00    -0.242 NA
ATOM     27  C   UNL A   1      40.108  21.151  26.762  1.00  0.00     0.131 A 
ATOM     28  C   UNL A   1      39.362  20.872  25.642  1.00  0.00     0.107 A 
ENDBRANCH  22  23
ENDBRANCH  21  22
ENDBRANCH  20  21
ENDBRANCH   8  20
ENDBRANCH   4   7
ENDBRANCH   2   3
ENDBRANCH   1   2
BRANCH   1  29
ATOM     29  C   UNL A   1      33.919  28.987  26.566  1.00  0.00     0.023 C 
BRANCH  29  30
ATOM     30  C   UNL A   1      35.303  28.965  27.199  1.00  0.00     0.116 C 
BRANCH  30  31
ATOM     31  N   UNL A   1      35.400  29.785  28.397  1.00  0.00    -0.352 N 
ATOM     32  C   UNL A   1      36.407  29.765  29.344  1.00  0.00     0.251 C 
ATOM     33  H   UNL A   1      34.668  30.425  28.551  1.00  0.00     0.163 HD
ATOM     34  O   UNL A   1      36.214  30.241  30.457  1.00  0.00    -0.269 OA
BRANCH  32  35
ATOM     35  C   UNL A   1      37.701  29.144  29.000  1.00  0.00     0.039 A 
ATOM     36  C   UNL A   1      38.411  29.566  27.873  1.00  0.00     0.014 A 
ATOM     37  C   UNL A   1      38.217  28.146  29.828  1.00  0.00     0.014 A 
ATOM     38  C   UNL A   1      39.682  29.042  27.638  1.00  0.00     0.010 A 
ATOM     39  C   UNL A   1      39.510  27.697  29.649  1.00  0.00     0.010 A 
ATOM     40  C   UNL A   1      40.243  28.127  28.547  1.00  0.00    -0.014 A 
BRANCH  40  41
ATOM     41  C   UNL A   1      41.663  27.774  28.445  1.00  0.00     0.031 A 
ATOM     42  C   UNL A   1      41.921  26.514  27.690  1.00  0.00     0.074 A 
ATOM     43  C   UNL A   1      42.686  28.588  28.786  1.00  0.00     0.049 A 
ATOM     44  N   UNL A   1      42.386  25.401  28.151  1.00  0.00    -0.248 NA
ATOM     45  C   UNL A   1      41.466  26.425  26.292  1.00  0.00     0.031 C 
ATOM     46  C   UNL A   1      42.619  29.967  29.274  1.00  0.00     0.029 A 
ATOM     47  N   UNL A   1      44.030  28.383  28.660  1.00  0.00    -0.354 N 
ATOM     48  C   UNL A   1      42.515  24.549  27.058  1.00  0.00     0.074 A 
ATOM     49  C   UNL A   1      41.752  25.154  26.001  1.00  0.00     0.031 C 
ATOM     50  C   UNL A   1      43.839  30.541  29.179  1.00  0.00     0.029 A 
ATOM     51  C   UNL A   1      44.807  29.536  28.770  1.00  0.00     0.049 A 
ATOM     52  H   UNL A   1      44.420  27.493  28.504  1.00  0.00     0.167 HD
ATOM     53  C   UNL A   1      43.438  23.545  27.057  1.00  0.00     0.034 A 
ATOM     54  C   UNL A   1      46.139  29.669  28.522  1.00  0.00     0.034 A 
ATOM     55  C   UNL A   1      43.909  23.279  28.401  1.00  0.00     0.049 A 
ATOM     56  C   UNL A   1      46.732  28.314  28.646  1.00  0.00     0.074 A 
ATOM     57  C   UNL A   1      43.289  22.949  29.593  1.00  0.00     0.029 A 
ATOM     58  N   UNL A   1      45.160  23.735  28.759  1.00  0.00    -0.354 N 
ATOM     59  N   UNL A   1      46.785  27.663  29.774  1.00  0.00    -0.248 NA
ATOM     60  C   UNL A   1      46.812  27.488  27.450  1.00  0.00     0.031 C 
ATOM     61  C   UNL A   1      43.967  23.723  30.581  1.00  0.00     0.029 A 
ATOM     62  C   UNL A   1      45.022  24.392  29.957  1.00  0.00     0.049 A 
ATOM     63  H   UNL A   1      45.995  23.613  28.252  1.00  0.00     0.167 HD
ATOM     64  C   UNL A   1      46.445  26.360  29.447  1.00  0.00     0.074 A 
ATOM     65  C   UNL A   1      46.574  26.290  27.992  1.00  0.00     0.031 C 
ATOM     66  C   UNL A   1      45.813  25.545  30.345  1.00  0.00     0.034 A 
BRANCH  53  67
ATOM     67  C   UNL A   1      44.197  23.061  25.837  1.00  0.00     0.023 A 
ATOM     68  C   UNL A   1      44.218  21.669  25.609  1.00  0.00     0.031 A 
ATOM     69  C   UNL A   1      45.126  23.813  25.083  1.00  0.00     0.131 A 
ATOM     70  C   UNL A   1      45.204  21.081  24.799  1.00  0.00     0.055 A 
ATOM     71  C   UNL A   1      46.058  23.227  24.219  1.00  0.00     0.041 A 
ATOM     72  F   UNL A   1      45.251  25.140  25.197  1.00  0.00    -0.206 F 
ATOM     73  C   UNL A   1      46.129  21.851  24.103  1.00  0.00     0.022 A 
BRANCH  70  74
ATOM     74  S   UNL A   1      45.377  19.279  24.841  1.00  0.00     0.124 S 
ATOM     75  O   UNL A   1      44.280  18.905  25.728  1.00  0.00    -0.237 OA
ATOM     76  O   UNL A   1      45.217  18.930  23.433  1.00  0.00    -0.237 OA
ATOM     77  O   UNL A   1      46.718  19.081  25.385  1.00  0.00    -0.744 OA
ENDBRANCH  70  74
ENDBRANCH  53  67
BRANCH  54  78
ATOM     78  C   UNL A   1      46.874  30.831  27.941  1.00  0.00     0.023 A 
ATOM     79  C   UNL A   1      46.264  31.776  27.083  1.00  0.00     0.031 A 
ATOM     80  C   UNL A   1      48.151  31.172  28.442  1.00  0.00     0.131 A 
ATOM     81  C   UNL A   1      46.921  32.993  26.771  1.00  0.00     0.055 A 
ATOM     82  C   UNL A   1      48.794  32.374  28.132  1.00  0.00     0.041 A 
ATOM     83  F   UNL A   1      48.782  30.388  29.329  1.00  0.00    -0.206 F 
ATOM     84  C   UNL A   1      48.176  33.296  27.304  1.00  0.00     0.022 A 
BRANCH  81  85
ATOM     85  S   UNL A   1      46.105  34.266  25.750  1.00  0.00     0.124 S 
ATOM     86  O   UNL A   1      47.215  34.791  24.963  1.00  0.00    -0.237 OA
ATOM     87  O   UNL A   1      45.099  33.497  25.026  1.00  0.00    -0.237 OA
ATOM     88  O   UNL A   1      45.561  35.198  26.739  1.00  0.00    -0.744 OA
ENDBRANCH  81  85
ENDBRANCH  54  78
BRANCH  66  89
ATOM     89  C   UNL A   1      45.747  25.968  31.800  1.00  0.00     0.023 A 
ATOM     90  C   UNL A   1      44.626  26.561  32.428  1.00  0.00     0.031 A 
ATOM     91  C   UNL A   1      46.847  25.643  32.614  1.00  0.00     0.131 A 
ATOM     92  C   UNL A   1      44.645  26.816  33.814  1.00  0.00     0.055 A 
ATOM     93  C   UNL A   1      46.852  25.873  33.988  1.00  0.00     0.041 A 
ATOM     94  F   UNL A   1      47.935  25.057  32.087  1.00  0.00    -0.206 F 
ATOM     95  C   UNL A   1      45.753  26.467  34.593  1.00  0.00     0.022 A 
BRANCH  92  96
ATOM     96  S   UNL A   1      43.235  27.633  34.634  1.00  0.00     0.124 S 
ATOM     97  O   UNL A   1      43.222  28.966  34.046  1.00  0.00    -0.237 OA
ATOM     98  O   UNL A   1      42.116  26.764  34.277  1.00  0.00    -0.237 OA
ATOM     99  O   UNL A   1      43.601  27.597  36.051  1.00  0.00    -0.744 OA
ENDBRANCH  92  96
ENDBRANCH  66  89
ENDBRANCH  40  41
ENDBRANCH  32  35
ENDBRANCH  30  31
ENDBRANCH  29  30
ENDBRANCH   1  29
TORSDOF 18
ENDMDL
MODEL 2
REMARK VINA RESULT:     -12.2      3.014      8.216
REMARK SMILES Cc1nccn1CCC[NH+]1CCC2(CC1)[C@@H](C(=O)NCCCCNC(=O)c1ccc(-c3c4nc(c(-c5cc(S(=O)(=O)[O-])ccc5F)c5ccc([nH]5)c(-c5cc(S(=O)(=O)[O-])ccc5F)c5nc(c(-c6cc(S(=O)(=O)[O-])ccc6F)c6ccc3[nH]6)C=C5)C=C4)cc1)CC(=O)N2C
REMARK SMILES IDX 21 1 20 2 19 3 17 4 18 5 16 7 10 8 11 9 15 10 12 12 14 13
REMARK SMILES IDX 13 14 93 15 90 16 91 17 94 18 92 19 9 20 8 21 7 22 6 23 1 24
REMARK SMILES IDX 2 25 3 26 4 27 5 28 22 29 23 30 24 31 25 32 26 34 27 35
REMARK SMILES IDX 28 36 89 37 29 38 88 39 30 40 31 41 32 42 82 43 33 44 87 45
REMARK SMILES IDX 81 46 83 47 34 48 86 49 80 50 79 51 35 53 67 54 47 55 66 56
REMARK SMILES IDX 48 57 51 58 65 59 84 60 49 61 50 62 64 64 85 65 52 66 36 67
REMARK SMILES IDX 37 68 45 69 38 70 44 71 46 72 43 73 39 74 40 75 41 76 42 77
REMARK SMILES IDX 68 78 69 79 77 80 70 81 76 82 78 83 75 84 71 85 72 86 73 87
REMARK SMILES IDX 74 88 53 89 54 90 62 91 55 92 61 93 63 94 60 95 56 96 57 97
REMARK SMILES IDX 58 98 59 99
REMARK H PARENT 19 6 10 11 24 33 83 52 51 63
REMARK Flexibility Score: inf
ROOT
ATOM      1  C   UNL A   1      32.842  28.607  27.112  1.00  0.00     0.023 C 
ENDROOT
BRANCH   1   2
ATOM      2  C   UNL A   1      31.458  28.034  26.804  1.00  0.00     0.116 C 
BRANCH   2   3
ATOM      3  N   UNL A   1      31.360  26.602  27.006  1.00  0.00    -0.356 N 
ATOM      4  C   UNL A   1      32.099  25.535  26.610  1.00  0.00     0.226 C 
ATOM      5  O   UNL A   1      31.648  24.471  27.048  1.00  0.00    -0.275 OA
ATOM      6  H   UNL A   1      30.582  26.347  27.553  1.00  0.00     0.163 HD
BRANCH   4   7
ATOM      7  C   UNL A   1      33.211  25.579  25.538  1.00  0.00     0.114 C 
ATOM      8  N   UNL A   1      31.704  27.768  22.125  1.00  0.00    -0.335 N 
ATOM      9  C   UNL A   1      33.126  27.511  22.115  1.00  0.00     0.264 C 
ATOM     10  C   UNL A   1      30.896  26.597  22.401  1.00  0.00     0.264 C 
ATOM     11  H   UNL A   1      31.458  27.928  21.148  1.00  0.00     0.348 HD
ATOM     12  C   UNL A   1      33.619  26.958  23.441  1.00  0.00     0.091 C 
ATOM     13  C   UNL A   1      31.298  25.853  23.679  1.00  0.00     0.091 C 
ATOM     14  C   UNL A   1      32.818  25.738  23.991  1.00  0.00     0.065 C 
ATOM     15  N   UNL A   1      33.425  24.527  23.391  1.00  0.00    -0.339 N 
ATOM     16  C   UNL A   1      34.216  24.433  25.575  1.00  0.00     0.116 C 
ATOM     17  C   UNL A   1      34.387  23.935  24.181  1.00  0.00     0.223 C 
ATOM     18  C   UNL A   1      33.161  23.997  22.070  1.00  0.00     0.147 C 
ATOM     19  O   UNL A   1      35.199  23.096  23.850  1.00  0.00    -0.275 OA
BRANCH   8  20
ATOM     20  C   UNL A   1      31.245  29.098  22.497  1.00  0.00     0.264 C 
BRANCH  20  21
ATOM     21  C   UNL A   1      29.812  29.395  22.973  1.00  0.00     0.083 C 
BRANCH  21  22
ATOM     22  C   UNL A   1      28.658  29.541  21.981  1.00  0.00     0.129 C 
BRANCH  22  23
ATOM     23  N   UNL A   1      28.163  30.832  21.546  1.00  0.00    -0.335 N 
ATOM     24  C   UNL A   1      28.017  31.824  23.880  1.00  0.00     0.087 C 
ATOM     25  C   UNL A   1      27.991  31.915  22.396  1.00  0.00     0.105 A 
ATOM     26  N   UNL A   1      27.842  33.030  21.711  1.00  0.00    -0.242 NA
ATOM     27  C   UNL A   1      27.874  32.664  20.396  1.00  0.00     0.131 A 
ATOM     28  C   UNL A   1      28.021  31.303  20.271  1.00  0.00     0.107 A 
ENDBRANCH  22  23
ENDBRANCH  21  22
ENDBRANCH  20  21
ENDBRANCH   8  20
ENDBRANCH   4   7
ENDBRANCH   2   3
ENDBRANCH   1   2
BRANCH   1  29
ATOM     29  C   UNL A   1      32.963  30.126  27.268  1.00  0.00     0.023 C 
BRANCH  29  30
ATOM     30  C   UNL A   1      34.362  30.641  27.573  1.00  0.00     0.116 C 
BRANCH  30  31
ATOM     31  N   UNL A   1      34.392  31.622  28.647  1.00  0.00    -0.352 N 
ATOM     32  C   UNL A   1      35.312  31.707  29.675  1.00  0.00     0.251 C 
ATOM     33  H   UNL A   1      33.679  32.300  28.642  1.00  0.00     0.163 HD
ATOM     34  O   UNL A   1      35.046  32.346  30.687  1.00  0.00    -0.269 OA
BRANCH  32  35
ATOM     35  C   UNL A   1      36.603  31.003  29.542  1.00  0.00     0.039 A 
ATOM     36  C   UNL A   1      37.806  31.708  29.631  1.00  0.00     0.014 A 
ATOM     37  C   UNL A   1      36.605  29.621  29.348  1.00  0.00     0.014 A 
ATOM     38  C   UNL A   1      39.007  31.000  29.615  1.00  0.00     0.010 A 
ATOM     39  C   UNL A   1      37.788  28.913  29.426  1.00  0.00     0.010 A 
ATOM     40  C   UNL A   1      38.994  29.596  29.544  1.00  0.00    -0.014 A 
BRANCH  40  41
ATOM     41  C   UNL A   1      40.228  28.841  29.784  1.00  0.00     0.031 A 
ATOM     42  C   UNL A   1      40.514  28.589  31.225  1.00  0.00     0.074 A 
ATOM     43  C   UNL A   1      40.949  28.217  28.825  1.00  0.00     0.049 A 
ATOM     44  N   UNL A   1      41.485  29.066  31.930  1.00  0.00    -0.248 NA
ATOM     45  C   UNL A   1      39.522  27.845  32.020  1.00  0.00     0.031 C 
ATOM     46  C   UNL A   1      40.655  28.121  27.394  1.00  0.00     0.029 A 
ATOM     47  N   UNL A   1      42.060  27.434  28.954  1.00  0.00    -0.354 N 
ATOM     48  C   UNL A   1      41.371  28.490  33.192  1.00  0.00     0.074 A 
ATOM     49  C   UNL A   1      40.050  27.925  33.244  1.00  0.00     0.031 C 
ATOM     50  C   UNL A   1      41.416  27.150  26.839  1.00  0.00     0.029 A 
ATOM     51  C   UNL A   1      42.357  26.659  27.833  1.00  0.00     0.049 A 
ATOM     52  H   UNL A   1      42.607  27.417  29.771  1.00  0.00     0.167 HD
ATOM     53  C   UNL A   1      42.464  28.326  33.990  1.00  0.00     0.034 A 
ATOM     54  C   UNL A   1      43.287  25.670  27.729  1.00  0.00     0.034 A 
ATOM     55  C   UNL A   1      43.565  29.148  33.529  1.00  0.00     0.049 A 
ATOM     56  C   UNL A   1      44.287  25.912  28.797  1.00  0.00     0.074 A 
ATOM     57  C   UNL A   1      43.723  30.501  33.287  1.00  0.00     0.029 A 
ATOM     58  N   UNL A   1      44.601  28.537  32.854  1.00  0.00    -0.354 N 
ATOM     59  N   UNL A   1      45.075  26.951  28.810  1.00  0.00    -0.248 NA
ATOM     60  C   UNL A   1      44.076  25.279  30.091  1.00  0.00     0.031 C 
ATOM     61  C   UNL A   1      44.475  30.568  32.076  1.00  0.00     0.029 A 
ATOM     62  C   UNL A   1      44.822  29.266  31.711  1.00  0.00     0.049 A 
ATOM     63  H   UNL A   1      45.089  27.732  33.138  1.00  0.00     0.167 HD
ATOM     64  C   UNL A   1      45.086  27.371  30.130  1.00  0.00     0.074 A 
ATOM     65  C   UNL A   1      44.538  26.247  30.889  1.00  0.00     0.031 C 
ATOM     66  C   UNL A   1      45.261  28.688  30.455  1.00  0.00     0.034 A 
BRANCH  53  67
ATOM     67  C   UNL A   1      42.682  27.166  34.942  1.00  0.00     0.023 A 
ATOM     68  C   UNL A   1      43.495  26.109  34.484  1.00  0.00     0.031 A 
ATOM     69  C   UNL A   1      41.927  26.892  36.105  1.00  0.00     0.131 A 
ATOM     70  C   UNL A   1      43.425  24.834  35.069  1.00  0.00     0.055 A 
ATOM     71  C   UNL A   1      41.919  25.639  36.729  1.00  0.00     0.041 A 
ATOM     72  F   UNL A   1      41.090  27.777  36.655  1.00  0.00    -0.206 F 
ATOM     73  C   UNL A   1      42.638  24.589  36.189  1.00  0.00     0.022 A 
BRANCH  70  74
ATOM     74  S   UNL A   1      44.225  23.456  34.208  1.00  0.00     0.124 S 
ATOM     75  O   UNL A   1      45.447  24.090  33.723  1.00  0.00    -0.237 OA
ATOM     76  O   UNL A   1      44.385  22.483  35.284  1.00  0.00    -0.237 OA
ATOM     77  O   UNL A   1      43.256  23.093  33.178  1.00  0.00    -0.744 OA
ENDBRANCH  70  74
ENDBRANCH  53  67
BRANCH  54  78
ATOM     78  C   UNL A   1      43.226  24.404  26.940  1.00  0.00     0.023 A 
ATOM     79  C   UNL A   1      42.289  23.377  27.204  1.00  0.00     0.031 A 
ATOM     80  C   UNL A   1      43.942  24.302  25.725  1.00  0.00     0.131 A 
ATOM     81  C   UNL A   1      42.097  22.323  26.275  1.00  0.00     0.055 A 
ATOM     82  C   UNL A   1      43.748  23.261  24.813  1.00  0.00     0.041 A 
ATOM     83  F   UNL A   1      44.793  25.263  25.336  1.00  0.00    -0.206 F 
ATOM     84  C   UNL A   1      42.815  22.272  25.079  1.00  0.00     0.022 A 
BRANCH  81  85
ATOM     85  S   UNL A   1      40.821  21.048  26.553  1.00  0.00     0.124 S 
ATOM     86  O   UNL A   1      39.656  21.627  25.893  1.00  0.00    -0.237 OA
ATOM     87  O   UNL A   1      41.406  19.870  25.925  1.00  0.00    -0.237 OA
ATOM     88  O   UNL A   1      40.725  20.976  28.012  1.00  0.00    -0.744 OA
ENDBRANCH  81  85
ENDBRANCH  54  78
BRANCH  66  89
ATOM     89  C   UNL A   1      45.740  29.650  29.384  1.00  0.00     0.023 A 
ATOM     90  C   UNL A   1      44.904  30.357  28.488  1.00  0.00     0.031 A 
ATOM     91  C   UNL A   1      47.115  29.945  29.355  1.00  0.00     0.131 A 
ATOM     92  C   UNL A   1      45.457  31.305  27.603  1.00  0.00     0.055 A 
ATOM     93  C   UNL A   1      47.654  30.902  28.497  1.00  0.00     0.041 A 
ATOM     94  F   UNL A   1      47.963  29.327  30.194  1.00  0.00    -0.206 F 
ATOM     95  C   UNL A   1      46.828  31.580  27.612  1.00  0.00     0.022 A 
BRANCH  92  96
ATOM     96  S   UNL A   1      44.407  32.184  26.400  1.00  0.00     0.124 S 
ATOM     97  O   UNL A   1      43.455  31.169  25.967  1.00  0.00    -0.237 OA
ATOM     98  O   UNL A   1      43.857  33.277  27.199  1.00  0.00    -0.237 OA
ATOM     99  O   UNL A   1      45.356  32.608  25.368  1.00  0.00    -0.744 OA
ENDBRANCH  92  96
ENDBRANCH  66  89
ENDBRANCH  40  41
ENDBRANCH  32  35
ENDBRANCH  30  31
ENDBRANCH  29  30
ENDBRANCH   1  29
TORSDOF 18
ENDMDL
MODEL 3
REMARK VINA RESULT:     -12.1      2.671      7.055
REMARK SMILES Cc1nccn1CCC[NH+]1CCC2(CC1)[C@@H](C(=O)NCCCCNC(=O)c1ccc(-c3c4nc(c(-c5cc(S(=O)(=O)[O-])ccc5F)c5ccc([nH]5)c(-c5cc(S(=O)(=O)[O-])ccc5F)c5nc(c(-c6cc(S(=O)(=O)[O-])ccc6F)c6ccc3[nH]6)C=C5)C=C4)cc1)CC(=O)N2C
REMARK SMILES IDX 21 1 20 2 19 3 17 4 18 5 16 7 10 8 11 9 15 10 12 12 14 13
REMARK SMILES IDX 13 14 93 15 90 16 91 17 94 18 92 19 9 20 8 21 7 22 6 23 1 24
REMARK SMILES IDX 2 25 3 26 4 27 5 28 22 29 23 30 24 31 25 32 26 34 27 35
REMARK SMILES IDX 28 36 89 37 29 38 88 39 30 40 31 41 32 42 82 43 33 44 87 45
REMARK SMILES IDX 81 46 83 47 34 48 86 49 80 50 79 51 35 53 67 54 47 55 66 56
REMARK SMILES IDX 48 57 51 58 65 59 84 60 49 61 50 62 64 64 85 65 52 66 36 67
REMARK SMILES IDX 37 68 45 69 38 70 44 71 46 72 43 73 39 74 40 75 41 76 42 77
REMARK SMILES IDX 68 78 69 79 77 80 70 81 76 82 78 83 75 84 71 85 72 86 73 87
REMARK SMILES IDX 74 88 53 89 54 90 62 91 55 92 61 93 63 94 60 95 56 96 57 97
REMARK SMILES IDX 58 98 59 99
REMARK H PARENT 19 6 10 11 24 33 83 52 51 63
REMARK Flexibility Score: inf
ROOT
ATOM      1  C   UNL A   1      32.916  28.121  26.911  1.00  0.00     0.023 C 
ENDROOT
BRANCH   1   2
ATOM      2  C   UNL A   1      31.534  27.789  26.347  1.00  0.00     0.116 C 
BRANCH   2   3
ATOM      3  N   UNL A   1      31.008  26.516  26.799  1.00  0.00    -0.356 N 
ATOM      4  C   UNL A   1      30.916  25.279  26.251  1.00  0.00     0.226 C 
ATOM      5  O   UNL A   1      30.404  24.464  27.026  1.00  0.00    -0.275 OA
ATOM      6  H   UNL A   1      30.634  26.560  27.708  1.00  0.00     0.163 HD
BRANCH   4   7
ATOM      7  C   UNL A   1      31.166  24.952  24.760  1.00  0.00     0.114 C 
ATOM      8  N   UNL A   1      35.098  23.184  24.410  1.00  0.00    -0.335 N 
ATOM      9  C   UNL A   1      34.267  23.080  23.232  1.00  0.00     0.264 C 
ATOM     10  C   UNL A   1      35.167  24.521  24.965  1.00  0.00     0.264 C 
ATOM     11  H   UNL A   1      36.054  23.085  24.068  1.00  0.00     0.348 HD
ATOM     12  C   UNL A   1      32.833  23.502  23.503  1.00  0.00     0.091 C 
ATOM     13  C   UNL A   1      33.797  25.150  25.240  1.00  0.00     0.091 C 
ATOM     14  C   UNL A   1      32.669  24.887  24.202  1.00  0.00     0.065 C 
ATOM     15  N   UNL A   1      32.644  25.904  23.126  1.00  0.00    -0.339 N 
ATOM     16  C   UNL A   1      30.408  25.814  23.755  1.00  0.00     0.116 C 
ATOM     17  C   UNL A   1      31.376  26.245  22.707  1.00  0.00     0.223 C 
ATOM     18  C   UNL A   1      33.793  26.475  22.456  1.00  0.00     0.147 C 
ATOM     19  O   UNL A   1      31.069  26.853  21.704  1.00  0.00    -0.275 OA
BRANCH   8  20
ATOM     20  C   UNL A   1      35.241  22.013  25.261  1.00  0.00     0.264 C 
BRANCH  20  21
ATOM     21  C   UNL A   1      35.209  20.570  24.727  1.00  0.00     0.083 C 
BRANCH  21  22
ATOM     22  C   UNL A   1      34.057  19.623  25.062  1.00  0.00     0.129 C 
BRANCH  22  23
ATOM     23  N   UNL A   1      33.872  18.353  24.390  1.00  0.00    -0.335 N 
ATOM     24  C   UNL A   1      32.138  19.211  22.744  1.00  0.00     0.087 C 
ATOM     25  C   UNL A   1      33.094  18.191  23.253  1.00  0.00     0.105 A 
ATOM     26  N   UNL A   1      33.346  17.036  22.671  1.00  0.00    -0.242 NA
ATOM     27  C   UNL A   1      34.270  16.417  23.463  1.00  0.00     0.131 A 
ATOM     28  C   UNL A   1      34.572  17.191  24.558  1.00  0.00     0.107 A 
ENDBRANCH  22  23
ENDBRANCH  21  22
ENDBRANCH  20  21
ENDBRANCH   8  20
ENDBRANCH   4   7
ENDBRANCH   2   3
ENDBRANCH   1   2
BRANCH   1  29
ATOM     29  C   UNL A   1      33.504  29.497  26.584  1.00  0.00     0.023 C 
BRANCH  29  30
ATOM     30  C   UNL A   1      34.097  30.251  27.765  1.00  0.00     0.116 C 
BRANCH  30  31
ATOM     31  N   UNL A   1      34.677  31.533  27.397  1.00  0.00    -0.352 N 
ATOM     32  C   UNL A   1      35.896  32.046  27.798  1.00  0.00     0.251 C 
ATOM     33  H   UNL A   1      34.142  32.099  26.794  1.00  0.00     0.163 HD
ATOM     34  O   UNL A   1      36.119  33.247  27.704  1.00  0.00    -0.269 OA
BRANCH  32  35
ATOM     35  C   UNL A   1      36.909  31.130  28.359  1.00  0.00     0.039 A 
ATOM     36  C   UNL A   1      36.936  29.785  27.977  1.00  0.00     0.014 A 
ATOM     37  C   UNL A   1      37.853  31.628  29.257  1.00  0.00     0.014 A 
ATOM     38  C   UNL A   1      37.972  28.973  28.435  1.00  0.00     0.010 A 
ATOM     39  C   UNL A   1      38.929  30.850  29.634  1.00  0.00     0.010 A 
ATOM     40  C   UNL A   1      38.987  29.516  29.241  1.00  0.00    -0.014 A 
BRANCH  40  41
ATOM     41  C   UNL A   1      40.202  28.740  29.510  1.00  0.00     0.031 A 
ATOM     42  C   UNL A   1      40.492  28.551  30.960  1.00  0.00     0.074 A 
ATOM     43  C   UNL A   1      40.898  28.051  28.578  1.00  0.00     0.049 A 
ATOM     44  N   UNL A   1      41.481  29.035  31.635  1.00  0.00    -0.248 NA
ATOM     45  C   UNL A   1      39.486  27.875  31.797  1.00  0.00     0.031 C 
ATOM     46  C   UNL A   1      40.590  27.893  27.155  1.00  0.00     0.029 A 
ATOM     47  N   UNL A   1      41.988  27.245  28.738  1.00  0.00    -0.354 N 
ATOM     48  C   UNL A   1      41.361  28.525  32.924  1.00  0.00     0.074 A 
ATOM     49  C   UNL A   1      40.026  27.999  33.012  1.00  0.00     0.031 C 
ATOM     50  C   UNL A   1      41.320  26.876  26.644  1.00  0.00     0.029 A 
ATOM     51  C   UNL A   1      42.255  26.407  27.654  1.00  0.00     0.049 A 
ATOM     52  H   UNL A   1      42.540  27.253  29.551  1.00  0.00     0.167 HD
ATOM     53  C   UNL A   1      42.456  28.370  33.721  1.00  0.00     0.034 A 
ATOM     54  C   UNL A   1      43.157  25.389  27.592  1.00  0.00     0.034 A 
ATOM     55  C   UNL A   1      43.575  29.137  33.213  1.00  0.00     0.049 A 
ATOM     56  C   UNL A   1      44.172  25.655  28.641  1.00  0.00     0.074 A 
ATOM     57  C   UNL A   1      43.768  30.472  32.904  1.00  0.00     0.029 A 
ATOM     58  N   UNL A   1      44.589  28.466  32.563  1.00  0.00    -0.354 N 
ATOM     59  N   UNL A   1      44.988  26.672  28.598  1.00  0.00    -0.248 NA
ATOM     60  C   UNL A   1      43.953  25.093  29.965  1.00  0.00     0.031 C 
ATOM     61  C   UNL A   1      44.513  30.459  31.687  1.00  0.00     0.029 A 
ATOM     62  C   UNL A   1      44.821  29.131  31.383  1.00  0.00     0.049 A 
ATOM     63  H   UNL A   1      45.057  27.662  32.883  1.00  0.00     0.167 HD
ATOM     64  C   UNL A   1      45.020  27.155  29.896  1.00  0.00     0.074 A 
ATOM     65  C   UNL A   1      44.448  26.085  30.712  1.00  0.00     0.031 C 
ATOM     66  C   UNL A   1      45.234  28.481  30.154  1.00  0.00     0.034 A 
BRANCH  53  67
ATOM     67  C   UNL A   1      42.650  27.252  34.728  1.00  0.00     0.023 A 
ATOM     68  C   UNL A   1      43.477  26.178  34.338  1.00  0.00     0.031 A 
ATOM     69  C   UNL A   1      41.863  27.025  35.879  1.00  0.00     0.131 A 
ATOM     70  C   UNL A   1      43.394  24.929  34.975  1.00  0.00     0.055 A 
ATOM     71  C   UNL A   1      41.840  25.800  36.556  1.00  0.00     0.041 A 
ATOM     72  F   UNL A   1      41.010  27.930  36.368  1.00  0.00    -0.206 F 
ATOM     73  C   UNL A   1      42.576  24.730  36.082  1.00  0.00     0.022 A 
BRANCH  70  74
ATOM     74  S   UNL A   1      44.220  23.518  34.195  1.00  0.00     0.124 S 
ATOM     75  O   UNL A   1      43.196  23.066  33.259  1.00  0.00    -0.237 OA
ATOM     76  O   UNL A   1      45.399  24.149  33.609  1.00  0.00    -0.237 OA
ATOM     77  O   UNL A   1      44.485  22.621  35.317  1.00  0.00    -0.744 OA
ENDBRANCH  70  74
ENDBRANCH  53  67
BRANCH  54  78
ATOM     78  C   UNL A   1      43.055  24.089  26.867  1.00  0.00     0.023 A 
ATOM     79  C   UNL A   1      44.077  23.597  26.022  1.00  0.00     0.031 A 
ATOM     80  C   UNL A   1      42.032  23.176  27.208  1.00  0.00     0.131 A 
ATOM     81  C   UNL A   1      44.051  22.254  25.568  1.00  0.00     0.055 A 
ATOM     82  C   UNL A   1      42.011  21.852  26.758  1.00  0.00     0.041 A 
ATOM     83  F   UNL A   1      41.059  23.511  28.070  1.00  0.00    -0.206 F 
ATOM     84  C   UNL A   1      43.028  21.382  25.945  1.00  0.00     0.022 A 
BRANCH  81  85
ATOM     85  S   UNL A   1      45.415  21.576  24.562  1.00  0.00     0.124 S 
ATOM     86  O   UNL A   1      44.699  20.823  23.538  1.00  0.00    -0.237 OA
ATOM     87  O   UNL A   1      46.112  22.778  24.119  1.00  0.00    -0.237 OA
ATOM     88  O   UNL A   1      46.164  20.755  25.514  1.00  0.00    -0.744 OA
ENDBRANCH  81  85
ENDBRANCH  54  78
BRANCH  66  89
ATOM     89  C   UNL A   1      45.731  29.376  29.034  1.00  0.00     0.023 A 
ATOM     90  C   UNL A   1      44.955  30.350  28.362  1.00  0.00     0.031 A 
ATOM     91  C   UNL A   1      47.100  29.308  28.718  1.00  0.00     0.131 A 
ATOM     92  C   UNL A   1      45.555  31.196  27.407  1.00  0.00     0.055 A 
ATOM     93  C   UNL A   1      47.694  30.164  27.793  1.00  0.00     0.041 A 
ATOM     94  F   UNL A   1      47.898  28.422  29.335  1.00  0.00    -0.206 F 
ATOM     95  C   UNL A   1      46.922  31.107  27.128  1.00  0.00     0.022 A 
BRANCH  92  96
ATOM     96  S   UNL A   1      44.563  32.417  26.487  1.00  0.00     0.124 S 
ATOM     97  O   UNL A   1      45.541  33.083  25.636  1.00  0.00    -0.237 OA
ATOM     98  O   UNL A   1      43.584  31.578  25.801  1.00  0.00    -0.237 OA
ATOM     99  O   UNL A   1      44.001  33.262  27.543  1.00  0.00    -0.744 OA
ENDBRANCH  92  96
ENDBRANCH  66  89
ENDBRANCH  40  41
ENDBRANCH  32  35
ENDBRANCH  30  31
ENDBRANCH  29  30
ENDBRANCH   1  29
TORSDOF 18
ENDMDL
