MODEL 1
REMARK VINA RESULT:     -11.5      0.000      0.000
REMARK SMILES Cc1nsc(N(C)C(=O)[C@@H](C)CCC[C@H](C)[NH3+])c1C(=O)NCCCCNC(=O)c1ccc(-c2c3nc(c(-c4cc(S(=O)(=O)[O-])ccc4F)c4ccc([nH]4)c(-c4cc(S(=O)(=O)[O-])ccc4F)c4nc(c(-c5cc(S(=O)(=O)[O-])ccc5F)c5ccc2[nH]5)C=C4)C=C3)cc1
REMARK SMILES IDX 19 1 20 2 21 3 18 5 1 6 2 7 3 8 4 9 5 10 6 11 7 12 8 13 9 14
REMARK SMILES IDX 10 15 11 16 12 17 13 18 14 19 15 20 16 21 17 22 22 26 23 27
REMARK SMILES IDX 24 28 25 29 26 30 27 31 28 33 29 34 30 35 91 36 31 37 90 38
REMARK SMILES IDX 32 39 33 40 34 41 84 42 35 43 89 44 83 45 85 46 36 47 88 48
REMARK SMILES IDX 82 49 81 50 37 52 69 53 49 54 68 55 50 56 53 57 67 58 86 59
REMARK SMILES IDX 51 60 52 61 66 63 87 64 54 65 38 66 39 67 47 68 40 69 46 70
REMARK SMILES IDX 48 71 45 72 41 73 42 74 43 75 44 76 70 77 71 78 79 79 72 80
REMARK SMILES IDX 78 81 80 82 77 83 73 84 74 85 75 86 76 87 55 88 56 89 64 90
REMARK SMILES IDX 57 91 63 92 65 93 62 94 58 95 59 96 60 97 61 98
REMARK H PARENT 21 4 17 23 17 24 17 25 26 32 85 51 53 62
REMARK Flexibility Score: inf
ROOT
ATOM      1  C   UNL A   1      33.382  26.148  24.301  1.00  0.00     0.256 C 
ATOM      2  O   UNL A   1      33.950  25.645  23.327  1.00  0.00    -0.269 OA
ATOM      3  N   UNL A   1      33.740  27.452  24.572  1.00  0.00    -0.352 N 
ATOM      4  H   UNL A   1      34.710  27.614  24.620  1.00  0.00     0.163 HD
ENDROOT
BRANCH   1   5
ATOM      5  C   UNL A   1      32.504  25.328  25.154  1.00  0.00     0.097 A 
ATOM      6  C   UNL A   1      30.948  27.025  26.550  1.00  0.00     0.069 C 
ATOM      7  C   UNL A   1      31.427  25.698  26.082  1.00  0.00     0.066 A 
ATOM      8  N   UNL A   1      30.695  24.694  26.566  1.00  0.00    -0.195 NA
ATOM      9  S   UNL A   1      31.179  23.294  25.904  1.00  0.00    -0.017 S 
ATOM     10  C   UNL A   1      32.539  23.917  25.068  1.00  0.00     0.131 A 
BRANCH  10  11
ATOM     11  N   UNL A   1      33.403  22.958  24.455  1.00  0.00    -0.305 N 
ATOM     12  C   UNL A   1      32.974  22.157  23.305  1.00  0.00     0.154 C 
BRANCH  11  13
ATOM     13  C   UNL A   1      34.624  22.702  25.085  1.00  0.00     0.230 C 
ATOM     14  O   UNL A   1      34.814  23.000  26.274  1.00  0.00    -0.274 OA
BRANCH  13  15
ATOM     15  C   UNL A   1      35.747  21.898  24.378  1.00  0.00     0.076 C 
ATOM     16  C   UNL A   1      36.684  22.855  23.629  1.00  0.00     0.018 C 
BRANCH  15  17
ATOM     17  C   UNL A   1      36.558  20.848  25.158  1.00  0.00     0.013 C 
BRANCH  17  18
ATOM     18  C   UNL A   1      36.340  19.388  24.742  1.00  0.00     0.007 C 
BRANCH  18  19
ATOM     19  C   UNL A   1      34.876  18.920  24.685  1.00  0.00     0.064 C 
BRANCH  19  20
ATOM     20  C   UNL A   1      34.726  17.385  24.569  1.00  0.00     0.177 C 
ATOM     21  C   UNL A   1      34.133  16.971  23.221  1.00  0.00     0.075 C 
BRANCH  20  22
ATOM     22  N   UNL A   1      33.884  16.836  25.631  1.00  0.00    -0.355 N 
ATOM     23  H   UNL A   1      33.799  15.826  25.509  1.00  0.00     0.344 HD
ATOM     24  H   UNL A   1      32.958  17.263  25.586  1.00  0.00     0.344 HD
ATOM     25  H   UNL A   1      34.307  17.035  26.537  1.00  0.00     0.344 HD
ENDBRANCH  20  22
ENDBRANCH  19  20
ENDBRANCH  18  19
ENDBRANCH  17  18
ENDBRANCH  15  17
ENDBRANCH  13  15
ENDBRANCH  11  13
ENDBRANCH  10  11
ENDBRANCH   1   5
BRANCH   3  26
ATOM     26  C   UNL A   1      32.917  28.618  24.793  1.00  0.00     0.116 C 
BRANCH  26  27
ATOM     27  C   UNL A   1      33.362  29.492  25.967  1.00  0.00     0.023 C 
BRANCH  27  28
ATOM     28  C   UNL A   1      34.107  28.765  27.101  1.00  0.00     0.023 C 
BRANCH  28  29
ATOM     29  C   UNL A   1      35.483  29.324  27.473  1.00  0.00     0.116 C 
BRANCH  29  30
ATOM     30  N   UNL A   1      35.580  29.798  28.857  1.00  0.00    -0.352 N 
ATOM     31  C   UNL A   1      36.508  29.428  29.826  1.00  0.00     0.251 C 
ATOM     32  H   UNL A   1      34.905  30.459  29.135  1.00  0.00     0.163 HD
ATOM     33  O   UNL A   1      36.251  29.528  31.013  1.00  0.00    -0.269 OA
BRANCH  31  34
ATOM     34  C   UNL A   1      37.829  28.948  29.374  1.00  0.00     0.039 A 
ATOM     35  C   UNL A   1      38.483  29.440  28.240  1.00  0.00     0.014 A 
ATOM     36  C   UNL A   1      38.423  27.978  30.170  1.00  0.00     0.014 A 
ATOM     37  C   UNL A   1      39.779  28.994  27.969  1.00  0.00     0.010 A 
ATOM     38  C   UNL A   1      39.752  27.707  30.027  1.00  0.00     0.010 A 
ATOM     39  C   UNL A   1      40.405  28.131  28.878  1.00  0.00    -0.014 A 
BRANCH  39  40
ATOM     40  C   UNL A   1      41.788  27.699  28.744  1.00  0.00     0.031 A 
ATOM     41  C   UNL A   1      41.969  26.472  27.930  1.00  0.00     0.074 A 
ATOM     42  C   UNL A   1      42.813  28.528  29.046  1.00  0.00     0.049 A 
ATOM     43  N   UNL A   1      42.300  25.298  28.349  1.00  0.00    -0.248 NA
ATOM     44  C   UNL A   1      41.557  26.495  26.516  1.00  0.00     0.031 C 
ATOM     45  C   UNL A   1      42.748  29.913  29.532  1.00  0.00     0.029 A 
ATOM     46  N   UNL A   1      44.142  28.361  28.832  1.00  0.00    -0.354 N 
ATOM     47  C   UNL A   1      42.421  24.512  27.208  1.00  0.00     0.074 A 
ATOM     48  C   UNL A   1      41.691  25.209  26.185  1.00  0.00     0.031 C 
ATOM     49  C   UNL A   1      43.934  30.523  29.315  1.00  0.00     0.029 A 
ATOM     50  C   UNL A   1      44.883  29.541  28.819  1.00  0.00     0.049 A 
ATOM     51  H   UNL A   1      44.551  27.476  28.697  1.00  0.00     0.167 HD
ATOM     52  C   UNL A   1      43.352  23.518  27.134  1.00  0.00     0.034 A 
ATOM     53  C   UNL A   1      46.159  29.700  28.368  1.00  0.00     0.034 A 
ATOM     54  C   UNL A   1      43.928  23.263  28.443  1.00  0.00     0.049 A 
ATOM     55  C   UNL A   1      46.780  28.344  28.420  1.00  0.00     0.074 A 
ATOM     56  C   UNL A   1      43.397  22.963  29.686  1.00  0.00     0.029 A 
ATOM     57  N   UNL A   1      45.199  23.739  28.696  1.00  0.00    -0.354 N 
ATOM     58  N   UNL A   1      46.947  27.681  29.536  1.00  0.00    -0.248 NA
ATOM     59  C   UNL A   1      46.704  27.516  27.224  1.00  0.00     0.031 C 
ATOM     60  C   UNL A   1      44.133  23.780  30.595  1.00  0.00     0.029 A 
ATOM     61  C   UNL A   1      45.147  24.428  29.884  1.00  0.00     0.049 A 
ATOM     62  H   UNL A   1      45.994  23.610  28.129  1.00  0.00     0.167 HD
ATOM     63  C   UNL A   1      46.548  26.382  29.250  1.00  0.00     0.074 A 
ATOM     64  C   UNL A   1      46.499  26.320  27.787  1.00  0.00     0.031 C 
ATOM     65  C   UNL A   1      45.986  25.573  30.201  1.00  0.00     0.034 A 
BRANCH  52  66
ATOM     66  C   UNL A   1      44.033  23.036  25.869  1.00  0.00     0.023 A 
ATOM     67  C   UNL A   1      43.937  21.659  25.585  1.00  0.00     0.031 A 
ATOM     68  C   UNL A   1      44.975  23.750  25.095  1.00  0.00     0.131 A 
ATOM     69  C   UNL A   1      44.824  21.037  24.691  1.00  0.00     0.055 A 
ATOM     70  C   UNL A   1      45.806  23.138  24.150  1.00  0.00     0.041 A 
ATOM     71  F   UNL A   1      45.219  25.053  25.259  1.00  0.00    -0.206 F 
ATOM     72  C   UNL A   1      45.761  21.768  23.971  1.00  0.00     0.022 A 
BRANCH  69  73
ATOM     73  S   UNL A   1      44.852  19.228  24.644  1.00  0.00     0.124 S 
ATOM     74  O   UNL A   1      43.430  18.913  24.731  1.00  0.00    -0.237 OA
ATOM     75  O   UNL A   1      45.493  18.973  23.359  1.00  0.00    -0.237 OA
ATOM     76  O   UNL A   1      45.644  18.873  25.820  1.00  0.00    -0.744 OA
ENDBRANCH  69  73
ENDBRANCH  52  66
BRANCH  53  77
ATOM     77  C   UNL A   1      46.691  30.860  27.580  1.00  0.00     0.023 A 
ATOM     78  C   UNL A   1      45.864  31.842  26.982  1.00  0.00     0.031 A 
ATOM     79  C   UNL A   1      48.079  31.144  27.585  1.00  0.00     0.131 A 
ATOM     80  C   UNL A   1      46.431  33.020  26.425  1.00  0.00     0.055 A 
ATOM     81  C   UNL A   1      48.632  32.300  27.029  1.00  0.00     0.041 A 
ATOM     82  F   UNL A   1      48.954  30.342  28.211  1.00  0.00    -0.206 F 
ATOM     83  C   UNL A   1      47.809  33.249  26.453  1.00  0.00     0.022 A 
BRANCH  80  84
ATOM     84  S   UNL A   1      45.377  34.339  25.730  1.00  0.00     0.124 S 
ATOM     85  O   UNL A   1      44.959  33.763  24.457  1.00  0.00    -0.237 OA
ATOM     86  O   UNL A   1      44.343  34.487  26.748  1.00  0.00    -0.237 OA
ATOM     87  O   UNL A   1      46.288  35.480  25.617  1.00  0.00    -0.744 OA
ENDBRANCH  80  84
ENDBRANCH  53  77
BRANCH  65  88
ATOM     88  C   UNL A   1      46.036  25.985  31.666  1.00  0.00     0.023 A 
ATOM     89  C   UNL A   1      44.939  26.464  32.419  1.00  0.00     0.031 A 
ATOM     90  C   UNL A   1      47.231  25.719  32.362  1.00  0.00     0.131 A 
ATOM     91  C   UNL A   1      45.068  26.659  33.812  1.00  0.00     0.055 A 
ATOM     92  C   UNL A   1      47.346  25.888  33.741  1.00  0.00     0.041 A 
ATOM     93  F   UNL A   1      48.305  25.240  31.713  1.00  0.00    -0.206 F 
ATOM     94  C   UNL A   1      46.265  26.363  34.472  1.00  0.00     0.022 A 
BRANCH  91  95
ATOM     95  S   UNL A   1      43.686  27.322  34.800  1.00  0.00     0.124 S 
ATOM     96  O   UNL A   1      43.452  26.285  35.798  1.00  0.00    -0.237 OA
ATOM     97  O   UNL A   1      44.228  28.582  35.299  1.00  0.00    -0.237 OA
ATOM     98  O   UNL A   1      42.609  27.471  33.817  1.00  0.00    -0.744 OA
ENDBRANCH  91  95
ENDBRANCH  65  88
ENDBRANCH  39  40
ENDBRANCH  31  34
ENDBRANCH  29  30
ENDBRANCH  28  29
ENDBRANCH  27  28
ENDBRANCH  26  27
ENDBRANCH   3  26
TORSDOF 22
ENDMDL
MODEL 2
REMARK VINA RESULT:     -11.2      3.767      8.745
REMARK SMILES Cc1nsc(N(C)C(=O)[C@@H](C)CCC[C@H](C)[NH3+])c1C(=O)NCCCCNC(=O)c1ccc(-c2c3nc(c(-c4cc(S(=O)(=O)[O-])ccc4F)c4ccc([nH]4)c(-c4cc(S(=O)(=O)[O-])ccc4F)c4nc(c(-c5cc(S(=O)(=O)[O-])ccc5F)c5ccc2[nH]5)C=C4)C=C3)cc1
REMARK SMILES IDX 19 1 20 2 21 3 18 5 1 6 2 7 3 8 4 9 5 10 6 11 7 12 8 13 9 14
REMARK SMILES IDX 10 15 11 16 12 17 13 18 14 19 15 20 16 21 17 22 22 26 23 27
REMARK SMILES IDX 24 28 25 29 26 30 27 31 28 33 29 34 30 35 91 36 31 37 90 38
REMARK SMILES IDX 32 39 33 40 34 41 84 42 35 43 89 44 83 45 85 46 36 47 88 48
REMARK SMILES IDX 82 49 81 50 37 52 69 53 49 54 68 55 50 56 53 57 67 58 86 59
REMARK SMILES IDX 51 60 52 61 66 63 87 64 54 65 38 66 39 67 47 68 40 69 46 70
REMARK SMILES IDX 48 71 45 72 41 73 42 74 43 75 44 76 70 77 71 78 79 79 72 80
REMARK SMILES IDX 78 81 80 82 77 83 73 84 74 85 75 86 76 87 55 88 56 89 64 90
REMARK SMILES IDX 57 91 63 92 65 93 62 94 58 95 59 96 60 97 61 98
REMARK H PARENT 21 4 17 23 17 24 17 25 26 32 85 51 53 62
REMARK Flexibility Score: inf
ROOT
ATOM      1  C   UNL A   1      34.109  23.214  23.879  1.00  0.00     0.256 C 
ATOM      2  O   UNL A   1      34.256  24.249  23.223  1.00  0.00    -0.269 OA
ATOM      3  N   UNL A   1      35.123  22.290  23.740  1.00  0.00    -0.352 N 
ATOM      4  H   UNL A   1      35.362  22.074  22.810  1.00  0.00     0.163 HD
ENDROOT
BRANCH   1   5
ATOM      5  C   UNL A   1      32.861  22.980  24.628  1.00  0.00     0.097 A 
ATOM      6  C   UNL A   1      32.170  20.409  24.229  1.00  0.00     0.069 C 
ATOM      7  C   UNL A   1      32.055  21.768  24.820  1.00  0.00     0.066 A 
ATOM      8  N   UNL A   1      31.071  21.849  25.716  1.00  0.00    -0.195 NA
ATOM      9  S   UNL A   1      31.094  23.310  26.422  1.00  0.00    -0.017 S 
ATOM     10  C   UNL A   1      32.308  24.004  25.431  1.00  0.00     0.131 A 
BRANCH  10  11
ATOM     11  N   UNL A   1      32.540  25.403  25.597  1.00  0.00    -0.305 N 
ATOM     12  C   UNL A   1      33.885  25.941  25.824  1.00  0.00     0.154 C 
BRANCH  11  13
ATOM     13  C   UNL A   1      31.419  26.233  25.682  1.00  0.00     0.230 C 
ATOM     14  O   UNL A   1      30.978  26.614  26.778  1.00  0.00    -0.274 OA
BRANCH  13  15
ATOM     15  C   UNL A   1      30.762  26.842  24.417  1.00  0.00     0.076 C 
ATOM     16  C   UNL A   1      29.330  26.312  24.262  1.00  0.00     0.018 C 
BRANCH  15  17
ATOM     17  C   UNL A   1      30.804  28.362  24.175  1.00  0.00     0.013 C 
BRANCH  17  18
ATOM     18  C   UNL A   1      30.790  28.808  22.707  1.00  0.00     0.007 C 
BRANCH  18  19
ATOM     19  C   UNL A   1      29.488  29.465  22.220  1.00  0.00     0.064 C 
BRANCH  19  20
ATOM     20  C   UNL A   1      29.110  30.739  23.010  1.00  0.00     0.177 C 
ATOM     21  C   UNL A   1      27.616  30.782  23.339  1.00  0.00     0.075 C 
BRANCH  20  22
ATOM     22  N   UNL A   1      29.456  31.958  22.281  1.00  0.00    -0.355 N 
ATOM     23  H   UNL A   1      30.471  32.030  22.203  1.00  0.00     0.344 HD
ATOM     24  H   UNL A   1      29.096  32.769  22.785  1.00  0.00     0.344 HD
ATOM     25  H   UNL A   1      29.044  31.926  21.349  1.00  0.00     0.344 HD
ENDBRANCH  20  22
ENDBRANCH  19  20
ENDBRANCH  18  19
ENDBRANCH  17  18
ENDBRANCH  15  17
ENDBRANCH  13  15
ENDBRANCH  11  13
ENDBRANCH  10  11
ENDBRANCH   1   5
BRANCH   3  26
ATOM     26  C   UNL A   1      35.892  21.591  24.744  1.00  0.00     0.116 C 
BRANCH  26  27
ATOM     27  C   UNL A   1      36.072  22.363  26.053  1.00  0.00     0.023 C 
BRANCH  27  28
ATOM     28  C   UNL A   1      37.072  23.532  26.013  1.00  0.00     0.023 C 
BRANCH  28  29
ATOM     29  C   UNL A   1      38.514  23.175  25.646  1.00  0.00     0.116 C 
BRANCH  29  30
ATOM     30  N   UNL A   1      39.209  22.378  26.662  1.00  0.00    -0.352 N 
ATOM     31  C   UNL A   1      40.225  22.784  27.522  1.00  0.00     0.251 C 
ATOM     32  H   UNL A   1      38.921  21.440  26.745  1.00  0.00     0.163 HD
ATOM     33  O   UNL A   1      41.008  21.978  27.993  1.00  0.00    -0.269 OA
BRANCH  31  34
ATOM     34  C   UNL A   1      40.301  24.214  27.879  1.00  0.00     0.039 A 
ATOM     35  C   UNL A   1      39.181  25.043  27.988  1.00  0.00     0.014 A 
ATOM     36  C   UNL A   1      41.574  24.703  28.141  1.00  0.00     0.014 A 
ATOM     37  C   UNL A   1      39.359  26.353  28.442  1.00  0.00     0.010 A 
ATOM     38  C   UNL A   1      41.720  25.900  28.779  1.00  0.00     0.010 A 
ATOM     39  C   UNL A   1      40.638  26.765  28.842  1.00  0.00    -0.014 A 
BRANCH  39  40
ATOM     40  C   UNL A   1      40.907  28.068  29.431  1.00  0.00     0.031 A 
ATOM     41  C   UNL A   1      41.913  28.875  28.698  1.00  0.00     0.074 A 
ATOM     42  C   UNL A   1      40.073  28.608  30.349  1.00  0.00     0.049 A 
ATOM     43  N   UNL A   1      43.115  29.155  29.073  1.00  0.00    -0.248 NA
ATOM     44  C   UNL A   1      41.627  29.264  27.305  1.00  0.00     0.031 C 
ATOM     45  C   UNL A   1      38.833  28.039  30.895  1.00  0.00     0.029 A 
ATOM     46  N   UNL A   1      40.071  29.857  30.877  1.00  0.00    -0.354 N 
ATOM     47  C   UNL A   1      43.627  29.998  28.093  1.00  0.00     0.074 A 
ATOM     48  C   UNL A   1      42.798  29.791  26.938  1.00  0.00     0.031 C 
ATOM     49  C   UNL A   1      38.087  29.023  31.443  1.00  0.00     0.029 A 
ATOM     50  C   UNL A   1      38.854  30.257  31.424  1.00  0.00     0.049 A 
ATOM     51  H   UNL A   1      40.867  30.436  30.874  1.00  0.00     0.167 HD
ATOM     52  C   UNL A   1      44.497  31.000  28.412  1.00  0.00     0.034 A 
ATOM     53  C   UNL A   1      38.491  31.525  31.770  1.00  0.00     0.034 A 
ATOM     54  C   UNL A   1      44.970  30.847  29.776  1.00  0.00     0.049 A 
ATOM     55  C   UNL A   1      39.766  32.271  31.976  1.00  0.00     0.074 A 
ATOM     56  C   UNL A   1      45.572  29.815  30.475  1.00  0.00     0.029 A 
ATOM     57  N   UNL A   1      44.447  31.683  30.742  1.00  0.00    -0.354 N 
ATOM     58  N   UNL A   1      40.633  31.955  32.904  1.00  0.00    -0.248 NA
ATOM     59  C   UNL A   1      40.326  32.988  30.837  1.00  0.00     0.031 C 
ATOM     60  C   UNL A   1      44.903  29.799  31.735  1.00  0.00     0.029 A 
ATOM     61  C   UNL A   1      44.032  30.891  31.786  1.00  0.00     0.049 A 
ATOM     62  H   UNL A   1      44.382  32.664  30.691  1.00  0.00     0.167 HD
ATOM     63  C   UNL A   1      41.872  32.018  32.281  1.00  0.00     0.074 A 
ATOM     64  C   UNL A   1      41.627  32.749  31.036  1.00  0.00     0.031 C 
ATOM     65  C   UNL A   1      42.911  31.208  32.656  1.00  0.00     0.034 A 
BRANCH  52  66
ATOM     66  C   UNL A   1      44.637  32.317  27.675  1.00  0.00     0.023 A 
ATOM     67  C   UNL A   1      44.037  33.442  28.275  1.00  0.00     0.031 A 
ATOM     68  C   UNL A   1      45.056  32.494  26.338  1.00  0.00     0.131 A 
ATOM     69  C   UNL A   1      43.758  34.601  27.531  1.00  0.00     0.055 A 
ATOM     70  C   UNL A   1      44.844  33.679  25.623  1.00  0.00     0.041 A 
ATOM     71  F   UNL A   1      45.609  31.521  25.610  1.00  0.00    -0.206 F 
ATOM     72  C   UNL A   1      44.157  34.727  26.206  1.00  0.00     0.022 A 
BRANCH  69  73
ATOM     73  S   UNL A   1      42.690  35.855  28.281  1.00  0.00     0.124 S 
ATOM     74  O   UNL A   1      42.870  35.578  29.703  1.00  0.00    -0.237 OA
ATOM     75  O   UNL A   1      43.286  37.090  27.784  1.00  0.00    -0.237 OA
ATOM     76  O   UNL A   1      41.369  35.537  27.745  1.00  0.00    -0.744 OA
ENDBRANCH  69  73
ENDBRANCH  52  66
BRANCH  53  77
ATOM     77  C   UNL A   1      37.147  32.158  31.559  1.00  0.00     0.023 A 
ATOM     78  C   UNL A   1      36.593  32.405  30.280  1.00  0.00     0.031 A 
ATOM     79  C   UNL A   1      36.269  32.340  32.656  1.00  0.00     0.131 A 
ATOM     80  C   UNL A   1      35.239  32.818  30.148  1.00  0.00     0.055 A 
ATOM     81  C   UNL A   1      34.942  32.754  32.522  1.00  0.00     0.041 A 
ATOM     82  F   UNL A   1      36.645  32.040  33.909  1.00  0.00    -0.206 F 
ATOM     83  C   UNL A   1      34.417  32.987  31.264  1.00  0.00     0.022 A 
BRANCH  80  84
ATOM     84  S   UNL A   1      34.480  33.055  28.505  1.00  0.00     0.124 S 
ATOM     85  O   UNL A   1      35.607  33.527  27.708  1.00  0.00    -0.237 OA
ATOM     86  O   UNL A   1      33.975  31.723  28.194  1.00  0.00    -0.237 OA
ATOM     87  O   UNL A   1      33.440  34.058  28.751  1.00  0.00    -0.744 OA
ENDBRANCH  80  84
ENDBRANCH  53  77
BRANCH  65  88
ATOM     88  C   UNL A   1      42.815  30.409  33.948  1.00  0.00     0.023 A 
ATOM     89  C   UNL A   1      42.280  29.105  34.067  1.00  0.00     0.031 A 
ATOM     90  C   UNL A   1      43.452  30.951  35.080  1.00  0.00     0.131 A 
ATOM     91  C   UNL A   1      42.394  28.401  35.285  1.00  0.00     0.055 A 
ATOM     92  C   UNL A   1      43.587  30.243  36.274  1.00  0.00     0.041 A 
ATOM     93  F   UNL A   1      44.004  32.175  35.031  1.00  0.00    -0.206 F 
ATOM     94  C   UNL A   1      43.054  28.965  36.382  1.00  0.00     0.022 A 
BRANCH  91  95
ATOM     95  S   UNL A   1      41.670  26.739  35.481  1.00  0.00     0.124 S 
ATOM     96  O   UNL A   1      41.080  26.779  36.814  1.00  0.00    -0.237 OA
ATOM     97  O   UNL A   1      40.730  26.669  34.366  1.00  0.00    -0.237 OA
ATOM     98  O   UNL A   1      42.828  25.849  35.357  1.00  0.00    -0.744 OA
ENDBRANCH  91  95
ENDBRANCH  65  88
ENDBRANCH  39  40
ENDBRANCH  31  34
ENDBRANCH  29  30
ENDBRANCH  28  29
ENDBRANCH  27  28
ENDBRANCH  26  27
ENDBRANCH   3  26
TORSDOF 22
ENDMDL
MODEL 3
REMARK VINA RESULT:     -10.7      4.726     10.699
REMARK SMILES Cc1nsc(N(C)C(=O)[C@@H](C)CCC[C@H](C)[NH3+])c1C(=O)NCCCCNC(=O)c1ccc(-c2c3nc(c(-c4cc(S(=O)(=O)[O-])ccc4F)c4ccc([nH]4)c(-c4cc(S(=O)(=O)[O-])ccc4F)c4nc(c(-c5cc(S(=O)(=O)[O-])ccc5F)c5ccc2[nH]5)C=C4)C=C3)cc1
REMARK SMILES IDX 19 1 20 2 21 3 18 5 1 6 2 7 3 8 4 9 5 10 6 11 7 12 8 13 9 14
REMARK SMILES IDX 10 15 11 16 12 17 13 18 14 19 15 20 16 21 17 22 22 26 23 27
REMARK SMILES IDX 24 28 25 29 26 30 27 31 28 33 29 34 30 35 91 36 31 37 90 38
REMARK SMILES IDX 32 39 33 40 34 41 84 42 35 43 89 44 83 45 85 46 36 47 88 48
REMARK SMILES IDX 82 49 81 50 37 52 69 53 49 54 68 55 50 56 53 57 67 58 86 59
REMARK SMILES IDX 51 60 52 61 66 63 87 64 54 65 38 66 39 67 47 68 40 69 46 70
REMARK SMILES IDX 48 71 45 72 41 73 42 74 43 75 44 76 70 77 71 78 79 79 72 80
REMARK SMILES IDX 78 81 80 82 77 83 73 84 74 85 75 86 76 87 55 88 56 89 64 90
REMARK SMILES IDX 57 91 63 92 65 93 62 94 58 95 59 96 60 97 61 98
REMARK H PARENT 21 4 17 23 17 24 17 25 26 32 85 51 53 62
REMARK Flexibility Score: inf
ROOT
ATOM      1  C   UNL A   1      38.011  31.588  35.963  1.00  0.00     0.256 C 
ATOM      2  O   UNL A   1      38.157  30.425  36.350  1.00  0.00    -0.269 OA
ATOM      3  N   UNL A   1      37.650  31.718  34.640  1.00  0.00    -0.352 N 
ATOM      4  H   UNL A   1      38.210  31.214  34.005  1.00  0.00     0.163 HD
ENDROOT
BRANCH   1   5
ATOM      5  C   UNL A   1      38.346  32.714  36.853  1.00  0.00     0.097 A 
ATOM      6  C   UNL A   1      37.054  32.297  39.178  1.00  0.00     0.069 C 
ATOM      7  C   UNL A   1      37.979  32.996  38.246  1.00  0.00     0.066 A 
ATOM      8  N   UNL A   1      38.605  34.020  38.827  1.00  0.00    -0.195 NA
ATOM      9  S   UNL A   1      39.699  34.643  37.802  1.00  0.00    -0.017 S 
ATOM     10  C   UNL A   1      39.267  33.704  36.436  1.00  0.00     0.131 A 
BRANCH  10  11
ATOM     11  N   UNL A   1      39.889  34.057  35.200  1.00  0.00    -0.305 N 
ATOM     12  C   UNL A   1      39.266  34.995  34.262  1.00  0.00     0.154 C 
BRANCH  11  13
ATOM     13  C   UNL A   1      41.048  33.361  34.845  1.00  0.00     0.230 C 
ATOM     14  O   UNL A   1      41.031  32.137  34.640  1.00  0.00    -0.274 OA
BRANCH  13  15
ATOM     15  C   UNL A   1      42.376  34.101  34.540  1.00  0.00     0.076 C 
ATOM     16  C   UNL A   1      43.244  34.162  35.804  1.00  0.00     0.018 C 
BRANCH  15  17
ATOM     17  C   UNL A   1      43.225  33.701  33.320  1.00  0.00     0.013 C 
BRANCH  17  18
ATOM     18  C   UNL A   1      42.943  34.471  32.024  1.00  0.00     0.007 C 
BRANCH  18  19
ATOM     19  C   UNL A   1      42.643  33.610  30.786  1.00  0.00     0.064 C 
BRANCH  19  20
ATOM     20  C   UNL A   1      41.935  34.389  29.653  1.00  0.00     0.177 C 
ATOM     21  C   UNL A   1      42.624  35.723  29.363  1.00  0.00     0.075 C 
BRANCH  20  22
ATOM     22  N   UNL A   1      40.531  34.654  29.966  1.00  0.00    -0.355 N 
ATOM     23  H   UNL A   1      40.335  34.363  30.924  1.00  0.00     0.344 HD
ATOM     24  H   UNL A   1      39.935  34.132  29.323  1.00  0.00     0.344 HD
ATOM     25  H   UNL A   1      40.344  35.652  29.869  1.00  0.00     0.344 HD
ENDBRANCH  20  22
ENDBRANCH  19  20
ENDBRANCH  18  19
ENDBRANCH  17  18
ENDBRANCH  15  17
ENDBRANCH  13  15
ENDBRANCH  11  13
ENDBRANCH  10  11
ENDBRANCH   1   5
BRANCH   3  26
ATOM     26  C   UNL A   1      36.577  32.474  34.035  1.00  0.00     0.116 C 
BRANCH  26  27
ATOM     27  C   UNL A   1      36.855  32.929  32.601  1.00  0.00     0.023 C 
BRANCH  27  28
ATOM     28  C   UNL A   1      35.638  33.442  31.810  1.00  0.00     0.023 C 
BRANCH  28  29
ATOM     29  C   UNL A   1      34.836  32.387  31.045  1.00  0.00     0.116 C 
BRANCH  29  30
ATOM     30  N   UNL A   1      34.864  32.557  29.589  1.00  0.00    -0.352 N 
ATOM     31  C   UNL A   1      35.937  32.364  28.724  1.00  0.00     0.251 C 
ATOM     32  H   UNL A   1      34.019  32.844  29.172  1.00  0.00     0.163 HD
ATOM     33  O   UNL A   1      35.987  32.933  27.648  1.00  0.00    -0.269 OA
BRANCH  31  34
ATOM     34  C   UNL A   1      36.994  31.417  29.132  1.00  0.00     0.039 A 
ATOM     35  C   UNL A   1      36.859  30.028  29.052  1.00  0.00     0.014 A 
ATOM     36  C   UNL A   1      38.176  31.990  29.582  1.00  0.00     0.014 A 
ATOM     37  C   UNL A   1      37.964  29.229  29.358  1.00  0.00     0.010 A 
ATOM     38  C   UNL A   1      39.304  31.229  29.674  1.00  0.00     0.010 A 
ATOM     39  C   UNL A   1      39.185  29.847  29.661  1.00  0.00    -0.014 A 
BRANCH  39  40
ATOM     40  C   UNL A   1      40.418  29.107  29.885  1.00  0.00     0.031 A 
ATOM     41  C   UNL A   1      40.659  28.734  31.300  1.00  0.00     0.074 A 
ATOM     42  C   UNL A   1      41.086  28.532  28.859  1.00  0.00     0.049 A 
ATOM     43  N   UNL A   1      41.546  29.224  32.098  1.00  0.00    -0.248 NA
ATOM     44  C   UNL A   1      39.690  27.851  31.973  1.00  0.00     0.031 C 
ATOM     45  C   UNL A   1      40.738  28.538  27.431  1.00  0.00     0.029 A 
ATOM     46  N   UNL A   1      42.142  27.681  28.892  1.00  0.00    -0.354 N 
ATOM     47  C   UNL A   1      41.431  28.500  33.279  1.00  0.00     0.074 A 
ATOM     48  C   UNL A   1      40.127  27.899  33.234  1.00  0.00     0.031 C 
ATOM     49  C   UNL A   1      41.389  27.534  26.804  1.00  0.00     0.029 A 
ATOM     50  C   UNL A   1      42.309  26.914  27.742  1.00  0.00     0.049 A 
ATOM     51  H   UNL A   1      42.743  27.611  29.669  1.00  0.00     0.167 HD
ATOM     52  C   UNL A   1      42.527  28.222  34.043  1.00  0.00     0.034 A 
ATOM     53  C   UNL A   1      43.098  25.812  27.602  1.00  0.00     0.034 A 
ATOM     54  C   UNL A   1      43.668  29.001  33.596  1.00  0.00     0.049 A 
ATOM     55  C   UNL A   1      44.127  25.910  28.677  1.00  0.00     0.074 A 
ATOM     56  C   UNL A   1      43.891  30.351  33.391  1.00  0.00     0.029 A 
ATOM     57  N   UNL A   1      44.646  28.356  32.864  1.00  0.00    -0.354 N 
ATOM     58  N   UNL A   1      45.000  26.884  28.740  1.00  0.00    -0.248 NA
ATOM     59  C   UNL A   1      43.843  25.263  29.952  1.00  0.00     0.031 C 
ATOM     60  C   UNL A   1      44.594  30.413  32.151  1.00  0.00     0.029 A 
ATOM     61  C   UNL A   1      44.874  29.108  31.736  1.00  0.00     0.049 A 
ATOM     62  H   UNL A   1      45.096  27.514  33.105  1.00  0.00     0.167 HD
ATOM     63  C   UNL A   1      45.024  27.264  30.075  1.00  0.00     0.074 A 
ATOM     64  C   UNL A   1      44.362  26.169  30.788  1.00  0.00     0.031 C 
ATOM     65  C   UNL A   1      45.280  28.555  30.454  1.00  0.00     0.034 A 
BRANCH  52  66
ATOM     66  C   UNL A   1      42.705  27.001  34.923  1.00  0.00     0.023 A 
ATOM     67  C   UNL A   1      43.524  25.973  34.417  1.00  0.00     0.031 A 
ATOM     68  C   UNL A   1      41.934  26.660  36.057  1.00  0.00     0.131 A 
ATOM     69  C   UNL A   1      43.456  24.668  34.933  1.00  0.00     0.055 A 
ATOM     70  C   UNL A   1      41.927  25.377  36.615  1.00  0.00     0.041 A 
ATOM     71  F   UNL A   1      41.079  27.504  36.641  1.00  0.00    -0.206 F 
ATOM     72  C   UNL A   1      42.660  24.362  36.030  1.00  0.00     0.022 A 
BRANCH  69  73
ATOM     73  S   UNL A   1      44.280  23.346  34.011  1.00  0.00     0.124 S 
ATOM     74  O   UNL A   1      43.382  23.182  32.873  1.00  0.00    -0.237 OA
ATOM     75  O   UNL A   1      45.579  23.946  33.727  1.00  0.00    -0.237 OA
ATOM     76  O   UNL A   1      44.298  22.235  34.959  1.00  0.00    -0.744 OA
ENDBRANCH  69  73
ENDBRANCH  52  66
BRANCH  53  77
ATOM     77  C   UNL A   1      42.760  24.561  26.846  1.00  0.00     0.023 A 
ATOM     78  C   UNL A   1      43.688  23.865  26.034  1.00  0.00     0.031 A 
ATOM     79  C   UNL A   1      41.535  23.894  27.092  1.00  0.00     0.131 A 
ATOM     80  C   UNL A   1      43.368  22.583  25.509  1.00  0.00     0.055 A 
ATOM     81  C   UNL A   1      41.221  22.637  26.567  1.00  0.00     0.041 A 
ATOM     82  F   UNL A   1      40.617  24.403  27.926  1.00  0.00    -0.206 F 
ATOM     83  C   UNL A   1      42.142  21.971  25.779  1.00  0.00     0.022 A 
BRANCH  80  84
ATOM     84  S   UNL A   1      44.584  21.631  24.536  1.00  0.00     0.124 S 
ATOM     85  O   UNL A   1      44.495  22.264  23.225  1.00  0.00    -0.237 OA
ATOM     86  O   UNL A   1      45.820  21.842  25.278  1.00  0.00    -0.237 OA
ATOM     87  O   UNL A   1      44.067  20.261  24.591  1.00  0.00    -0.744 OA
ENDBRANCH  80  84
ENDBRANCH  53  77
BRANCH  65  88
ATOM     88  C   UNL A   1      45.814  29.549  29.432  1.00  0.00     0.023 A 
ATOM     89  C   UNL A   1      45.028  30.275  28.508  1.00  0.00     0.031 A 
ATOM     90  C   UNL A   1      47.179  29.884  29.523  1.00  0.00     0.131 A 
ATOM     91  C   UNL A   1      45.616  31.289  27.721  1.00  0.00     0.055 A 
ATOM     92  C   UNL A   1      47.750  30.904  28.763  1.00  0.00     0.041 A 
ATOM     93  F   UNL A   1      47.979  29.251  30.396  1.00  0.00    -0.206 F 
ATOM     94  C   UNL A   1      46.971  31.608  27.855  1.00  0.00     0.022 A 
BRANCH  91  95
ATOM     95  S   UNL A   1      44.636  32.207  26.486  1.00  0.00     0.124 S 
ATOM     96  O   UNL A   1      44.293  33.445  27.176  1.00  0.00    -0.237 OA
ATOM     97  O   UNL A   1      45.570  32.333  25.371  1.00  0.00    -0.237 OA
ATOM     98  O   UNL A   1      43.499  31.320  26.229  1.00  0.00    -0.744 OA
ENDBRANCH  91  95
ENDBRANCH  65  88
ENDBRANCH  39  40
ENDBRANCH  31  34
ENDBRANCH  29  30
ENDBRANCH  28  29
ENDBRANCH  27  28
ENDBRANCH  26  27
ENDBRANCH   3  26
TORSDOF 22
ENDMDL
