MODEL 1
REMARK VINA RESULT:     -12.0      0.000      0.000
REMARK SMILES COc1ccc(OC)c(NC(=O)[C@@H]2[C@@H](C(=O)NCCCCNC(=O)c3ccc(-c4c5nc(c(-c6cc(S(=O)(=O)[O-])ccc6F)c6ccc([nH]6)c(-c6cc(S(=O)(=O)[O-])ccc6F)c6nc(c(-c7cc(S(=O)(=O)[O-])ccc7F)c7ccc4[nH]7)C=C6)C=C5)cc3)[C@H]3C=C[C@@H]2C3)c1
REMARK SMILES IDX 19 1 18 2 17 3 15 4 16 5 14 7 13 8 91 9 88 10 90 11 92 12
REMARK SMILES IDX 89 13 11 14 10 15 12 17 9 18 3 19 4 20 93 21 5 22 6 23 2 24
REMARK SMILES IDX 1 25 7 26 8 27 20 28 21 29 22 30 23 31 24 33 25 34 26 35
REMARK SMILES IDX 87 36 27 37 86 38 28 39 29 40 30 41 80 42 31 43 85 44 79 45
REMARK SMILES IDX 81 46 32 47 84 48 78 49 77 50 33 52 65 53 45 54 64 55 46 56
REMARK SMILES IDX 49 57 63 58 82 59 47 60 48 61 62 63 83 64 50 65 34 66 35 67
REMARK SMILES IDX 43 68 36 69 42 70 44 71 41 72 37 73 38 74 39 75 40 76 66 77
REMARK SMILES IDX 67 78 75 79 68 80 74 81 76 82 73 83 69 84 70 85 71 86 72 87
REMARK SMILES IDX 51 88 52 89 60 90 53 91 59 92 61 93 58 94 54 95 55 96 56 97
REMARK SMILES IDX 57 98
REMARK H PARENT 17 6 10 16 22 32 81 51 49 62
REMARK Flexibility Score: inf
ROOT
ATOM      1  C   UNL A   1      31.631  30.880  26.069  1.00  0.00     0.023 C 
ENDROOT
BRANCH   1   2
ATOM      2  C   UNL A   1      32.789  29.891  26.025  1.00  0.00     0.116 C 
BRANCH   2   3
ATOM      3  N   UNL A   1      33.273  29.699  24.684  1.00  0.00    -0.356 N 
ATOM      4  C   UNL A   1      33.139  28.686  23.809  1.00  0.00     0.224 C 
ATOM      5  O   UNL A   1      33.635  28.881  22.689  1.00  0.00    -0.275 OA
ATOM      6  H   UNL A   1      33.803  30.454  24.340  1.00  0.00     0.163 HD
BRANCH   4   7
ATOM      7  C   UNL A   1      32.503  27.334  24.079  1.00  0.00     0.098 C 
ATOM      8  C   UNL A   1      32.044  26.290  23.038  1.00  0.00     0.099 C 
ATOM      9  C   UNL A   1      30.792  25.670  23.721  1.00  0.00     0.025 C 
ATOM     10  C   UNL A   1      31.267  27.440  25.026  1.00  0.00     0.025 C 
ATOM     11  C   UNL A   1      29.688  26.702  23.513  1.00  0.00    -0.027 C 
ATOM     12  C   UNL A   1      30.961  25.956  25.220  1.00  0.00     0.017 C 
ATOM     13  C   UNL A   1      29.991  27.762  24.283  1.00  0.00    -0.027 C 
BRANCH   8  14
ATOM     14  C   UNL A   1      33.114  25.436  22.339  1.00  0.00     0.229 C 
ATOM     15  N   UNL A   1      33.495  24.169  22.651  1.00  0.00    -0.323 N 
ATOM     16  H   UNL A   1      33.878  23.672  21.894  1.00  0.00     0.170 HD
ATOM     17  O   UNL A   1      33.630  25.894  21.306  1.00  0.00    -0.274 OA
BRANCH  15  18
ATOM     18  C   UNL A   1      33.446  23.433  23.840  1.00  0.00     0.087 A 
ATOM     19  C   UNL A   1      32.478  21.605  25.077  1.00  0.00     0.121 A 
ATOM     20  C   UNL A   1      32.892  22.186  26.271  1.00  0.00     0.050 A 
ATOM     21  C   UNL A   1      32.692  22.256  23.861  1.00  0.00     0.076 A 
ATOM     22  C   UNL A   1      33.792  23.235  26.220  1.00  0.00     0.052 A 
ATOM     23  C   UNL A   1      34.166  23.763  24.984  1.00  0.00     0.142 A 
BRANCH  19  24
ATOM     24  O   UNL A   1      31.848  20.392  25.087  1.00  0.00    -0.497 OA
ATOM     25  C   UNL A   1      32.588  19.449  24.297  1.00  0.00     0.278 C 
ENDBRANCH  19  24
BRANCH  23  26
ATOM     26  O   UNL A   1      35.277  24.556  25.015  1.00  0.00    -0.495 OA
ATOM     27  C   UNL A   1      36.396  23.969  25.686  1.00  0.00     0.278 C 
ENDBRANCH  23  26
ENDBRANCH  15  18
ENDBRANCH   8  14
ENDBRANCH   4   7
ENDBRANCH   2   3
ENDBRANCH   1   2
BRANCH   1  28
ATOM     28  C   UNL A   1      31.735  31.916  27.182  1.00  0.00     0.023 C 
BRANCH  28  29
ATOM     29  C   UNL A   1      32.952  32.813  27.067  1.00  0.00     0.116 C 
BRANCH  29  30
ATOM     30  N   UNL A   1      32.729  34.143  27.624  1.00  0.00    -0.352 N 
ATOM     31  C   UNL A   1      33.359  34.731  28.695  1.00  0.00     0.251 C 
ATOM     32  H   UNL A   1      32.042  34.688  27.177  1.00  0.00     0.163 HD
ATOM     33  O   UNL A   1      32.988  35.799  29.137  1.00  0.00    -0.269 OA
BRANCH  31  34
ATOM     34  C   UNL A   1      34.473  33.983  29.303  1.00  0.00     0.039 A 
ATOM     35  C   UNL A   1      35.780  34.372  29.021  1.00  0.00     0.014 A 
ATOM     36  C   UNL A   1      34.197  32.995  30.252  1.00  0.00     0.014 A 
ATOM     37  C   UNL A   1      36.822  33.787  29.733  1.00  0.00     0.010 A 
ATOM     38  C   UNL A   1      35.222  32.513  31.043  1.00  0.00     0.010 A 
ATOM     39  C   UNL A   1      36.547  32.875  30.767  1.00  0.00    -0.014 A 
BRANCH  39  40
ATOM     40  C   UNL A   1      37.644  32.227  31.521  1.00  0.00     0.031 A 
ATOM     41  C   UNL A   1      38.406  31.101  30.876  1.00  0.00     0.074 A 
ATOM     42  C   UNL A   1      37.923  32.625  32.777  1.00  0.00     0.049 A 
ATOM     43  N   UNL A   1      39.382  30.378  31.359  1.00  0.00    -0.248 NA
ATOM     44  C   UNL A   1      37.981  30.702  29.524  1.00  0.00     0.031 C 
ATOM     45  C   UNL A   1      37.196  33.660  33.520  1.00  0.00     0.029 A 
ATOM     46  N   UNL A   1      38.896  32.216  33.649  1.00  0.00    -0.354 N 
ATOM     47  C   UNL A   1      39.668  29.432  30.380  1.00  0.00     0.074 A 
ATOM     48  C   UNL A   1      38.699  29.610  29.323  1.00  0.00     0.031 C 
ATOM     49  C   UNL A   1      37.784  33.837  34.715  1.00  0.00     0.029 A 
ATOM     50  C   UNL A   1      38.901  32.907  34.837  1.00  0.00     0.049 A 
ATOM     51  H   UNL A   1      39.533  31.493  33.443  1.00  0.00     0.167 HD
ATOM     52  C   UNL A   1      40.675  28.528  30.343  1.00  0.00     0.034 A 
ATOM     53  C   UNL A   1      39.726  32.802  35.898  1.00  0.00     0.034 A 
ATOM     54  C   UNL A   1      41.650  28.396  31.395  1.00  0.00     0.049 A 
ATOM     55  C   UNL A   1      40.857  31.807  35.826  1.00  0.00     0.074 A 
ATOM     56  C   UNL A   1      42.751  27.561  31.454  1.00  0.00     0.029 A 
ATOM     57  N   UNL A   1      41.640  29.127  32.578  1.00  0.00    -0.354 N 
ATOM     58  N   UNL A   1      41.158  30.963  34.864  1.00  0.00    -0.248 NA
ATOM     59  C   UNL A   1      41.769  31.765  36.973  1.00  0.00     0.031 C 
ATOM     60  C   UNL A   1      43.369  27.744  32.696  1.00  0.00     0.029 A 
ATOM     61  C   UNL A   1      42.701  28.748  33.383  1.00  0.00     0.049 A 
ATOM     62  H   UNL A   1      40.975  29.815  32.809  1.00  0.00     0.167 HD
ATOM     63  C   UNL A   1      42.313  30.309  35.282  1.00  0.00     0.074 A 
ATOM     64  C   UNL A   1      42.666  30.881  36.566  1.00  0.00     0.031 C 
ATOM     65  C   UNL A   1      43.020  29.325  34.668  1.00  0.00     0.034 A 
BRANCH  52  66
ATOM     66  C   UNL A   1      40.749  27.622  29.136  1.00  0.00     0.023 A 
ATOM     67  C   UNL A   1      41.691  27.831  28.110  1.00  0.00     0.031 A 
ATOM     68  C   UNL A   1      39.828  26.573  28.975  1.00  0.00     0.131 A 
ATOM     69  C   UNL A   1      41.631  27.068  26.935  1.00  0.00     0.055 A 
ATOM     70  C   UNL A   1      39.834  25.756  27.841  1.00  0.00     0.041 A 
ATOM     71  F   UNL A   1      38.890  26.337  29.905  1.00  0.00    -0.206 F 
ATOM     72  C   UNL A   1      40.727  26.014  26.805  1.00  0.00     0.022 A 
BRANCH  69  73
ATOM     73  S   UNL A   1      42.641  27.581  25.518  1.00  0.00     0.124 S 
ATOM     74  O   UNL A   1      42.604  26.384  24.681  1.00  0.00    -0.237 OA
ATOM     75  O   UNL A   1      41.911  28.737  25.012  1.00  0.00    -0.237 OA
ATOM     76  O   UNL A   1      43.943  27.876  26.113  1.00  0.00    -0.744 OA
ENDBRANCH  69  73
ENDBRANCH  52  66
BRANCH  53  77
ATOM     77  C   UNL A   1      39.536  33.666  37.098  1.00  0.00     0.023 A 
ATOM     78  C   UNL A   1      38.902  33.175  38.251  1.00  0.00     0.031 A 
ATOM     79  C   UNL A   1      39.946  35.011  37.096  1.00  0.00     0.131 A 
ATOM     80  C   UNL A   1      38.646  34.034  39.332  1.00  0.00     0.055 A 
ATOM     81  C   UNL A   1      39.738  35.848  38.194  1.00  0.00     0.041 A 
ATOM     82  F   UNL A   1      40.566  35.530  36.024  1.00  0.00    -0.206 F 
ATOM     83  C   UNL A   1      39.070  35.364  39.316  1.00  0.00     0.022 A 
BRANCH  80  84
ATOM     84  S   UNL A   1      37.670  33.410  40.727  1.00  0.00     0.124 S 
ATOM     85  O   UNL A   1      38.508  32.320  41.213  1.00  0.00    -0.237 OA
ATOM     86  O   UNL A   1      37.585  34.586  41.587  1.00  0.00    -0.237 OA
ATOM     87  O   UNL A   1      36.411  33.001  40.107  1.00  0.00    -0.744 OA
ENDBRANCH  80  84
ENDBRANCH  53  77
BRANCH  65  88
ATOM     88  C   UNL A   1      44.261  28.841  35.376  1.00  0.00     0.023 A 
ATOM     89  C   UNL A   1      44.212  27.787  36.306  1.00  0.00     0.031 A 
ATOM     90  C   UNL A   1      45.499  29.463  35.144  1.00  0.00     0.131 A 
ATOM     91  C   UNL A   1      45.362  27.442  37.029  1.00  0.00     0.055 A 
ATOM     92  C   UNL A   1      46.656  29.065  35.813  1.00  0.00     0.041 A 
ATOM     93  F   UNL A   1      45.604  30.473  34.267  1.00  0.00    -0.206 F 
ATOM     94  C   UNL A   1      46.588  28.061  36.776  1.00  0.00     0.022 A 
BRANCH  91  95
ATOM     95  S   UNL A   1      45.203  26.261  38.396  1.00  0.00     0.124 S 
ATOM     96  O   UNL A   1      46.596  26.049  38.776  1.00  0.00    -0.237 OA
ATOM     97  O   UNL A   1      44.387  27.001  39.353  1.00  0.00    -0.237 OA
ATOM     98  O   UNL A   1      44.546  25.110  37.780  1.00  0.00    -0.744 OA
ENDBRANCH  91  95
ENDBRANCH  65  88
ENDBRANCH  39  40
ENDBRANCH  31  34
ENDBRANCH  29  30
ENDBRANCH  28  29
ENDBRANCH   1  28
TORSDOF 18
ENDMDL
MODEL 2
REMARK VINA RESULT:     -11.9      5.028      7.934
REMARK SMILES COc1ccc(OC)c(NC(=O)[C@@H]2[C@@H](C(=O)NCCCCNC(=O)c3ccc(-c4c5nc(c(-c6cc(S(=O)(=O)[O-])ccc6F)c6ccc([nH]6)c(-c6cc(S(=O)(=O)[O-])ccc6F)c6nc(c(-c7cc(S(=O)(=O)[O-])ccc7F)c7ccc4[nH]7)C=C6)C=C5)cc3)[C@H]3C=C[C@@H]2C3)c1
REMARK SMILES IDX 19 1 18 2 17 3 15 4 16 5 14 7 13 8 91 9 88 10 90 11 92 12
REMARK SMILES IDX 89 13 11 14 10 15 12 17 9 18 3 19 4 20 93 21 5 22 6 23 2 24
REMARK SMILES IDX 1 25 7 26 8 27 20 28 21 29 22 30 23 31 24 33 25 34 26 35
REMARK SMILES IDX 87 36 27 37 86 38 28 39 29 40 30 41 80 42 31 43 85 44 79 45
REMARK SMILES IDX 81 46 32 47 84 48 78 49 77 50 33 52 65 53 45 54 64 55 46 56
REMARK SMILES IDX 49 57 63 58 82 59 47 60 48 61 62 63 83 64 50 65 34 66 35 67
REMARK SMILES IDX 43 68 36 69 42 70 44 71 41 72 37 73 38 74 39 75 40 76 66 77
REMARK SMILES IDX 67 78 75 79 68 80 74 81 76 82 73 83 69 84 70 85 71 86 72 87
REMARK SMILES IDX 51 88 52 89 60 90 53 91 59 92 61 93 58 94 54 95 55 96 56 97
REMARK SMILES IDX 57 98
REMARK H PARENT 17 6 10 16 22 32 81 51 49 62
REMARK Flexibility Score: inf
ROOT
ATOM      1  C   UNL A   1      34.657  24.080  24.547  1.00  0.00     0.023 C 
ENDROOT
BRANCH   1   2
ATOM      2  C   UNL A   1      34.288  25.421  25.169  1.00  0.00     0.116 C 
BRANCH   2   3
ATOM      3  N   UNL A   1      33.053  25.345  25.902  1.00  0.00    -0.356 N 
ATOM      4  C   UNL A   1      32.085  26.248  26.141  1.00  0.00     0.224 C 
ATOM      5  O   UNL A   1      31.101  25.822  26.764  1.00  0.00    -0.275 OA
ATOM      6  H   UNL A   1      32.883  24.464  26.306  1.00  0.00     0.163 HD
BRANCH   4   7
ATOM      7  C   UNL A   1      32.112  27.722  25.777  1.00  0.00     0.098 C 
ATOM      8  C   UNL A   1      33.173  28.460  24.930  1.00  0.00     0.099 C 
ATOM      9  C   UNL A   1      33.220  29.859  25.606  1.00  0.00     0.025 C 
ATOM     10  C   UNL A   1      31.971  28.643  27.028  1.00  0.00     0.025 C 
ATOM     11  C   UNL A   1      34.042  29.649  26.873  1.00  0.00    -0.027 C 
ATOM     12  C   UNL A   1      31.878  30.004  26.339  1.00  0.00     0.017 C 
ATOM     13  C   UNL A   1      33.294  28.907  27.708  1.00  0.00    -0.027 C 
BRANCH   8  14
ATOM     14  C   UNL A   1      33.147  28.276  23.405  1.00  0.00     0.229 C 
ATOM     15  N   UNL A   1      32.053  28.165  22.604  1.00  0.00    -0.323 N 
ATOM     16  H   UNL A   1      32.214  28.442  21.674  1.00  0.00     0.170 HD
ATOM     17  O   UNL A   1      34.230  28.338  22.800  1.00  0.00    -0.274 OA
BRANCH  15  18
ATOM     18  C   UNL A   1      30.745  27.733  22.845  1.00  0.00     0.087 A 
ATOM     19  C   UNL A   1      28.428  28.309  23.169  1.00  0.00     0.121 A 
ATOM     20  C   UNL A   1      28.203  27.083  23.787  1.00  0.00     0.050 A 
ATOM     21  C   UNL A   1      29.711  28.669  22.755  1.00  0.00     0.076 A 
ATOM     22  C   UNL A   1      29.178  26.107  23.694  1.00  0.00     0.052 A 
ATOM     23  C   UNL A   1      30.401  26.409  23.096  1.00  0.00     0.142 A 
BRANCH  19  24
ATOM     24  O   UNL A   1      27.389  29.176  22.969  1.00  0.00    -0.497 OA
ATOM     25  C   UNL A   1      27.877  30.402  22.403  1.00  0.00     0.278 C 
ENDBRANCH  19  24
BRANCH  23  26
ATOM     26  O   UNL A   1      31.158  25.322  22.764  1.00  0.00    -0.495 OA
ATOM     27  C   UNL A   1      30.747  24.107  23.400  1.00  0.00     0.278 C 
ENDBRANCH  23  26
ENDBRANCH  15  18
ENDBRANCH   8  14
ENDBRANCH   4   7
ENDBRANCH   2   3
ENDBRANCH   1   2
BRANCH   1  28
ATOM     28  C   UNL A   1      36.136  23.726  24.652  1.00  0.00     0.023 C 
BRANCH  28  29
ATOM     29  C   UNL A   1      36.587  23.407  26.064  1.00  0.00     0.116 C 
BRANCH  29  30
ATOM     30  N   UNL A   1      37.736  22.508  26.102  1.00  0.00    -0.352 N 
ATOM     31  C   UNL A   1      39.036  22.806  26.434  1.00  0.00     0.251 C 
ATOM     32  H   UNL A   1      37.557  21.571  25.859  1.00  0.00     0.163 HD
ATOM     33  O   UNL A   1      39.924  21.989  26.300  1.00  0.00    -0.269 OA
BRANCH  31  34
ATOM     34  C   UNL A   1      39.301  24.172  26.918  1.00  0.00     0.039 A 
ATOM     35  C   UNL A   1      39.122  24.456  28.269  1.00  0.00     0.014 A 
ATOM     36  C   UNL A   1      39.857  25.111  26.045  1.00  0.00     0.014 A 
ATOM     37  C   UNL A   1      39.545  25.688  28.757  1.00  0.00     0.010 A 
ATOM     38  C   UNL A   1      40.390  26.278  26.558  1.00  0.00     0.010 A 
ATOM     39  C   UNL A   1      40.207  26.595  27.910  1.00  0.00    -0.014 A 
BRANCH  39  40
ATOM     40  C   UNL A   1      40.645  27.919  28.407  1.00  0.00     0.031 A 
ATOM     41  C   UNL A   1      42.118  28.200  28.530  1.00  0.00     0.074 A 
ATOM     42  C   UNL A   1      39.729  28.835  28.773  1.00  0.00     0.049 A 
ATOM     43  N   UNL A   1      42.723  29.274  28.964  1.00  0.00    -0.248 NA
ATOM     44  C   UNL A   1      43.035  27.108  28.162  1.00  0.00     0.031 C 
ATOM     45  C   UNL A   1      38.277  28.636  28.760  1.00  0.00     0.029 A 
ATOM     46  N   UNL A   1      39.881  30.121  29.219  1.00  0.00    -0.354 N 
ATOM     47  C   UNL A   1      44.081  28.976  28.938  1.00  0.00     0.074 A 
ATOM     48  C   UNL A   1      44.204  27.593  28.544  1.00  0.00     0.031 C 
ATOM     49  C   UNL A   1      37.673  29.778  29.129  1.00  0.00     0.029 A 
ATOM     50  C   UNL A   1      38.691  30.774  29.440  1.00  0.00     0.049 A 
ATOM     51  H   UNL A   1      40.760  30.539  29.367  1.00  0.00     0.167 HD
ATOM     52  C   UNL A   1      45.133  29.796  29.177  1.00  0.00     0.034 A 
ATOM     53  C   UNL A   1      38.458  32.040  29.839  1.00  0.00     0.034 A 
ATOM     54  C   UNL A   1      44.982  31.183  29.534  1.00  0.00     0.049 A 
ATOM     55  C   UNL A   1      39.643  32.943  30.075  1.00  0.00     0.074 A 
ATOM     56  C   UNL A   1      45.965  32.133  29.745  1.00  0.00     0.029 A 
ATOM     57  N   UNL A   1      43.762  31.820  29.729  1.00  0.00    -0.354 N 
ATOM     58  N   UNL A   1      40.925  32.668  29.982  1.00  0.00    -0.248 NA
ATOM     59  C   UNL A   1      39.349  34.329  30.448  1.00  0.00     0.031 C 
ATOM     60  C   UNL A   1      45.341  33.326  30.128  1.00  0.00     0.029 A 
ATOM     61  C   UNL A   1      43.967  33.144  30.081  1.00  0.00     0.049 A 
ATOM     62  H   UNL A   1      42.882  31.393  29.631  1.00  0.00     0.167 HD
ATOM     63  C   UNL A   1      41.589  33.859  30.261  1.00  0.00     0.074 A 
ATOM     64  C   UNL A   1      40.563  34.856  30.493  1.00  0.00     0.031 C 
ATOM     65  C   UNL A   1      42.923  34.113  30.322  1.00  0.00     0.034 A 
BRANCH  52  66
ATOM     66  C   UNL A   1      46.515  29.196  29.067  1.00  0.00     0.023 A 
ATOM     67  C   UNL A   1      47.217  29.173  27.846  1.00  0.00     0.031 A 
ATOM     68  C   UNL A   1      47.118  28.584  30.179  1.00  0.00     0.131 A 
ATOM     69  C   UNL A   1      48.429  28.475  27.744  1.00  0.00     0.055 A 
ATOM     70  C   UNL A   1      48.370  27.970  30.093  1.00  0.00     0.041 A 
ATOM     71  F   UNL A   1      46.492  28.551  31.365  1.00  0.00    -0.206 F 
ATOM     72  C   UNL A   1      49.024  27.896  28.866  1.00  0.00     0.022 A 
BRANCH  69  73
ATOM     73  S   UNL A   1      49.130  28.193  26.095  1.00  0.00     0.124 S 
ATOM     74  O   UNL A   1      49.765  26.887  26.264  1.00  0.00    -0.237 OA
ATOM     75  O   UNL A   1      47.950  28.223  25.240  1.00  0.00    -0.237 OA
ATOM     76  O   UNL A   1      50.056  29.310  25.921  1.00  0.00    -0.744 OA
ENDBRANCH  69  73
ENDBRANCH  52  66
BRANCH  53  77
ATOM     77  C   UNL A   1      37.064  32.537  30.019  1.00  0.00     0.023 A 
ATOM     78  C   UNL A   1      36.597  32.942  31.280  1.00  0.00     0.031 A 
ATOM     79  C   UNL A   1      36.163  32.574  28.941  1.00  0.00     0.131 A 
ATOM     80  C   UNL A   1      35.252  33.313  31.444  1.00  0.00     0.055 A 
ATOM     81  C   UNL A   1      34.841  32.996  29.098  1.00  0.00     0.041 A 
ATOM     82  F   UNL A   1      36.560  32.209  27.711  1.00  0.00    -0.206 F 
ATOM     83  C   UNL A   1      34.374  33.354  30.359  1.00  0.00     0.022 A 
BRANCH  80  84
ATOM     84  S   UNL A   1      34.643  33.657  33.118  1.00  0.00     0.124 S 
ATOM     85  O   UNL A   1      35.307  32.617  33.896  1.00  0.00    -0.237 OA
ATOM     86  O   UNL A   1      35.115  35.021  33.336  1.00  0.00    -0.237 OA
ATOM     87  O   UNL A   1      33.195  33.513  32.990  1.00  0.00    -0.744 OA
ENDBRANCH  80  84
ENDBRANCH  53  77
BRANCH  65  88
ATOM     88  C   UNL A   1      43.328  35.535  30.623  1.00  0.00     0.023 A 
ATOM     89  C   UNL A   1      43.410  36.012  31.943  1.00  0.00     0.031 A 
ATOM     90  C   UNL A   1      43.600  36.431  29.575  1.00  0.00     0.131 A 
ATOM     91  C   UNL A   1      43.677  37.367  32.178  1.00  0.00     0.055 A 
ATOM     92  C   UNL A   1      43.938  37.762  29.819  1.00  0.00     0.041 A 
ATOM     93  F   UNL A   1      43.537  36.029  28.296  1.00  0.00    -0.206 F 
ATOM     94  C   UNL A   1      43.959  38.242  31.126  1.00  0.00     0.022 A 
BRANCH  91  95
ATOM     95  S   UNL A   1      43.521  37.999  33.871  1.00  0.00     0.124 S 
ATOM     96  O   UNL A   1      44.861  37.772  34.403  1.00  0.00    -0.237 OA
ATOM     97  O   UNL A   1      43.151  39.393  33.650  1.00  0.00    -0.237 OA
ATOM     98  O   UNL A   1      42.473  37.163  34.454  1.00  0.00    -0.744 OA
ENDBRANCH  91  95
ENDBRANCH  65  88
ENDBRANCH  39  40
ENDBRANCH  31  34
ENDBRANCH  29  30
ENDBRANCH  28  29
ENDBRANCH   1  28
TORSDOF 18
ENDMDL
MODEL 3
REMARK VINA RESULT:     -11.7      4.888      8.464
REMARK SMILES COc1ccc(OC)c(NC(=O)[C@@H]2[C@@H](C(=O)NCCCCNC(=O)c3ccc(-c4c5nc(c(-c6cc(S(=O)(=O)[O-])ccc6F)c6ccc([nH]6)c(-c6cc(S(=O)(=O)[O-])ccc6F)c6nc(c(-c7cc(S(=O)(=O)[O-])ccc7F)c7ccc4[nH]7)C=C6)C=C5)cc3)[C@H]3C=C[C@@H]2C3)c1
REMARK SMILES IDX 19 1 18 2 17 3 15 4 16 5 14 7 13 8 91 9 88 10 90 11 92 12
REMARK SMILES IDX 89 13 11 14 10 15 12 17 9 18 3 19 4 20 93 21 5 22 6 23 2 24
REMARK SMILES IDX 1 25 7 26 8 27 20 28 21 29 22 30 23 31 24 33 25 34 26 35
REMARK SMILES IDX 87 36 27 37 86 38 28 39 29 40 30 41 80 42 31 43 85 44 79 45
REMARK SMILES IDX 81 46 32 47 84 48 78 49 77 50 33 52 65 53 45 54 64 55 46 56
REMARK SMILES IDX 49 57 63 58 82 59 47 60 48 61 62 63 83 64 50 65 34 66 35 67
REMARK SMILES IDX 43 68 36 69 42 70 44 71 41 72 37 73 38 74 39 75 40 76 66 77
REMARK SMILES IDX 67 78 75 79 68 80 74 81 76 82 73 83 69 84 70 85 71 86 72 87
REMARK SMILES IDX 51 88 52 89 60 90 53 91 59 92 61 93 58 94 54 95 55 96 56 97
REMARK SMILES IDX 57 98
REMARK H PARENT 17 6 10 16 22 32 81 51 49 62
REMARK Flexibility Score: inf
ROOT
ATOM      1  C   UNL A   1      34.760  23.978  24.363  1.00  0.00     0.023 C 
ENDROOT
BRANCH   1   2
ATOM      2  C   UNL A   1      34.408  25.299  25.034  1.00  0.00     0.116 C 
BRANCH   2   3
ATOM      3  N   UNL A   1      33.222  25.185  25.840  1.00  0.00    -0.356 N 
ATOM      4  C   UNL A   1      32.236  26.054  26.127  1.00  0.00     0.224 C 
ATOM      5  O   UNL A   1      31.307  25.599  26.812  1.00  0.00    -0.275 OA
ATOM      6  H   UNL A   1      33.109  24.303  26.262  1.00  0.00     0.163 HD
BRANCH   4   7
ATOM      7  C   UNL A   1      32.185  27.524  25.748  1.00  0.00     0.098 C 
ATOM      8  C   UNL A   1      33.182  28.297  24.857  1.00  0.00     0.099 C 
ATOM      9  C   UNL A   1      33.191  29.705  25.517  1.00  0.00     0.025 C 
ATOM     10  C   UNL A   1      32.049  28.452  26.995  1.00  0.00     0.025 C 
ATOM     11  C   UNL A   1      34.067  29.545  26.756  1.00  0.00    -0.027 C 
ATOM     12  C   UNL A   1      31.872  29.799  26.297  1.00  0.00     0.017 C 
ATOM     13  C   UNL A   1      33.382  28.780  27.624  1.00  0.00    -0.027 C 
BRANCH   8  14
ATOM     14  C   UNL A   1      33.109  28.096  23.335  1.00  0.00     0.229 C 
ATOM     15  N   UNL A   1      31.991  27.975  22.570  1.00  0.00    -0.323 N 
ATOM     16  H   UNL A   1      32.123  28.242  21.632  1.00  0.00     0.170 HD
ATOM     17  O   UNL A   1      34.173  28.151  22.697  1.00  0.00    -0.274 OA
BRANCH  15  18
ATOM     18  C   UNL A   1      30.691  27.546  22.856  1.00  0.00     0.087 A 
ATOM     19  C   UNL A   1      28.375  28.119  23.188  1.00  0.00     0.121 A 
ATOM     20  C   UNL A   1      28.172  26.926  23.875  1.00  0.00     0.050 A 
ATOM     21  C   UNL A   1      29.648  28.468  22.735  1.00  0.00     0.076 A 
ATOM     22  C   UNL A   1      29.154  25.954  23.817  1.00  0.00     0.052 A 
ATOM     23  C   UNL A   1      30.363  26.234  23.183  1.00  0.00     0.142 A 
BRANCH  19  24
ATOM     24  O   UNL A   1      27.325  28.966  22.961  1.00  0.00    -0.497 OA
ATOM     25  C   UNL A   1      27.815  30.280  22.651  1.00  0.00     0.278 C 
ENDBRANCH  19  24
BRANCH  23  26
ATOM     26  O   UNL A   1      31.125  25.137  22.896  1.00  0.00    -0.495 OA
ATOM     27  C   UNL A   1      30.656  23.927  23.498  1.00  0.00     0.278 C 
ENDBRANCH  23  26
ENDBRANCH  15  18
ENDBRANCH   8  14
ENDBRANCH   4   7
ENDBRANCH   2   3
ENDBRANCH   1   2
BRANCH   1  28
ATOM     28  C   UNL A   1      36.221  23.569  24.512  1.00  0.00     0.023 C 
BRANCH  28  29
ATOM     29  C   UNL A   1      36.701  23.539  25.950  1.00  0.00     0.116 C 
BRANCH  29  30
ATOM     30  N   UNL A   1      37.814  22.619  26.157  1.00  0.00    -0.352 N 
ATOM     31  C   UNL A   1      39.086  22.910  26.588  1.00  0.00     0.251 C 
ATOM     32  H   UNL A   1      37.631  21.672  25.963  1.00  0.00     0.163 HD
ATOM     33  O   UNL A   1      39.959  22.066  26.594  1.00  0.00    -0.269 OA
BRANCH  31  34
ATOM     34  C   UNL A   1      39.347  24.301  26.999  1.00  0.00     0.039 A 
ATOM     35  C   UNL A   1      39.196  24.647  28.339  1.00  0.00     0.014 A 
ATOM     36  C   UNL A   1      39.869  25.203  26.069  1.00  0.00     0.014 A 
ATOM     37  C   UNL A   1      39.616  25.906  28.757  1.00  0.00     0.010 A 
ATOM     38  C   UNL A   1      40.400  26.400  26.512  1.00  0.00     0.010 A 
ATOM     39  C   UNL A   1      40.246  26.779  27.852  1.00  0.00    -0.014 A 
BRANCH  39  40
ATOM     40  C   UNL A   1      40.679  28.130  28.275  1.00  0.00     0.031 A 
ATOM     41  C   UNL A   1      42.147  28.459  28.270  1.00  0.00     0.074 A 
ATOM     42  C   UNL A   1      39.766  29.029  28.688  1.00  0.00     0.049 A 
ATOM     43  N   UNL A   1      42.750  29.564  28.623  1.00  0.00    -0.248 NA
ATOM     44  C   UNL A   1      43.066  27.384  27.860  1.00  0.00     0.031 C 
ATOM     45  C   UNL A   1      38.325  28.786  28.798  1.00  0.00     0.029 A 
ATOM     46  N   UNL A   1      39.912  30.332  29.083  1.00  0.00    -0.354 N 
ATOM     47  C   UNL A   1      44.110  29.306  28.495  1.00  0.00     0.074 A 
ATOM     48  C   UNL A   1      44.246  27.915  28.131  1.00  0.00     0.031 C 
ATOM     49  C   UNL A   1      37.716  29.920  29.183  1.00  0.00     0.029 A 
ATOM     50  C   UNL A   1      38.723  30.955  29.382  1.00  0.00     0.049 A 
ATOM     51  H   UNL A   1      40.786  30.780  29.148  1.00  0.00     0.167 HD
ATOM     52  C   UNL A   1      45.151  30.163  28.624  1.00  0.00     0.034 A 
ATOM     53  C   UNL A   1      38.482  32.226  29.763  1.00  0.00     0.034 A 
ATOM     54  C   UNL A   1      44.985  31.555  28.953  1.00  0.00     0.049 A 
ATOM     55  C   UNL A   1      39.652  33.170  29.877  1.00  0.00     0.074 A 
ATOM     56  C   UNL A   1      45.950  32.541  29.058  1.00  0.00     0.029 A 
ATOM     57  N   UNL A   1      43.764  32.162  29.229  1.00  0.00    -0.354 N 
ATOM     58  N   UNL A   1      40.931  32.931  29.688  1.00  0.00    -0.248 NA
ATOM     59  C   UNL A   1      39.344  34.558  30.233  1.00  0.00     0.031 C 
ATOM     60  C   UNL A   1      45.321  33.725  29.456  1.00  0.00     0.029 A 
ATOM     61  C   UNL A   1      43.953  33.501  29.525  1.00  0.00     0.049 A 
ATOM     62  H   UNL A   1      42.893  31.705  29.215  1.00  0.00     0.167 HD
ATOM     63  C   UNL A   1      41.576  34.150  29.878  1.00  0.00     0.074 A 
ATOM     64  C   UNL A   1      40.540  35.122  30.164  1.00  0.00     0.031 C 
ATOM     65  C   UNL A   1      42.902  34.445  29.824  1.00  0.00     0.034 A 
BRANCH  52  66
ATOM     66  C   UNL A   1      46.539  29.602  28.419  1.00  0.00     0.023 A 
ATOM     67  C   UNL A   1      47.286  29.066  29.486  1.00  0.00     0.031 A 
ATOM     68  C   UNL A   1      47.151  29.657  27.156  1.00  0.00     0.131 A 
ATOM     69  C   UNL A   1      48.624  28.696  29.292  1.00  0.00     0.055 A 
ATOM     70  C   UNL A   1      48.455  29.200  26.948  1.00  0.00     0.041 A 
ATOM     71  F   UNL A   1      46.502  30.178  26.103  1.00  0.00    -0.206 F 
ATOM     72  C   UNL A   1      49.206  28.734  28.024  1.00  0.00     0.022 A 
BRANCH  69  73
ATOM     73  S   UNL A   1      49.639  28.323  30.749  1.00  0.00     0.124 S 
ATOM     74  O   UNL A   1      49.372  29.483  31.598  1.00  0.00    -0.237 OA
ATOM     75  O   UNL A   1      49.084  27.056  31.205  1.00  0.00    -0.237 OA
ATOM     76  O   UNL A   1      50.997  28.253  30.211  1.00  0.00    -0.744 OA
ENDBRANCH  69  73
ENDBRANCH  52  66
BRANCH  53  77
ATOM     77  C   UNL A   1      37.092  32.686  30.042  1.00  0.00     0.023 A 
ATOM     78  C   UNL A   1      36.669  32.962  31.352  1.00  0.00     0.031 A 
ATOM     79  C   UNL A   1      36.150  32.815  29.006  1.00  0.00     0.131 A 
ATOM     80  C   UNL A   1      35.329  33.299  31.601  1.00  0.00     0.055 A 
ATOM     81  C   UNL A   1      34.830  33.203  29.252  1.00  0.00     0.041 A 
ATOM     82  F   UNL A   1      36.502  32.573  27.733  1.00  0.00    -0.206 F 
ATOM     83  C   UNL A   1      34.410  33.433  30.558  1.00  0.00     0.022 A 
BRANCH  80  84
ATOM     84  S   UNL A   1      34.781  33.474  33.321  1.00  0.00     0.124 S 
ATOM     85  O   UNL A   1      33.379  33.084  33.229  1.00  0.00    -0.237 OA
ATOM     86  O   UNL A   1      35.663  32.541  34.016  1.00  0.00    -0.237 OA
ATOM     87  O   UNL A   1      35.018  34.887  33.612  1.00  0.00    -0.744 OA
ENDBRANCH  80  84
ENDBRANCH  53  77
BRANCH  65  88
ATOM     88  C   UNL A   1      43.283  35.887  30.050  1.00  0.00     0.023 A 
ATOM     89  C   UNL A   1      43.304  36.815  28.994  1.00  0.00     0.031 A 
ATOM     90  C   UNL A   1      43.662  36.329  31.329  1.00  0.00     0.131 A 
ATOM     91  C   UNL A   1      43.774  38.116  29.220  1.00  0.00     0.055 A 
ATOM     92  C   UNL A   1      44.057  37.646  31.562  1.00  0.00     0.041 A 
ATOM     93  F   UNL A   1      43.659  35.485  32.373  1.00  0.00    -0.206 F 
ATOM     94  C   UNL A   1      44.134  38.543  30.500  1.00  0.00     0.022 A 
BRANCH  91  95
ATOM     95  S   UNL A   1      44.031  39.204  27.791  1.00  0.00     0.124 S 
ATOM     96  O   UNL A   1      43.073  38.670  26.828  1.00  0.00    -0.237 OA
ATOM     97  O   UNL A   1      43.716  40.518  28.341  1.00  0.00    -0.237 OA
ATOM     98  O   UNL A   1      45.436  38.994  27.449  1.00  0.00    -0.744 OA
ENDBRANCH  91  95
ENDBRANCH  65  88
ENDBRANCH  39  40
ENDBRANCH  31  34
ENDBRANCH  29  30
ENDBRANCH  28  29
ENDBRANCH   1  28
TORSDOF 18
ENDMDL
