MODEL 1
REMARK VINA RESULT:     -13.0      0.000      0.000
REMARK SMILES NS(=O)(=O)c1ccc(-n2nc(C(F)F)cc2-c2ccc(C(=O)NCCCCNC(=O)c3ccc(-c4c5nc(c(-c6cc(S(=O)(=O)[O-])ccc6F)c6ccc([nH]6)c(-c6cc(S(=O)(=O)[O-])ccc6F)c6nc(c(-c7cc(S(=O)(=O)[O-])ccc7F)c7ccc4[nH]7)C=C6)C=C5)cc3)cc2)cc1
REMARK SMILES IDX 25 1 24 2 23 3 21 4 22 5 20 7 17 8 18 9 95 10 19 11 94 12
REMARK SMILES IDX 16 13 9 14 10 15 11 16 15 17 8 18 5 19 6 20 97 21 7 22 96 23
REMARK SMILES IDX 2 24 3 25 4 26 1 27 12 30 13 31 14 32 26 33 27 34 28 35
REMARK SMILES IDX 29 36 30 38 31 39 32 40 93 41 33 42 92 43 34 44 35 45 36 46
REMARK SMILES IDX 86 47 37 48 91 49 85 50 87 51 38 52 90 53 84 54 83 55 39 57
REMARK SMILES IDX 71 58 51 59 70 60 52 61 55 62 69 63 88 64 53 65 54 66 68 68
REMARK SMILES IDX 89 69 56 70 40 71 41 72 49 73 42 74 48 75 50 76 47 77 43 78
REMARK SMILES IDX 44 79 45 80 46 81 72 82 73 83 81 84 74 85 80 86 82 87 79 88
REMARK SMILES IDX 75 89 76 90 77 91 78 92 57 93 58 94 66 95 59 96 65 97 67 98
REMARK SMILES IDX 64 99 60 100 61 101 62 102 63 103
REMARK H PARENT 23 6 1 28 1 29 28 37 87 56 55 67
REMARK Flexibility Score: inf
ROOT
ATOM      1  C   UNL A   1      33.070  28.193  26.089  1.00  0.00     0.023 C 
ENDROOT
BRANCH   1   2
ATOM      2  C   UNL A   1      33.008  28.112  24.559  1.00  0.00     0.116 C 
BRANCH   2   3
ATOM      3  N   UNL A   1      32.026  27.135  24.130  1.00  0.00    -0.352 N 
ATOM      4  C   UNL A   1      32.053  25.766  24.053  1.00  0.00     0.251 C 
ATOM      5  O   UNL A   1      31.041  25.194  23.644  1.00  0.00    -0.269 OA
ATOM      6  H   UNL A   1      31.173  27.531  23.838  1.00  0.00     0.163 HD
BRANCH   4   7
ATOM      7  C   UNL A   1      33.226  24.943  24.464  1.00  0.00     0.039 A 
ATOM      8  C   UNL A   1      35.500  23.401  25.077  1.00  0.00     0.000 A 
ATOM      9  C   UNL A   1      35.222  23.742  23.749  1.00  0.00     0.011 A 
ATOM     10  C   UNL A   1      34.642  23.826  26.090  1.00  0.00     0.011 A 
ATOM     11  C   UNL A   1      34.087  24.500  23.446  1.00  0.00     0.014 A 
ATOM     12  C   UNL A   1      33.544  24.630  25.786  1.00  0.00     0.014 A 
BRANCH   8  13
ATOM     13  C   UNL A   1      36.723  22.696  25.431  1.00  0.00     0.075 A 
ATOM     14  N   UNL A   1      36.848  21.314  25.493  1.00  0.00    -0.233 N 
ATOM     15  N   UNL A   1      38.040  20.942  26.027  1.00  0.00    -0.166 NA
ATOM     16  C   UNL A   1      38.759  22.080  26.080  1.00  0.00     0.129 A 
ATOM     17  C   UNL A   1      37.958  23.203  25.769  1.00  0.00     0.060 A 
BRANCH  14  18
ATOM     18  C   UNL A   1      35.917  20.341  25.042  1.00  0.00     0.065 A 
ATOM     19  C   UNL A   1      34.068  18.382  24.334  1.00  0.00     0.082 A 
ATOM     20  C   UNL A   1      33.617  19.654  24.684  1.00  0.00     0.024 A 
ATOM     21  C   UNL A   1      35.437  18.092  24.300  1.00  0.00     0.024 A 
ATOM     22  C   UNL A   1      34.544  20.630  25.041  1.00  0.00     0.030 A 
ATOM     23  C   UNL A   1      36.369  19.084  24.626  1.00  0.00     0.030 A 
BRANCH  19  24
ATOM     24  S   UNL A   1      32.886  17.119  23.966  1.00  0.00     0.238 S 
ATOM     25  O   UNL A   1      31.776  17.231  24.895  1.00  0.00    -0.207 OA
ATOM     26  O   UNL A   1      33.587  15.888  23.736  1.00  0.00    -0.207 OA
BRANCH  24  27
ATOM     27  N   UNL A   1      32.259  17.595  22.481  1.00  0.00    -0.225 NA
ATOM     28  H   UNL A   1      31.261  17.786  22.579  1.00  0.00     0.137 HD
ATOM     29  H   UNL A   1      32.396  16.848  21.799  1.00  0.00     0.137 HD
ENDBRANCH  24  27
ENDBRANCH  19  24
ENDBRANCH  14  18
BRANCH  16  30
ATOM     30  C   UNL A   1      40.220  22.108  26.420  1.00  0.00     0.393 C 
ATOM     31  F   UNL A   1      40.446  22.082  27.761  1.00  0.00    -0.203 F 
ATOM     32  F   UNL A   1      40.873  21.033  25.894  1.00  0.00    -0.203 F 
ENDBRANCH  16  30
ENDBRANCH   8  13
ENDBRANCH   4   7
ENDBRANCH   2   3
ENDBRANCH   1   2
BRANCH   1  33
ATOM     33  C   UNL A   1      33.784  29.437  26.633  1.00  0.00     0.023 C 
BRANCH  33  34
ATOM     34  C   UNL A   1      35.028  29.140  27.466  1.00  0.00     0.116 C 
BRANCH  34  35
ATOM     35  N   UNL A   1      35.261  30.151  28.492  1.00  0.00    -0.352 N 
ATOM     36  C   UNL A   1      36.296  30.220  29.402  1.00  0.00     0.251 C 
ATOM     37  H   UNL A   1      34.596  30.876  28.541  1.00  0.00     0.163 HD
ATOM     38  O   UNL A   1      36.161  30.861  30.439  1.00  0.00    -0.269 OA
BRANCH  36  39
ATOM     39  C   UNL A   1      37.557  29.514  29.109  1.00  0.00     0.039 A 
ATOM     40  C   UNL A   1      38.337  29.876  28.012  1.00  0.00     0.014 A 
ATOM     41  C   UNL A   1      37.969  28.495  29.970  1.00  0.00     0.014 A 
ATOM     42  C   UNL A   1      39.586  29.280  27.846  1.00  0.00     0.010 A 
ATOM     43  C   UNL A   1      39.239  27.967  29.854  1.00  0.00     0.010 A 
ATOM     44  C   UNL A   1      40.054  28.348  28.789  1.00  0.00    -0.014 A 
BRANCH  44  45
ATOM     45  C   UNL A   1      41.463  27.930  28.767  1.00  0.00     0.031 A 
ATOM     46  C   UNL A   1      41.727  26.738  27.913  1.00  0.00     0.074 A 
ATOM     47  C   UNL A   1      42.492  28.650  29.267  1.00  0.00     0.049 A 
ATOM     48  N   UNL A   1      42.064  25.552  28.295  1.00  0.00    -0.248 NA
ATOM     49  C   UNL A   1      41.431  26.831  26.473  1.00  0.00     0.031 C 
ATOM     50  C   UNL A   1      42.423  29.980  29.881  1.00  0.00     0.029 A 
ATOM     51  N   UNL A   1      43.838  28.397  29.244  1.00  0.00    -0.354 N 
ATOM     52  C   UNL A   1      42.283  24.821  27.128  1.00  0.00     0.074 A 
ATOM     53  C   UNL A   1      41.668  25.580  26.073  1.00  0.00     0.031 C 
ATOM     54  C   UNL A   1      43.663  30.509  29.967  1.00  0.00     0.029 A 
ATOM     55  C   UNL A   1      44.629  29.495  29.581  1.00  0.00     0.049 A 
ATOM     56  H   UNL A   1      44.213  27.518  29.009  1.00  0.00     0.167 HD
ATOM     57  C   UNL A   1      43.191  23.805  27.105  1.00  0.00     0.034 A 
ATOM     58  C   UNL A   1      45.985  29.585  29.576  1.00  0.00     0.034 A 
ATOM     59  C   UNL A   1      43.576  23.447  28.453  1.00  0.00     0.049 A 
ATOM     60  C   UNL A   1      46.516  28.215  29.722  1.00  0.00     0.074 A 
ATOM     61  C   UNL A   1      42.980  22.840  29.536  1.00  0.00     0.029 A 
ATOM     62  N   UNL A   1      44.690  24.099  28.921  1.00  0.00    -0.354 N 
ATOM     63  N   UNL A   1      46.338  27.502  30.797  1.00  0.00    -0.248 NA
ATOM     64  C   UNL A   1      46.946  27.465  28.550  1.00  0.00     0.031 C 
ATOM     65  C   UNL A   1      43.609  23.399  30.689  1.00  0.00     0.029 A 
ATOM     66  C   UNL A   1      44.603  24.285  30.277  1.00  0.00     0.049 A 
ATOM     67  H   UNL A   1      45.445  24.392  28.362  1.00  0.00     0.167 HD
ATOM     68  C   UNL A   1      46.176  26.213  30.334  1.00  0.00     0.074 A 
ATOM     69  C   UNL A   1      46.754  26.220  28.997  1.00  0.00     0.031 C 
ATOM     70  C   UNL A   1      45.308  25.360  30.954  1.00  0.00     0.034 A 
BRANCH  57  71
ATOM     71  C   UNL A   1      44.087  23.438  25.928  1.00  0.00     0.023 A 
ATOM     72  C   UNL A   1      44.021  22.104  25.462  1.00  0.00     0.031 A 
ATOM     73  C   UNL A   1      45.183  24.189  25.450  1.00  0.00     0.131 A 
ATOM     74  C   UNL A   1      45.047  21.553  24.672  1.00  0.00     0.055 A 
ATOM     75  C   UNL A   1      46.175  23.652  24.620  1.00  0.00     0.041 A 
ATOM     76  F   UNL A   1      45.417  25.452  25.820  1.00  0.00    -0.206 F 
ATOM     77  C   UNL A   1      46.129  22.319  24.252  1.00  0.00     0.022 A 
BRANCH  74  78
ATOM     78  S   UNL A   1      45.031  19.772  24.340  1.00  0.00     0.124 S 
ATOM     79  O   UNL A   1      44.128  19.285  25.377  1.00  0.00    -0.237 OA
ATOM     80  O   UNL A   1      44.528  19.725  22.971  1.00  0.00    -0.237 OA
ATOM     81  O   UNL A   1      46.431  19.385  24.502  1.00  0.00    -0.744 OA
ENDBRANCH  74  78
ENDBRANCH  57  71
BRANCH  58  82
ATOM     82  C   UNL A   1      46.846  30.760  29.295  1.00  0.00     0.023 A 
ATOM     83  C   UNL A   1      46.655  31.603  28.178  1.00  0.00     0.031 A 
ATOM     84  C   UNL A   1      47.721  31.223  30.301  1.00  0.00     0.131 A 
ATOM     85  C   UNL A   1      47.307  32.857  28.115  1.00  0.00     0.055 A 
ATOM     86  C   UNL A   1      48.360  32.462  30.234  1.00  0.00     0.041 A 
ATOM     87  F   UNL A   1      47.908  30.520  31.430  1.00  0.00    -0.206 F 
ATOM     88  C   UNL A   1      48.145  33.292  29.144  1.00  0.00     0.022 A 
BRANCH  85  89
ATOM     89  S   UNL A   1      46.984  33.997  26.728  1.00  0.00     0.124 S 
ATOM     90  O   UNL A   1      48.323  34.468  26.393  1.00  0.00    -0.237 OA
ATOM     91  O   UNL A   1      46.336  33.129  25.752  1.00  0.00    -0.237 OA
ATOM     92  O   UNL A   1      46.108  35.011  27.319  1.00  0.00    -0.744 OA
ENDBRANCH  85  89
ENDBRANCH  58  82
BRANCH  70  93
ATOM     93  C   UNL A   1      44.958  25.663  32.394  1.00  0.00     0.023 A 
ATOM     94  C   UNL A   1      43.768  26.291  32.829  1.00  0.00     0.031 A 
ATOM     95  C   UNL A   1      45.887  25.278  33.375  1.00  0.00     0.131 A 
ATOM     96  C   UNL A   1      43.561  26.538  34.199  1.00  0.00     0.055 A 
ATOM     97  C   UNL A   1      45.668  25.500  34.733  1.00  0.00     0.041 A 
ATOM     98  F   UNL A   1      47.030  24.663  33.027  1.00  0.00    -0.206 F 
ATOM     99  C   UNL A   1      44.508  26.142  35.150  1.00  0.00     0.022 A 
BRANCH  96 100
ATOM    100  S   UNL A   1      42.072  27.422  34.767  1.00  0.00     0.124 S 
ATOM    101  O   UNL A   1      41.200  26.357  35.248  1.00  0.00    -0.237 OA
ATOM    102  O   UNL A   1      42.609  28.316  35.791  1.00  0.00    -0.237 OA
ATOM    103  O   UNL A   1      41.598  28.100  33.560  1.00  0.00    -0.744 OA
ENDBRANCH  96 100
ENDBRANCH  70  93
ENDBRANCH  44  45
ENDBRANCH  36  39
ENDBRANCH  34  35
ENDBRANCH  33  34
ENDBRANCH   1  33
TORSDOF 19
ENDMDL
MODEL 2
REMARK VINA RESULT:     -12.1      4.261      9.261
REMARK SMILES NS(=O)(=O)c1ccc(-n2nc(C(F)F)cc2-c2ccc(C(=O)NCCCCNC(=O)c3ccc(-c4c5nc(c(-c6cc(S(=O)(=O)[O-])ccc6F)c6ccc([nH]6)c(-c6cc(S(=O)(=O)[O-])ccc6F)c6nc(c(-c7cc(S(=O)(=O)[O-])ccc7F)c7ccc4[nH]7)C=C6)C=C5)cc3)cc2)cc1
REMARK SMILES IDX 25 1 24 2 23 3 21 4 22 5 20 7 17 8 18 9 95 10 19 11 94 12
REMARK SMILES IDX 16 13 9 14 10 15 11 16 15 17 8 18 5 19 6 20 97 21 7 22 96 23
REMARK SMILES IDX 2 24 3 25 4 26 1 27 12 30 13 31 14 32 26 33 27 34 28 35
REMARK SMILES IDX 29 36 30 38 31 39 32 40 93 41 33 42 92 43 34 44 35 45 36 46
REMARK SMILES IDX 86 47 37 48 91 49 85 50 87 51 38 52 90 53 84 54 83 55 39 57
REMARK SMILES IDX 71 58 51 59 70 60 52 61 55 62 69 63 88 64 53 65 54 66 68 68
REMARK SMILES IDX 89 69 56 70 40 71 41 72 49 73 42 74 48 75 50 76 47 77 43 78
REMARK SMILES IDX 44 79 45 80 46 81 72 82 73 83 81 84 74 85 80 86 82 87 79 88
REMARK SMILES IDX 75 89 76 90 77 91 78 92 57 93 58 94 66 95 59 96 65 97 67 98
REMARK SMILES IDX 64 99 60 100 61 101 62 102 63 103
REMARK H PARENT 23 6 1 28 1 29 28 37 87 56 55 67
REMARK Flexibility Score: inf
ROOT
ATOM      1  C   UNL A   1      35.836  22.181  26.168  1.00  0.00     0.023 C 
ENDROOT
BRANCH   1   2
ATOM      2  C   UNL A   1      34.533  22.753  26.740  1.00  0.00     0.116 C 
BRANCH   2   3
ATOM      3  N   UNL A   1      33.393  21.951  26.338  1.00  0.00    -0.352 N 
ATOM      4  C   UNL A   1      32.184  22.274  25.777  1.00  0.00     0.251 C 
ATOM      5  O   UNL A   1      31.399  21.356  25.537  1.00  0.00    -0.269 OA
ATOM      6  H   UNL A   1      33.509  20.987  26.499  1.00  0.00     0.163 HD
BRANCH   4   7
ATOM      7  C   UNL A   1      31.790  23.667  25.420  1.00  0.00     0.039 A 
ATOM      8  C   UNL A   1      31.107  26.267  24.586  1.00  0.00     0.000 A 
ATOM      9  C   UNL A   1      31.865  25.441  23.750  1.00  0.00     0.011 A 
ATOM     10  C   UNL A   1      30.699  25.796  25.833  1.00  0.00     0.011 A 
ATOM     11  C   UNL A   1      32.210  24.152  24.171  1.00  0.00     0.014 A 
ATOM     12  C   UNL A   1      30.998  24.490  26.221  1.00  0.00     0.014 A 
BRANCH   8  13
ATOM     13  C   UNL A   1      30.652  27.575  24.137  1.00  0.00     0.075 A 
ATOM     14  N   UNL A   1      31.134  28.786  24.616  1.00  0.00    -0.233 N 
ATOM     15  N   UNL A   1      30.403  29.834  24.156  1.00  0.00    -0.166 NA
ATOM     16  C   UNL A   1      29.611  29.305  23.203  1.00  0.00     0.129 A 
ATOM     17  C   UNL A   1      29.697  27.893  23.198  1.00  0.00     0.060 A 
BRANCH  14  18
ATOM     18  C   UNL A   1      32.266  28.997  25.449  1.00  0.00     0.065 A 
ATOM     19  C   UNL A   1      34.502  29.580  27.003  1.00  0.00     0.082 A 
ATOM     20  C   UNL A   1      33.238  29.967  27.449  1.00  0.00     0.024 A 
ATOM     21  C   UNL A   1      34.652  28.873  25.805  1.00  0.00     0.024 A 
ATOM     22  C   UNL A   1      32.123  29.678  26.667  1.00  0.00     0.030 A 
ATOM     23  C   UNL A   1      33.526  28.552  25.037  1.00  0.00     0.030 A 
BRANCH  19  24
ATOM     24  S   UNL A   1      35.925  30.025  27.954  1.00  0.00     0.238 S 
ATOM     25  O   UNL A   1      36.276  31.402  27.655  1.00  0.00    -0.207 OA
ATOM     26  O   UNL A   1      36.873  28.950  27.891  1.00  0.00    -0.207 OA
BRANCH  24  27
ATOM     27  N   UNL A   1      35.345  30.056  29.531  1.00  0.00    -0.225 NA
ATOM     28  H   UNL A   1      35.223  29.100  29.867  1.00  0.00     0.137 HD
ATOM     29  H   UNL A   1      34.447  30.541  29.554  1.00  0.00     0.137 HD
ENDBRANCH  24  27
ENDBRANCH  19  24
ENDBRANCH  14  18
BRANCH  16  30
ATOM     30  C   UNL A   1      28.771  30.139  22.283  1.00  0.00     0.393 C 
ATOM     31  F   UNL A   1      27.546  29.595  22.055  1.00  0.00    -0.203 F 
ATOM     32  F   UNL A   1      28.554  31.383  22.798  1.00  0.00    -0.203 F 
ENDBRANCH  16  30
ENDBRANCH   8  13
ENDBRANCH   4   7
ENDBRANCH   2   3
ENDBRANCH   1   2
BRANCH   1  33
ATOM     33  C   UNL A   1      36.622  23.153  25.279  1.00  0.00     0.023 C 
BRANCH  33  34
ATOM     34  C   UNL A   1      37.778  23.860  25.983  1.00  0.00     0.116 C 
BRANCH  34  35
ATOM     35  N   UNL A   1      38.926  22.982  26.180  1.00  0.00    -0.352 N 
ATOM     36  C   UNL A   1      40.163  23.299  26.702  1.00  0.00     0.251 C 
ATOM     37  H   UNL A   1      38.802  22.044  25.906  1.00  0.00     0.163 HD
ATOM     38  O   UNL A   1      41.138  22.602  26.440  1.00  0.00    -0.269 OA
BRANCH  36  39
ATOM     39  C   UNL A   1      40.293  24.484  27.569  1.00  0.00     0.039 A 
ATOM     40  C   UNL A   1      41.497  24.764  28.216  1.00  0.00     0.014 A 
ATOM     41  C   UNL A   1      39.197  25.338  27.706  1.00  0.00     0.014 A 
ATOM     42  C   UNL A   1      41.624  25.962  28.917  1.00  0.00     0.010 A 
ATOM     43  C   UNL A   1      39.350  26.562  28.326  1.00  0.00     0.010 A 
ATOM     44  C   UNL A   1      40.560  26.881  28.942  1.00  0.00    -0.014 A 
BRANCH  44  45
ATOM     45  C   UNL A   1      40.784  28.246  29.439  1.00  0.00     0.031 A 
ATOM     46  C   UNL A   1      41.825  29.000  28.685  1.00  0.00     0.074 A 
ATOM     47  C   UNL A   1      39.999  28.883  30.335  1.00  0.00     0.049 A 
ATOM     48  N   UNL A   1      42.993  29.362  29.098  1.00  0.00    -0.248 NA
ATOM     49  C   UNL A   1      41.607  29.247  27.249  1.00  0.00     0.031 C 
ATOM     50  C   UNL A   1      38.769  28.373  30.950  1.00  0.00     0.029 A 
ATOM     51  N   UNL A   1      40.069  30.163  30.815  1.00  0.00    -0.354 N 
ATOM     52  C   UNL A   1      43.550  30.114  28.065  1.00  0.00     0.074 A 
ATOM     53  C   UNL A   1      42.762  29.818  26.900  1.00  0.00     0.031 C 
ATOM     54  C   UNL A   1      38.096  29.388  31.535  1.00  0.00     0.029 A 
ATOM     55  C   UNL A   1      38.924  30.582  31.492  1.00  0.00     0.049 A 
ATOM     56  H   UNL A   1      40.859  30.738  30.692  1.00  0.00     0.167 HD
ATOM     57  C   UNL A   1      44.429  31.120  28.334  1.00  0.00     0.034 A 
ATOM     58  C   UNL A   1      38.657  31.808  32.012  1.00  0.00     0.034 A 
ATOM     59  C   UNL A   1      44.887  31.032  29.704  1.00  0.00     0.049 A 
ATOM     60  C   UNL A   1      39.953  32.465  32.273  1.00  0.00     0.074 A 
ATOM     61  C   UNL A   1      45.687  30.186  30.439  1.00  0.00     0.029 A 
ATOM     62  N   UNL A   1      44.153  31.770  30.600  1.00  0.00    -0.354 N 
ATOM     63  N   UNL A   1      40.802  32.022  33.155  1.00  0.00    -0.248 NA
ATOM     64  C   UNL A   1      40.501  33.416  31.314  1.00  0.00     0.031 C 
ATOM     65  C   UNL A   1      45.187  30.243  31.776  1.00  0.00     0.029 A 
ATOM     66  C   UNL A   1      44.137  31.159  31.827  1.00  0.00     0.049 A 
ATOM     67  H   UNL A   1      43.701  32.620  30.391  1.00  0.00     0.167 HD
ATOM     68  C   UNL A   1      42.040  32.258  32.593  1.00  0.00     0.074 A 
ATOM     69  C   UNL A   1      41.803  33.280  31.582  1.00  0.00     0.031 C 
ATOM     70  C   UNL A   1      43.064  31.375  32.783  1.00  0.00     0.034 A 
BRANCH  57  71
ATOM     71  C   UNL A   1      44.538  32.436  27.572  1.00  0.00     0.023 A 
ATOM     72  C   UNL A   1      43.878  33.556  28.127  1.00  0.00     0.031 A 
ATOM     73  C   UNL A   1      44.967  32.589  26.235  1.00  0.00     0.131 A 
ATOM     74  C   UNL A   1      43.579  34.689  27.348  1.00  0.00     0.055 A 
ATOM     75  C   UNL A   1      44.713  33.741  25.479  1.00  0.00     0.041 A 
ATOM     76  F   UNL A   1      45.572  31.617  25.548  1.00  0.00    -0.206 F 
ATOM     77  C   UNL A   1      43.988  34.786  26.023  1.00  0.00     0.022 A 
BRANCH  74  78
ATOM     78  S   UNL A   1      42.498  35.966  28.046  1.00  0.00     0.124 S 
ATOM     79  O   UNL A   1      42.702  35.778  29.477  1.00  0.00    -0.237 OA
ATOM     80  O   UNL A   1      43.057  37.183  27.467  1.00  0.00    -0.237 OA
ATOM     81  O   UNL A   1      41.174  35.594  27.551  1.00  0.00    -0.744 OA
ENDBRANCH  74  78
ENDBRANCH  57  71
BRANCH  58  82
ATOM     82  C   UNL A   1      37.355  32.506  32.150  1.00  0.00     0.023 A 
ATOM     83  C   UNL A   1      36.625  32.996  31.046  1.00  0.00     0.031 A 
ATOM     84  C   UNL A   1      36.679  32.454  33.388  1.00  0.00     0.131 A 
ATOM     85  C   UNL A   1      35.275  33.387  31.203  1.00  0.00     0.055 A 
ATOM     86  C   UNL A   1      35.345  32.838  33.537  1.00  0.00     0.041 A 
ATOM     87  F   UNL A   1      37.272  31.936  34.476  1.00  0.00    -0.206 F 
ATOM     88  C   UNL A   1      34.632  33.295  32.439  1.00  0.00     0.022 A 
BRANCH  85  89
ATOM     89  S   UNL A   1      34.294  33.922  29.761  1.00  0.00     0.124 S 
ATOM     90  O   UNL A   1      33.782  32.658  29.245  1.00  0.00    -0.237 OA
ATOM     91  O   UNL A   1      33.317  34.823  30.362  1.00  0.00    -0.237 OA
ATOM     92  O   UNL A   1      35.282  34.579  28.903  1.00  0.00    -0.744 OA
ENDBRANCH  85  89
ENDBRANCH  58  82
BRANCH  70  93
ATOM     93  C   UNL A   1      42.978  30.472  33.993  1.00  0.00     0.023 A 
ATOM     94  C   UNL A   1      42.453  29.160  33.995  1.00  0.00     0.031 A 
ATOM     95  C   UNL A   1      43.469  30.979  35.208  1.00  0.00     0.131 A 
ATOM     96  C   UNL A   1      42.408  28.420  35.191  1.00  0.00     0.055 A 
ATOM     97  C   UNL A   1      43.448  30.234  36.385  1.00  0.00     0.041 A 
ATOM     98  F   UNL A   1      43.995  32.213  35.269  1.00  0.00    -0.206 F 
ATOM     99  C   UNL A   1      42.905  28.955  36.384  1.00  0.00     0.022 A 
BRANCH  96 100
ATOM    100  S   UNL A   1      41.657  26.760  35.227  1.00  0.00     0.124 S 
ATOM    101  O   UNL A   1      41.251  26.593  36.618  1.00  0.00    -0.237 OA
ATOM    102  O   UNL A   1      40.570  26.885  34.258  1.00  0.00    -0.237 OA
ATOM    103  O   UNL A   1      42.750  25.883  34.802  1.00  0.00    -0.744 OA
ENDBRANCH  96 100
ENDBRANCH  70  93
ENDBRANCH  44  45
ENDBRANCH  36  39
ENDBRANCH  34  35
ENDBRANCH  33  34
ENDBRANCH   1  33
TORSDOF 19
ENDMDL
MODEL 3
REMARK VINA RESULT:     -12.0      2.300      6.901
REMARK SMILES NS(=O)(=O)c1ccc(-n2nc(C(F)F)cc2-c2ccc(C(=O)NCCCCNC(=O)c3ccc(-c4c5nc(c(-c6cc(S(=O)(=O)[O-])ccc6F)c6ccc([nH]6)c(-c6cc(S(=O)(=O)[O-])ccc6F)c6nc(c(-c7cc(S(=O)(=O)[O-])ccc7F)c7ccc4[nH]7)C=C6)C=C5)cc3)cc2)cc1
REMARK SMILES IDX 25 1 24 2 23 3 21 4 22 5 20 7 17 8 18 9 95 10 19 11 94 12
REMARK SMILES IDX 16 13 9 14 10 15 11 16 15 17 8 18 5 19 6 20 97 21 7 22 96 23
REMARK SMILES IDX 2 24 3 25 4 26 1 27 12 30 13 31 14 32 26 33 27 34 28 35
REMARK SMILES IDX 29 36 30 38 31 39 32 40 93 41 33 42 92 43 34 44 35 45 36 46
REMARK SMILES IDX 86 47 37 48 91 49 85 50 87 51 38 52 90 53 84 54 83 55 39 57
REMARK SMILES IDX 71 58 51 59 70 60 52 61 55 62 69 63 88 64 53 65 54 66 68 68
REMARK SMILES IDX 89 69 56 70 40 71 41 72 49 73 42 74 48 75 50 76 47 77 43 78
REMARK SMILES IDX 44 79 45 80 46 81 72 82 73 83 81 84 74 85 80 86 82 87 79 88
REMARK SMILES IDX 75 89 76 90 77 91 78 92 57 93 58 94 66 95 59 96 65 97 67 98
REMARK SMILES IDX 64 99 60 100 61 101 62 102 63 103
REMARK H PARENT 23 6 1 28 1 29 28 37 87 56 55 67
REMARK Flexibility Score: inf
ROOT
ATOM      1  C   UNL A   1      31.557  28.370  27.385  1.00  0.00     0.023 C 
ENDROOT
BRANCH   1   2
ATOM      2  C   UNL A   1      31.517  27.483  26.135  1.00  0.00     0.116 C 
BRANCH   2   3
ATOM      3  N   UNL A   1      30.641  26.344  26.334  1.00  0.00    -0.352 N 
ATOM      4  C   UNL A   1      30.880  24.996  26.430  1.00  0.00     0.251 C 
ATOM      5  O   UNL A   1      29.914  24.254  26.608  1.00  0.00    -0.269 OA
ATOM      6  H   UNL A   1      29.690  26.584  26.418  1.00  0.00     0.163 HD
BRANCH   4   7
ATOM      7  C   UNL A   1      32.242  24.397  26.357  1.00  0.00     0.039 A 
ATOM      8  C   UNL A   1      34.855  23.381  26.099  1.00  0.00     0.000 A 
ATOM      9  C   UNL A   1      34.387  24.345  25.201  1.00  0.00     0.011 A 
ATOM     10  C   UNL A   1      34.019  22.925  27.117  1.00  0.00     0.011 A 
ATOM     11  C   UNL A   1      33.086  24.841  25.326  1.00  0.00     0.014 A 
ATOM     12  C   UNL A   1      32.743  23.467  27.270  1.00  0.00     0.014 A 
BRANCH   8  13
ATOM     13  C   UNL A   1      36.234  22.917  26.052  1.00  0.00     0.075 A 
ATOM     14  N   UNL A   1      36.623  21.630  25.703  1.00  0.00    -0.233 N 
ATOM     15  N   UNL A   1      37.947  21.429  25.925  1.00  0.00    -0.166 NA
ATOM     16  C   UNL A   1      38.439  22.656  26.187  1.00  0.00     0.129 A 
ATOM     17  C   UNL A   1      37.396  23.602  26.329  1.00  0.00     0.060 A 
BRANCH  14  18
ATOM     18  C   UNL A   1      35.815  20.606  25.142  1.00  0.00     0.065 A 
ATOM     19  C   UNL A   1      34.167  18.562  24.213  1.00  0.00     0.082 A 
ATOM     20  C   UNL A   1      33.657  19.855  24.325  1.00  0.00     0.024 A 
ATOM     21  C   UNL A   1      35.504  18.290  24.527  1.00  0.00     0.024 A 
ATOM     22  C   UNL A   1      34.483  20.874  24.794  1.00  0.00     0.030 A 
ATOM     23  C   UNL A   1      36.342  19.322  24.965  1.00  0.00     0.030 A 
BRANCH  19  24
ATOM     24  S   UNL A   1      33.094  17.254  23.701  1.00  0.00     0.238 S 
ATOM     25  O   UNL A   1      32.146  16.981  24.766  1.00  0.00    -0.207 OA
ATOM     26  O   UNL A   1      33.883  16.228  23.082  1.00  0.00    -0.207 OA
BRANCH  24  27
ATOM     27  N   UNL A   1      32.181  17.956  22.476  1.00  0.00    -0.225 NA
ATOM     28  H   UNL A   1      32.274  17.403  21.624  1.00  0.00     0.137 HD
ATOM     29  H   UNL A   1      32.514  18.905  22.305  1.00  0.00     0.137 HD
ENDBRANCH  24  27
ENDBRANCH  19  24
ENDBRANCH  14  18
BRANCH  16  30
ATOM     30  C   UNL A   1      39.907  22.942  26.297  1.00  0.00     0.393 C 
ATOM     31  F   UNL A   1      40.659  22.134  25.502  1.00  0.00    -0.203 F 
ATOM     32  F   UNL A   1      40.194  24.223  25.929  1.00  0.00    -0.203 F 
ENDBRANCH  16  30
ENDBRANCH   8  13
ENDBRANCH   4   7
ENDBRANCH   2   3
ENDBRANCH   1   2
BRANCH   1  33
ATOM     33  C   UNL A   1      32.169  29.759  27.161  1.00  0.00     0.023 C 
BRANCH  33  34
ATOM     34  C   UNL A   1      33.630  29.882  27.586  1.00  0.00     0.116 C 
BRANCH  34  35
ATOM     35  N   UNL A   1      34.217  31.158  27.188  1.00  0.00    -0.352 N 
ATOM     36  C   UNL A   1      35.378  31.743  27.647  1.00  0.00     0.251 C 
ATOM     37  H   UNL A   1      33.720  31.665  26.504  1.00  0.00     0.163 HD
ATOM     38  O   UNL A   1      35.538  32.955  27.545  1.00  0.00    -0.269 OA
BRANCH  36  39
ATOM     39  C   UNL A   1      36.415  30.894  28.261  1.00  0.00     0.039 A 
ATOM     40  C   UNL A   1      36.683  29.622  27.757  1.00  0.00     0.014 A 
ATOM     41  C   UNL A   1      37.144  31.400  29.339  1.00  0.00     0.014 A 
ATOM     42  C   UNL A   1      37.759  28.904  28.275  1.00  0.00     0.010 A 
ATOM     43  C   UNL A   1      38.260  30.727  29.792  1.00  0.00     0.010 A 
ATOM     44  C   UNL A   1      38.573  29.472  29.271  1.00  0.00    -0.014 A 
BRANCH  44  45
ATOM     45  C   UNL A   1      39.854  28.840  29.617  1.00  0.00     0.031 A 
ATOM     46  C   UNL A   1      40.133  28.803  31.080  1.00  0.00     0.074 A 
ATOM     47  C   UNL A   1      40.632  28.145  28.758  1.00  0.00     0.049 A 
ATOM     48  N   UNL A   1      41.033  29.462  31.730  1.00  0.00    -0.248 NA
ATOM     49  C   UNL A   1      39.203  28.064  31.951  1.00  0.00     0.031 C 
ATOM     50  C   UNL A   1      40.346  27.849  27.350  1.00  0.00     0.029 A 
ATOM     51  N   UNL A   1      41.798  27.463  28.981  1.00  0.00    -0.354 N 
ATOM     52  C   UNL A   1      40.957  29.018  33.049  1.00  0.00     0.074 A 
ATOM     53  C   UNL A   1      39.690  28.347  33.161  1.00  0.00     0.031 C 
ATOM     54  C   UNL A   1      41.178  26.880  26.910  1.00  0.00     0.029 A 
ATOM     55  C   UNL A   1      42.166  26.610  27.940  1.00  0.00     0.049 A 
ATOM     56  H   UNL A   1      42.330  27.565  29.803  1.00  0.00     0.167 HD
ATOM     57  C   UNL A   1      42.065  29.003  33.843  1.00  0.00     0.034 A 
ATOM     58  C   UNL A   1      43.218  25.750  27.892  1.00  0.00     0.034 A 
ATOM     59  C   UNL A   1      43.127  29.775  33.234  1.00  0.00     0.049 A 
ATOM     60  C   UNL A   1      44.237  26.250  28.837  1.00  0.00     0.074 A 
ATOM     61  C   UNL A   1      43.376  31.104  32.976  1.00  0.00     0.029 A 
ATOM     62  N   UNL A   1      43.985  29.045  32.448  1.00  0.00    -0.354 N 
ATOM     63  N   UNL A   1      44.858  27.381  28.668  1.00  0.00    -0.248 NA
ATOM     64  C   UNL A   1      44.334  25.687  30.177  1.00  0.00     0.031 C 
ATOM     65  C   UNL A   1      44.193  31.125  31.805  1.00  0.00     0.029 A 
ATOM     66  C   UNL A   1      44.463  29.813  31.418  1.00  0.00     0.049 A 
ATOM     67  H   UNL A   1      44.223  28.102  32.602  1.00  0.00     0.167 HD
ATOM     68  C   UNL A   1      45.012  27.885  29.943  1.00  0.00     0.074 A 
ATOM     69  C   UNL A   1      44.861  26.732  30.821  1.00  0.00     0.031 C 
ATOM     70  C   UNL A   1      44.925  29.228  30.170  1.00  0.00     0.034 A 
BRANCH  57  71
ATOM     71  C   UNL A   1      42.387  27.956  34.902  1.00  0.00     0.023 A 
ATOM     72  C   UNL A   1      43.239  26.894  34.518  1.00  0.00     0.031 A 
ATOM     73  C   UNL A   1      41.699  27.766  36.121  1.00  0.00     0.131 A 
ATOM     74  C   UNL A   1      43.292  25.696  35.254  1.00  0.00     0.055 A 
ATOM     75  C   UNL A   1      41.796  26.592  36.878  1.00  0.00     0.041 A 
ATOM     76  F   UNL A   1      40.828  28.652  36.611  1.00  0.00    -0.206 F 
ATOM     77  C   UNL A   1      42.570  25.535  36.431  1.00  0.00     0.022 A 
BRANCH  74  78
ATOM     78  S   UNL A   1      44.192  24.285  34.557  1.00  0.00     0.124 S 
ATOM     79  O   UNL A   1      45.577  24.653  34.829  1.00  0.00    -0.237 OA
ATOM     80  O   UNL A   1      43.654  23.173  35.333  1.00  0.00    -0.237 OA
ATOM     81  O   UNL A   1      43.808  24.303  33.147  1.00  0.00    -0.744 OA
ENDBRANCH  74  78
ENDBRANCH  57  71
BRANCH  58  82
ATOM     82  C   UNL A   1      43.329  24.443  27.199  1.00  0.00     0.023 A 
ATOM     83  C   UNL A   1      44.121  24.249  26.047  1.00  0.00     0.031 A 
ATOM     84  C   UNL A   1      42.849  23.284  27.845  1.00  0.00     0.131 A 
ATOM     85  C   UNL A   1      44.420  22.940  25.602  1.00  0.00     0.055 A 
ATOM     86  C   UNL A   1      43.149  21.994  27.403  1.00  0.00     0.041 A 
ATOM     87  F   UNL A   1      42.147  23.371  28.987  1.00  0.00    -0.206 F 
ATOM     88  C   UNL A   1      43.949  21.817  26.285  1.00  0.00     0.022 A 
BRANCH  85  89
ATOM     89  S   UNL A   1      45.529  22.679  24.177  1.00  0.00     0.124 S 
ATOM     90  O   UNL A   1      46.428  21.641  24.667  1.00  0.00    -0.237 OA
ATOM     91  O   UNL A   1      44.600  22.292  23.122  1.00  0.00    -0.237 OA
ATOM     92  O   UNL A   1      46.153  23.991  23.988  1.00  0.00    -0.744 OA
ENDBRANCH  85  89
ENDBRANCH  58  82
BRANCH  70  93
ATOM     93  C   UNL A   1      45.186  30.143  28.994  1.00  0.00     0.023 A 
ATOM     94  C   UNL A   1      46.459  30.593  28.578  1.00  0.00     0.031 A 
ATOM     95  C   UNL A   1      44.071  30.568  28.253  1.00  0.00     0.131 A 
ATOM     96  C   UNL A   1      46.575  31.460  27.475  1.00  0.00     0.055 A 
ATOM     97  C   UNL A   1      44.190  31.405  27.146  1.00  0.00     0.041 A 
ATOM     98  F   UNL A   1      42.834  30.162  28.588  1.00  0.00    -0.206 F 
ATOM     99  C   UNL A   1      45.444  31.865  26.760  1.00  0.00     0.022 A 
BRANCH  96 100
ATOM    100  S   UNL A   1      48.201  32.117  26.979  1.00  0.00     0.124 S 
ATOM    101  O   UNL A   1      47.875  33.136  25.989  1.00  0.00    -0.237 OA
ATOM    102  O   UNL A   1      48.742  32.609  28.244  1.00  0.00    -0.237 OA
ATOM    103  O   UNL A   1      48.892  30.943  26.440  1.00  0.00    -0.744 OA
ENDBRANCH  96 100
ENDBRANCH  70  93
ENDBRANCH  44  45
ENDBRANCH  36  39
ENDBRANCH  34  35
ENDBRANCH  33  34
ENDBRANCH   1  33
TORSDOF 19
ENDMDL
