MODEL 1
REMARK VINA RESULT:     -13.8      0.000      0.000
REMARK SMILES Cc1ccc(S(=O)(=O)n2cc(C(=O)C(=O)NCC(=O)N[C@@H](Cc3c[nH]c4ccccc34)C(=O)NCCCCNC(=O)c3ccc(-c4c5nc(c(-c6cc(S(=O)(=O)[O-])ccc6F)c6ccc([nH]6)c(-c6cc(S(=O)(=O)[O-])ccc6F)c6nc(c(-c7cc(S(=O)(=O)[O-])ccc7F)c7ccc4[nH]7)C=C6)C=C5)cc3)c3ccccc32)cc1
REMARK SMILES IDX 32 1 33 2 34 3 21 5 20 6 18 7 19 8 17 10 16 11 14 12 15 13
REMARK SMILES IDX 12 15 13 16 11 17 9 18 10 19 110 20 105 21 109 22 106 23
REMARK SMILES IDX 108 24 107 25 6 26 7 27 8 28 5 29 1 30 2 31 3 32 112 33 4 34
REMARK SMILES IDX 111 35 22 36 23 37 24 38 31 39 25 40 26 41 30 42 27 44 29 45
REMARK SMILES IDX 28 46 35 47 36 48 37 49 38 50 39 51 40 52 41 54 42 55 43 56
REMARK SMILES IDX 104 57 44 58 103 59 45 60 46 61 47 62 97 63 48 64 102 65
REMARK SMILES IDX 96 66 98 67 49 68 101 69 95 70 94 71 50 73 82 74 62 75 81 76
REMARK SMILES IDX 63 77 66 78 80 79 99 80 64 81 65 82 79 84 100 85 67 86 51 87
REMARK SMILES IDX 52 88 60 89 53 90 59 91 61 92 58 93 54 94 55 95 56 96 57 97
REMARK SMILES IDX 83 98 84 99 92 100 85 101 91 102 93 103 90 104 86 105 87 106
REMARK SMILES IDX 88 107 89 108 68 109 69 110 77 111 70 112 76 113 78 114
REMARK SMILES IDX 75 115 71 116 72 117 73 118 74 119
REMARK H PARENT 34 4 20 9 16 14 25 43 39 53 98 72 66 83
REMARK Flexibility Score: inf
ROOT
ATOM      1  C   UNL A   1      33.588  25.189  25.052  1.00  0.00     0.242 C 
ATOM      2  O   UNL A   1      34.574  25.541  24.389  1.00  0.00    -0.273 OA
ATOM      3  N   UNL A   1      33.146  26.074  25.987  1.00  0.00    -0.354 N 
ATOM      4  H   UNL A   1      33.820  26.732  26.272  1.00  0.00     0.163 HD
ENDROOT
BRANCH   1   5
ATOM      5  C   UNL A   1      32.912  23.838  24.727  1.00  0.00     0.175 C 
BRANCH   5   6
ATOM      6  N   UNL A   1      32.871  22.885  25.841  1.00  0.00    -0.342 N 
ATOM      7  C   UNL A   1      33.656  21.777  26.005  1.00  0.00     0.240 C 
ATOM      8  O   UNL A   1      33.776  21.284  27.128  1.00  0.00    -0.273 OA
ATOM      9  H   UNL A   1      32.207  23.062  26.545  1.00  0.00     0.164 HD
BRANCH   7  10
ATOM     10  C   UNL A   1      34.419  21.208  24.794  1.00  0.00     0.216 C 
BRANCH  10  11
ATOM     11  N   UNL A   1      35.190  22.268  24.135  1.00  0.00    -0.340 N 
ATOM     12  C   UNL A   1      36.546  22.528  24.199  1.00  0.00     0.292 C 
ATOM     13  O   UNL A   1      37.032  23.503  23.638  1.00  0.00    -0.265 OA
ATOM     14  H   UNL A   1      34.668  22.879  23.566  1.00  0.00     0.164 HD
BRANCH  12  15
ATOM     15  C   UNL A   1      37.452  21.574  24.983  1.00  0.00     0.252 C 
ATOM     16  O   UNL A   1      37.174  20.376  24.909  1.00  0.00    -0.283 OA
BRANCH  15  17
ATOM     17  C   UNL A   1      38.494  22.077  25.890  1.00  0.00     0.054 A 
ATOM     18  N   UNL A   1      39.810  23.295  27.277  1.00  0.00    -0.240 N 
ATOM     19  C   UNL A   1      38.633  23.319  26.521  1.00  0.00     0.117 A 
ATOM     20  C   UNL A   1      40.230  21.955  27.336  1.00  0.00     0.065 A 
ATOM     21  C   UNL A   1      39.662  21.330  26.230  1.00  0.00     0.012 A 
ATOM     22  C   UNL A   1      41.262  21.351  28.078  1.00  0.00     0.028 A 
ATOM     23  C   UNL A   1      40.274  20.162  25.729  1.00  0.00     0.011 A 
ATOM     24  C   UNL A   1      41.896  20.241  27.521  1.00  0.00     0.002 A 
ATOM     25  C   UNL A   1      41.436  19.678  26.339  1.00  0.00     0.001 A 
BRANCH  18  26
ATOM     26  S   UNL A   1      41.176  24.371  27.008  1.00  0.00     0.268 S 
ATOM     27  O   UNL A   1      41.364  25.011  28.299  1.00  0.00    -0.201 OA
ATOM     28  O   UNL A   1      40.755  25.144  25.847  1.00  0.00    -0.201 OA
BRANCH  26  29
ATOM     29  C   UNL A   1      42.776  23.838  26.513  1.00  0.00     0.088 A 
ATOM     30  C   UNL A   1      46.278  22.383  24.439  1.00  0.00     0.044 C 
ATOM     31  C   UNL A   1      45.094  22.929  25.184  1.00  0.00    -0.051 A 
ATOM     32  C   UNL A   1      43.934  23.155  24.458  1.00  0.00     0.005 A 
ATOM     33  C   UNL A   1      45.085  23.166  26.578  1.00  0.00     0.005 A 
ATOM     34  C   UNL A   1      42.806  23.613  25.114  1.00  0.00     0.022 A 
ATOM     35  C   UNL A   1      43.924  23.621  27.257  1.00  0.00     0.022 A 
ENDBRANCH  26  29
ENDBRANCH  18  26
ENDBRANCH  15  17
ENDBRANCH  12  15
ENDBRANCH  10  11
ENDBRANCH   7  10
ENDBRANCH   5   6
BRANCH   5  36
ATOM     36  C   UNL A   1      31.613  23.926  23.909  1.00  0.00     0.072 C 
BRANCH  36  37
ATOM     37  C   UNL A   1      31.461  25.144  23.070  1.00  0.00    -0.020 A 
ATOM     38  C   UNL A   1      32.295  25.515  22.028  1.00  0.00     0.087 A 
ATOM     39  C   UNL A   1      30.426  26.128  23.150  1.00  0.00     0.003 A 
ATOM     40  N   UNL A   1      31.894  26.741  21.575  1.00  0.00    -0.361 N 
ATOM     41  C   UNL A   1      30.781  27.142  22.269  1.00  0.00     0.046 A 
ATOM     42  C   UNL A   1      29.239  26.285  23.899  1.00  0.00     0.010 A 
ATOM     43  H   UNL A   1      32.335  27.256  20.861  1.00  0.00     0.166 HD
ATOM     44  C   UNL A   1      30.074  28.334  22.174  1.00  0.00     0.026 A 
ATOM     45  C   UNL A   1      28.482  27.459  23.760  1.00  0.00     0.001 A 
ATOM     46  C   UNL A   1      28.913  28.483  22.928  1.00  0.00     0.002 A 
ENDBRANCH  36  37
ENDBRANCH   5  36
ENDBRANCH   1   5
BRANCH   3  47
ATOM     47  C   UNL A   1      31.851  26.221  26.643  1.00  0.00     0.116 C 
BRANCH  47  48
ATOM     48  C   UNL A   1      31.438  27.684  26.838  1.00  0.00     0.023 C 
BRANCH  48  49
ATOM     49  C   UNL A   1      31.505  28.560  25.583  1.00  0.00     0.023 C 
BRANCH  49  50
ATOM     50  C   UNL A   1      32.600  29.622  25.589  1.00  0.00     0.116 C 
BRANCH  50  51
ATOM     51  N   UNL A   1      32.149  30.993  25.743  1.00  0.00    -0.352 N 
ATOM     52  C   UNL A   1      32.322  31.872  26.805  1.00  0.00     0.251 C 
ATOM     53  H   UNL A   1      31.645  31.355  24.979  1.00  0.00     0.163 HD
ATOM     54  O   UNL A   1      31.683  32.905  26.849  1.00  0.00    -0.269 OA
BRANCH  52  55
ATOM     55  C   UNL A   1      33.382  31.622  27.826  1.00  0.00     0.039 A 
ATOM     56  C   UNL A   1      33.613  32.628  28.781  1.00  0.00     0.014 A 
ATOM     57  C   UNL A   1      34.262  30.550  27.742  1.00  0.00     0.014 A 
ATOM     58  C   UNL A   1      34.833  32.681  29.452  1.00  0.00     0.010 A 
ATOM     59  C   UNL A   1      35.514  30.666  28.297  1.00  0.00     0.010 A 
ATOM     60  C   UNL A   1      35.816  31.766  29.095  1.00  0.00    -0.014 A 
BRANCH  60  61
ATOM     61  C   UNL A   1      37.229  31.912  29.402  1.00  0.00     0.031 A 
ATOM     62  C   UNL A   1      38.152  30.801  29.109  1.00  0.00     0.074 A 
ATOM     63  C   UNL A   1      37.664  33.138  29.766  1.00  0.00     0.049 A 
ATOM     64  N   UNL A   1      39.343  30.697  29.581  1.00  0.00    -0.248 NA
ATOM     65  C   UNL A   1      37.769  29.672  28.267  1.00  0.00     0.031 C 
ATOM     66  C   UNL A   1      39.038  33.630  29.789  1.00  0.00     0.029 A 
ATOM     67  N   UNL A   1      36.935  34.149  30.403  1.00  0.00    -0.354 N 
ATOM     68  C   UNL A   1      39.969  29.660  28.925  1.00  0.00     0.074 A 
ATOM     69  C   UNL A   1      38.929  29.021  28.156  1.00  0.00     0.031 C 
ATOM     70  C   UNL A   1      39.105  34.656  30.656  1.00  0.00     0.029 A 
ATOM     71  C   UNL A   1      37.815  34.722  31.332  1.00  0.00     0.049 A 
ATOM     72  H   UNL A   1      36.000  34.403  30.234  1.00  0.00     0.167 HD
ATOM     73  C   UNL A   1      41.324  29.544  29.010  1.00  0.00     0.034 A 
ATOM     74  C   UNL A   1      37.635  34.649  32.686  1.00  0.00     0.034 A 
ATOM     75  C   UNL A   1      41.868  30.556  29.913  1.00  0.00     0.049 A 
ATOM     76  C   UNL A   1      38.812  33.976  33.365  1.00  0.00     0.074 A 
ATOM     77  C   UNL A   1      42.425  31.803  29.690  1.00  0.00     0.029 A 
ATOM     78  N   UNL A   1      41.569  30.490  31.268  1.00  0.00    -0.354 N 
ATOM     79  N   UNL A   1      39.626  33.144  32.769  1.00  0.00    -0.248 NA
ATOM     80  C   UNL A   1      39.161  34.199  34.763  1.00  0.00     0.031 C 
ATOM     81  C   UNL A   1      42.362  32.530  30.909  1.00  0.00     0.029 A 
ATOM     82  C   UNL A   1      41.816  31.704  31.878  1.00  0.00     0.049 A 
ATOM     83  H   UNL A   1      41.227  29.690  31.728  1.00  0.00     0.167 HD
ATOM     84  C   UNL A   1      40.593  32.740  33.654  1.00  0.00     0.074 A 
ATOM     85  C   UNL A   1      40.257  33.431  34.888  1.00  0.00     0.031 C 
ATOM     86  C   UNL A   1      41.592  31.873  33.306  1.00  0.00     0.034 A 
BRANCH  73  87
ATOM     87  C   UNL A   1      42.182  28.725  28.070  1.00  0.00     0.023 A 
ATOM     88  C   UNL A   1      43.376  28.156  28.562  1.00  0.00     0.031 A 
ATOM     89  C   UNL A   1      41.929  28.501  26.704  1.00  0.00     0.131 A 
ATOM     90  C   UNL A   1      44.290  27.505  27.712  1.00  0.00     0.055 A 
ATOM     91  C   UNL A   1      42.860  27.901  25.844  1.00  0.00     0.041 A 
ATOM     92  F   UNL A   1      40.749  28.802  26.146  1.00  0.00    -0.206 F 
ATOM     93  C   UNL A   1      44.056  27.408  26.344  1.00  0.00     0.022 A 
BRANCH  90  94
ATOM     94  S   UNL A   1      45.792  26.783  28.426  1.00  0.00     0.124 S 
ATOM     95  O   UNL A   1      46.470  27.954  28.972  1.00  0.00    -0.237 OA
ATOM     96  O   UNL A   1      45.251  25.838  29.395  1.00  0.00    -0.237 OA
ATOM     97  O   UNL A   1      46.454  26.171  27.273  1.00  0.00    -0.744 OA
ENDBRANCH  90  94
ENDBRANCH  73  87
BRANCH  74  98
ATOM     98  C   UNL A   1      36.212  34.519  33.132  1.00  0.00     0.023 A 
ATOM     99  C   UNL A   1      35.390  35.661  33.077  1.00  0.00     0.031 A 
ATOM    100  C   UNL A   1      35.579  33.269  33.184  1.00  0.00     0.131 A 
ATOM    101  C   UNL A   1      34.013  35.529  32.832  1.00  0.00     0.055 A 
ATOM    102  C   UNL A   1      34.190  33.147  33.049  1.00  0.00     0.041 A 
ATOM    103  F   UNL A   1      36.302  32.141  33.218  1.00  0.00    -0.206 F 
ATOM    104  C   UNL A   1      33.406  34.275  32.815  1.00  0.00     0.022 A 
BRANCH 101 105
ATOM    105  S   UNL A   1      33.036  36.989  32.356  1.00  0.00     0.124 S 
ATOM    106  O   UNL A   1      32.793  36.762  30.934  1.00  0.00    -0.237 OA
ATOM    107  O   UNL A   1      31.875  36.855  33.233  1.00  0.00    -0.237 OA
ATOM    108  O   UNL A   1      33.929  38.100  32.662  1.00  0.00    -0.744 OA
ENDBRANCH 101 105
ENDBRANCH  74  98
BRANCH  86 109
ATOM    109  C   UNL A   1      42.509  31.153  34.273  1.00  0.00     0.023 A 
ATOM    110  C   UNL A   1      42.254  29.860  34.749  1.00  0.00     0.031 A 
ATOM    111  C   UNL A   1      43.751  31.715  34.663  1.00  0.00     0.131 A 
ATOM    112  C   UNL A   1      43.147  29.217  35.623  1.00  0.00     0.055 A 
ATOM    113  C   UNL A   1      44.681  31.035  35.455  1.00  0.00     0.041 A 
ATOM    114  F   UNL A   1      44.124  32.945  34.281  1.00  0.00    -0.206 F 
ATOM    115  C   UNL A   1      44.375  29.781  35.955  1.00  0.00     0.022 A 
BRANCH 112 116
ATOM    116  S   UNL A   1      42.626  27.654  36.371  1.00  0.00     0.124 S 
ATOM    117  O   UNL A   1      43.044  26.686  35.360  1.00  0.00    -0.237 OA
ATOM    118  O   UNL A   1      43.384  27.634  37.617  1.00  0.00    -0.237 OA
ATOM    119  O   UNL A   1      41.181  27.808  36.523  1.00  0.00    -0.744 OA
ENDBRANCH 112 116
ENDBRANCH  86 109
ENDBRANCH  60  61
ENDBRANCH  52  55
ENDBRANCH  50  51
ENDBRANCH  49  50
ENDBRANCH  48  49
ENDBRANCH  47  48
ENDBRANCH   3  47
TORSDOF 23
ENDMDL
MODEL 2
REMARK VINA RESULT:     -12.6      3.883     10.706
REMARK SMILES Cc1ccc(S(=O)(=O)n2cc(C(=O)C(=O)NCC(=O)N[C@@H](Cc3c[nH]c4ccccc34)C(=O)NCCCCNC(=O)c3ccc(-c4c5nc(c(-c6cc(S(=O)(=O)[O-])ccc6F)c6ccc([nH]6)c(-c6cc(S(=O)(=O)[O-])ccc6F)c6nc(c(-c7cc(S(=O)(=O)[O-])ccc7F)c7ccc4[nH]7)C=C6)C=C5)cc3)c3ccccc32)cc1
REMARK SMILES IDX 32 1 33 2 34 3 21 5 20 6 18 7 19 8 17 10 16 11 14 12 15 13
REMARK SMILES IDX 12 15 13 16 11 17 9 18 10 19 110 20 105 21 109 22 106 23
REMARK SMILES IDX 108 24 107 25 6 26 7 27 8 28 5 29 1 30 2 31 3 32 112 33 4 34
REMARK SMILES IDX 111 35 22 36 23 37 24 38 31 39 25 40 26 41 30 42 27 44 29 45
REMARK SMILES IDX 28 46 35 47 36 48 37 49 38 50 39 51 40 52 41 54 42 55 43 56
REMARK SMILES IDX 104 57 44 58 103 59 45 60 46 61 47 62 97 63 48 64 102 65
REMARK SMILES IDX 96 66 98 67 49 68 101 69 95 70 94 71 50 73 82 74 62 75 81 76
REMARK SMILES IDX 63 77 66 78 80 79 99 80 64 81 65 82 79 84 100 85 67 86 51 87
REMARK SMILES IDX 52 88 60 89 53 90 59 91 61 92 58 93 54 94 55 95 56 96 57 97
REMARK SMILES IDX 83 98 84 99 92 100 85 101 91 102 93 103 90 104 86 105 87 106
REMARK SMILES IDX 88 107 89 108 68 109 69 110 77 111 70 112 76 113 78 114
REMARK SMILES IDX 75 115 71 116 72 117 73 118 74 119
REMARK H PARENT 34 4 20 9 16 14 25 43 39 53 98 72 66 83
REMARK Flexibility Score: inf
ROOT
ATOM      1  C   UNL A   1      38.554  21.474  25.796  1.00  0.00     0.242 C 
ATOM      2  O   UNL A   1      39.416  20.585  25.757  1.00  0.00    -0.273 OA
ATOM      3  N   UNL A   1      38.859  22.576  26.535  1.00  0.00    -0.354 N 
ATOM      4  H   UNL A   1      39.556  22.427  27.214  1.00  0.00     0.163 HD
ENDROOT
BRANCH   1   5
ATOM      5  C   UNL A   1      37.262  21.299  24.967  1.00  0.00     0.175 C 
BRANCH   5   6
ATOM      6  N   UNL A   1      37.188  22.126  23.757  1.00  0.00    -0.342 N 
ATOM      7  C   UNL A   1      36.384  23.214  23.552  1.00  0.00     0.240 C 
ATOM      8  O   UNL A   1      36.674  24.019  22.666  1.00  0.00    -0.273 OA
ATOM      9  H   UNL A   1      37.780  21.870  23.014  1.00  0.00     0.164 HD
BRANCH   7  10
ATOM     10  C   UNL A   1      35.169  23.436  24.472  1.00  0.00     0.216 C 
BRANCH  10  11
ATOM     11  N   UNL A   1      33.949  22.925  23.837  1.00  0.00    -0.340 N 
ATOM     12  C   UNL A   1      32.630  23.130  24.195  1.00  0.00     0.292 C 
ATOM     13  O   UNL A   1      31.717  22.572  23.597  1.00  0.00    -0.265 OA
ATOM     14  H   UNL A   1      34.091  22.359  23.045  1.00  0.00     0.164 HD
BRANCH  12  15
ATOM     15  C   UNL A   1      32.309  24.074  25.356  1.00  0.00     0.252 C 
ATOM     16  O   UNL A   1      32.385  23.591  26.487  1.00  0.00    -0.283 OA
BRANCH  15  17
ATOM     17  C   UNL A   1      31.791  25.431  25.122  1.00  0.00     0.054 A 
ATOM     18  N   UNL A   1      30.647  27.268  24.451  1.00  0.00    -0.240 N 
ATOM     19  C   UNL A   1      30.714  25.875  24.346  1.00  0.00     0.117 A 
ATOM     20  C   UNL A   1      31.492  27.639  25.510  1.00  0.00     0.065 A 
ATOM     21  C   UNL A   1      32.415  26.606  25.639  1.00  0.00     0.012 A 
ATOM     22  C   UNL A   1      31.687  28.886  26.132  1.00  0.00     0.028 A 
ATOM     23  C   UNL A   1      33.662  26.887  26.238  1.00  0.00     0.011 A 
ATOM     24  C   UNL A   1      32.952  29.162  26.650  1.00  0.00     0.002 A 
ATOM     25  C   UNL A   1      33.942  28.189  26.664  1.00  0.00     0.001 A 
BRANCH  18  26
ATOM     26  S   UNL A   1      30.823  28.369  23.091  1.00  0.00     0.268 S 
ATOM     27  O   UNL A   1      30.521  27.537  21.938  1.00  0.00    -0.201 OA
ATOM     28  O   UNL A   1      32.160  28.915  23.286  1.00  0.00    -0.201 OA
BRANCH  26  29
ATOM     29  C   UNL A   1      29.876  29.834  22.870  1.00  0.00     0.088 A 
ATOM     30  C   UNL A   1      27.668  33.239  21.384  1.00  0.00     0.044 C 
ATOM     31  C   UNL A   1      28.394  32.049  21.941  1.00  0.00    -0.051 A 
ATOM     32  C   UNL A   1      28.830  31.090  21.037  1.00  0.00     0.005 A 
ATOM     33  C   UNL A   1      28.701  31.886  23.311  1.00  0.00     0.005 A 
ATOM     34  C   UNL A   1      29.545  30.001  21.502  1.00  0.00     0.022 A 
ATOM     35  C   UNL A   1      29.448  30.777  23.789  1.00  0.00     0.022 A 
ENDBRANCH  26  29
ENDBRANCH  18  26
ENDBRANCH  15  17
ENDBRANCH  12  15
ENDBRANCH  10  11
ENDBRANCH   7  10
ENDBRANCH   5   6
BRANCH   5  36
ATOM     36  C   UNL A   1      36.783  19.850  24.784  1.00  0.00     0.072 C 
BRANCH  36  37
ATOM     37  C   UNL A   1      35.348  19.602  25.087  1.00  0.00    -0.020 A 
ATOM     38  C   UNL A   1      34.513  20.454  25.790  1.00  0.00     0.087 A 
ATOM     39  C   UNL A   1      34.561  18.477  24.688  1.00  0.00     0.003 A 
ATOM     40  N   UNL A   1      33.307  19.832  25.954  1.00  0.00    -0.361 N 
ATOM     41  C   UNL A   1      33.331  18.616  25.320  1.00  0.00     0.046 A 
ATOM     42  C   UNL A   1      34.767  17.334  23.883  1.00  0.00     0.010 A 
ATOM     43  H   UNL A   1      32.540  20.200  26.450  1.00  0.00     0.166 HD
ATOM     44  C   UNL A   1      32.348  17.636  25.271  1.00  0.00     0.026 A 
ATOM     45  C   UNL A   1      33.753  16.371  23.774  1.00  0.00     0.001 A 
ATOM     46  C   UNL A   1      32.568  16.509  24.485  1.00  0.00     0.002 A 
ENDBRANCH  36  37
ENDBRANCH   5  36
ENDBRANCH   1   5
BRANCH   3  47
ATOM     47  C   UNL A   1      38.337  23.938  26.502  1.00  0.00     0.116 C 
BRANCH  47  48
ATOM     48  C   UNL A   1      38.994  24.860  27.535  1.00  0.00     0.023 C 
BRANCH  48  49
ATOM     49  C   UNL A   1      40.168  25.698  27.018  1.00  0.00     0.023 C 
BRANCH  49  50
ATOM     50  C   UNL A   1      41.474  24.937  26.826  1.00  0.00     0.116 C 
BRANCH  50  51
ATOM     51  N   UNL A   1      41.826  24.009  27.885  1.00  0.00    -0.352 N 
ATOM     52  C   UNL A   1      42.775  24.130  28.894  1.00  0.00     0.251 C 
ATOM     53  H   UNL A   1      41.317  23.167  27.889  1.00  0.00     0.163 HD
ATOM     54  O   UNL A   1      43.086  23.159  29.555  1.00  0.00    -0.269 OA
BRANCH  52  55
ATOM     55  C   UNL A   1      43.320  25.471  29.260  1.00  0.00     0.039 A 
ATOM     56  C   UNL A   1      43.585  25.714  30.619  1.00  0.00     0.014 A 
ATOM     57  C   UNL A   1      43.378  26.525  28.357  1.00  0.00     0.014 A 
ATOM     58  C   UNL A   1      43.651  27.023  31.090  1.00  0.00     0.010 A 
ATOM     59  C   UNL A   1      43.311  27.815  28.827  1.00  0.00     0.010 A 
ATOM     60  C   UNL A   1      43.380  28.054  30.198  1.00  0.00    -0.014 A 
BRANCH  60  61
ATOM     61  C   UNL A   1      43.036  29.411  30.585  1.00  0.00     0.031 A 
ATOM     62  C   UNL A   1      41.692  29.934  30.279  1.00  0.00     0.074 A 
ATOM     63  C   UNL A   1      43.904  30.071  31.383  1.00  0.00     0.049 A 
ATOM     64  N   UNL A   1      41.367  31.176  30.312  1.00  0.00    -0.248 NA
ATOM     65  C   UNL A   1      40.596  29.065  29.861  1.00  0.00     0.031 C 
ATOM     66  C   UNL A   1      43.656  31.268  32.179  1.00  0.00     0.029 A 
ATOM     67  N   UNL A   1      45.289  29.890  31.471  1.00  0.00    -0.354 N 
ATOM     68  C   UNL A   1      39.997  31.259  30.183  1.00  0.00     0.074 A 
ATOM     69  C   UNL A   1      39.571  29.921  29.851  1.00  0.00     0.031 C 
ATOM     70  C   UNL A   1      44.834  31.879  32.402  1.00  0.00     0.029 A 
ATOM     71  C   UNL A   1      45.831  31.177  31.604  1.00  0.00     0.049 A 
ATOM     72  H   UNL A   1      45.780  29.038  31.444  1.00  0.00     0.167 HD
ATOM     73  C   UNL A   1      39.370  32.426  30.499  1.00  0.00     0.034 A 
ATOM     74  C   UNL A   1      46.631  31.760  30.659  1.00  0.00     0.034 A 
ATOM     75  C   UNL A   1      40.349  33.453  30.850  1.00  0.00     0.049 A 
ATOM     76  C   UNL A   1      46.034  33.059  30.153  1.00  0.00     0.074 A 
ATOM     77  C   UNL A   1      40.845  33.896  32.064  1.00  0.00     0.029 A 
ATOM     78  N   UNL A   1      41.207  33.937  29.870  1.00  0.00    -0.354 N 
ATOM     79  N   UNL A   1      44.759  33.346  30.196  1.00  0.00    -0.248 NA
ATOM     80  C   UNL A   1      46.832  34.130  29.570  1.00  0.00     0.031 C 
ATOM     81  C   UNL A   1      42.072  34.566  31.813  1.00  0.00     0.029 A 
ATOM     82  C   UNL A   1      42.290  34.573  30.445  1.00  0.00     0.049 A 
ATOM     83  H   UNL A   1      41.064  33.840  28.901  1.00  0.00     0.167 HD
ATOM     84  C   UNL A   1      44.558  34.604  29.686  1.00  0.00     0.074 A 
ATOM     85  C   UNL A   1      45.889  35.052  29.310  1.00  0.00     0.031 C 
ATOM     86  C   UNL A   1      43.319  35.178  29.613  1.00  0.00     0.034 A 
BRANCH  73  87
ATOM     87  C   UNL A   1      37.890  32.564  30.778  1.00  0.00     0.023 A 
ATOM     88  C   UNL A   1      37.042  33.012  29.743  1.00  0.00     0.031 A 
ATOM     89  C   UNL A   1      37.255  32.327  32.013  1.00  0.00     0.131 A 
ATOM     90  C   UNL A   1      35.683  33.298  29.971  1.00  0.00     0.055 A 
ATOM     91  C   UNL A   1      35.915  32.661  32.258  1.00  0.00     0.041 A 
ATOM     92  F   UNL A   1      37.884  31.713  33.022  1.00  0.00    -0.206 F 
ATOM     93  C   UNL A   1      35.122  33.162  31.237  1.00  0.00     0.022 A 
BRANCH  90  94
ATOM     94  S   UNL A   1      34.656  33.850  28.583  1.00  0.00     0.124 S 
ATOM     95  O   UNL A   1      35.070  35.241  28.425  1.00  0.00    -0.237 OA
ATOM     96  O   UNL A   1      35.052  32.933  27.520  1.00  0.00    -0.237 OA
ATOM     97  O   UNL A   1      33.291  33.666  29.077  1.00  0.00    -0.744 OA
ENDBRANCH  90  94
ENDBRANCH  73  87
BRANCH  74  98
ATOM     98  C   UNL A   1      47.419  30.806  29.817  1.00  0.00     0.023 A 
ATOM     99  C   UNL A   1      46.776  30.199  28.720  1.00  0.00     0.031 A 
ATOM    100  C   UNL A   1      48.821  30.827  29.813  1.00  0.00     0.131 A 
ATOM    101  C   UNL A   1      47.509  29.862  27.570  1.00  0.00     0.055 A 
ATOM    102  C   UNL A   1      49.555  30.388  28.703  1.00  0.00     0.041 A 
ATOM    103  F   UNL A   1      49.495  31.407  30.816  1.00  0.00    -0.206 F 
ATOM    104  C   UNL A   1      48.899  29.956  27.553  1.00  0.00     0.022 A 
BRANCH 101 105
ATOM    105  S   UNL A   1      46.632  29.470  26.024  1.00  0.00     0.124 S 
ATOM    106  O   UNL A   1      46.238  30.788  25.535  1.00  0.00    -0.237 OA
ATOM    107  O   UNL A   1      47.681  28.792  25.265  1.00  0.00    -0.237 OA
ATOM    108  O   UNL A   1      45.534  28.621  26.471  1.00  0.00    -0.744 OA
ENDBRANCH 101 105
ENDBRANCH  74  98
BRANCH  86 109
ATOM    109  C   UNL A   1      42.968  36.414  28.811  1.00  0.00     0.023 A 
ATOM    110  C   UNL A   1      43.147  37.716  29.296  1.00  0.00     0.031 A 
ATOM    111  C   UNL A   1      42.539  36.317  27.463  1.00  0.00     0.131 A 
ATOM    112  C   UNL A   1      42.835  38.836  28.507  1.00  0.00     0.055 A 
ATOM    113  C   UNL A   1      42.320  37.432  26.649  1.00  0.00     0.041 A 
ATOM    114  F   UNL A   1      42.326  35.133  26.870  1.00  0.00    -0.206 F 
ATOM    115  C   UNL A   1      42.453  38.706  27.175  1.00  0.00     0.022 A 
BRANCH 112 116
ATOM    116  S   UNL A   1      42.872  40.466  29.293  1.00  0.00     0.124 S 
ATOM    117  O   UNL A   1      43.640  41.246  28.325  1.00  0.00    -0.237 OA
ATOM    118  O   UNL A   1      41.454  40.799  29.391  1.00  0.00    -0.237 OA
ATOM    119  O   UNL A   1      43.543  40.221  30.567  1.00  0.00    -0.744 OA
ENDBRANCH 112 116
ENDBRANCH  86 109
ENDBRANCH  60  61
ENDBRANCH  52  55
ENDBRANCH  50  51
ENDBRANCH  49  50
ENDBRANCH  48  49
ENDBRANCH  47  48
ENDBRANCH   3  47
TORSDOF 23
ENDMDL
MODEL 3
REMARK VINA RESULT:     -12.5      3.760     10.478
REMARK SMILES Cc1ccc(S(=O)(=O)n2cc(C(=O)C(=O)NCC(=O)N[C@@H](Cc3c[nH]c4ccccc34)C(=O)NCCCCNC(=O)c3ccc(-c4c5nc(c(-c6cc(S(=O)(=O)[O-])ccc6F)c6ccc([nH]6)c(-c6cc(S(=O)(=O)[O-])ccc6F)c6nc(c(-c7cc(S(=O)(=O)[O-])ccc7F)c7ccc4[nH]7)C=C6)C=C5)cc3)c3ccccc32)cc1
REMARK SMILES IDX 32 1 33 2 34 3 21 5 20 6 18 7 19 8 17 10 16 11 14 12 15 13
REMARK SMILES IDX 12 15 13 16 11 17 9 18 10 19 110 20 105 21 109 22 106 23
REMARK SMILES IDX 108 24 107 25 6 26 7 27 8 28 5 29 1 30 2 31 3 32 112 33 4 34
REMARK SMILES IDX 111 35 22 36 23 37 24 38 31 39 25 40 26 41 30 42 27 44 29 45
REMARK SMILES IDX 28 46 35 47 36 48 37 49 38 50 39 51 40 52 41 54 42 55 43 56
REMARK SMILES IDX 104 57 44 58 103 59 45 60 46 61 47 62 97 63 48 64 102 65
REMARK SMILES IDX 96 66 98 67 49 68 101 69 95 70 94 71 50 73 82 74 62 75 81 76
REMARK SMILES IDX 63 77 66 78 80 79 99 80 64 81 65 82 79 84 100 85 67 86 51 87
REMARK SMILES IDX 52 88 60 89 53 90 59 91 61 92 58 93 54 94 55 95 56 96 57 97
REMARK SMILES IDX 83 98 84 99 92 100 85 101 91 102 93 103 90 104 86 105 87 106
REMARK SMILES IDX 88 107 89 108 68 109 69 110 77 111 70 112 76 113 78 114
REMARK SMILES IDX 75 115 71 116 72 117 73 118 74 119
REMARK H PARENT 34 4 20 9 16 14 25 43 39 53 98 72 66 83
REMARK Flexibility Score: inf
ROOT
ATOM      1  C   UNL A   1      38.465  21.221  25.758  1.00  0.00     0.242 C 
ATOM      2  O   UNL A   1      39.266  20.276  25.780  1.00  0.00    -0.273 OA
ATOM      3  N   UNL A   1      38.802  22.312  26.499  1.00  0.00    -0.354 N 
ATOM      4  H   UNL A   1      39.449  22.129  27.218  1.00  0.00     0.163 HD
ENDROOT
BRANCH   1   5
ATOM      5  C   UNL A   1      37.212  21.118  24.860  1.00  0.00     0.175 C 
BRANCH   5   6
ATOM      6  N   UNL A   1      37.236  21.971  23.667  1.00  0.00    -0.342 N 
ATOM      7  C   UNL A   1      36.453  23.066  23.422  1.00  0.00     0.240 C 
ATOM      8  O   UNL A   1      36.816  23.889  22.579  1.00  0.00    -0.273 OA
ATOM      9  H   UNL A   1      37.885  21.728  22.968  1.00  0.00     0.164 HD
BRANCH   7  10
ATOM     10  C   UNL A   1      35.170  23.274  24.247  1.00  0.00     0.216 C 
BRANCH  10  11
ATOM     11  N   UNL A   1      34.096  22.412  23.744  1.00  0.00    -0.340 N 
ATOM     12  C   UNL A   1      33.074  22.715  22.863  1.00  0.00     0.292 C 
ATOM     13  O   UNL A   1      32.205  21.895  22.592  1.00  0.00    -0.265 OA
ATOM     14  H   UNL A   1      34.104  21.486  24.080  1.00  0.00     0.164 HD
BRANCH  12  15
ATOM     15  C   UNL A   1      33.036  24.102  22.215  1.00  0.00     0.252 C 
ATOM     16  O   UNL A   1      33.882  24.320  21.346  1.00  0.00    -0.283 OA
BRANCH  15  17
ATOM     17  C   UNL A   1      32.142  25.158  22.713  1.00  0.00     0.054 A 
ATOM     18  N   UNL A   1      30.789  26.956  22.981  1.00  0.00    -0.240 N 
ATOM     19  C   UNL A   1      31.546  26.237  22.050  1.00  0.00     0.117 A 
ATOM     20  C   UNL A   1      30.690  26.157  24.132  1.00  0.00     0.065 A 
ATOM     21  C   UNL A   1      31.779  25.291  24.087  1.00  0.00     0.012 A 
ATOM     22  C   UNL A   1      29.931  26.328  25.304  1.00  0.00     0.028 A 
ATOM     23  C   UNL A   1      32.246  24.733  25.296  1.00  0.00     0.011 A 
ATOM     24  C   UNL A   1      30.454  25.828  26.495  1.00  0.00     0.002 A 
ATOM     25  C   UNL A   1      31.621  25.076  26.499  1.00  0.00     0.001 A 
BRANCH  18  26
ATOM     26  S   UNL A   1      31.085  28.637  23.406  1.00  0.00     0.268 S 
ATOM     27  O   UNL A   1      29.752  29.179  23.606  1.00  0.00    -0.201 OA
ATOM     28  O   UNL A   1      31.923  29.105  22.309  1.00  0.00    -0.201 OA
BRANCH  26  29
ATOM     29  C   UNL A   1      32.016  29.158  24.804  1.00  0.00     0.088 A 
ATOM     30  C   UNL A   1      34.874  29.689  28.002  1.00  0.00     0.044 C 
ATOM     31  C   UNL A   1      33.880  29.562  26.883  1.00  0.00    -0.051 A 
ATOM     32  C   UNL A   1      34.143  28.614  25.904  1.00  0.00     0.005 A 
ATOM     33  C   UNL A   1      32.682  30.307  26.809  1.00  0.00     0.005 A 
ATOM     34  C   UNL A   1      33.231  28.431  24.881  1.00  0.00     0.022 A 
ATOM     35  C   UNL A   1      31.735  30.110  25.769  1.00  0.00     0.022 A 
ENDBRANCH  26  29
ENDBRANCH  18  26
ENDBRANCH  15  17
ENDBRANCH  12  15
ENDBRANCH  10  11
ENDBRANCH   7  10
ENDBRANCH   5   6
BRANCH   5  36
ATOM     36  C   UNL A   1      36.682  19.695  24.622  1.00  0.00     0.072 C 
BRANCH  36  37
ATOM     37  C   UNL A   1      35.267  19.460  25.013  1.00  0.00    -0.020 A 
ATOM     38  C   UNL A   1      34.477  20.331  25.744  1.00  0.00     0.087 A 
ATOM     39  C   UNL A   1      34.454  18.329  24.687  1.00  0.00     0.003 A 
ATOM     40  N   UNL A   1      33.280  19.718  25.992  1.00  0.00    -0.361 N 
ATOM     41  C   UNL A   1      33.264  18.488  25.385  1.00  0.00     0.046 A 
ATOM     42  C   UNL A   1      34.610  17.168  23.896  1.00  0.00     0.010 A 
ATOM     43  H   UNL A   1      32.544  20.100  26.523  1.00  0.00     0.166 HD
ATOM     44  C   UNL A   1      32.276  17.511  25.416  1.00  0.00     0.026 A 
ATOM     45  C   UNL A   1      33.588  16.207  23.868  1.00  0.00     0.001 A 
ATOM     46  C   UNL A   1      32.448  16.366  24.644  1.00  0.00     0.002 A 
ENDBRANCH  36  37
ENDBRANCH   5  36
ENDBRANCH   1   5
BRANCH   3  47
ATOM     47  C   UNL A   1      38.376  23.705  26.419  1.00  0.00     0.116 C 
BRANCH  47  48
ATOM     48  C   UNL A   1      39.470  24.695  26.835  1.00  0.00     0.023 C 
BRANCH  48  49
ATOM     49  C   UNL A   1      40.858  24.429  26.242  1.00  0.00     0.023 C 
BRANCH  49  50
ATOM     50  C   UNL A   1      41.719  23.441  27.020  1.00  0.00     0.116 C 
BRANCH  50  51
ATOM     51  N   UNL A   1      43.118  23.799  27.165  1.00  0.00    -0.352 N 
ATOM     52  C   UNL A   1      43.702  25.046  27.351  1.00  0.00     0.251 C 
ATOM     53  H   UNL A   1      43.748  23.044  27.126  1.00  0.00     0.163 HD
ATOM     54  O   UNL A   1      44.904  25.178  27.226  1.00  0.00    -0.269 OA
BRANCH  52  55
ATOM     55  C   UNL A   1      42.884  26.199  27.831  1.00  0.00     0.039 A 
ATOM     56  C   UNL A   1      42.703  27.278  26.948  1.00  0.00     0.014 A 
ATOM     57  C   UNL A   1      42.478  26.327  29.153  1.00  0.00     0.014 A 
ATOM     58  C   UNL A   1      42.364  28.534  27.448  1.00  0.00     0.010 A 
ATOM     59  C   UNL A   1      42.273  27.582  29.672  1.00  0.00     0.010 A 
ATOM     60  C   UNL A   1      42.283  28.690  28.827  1.00  0.00    -0.014 A 
BRANCH  60  61
ATOM     61  C   UNL A   1      42.320  29.967  29.516  1.00  0.00     0.031 A 
ATOM     62  C   UNL A   1      41.073  30.733  29.690  1.00  0.00     0.074 A 
ATOM     63  C   UNL A   1      43.471  30.308  30.137  1.00  0.00     0.049 A 
ATOM     64  N   UNL A   1      41.017  31.974  30.021  1.00  0.00    -0.248 NA
ATOM     65  C   UNL A   1      39.759  30.142  29.457  1.00  0.00     0.031 C 
ATOM     66  C   UNL A   1      43.668  31.329  31.160  1.00  0.00     0.029 A 
ATOM     67  N   UNL A   1      44.771  29.912  29.802  1.00  0.00    -0.354 N 
ATOM     68  C   UNL A   1      39.702  32.280  30.297  1.00  0.00     0.074 A 
ATOM     69  C   UNL A   1      38.953  31.120  29.878  1.00  0.00     0.031 C 
ATOM     70  C   UNL A   1      44.961  31.700  31.143  1.00  0.00     0.029 A 
ATOM     71  C   UNL A   1      45.572  31.048  29.992  1.00  0.00     0.049 A 
ATOM     72  H   UNL A   1      45.062  29.024  29.497  1.00  0.00     0.167 HD
ATOM     73  C   UNL A   1      39.416  33.431  30.967  1.00  0.00     0.034 A 
ATOM     74  C   UNL A   1      46.213  31.697  28.973  1.00  0.00     0.034 A 
ATOM     75  C   UNL A   1      40.634  34.205  31.196  1.00  0.00     0.049 A 
ATOM     76  C   UNL A   1      45.778  33.147  28.879  1.00  0.00     0.074 A 
ATOM     77  C   UNL A   1      41.491  34.300  32.279  1.00  0.00     0.029 A 
ATOM     78  N   UNL A   1      41.302  34.758  30.110  1.00  0.00    -0.354 N 
ATOM     79  N   UNL A   1      44.636  33.601  29.325  1.00  0.00    -0.248 NA
ATOM     80  C   UNL A   1      46.604  34.191  28.284  1.00  0.00     0.031 C 
ATOM     81  C   UNL A   1      42.725  34.823  31.811  1.00  0.00     0.029 A 
ATOM     82  C   UNL A   1      42.597  35.091  30.457  1.00  0.00     0.049 A 
ATOM     83  H   UNL A   1      40.908  34.892  29.219  1.00  0.00     0.167 HD
ATOM     84  C   UNL A   1      44.568  34.954  29.110  1.00  0.00     0.074 A 
ATOM     85  C   UNL A   1      45.827  35.274  28.457  1.00  0.00     0.031 C 
ATOM     86  C   UNL A   1      43.488  35.705  29.484  1.00  0.00     0.034 A 
BRANCH  73  87
ATOM     87  C   UNL A   1      38.107  33.719  31.669  1.00  0.00     0.023 A 
ATOM     88  C   UNL A   1      36.923  33.772  30.903  1.00  0.00     0.031 A 
ATOM     89  C   UNL A   1      37.947  33.993  33.040  1.00  0.00     0.131 A 
ATOM     90  C   UNL A   1      35.696  34.174  31.464  1.00  0.00     0.055 A 
ATOM     91  C   UNL A   1      36.740  34.445  33.592  1.00  0.00     0.041 A 
ATOM     92  F   UNL A   1      38.934  33.785  33.921  1.00  0.00    -0.206 F 
ATOM     93  C   UNL A   1      35.606  34.549  32.801  1.00  0.00     0.022 A 
BRANCH  90  94
ATOM     94  S   UNL A   1      34.216  34.195  30.418  1.00  0.00     0.124 S 
ATOM     95  O   UNL A   1      33.208  34.748  31.318  1.00  0.00    -0.237 OA
ATOM     96  O   UNL A   1      34.632  35.049  29.311  1.00  0.00    -0.237 OA
ATOM     97  O   UNL A   1      34.026  32.787  30.071  1.00  0.00    -0.744 OA
ENDBRANCH  90  94
ENDBRANCH  73  87
BRANCH  74  98
ATOM     98  C   UNL A   1      46.565  30.842  27.796  1.00  0.00     0.023 A 
ATOM     99  C   UNL A   1      47.754  30.087  27.852  1.00  0.00     0.031 A 
ATOM    100  C   UNL A   1      45.590  30.442  26.871  1.00  0.00     0.131 A 
ATOM    101  C   UNL A   1      47.839  28.852  27.189  1.00  0.00     0.055 A 
ATOM    102  C   UNL A   1      45.728  29.262  26.128  1.00  0.00     0.041 A 
ATOM    103  F   UNL A   1      44.428  31.103  26.779  1.00  0.00    -0.206 F 
ATOM    104  C   UNL A   1      46.829  28.431  26.327  1.00  0.00     0.022 A 
BRANCH 101 105
ATOM    105  S   UNL A   1      49.191  27.703  27.591  1.00  0.00     0.124 S 
ATOM    106  O   UNL A   1      48.567  26.794  28.548  1.00  0.00    -0.237 OA
ATOM    107  O   UNL A   1      49.489  27.141  26.276  1.00  0.00    -0.237 OA
ATOM    108  O   UNL A   1      50.217  28.578  28.147  1.00  0.00    -0.744 OA
ENDBRANCH 101 105
ENDBRANCH  74  98
BRANCH  86 109
ATOM    109  C   UNL A   1      43.201  37.121  29.031  1.00  0.00     0.023 A 
ATOM    110  C   UNL A   1      43.549  38.249  29.786  1.00  0.00     0.031 A 
ATOM    111  C   UNL A   1      42.659  37.386  27.749  1.00  0.00     0.131 A 
ATOM    112  C   UNL A   1      43.290  39.548  29.315  1.00  0.00     0.055 A 
ATOM    113  C   UNL A   1      42.491  38.679  27.243  1.00  0.00     0.041 A 
ATOM    114  F   UNL A   1      42.282  36.401  26.920  1.00  0.00    -0.206 F 
ATOM    115  C   UNL A   1      42.793  39.774  28.035  1.00  0.00     0.022 A 
BRANCH 112 116
ATOM    116  S   UNL A   1      43.554  40.932  30.451  1.00  0.00     0.124 S 
ATOM    117  O   UNL A   1      42.535  41.880  30.006  1.00  0.00    -0.237 OA
ATOM    118  O   UNL A   1      43.320  40.317  31.753  1.00  0.00    -0.237 OA
ATOM    119  O   UNL A   1      44.934  41.335  30.191  1.00  0.00    -0.744 OA
ENDBRANCH 112 116
ENDBRANCH  86 109
ENDBRANCH  60  61
ENDBRANCH  52  55
ENDBRANCH  50  51
ENDBRANCH  49  50
ENDBRANCH  48  49
ENDBRANCH  47  48
ENDBRANCH   3  47
TORSDOF 23
ENDMDL
