MODEL 1
REMARK VINA RESULT:      -9.8      0.000      0.000
REMARK SMILES CCc1nnsc1C(=O)NC[C@@H](CC(C)C)C(=O)NCCCCNC(=O)c1ccc(-c2c3nc(c(-c4cc(S(=O)(=O)[O-])ccc4F)c4ccc([nH]4)c(-c4cc(S(=O)(=O)[O-])ccc4F)c4nc(c(-c5cc(S(=O)(=O)[O-])ccc5F)c5ccc2[nH]5)C=C4)C=C3)cc1
REMARK SMILES IDX 21 1 20 2 19 3 17 4 18 5 12 7 11 8 10 9 8 10 9 11 7 13 3 14
REMARK SMILES IDX 4 15 5 16 6 17 2 18 1 19 13 20 14 21 15 22 16 23 22 24 23 25
REMARK SMILES IDX 24 26 25 27 26 29 27 30 28 31 89 32 29 33 88 34 30 35 31 36
REMARK SMILES IDX 32 37 82 38 33 39 87 40 81 41 83 42 34 43 86 44 80 45 79 46
REMARK SMILES IDX 35 48 67 49 47 50 66 51 48 52 51 53 65 54 84 55 49 56 50 57
REMARK SMILES IDX 64 59 85 60 52 61 36 62 37 63 45 64 38 65 44 66 46 67 43 68
REMARK SMILES IDX 39 69 40 70 41 71 42 72 68 73 69 74 77 75 70 76 76 77 78 78
REMARK SMILES IDX 75 79 71 80 72 81 73 82 74 83 53 84 54 85 62 86 55 87 61 88
REMARK SMILES IDX 63 89 60 90 56 91 57 92 58 93 59 94
REMARK H PARENT 19 6 10 12 24 28 83 47 51 58
REMARK Flexibility Score: inf
ROOT
ATOM      1  C   UNL A   1      36.629  33.673  28.391  1.00  0.00     0.023 C 
ENDROOT
BRANCH   1   2
ATOM      2  C   UNL A   1      36.992  33.406  29.845  1.00  0.00     0.116 C 
BRANCH   2   3
ATOM      3  N   UNL A   1      38.282  33.958  30.212  1.00  0.00    -0.356 N 
ATOM      4  C   UNL A   1      38.870  34.136  31.422  1.00  0.00     0.224 C 
ATOM      5  O   UNL A   1      40.066  34.444  31.419  1.00  0.00    -0.275 OA
ATOM      6  H   UNL A   1      38.825  34.257  29.450  1.00  0.00     0.163 HD
BRANCH   4   7
ATOM      7  C   UNL A   1      38.140  33.979  32.750  1.00  0.00     0.098 C 
BRANCH   7   8
ATOM      8  C   UNL A   1      36.885  34.854  32.913  1.00  0.00     0.129 C 
BRANCH   8   9
ATOM      9  N   UNL A   1      35.655  34.084  32.902  1.00  0.00    -0.350 N 
ATOM     10  C   UNL A   1      34.363  34.322  32.503  1.00  0.00     0.264 C 
ATOM     11  O   UNL A   1      33.692  33.279  32.483  1.00  0.00    -0.268 OA
ATOM     12  H   UNL A   1      35.776  33.178  33.266  1.00  0.00     0.163 HD
BRANCH  10  13
ATOM     13  C   UNL A   1      33.791  35.605  32.127  1.00  0.00     0.136 A 
ATOM     14  C   UNL A   1      33.297  36.278  31.003  1.00  0.00     0.088 A 
ATOM     15  N   UNL A   1      32.893  37.597  31.239  1.00  0.00    -0.142 NA
ATOM     16  N   UNL A   1      33.082  37.974  32.482  1.00  0.00    -0.090 NA
ATOM     17  S   UNL A   1      33.721  36.773  33.424  1.00  0.00    -0.006 S 
BRANCH  14  18
ATOM     18  C   UNL A   1      33.148  35.812  29.595  1.00  0.00     0.056 C 
ATOM     19  C   UNL A   1      33.603  36.780  28.511  1.00  0.00     0.011 C 
ENDBRANCH  14  18
ENDBRANCH  10  13
ENDBRANCH   8   9
ENDBRANCH   7   8
BRANCH   7  20
ATOM     20  C   UNL A   1      37.957  32.499  33.172  1.00  0.00     0.018 C 
BRANCH  20  21
ATOM     21  C   UNL A   1      38.837  31.979  34.328  1.00  0.00    -0.017 C 
ATOM     22  C   UNL A   1      39.303  33.107  35.259  1.00  0.00     0.007 C 
ATOM     23  C   UNL A   1      38.080  30.948  35.172  1.00  0.00     0.007 C 
ENDBRANCH  20  21
ENDBRANCH   7  20
ENDBRANCH   4   7
ENDBRANCH   2   3
ENDBRANCH   1   2
BRANCH   1  24
ATOM     24  C   UNL A   1      35.224  33.223  27.994  1.00  0.00     0.023 C 
BRANCH  24  25
ATOM     25  C   UNL A   1      34.554  32.244  28.955  1.00  0.00     0.116 C 
BRANCH  25  26
ATOM     26  N   UNL A   1      34.098  31.024  28.305  1.00  0.00    -0.352 N 
ATOM     27  C   UNL A   1      34.799  29.885  27.981  1.00  0.00     0.251 C 
ATOM     28  H   UNL A   1      33.145  31.013  28.059  1.00  0.00     0.163 HD
ATOM     29  O   UNL A   1      34.261  29.009  27.322  1.00  0.00    -0.269 OA
BRANCH  27  30
ATOM     30  C   UNL A   1      36.210  29.759  28.401  1.00  0.00     0.039 A 
ATOM     31  C   UNL A   1      36.490  29.270  29.678  1.00  0.00     0.014 A 
ATOM     32  C   UNL A   1      37.248  30.073  27.520  1.00  0.00     0.014 A 
ATOM     33  C   UNL A   1      37.813  29.008  30.038  1.00  0.00     0.010 A 
ATOM     34  C   UNL A   1      38.555  29.729  27.849  1.00  0.00     0.010 A 
ATOM     35  C   UNL A   1      38.852  29.186  29.108  1.00  0.00    -0.014 A 
BRANCH  35  36
ATOM     36  C   UNL A   1      40.247  28.788  29.433  1.00  0.00     0.031 A 
ATOM     37  C   UNL A   1      41.026  29.539  30.477  1.00  0.00     0.074 A 
ATOM     38  C   UNL A   1      40.831  27.791  28.739  1.00  0.00     0.049 A 
ATOM     39  N   UNL A   1      42.263  29.369  30.867  1.00  0.00    -0.248 NA
ATOM     40  C   UNL A   1      40.332  30.647  31.148  1.00  0.00     0.031 C 
ATOM     41  C   UNL A   1      40.197  27.028  27.660  1.00  0.00     0.029 A 
ATOM     42  N   UNL A   1      42.088  27.248  28.830  1.00  0.00    -0.354 N 
ATOM     43  C   UNL A   1      42.500  30.355  31.819  1.00  0.00     0.074 A 
ATOM     44  C   UNL A   1      41.299  31.161  31.891  1.00  0.00     0.031 C 
ATOM     45  C   UNL A   1      41.054  26.095  27.218  1.00  0.00     0.029 A 
ATOM     46  C   UNL A   1      42.314  26.219  27.945  1.00  0.00     0.049 A 
ATOM     47  H   UNL A   1      42.765  27.566  29.469  1.00  0.00     0.167 HD
ATOM     48  C   UNL A   1      43.605  30.553  32.580  1.00  0.00     0.034 A 
ATOM     49  C   UNL A   1      43.410  25.464  27.740  1.00  0.00     0.034 A 
ATOM     50  C   UNL A   1      44.790  29.733  32.501  1.00  0.00     0.049 A 
ATOM     51  C   UNL A   1      44.632  25.709  28.588  1.00  0.00     0.074 A 
ATOM     52  C   UNL A   1      45.941  29.803  33.266  1.00  0.00     0.029 A 
ATOM     53  N   UNL A   1      44.983  28.698  31.594  1.00  0.00    -0.354 N 
ATOM     54  N   UNL A   1      44.817  26.604  29.531  1.00  0.00    -0.248 NA
ATOM     55  C   UNL A   1      45.787  24.834  28.352  1.00  0.00     0.031 C 
ATOM     56  C   UNL A   1      46.853  28.862  32.777  1.00  0.00     0.029 A 
ATOM     57  C   UNL A   1      46.244  28.145  31.759  1.00  0.00     0.049 A 
ATOM     58  H   UNL A   1      44.318  28.399  30.930  1.00  0.00     0.167 HD
ATOM     59  C   UNL A   1      46.099  26.376  30.023  1.00  0.00     0.074 A 
ATOM     60  C   UNL A   1      46.633  25.252  29.281  1.00  0.00     0.031 C 
ATOM     61  C   UNL A   1      46.772  27.032  31.003  1.00  0.00     0.034 A 
BRANCH  48  62
ATOM     62  C   UNL A   1      43.581  31.716  33.544  1.00  0.00     0.023 A 
ATOM     63  C   UNL A   1      43.272  31.543  34.905  1.00  0.00     0.031 A 
ATOM     64  C   UNL A   1      43.834  33.024  33.092  1.00  0.00     0.131 A 
ATOM     65  C   UNL A   1      43.133  32.660  35.742  1.00  0.00     0.055 A 
ATOM     66  C   UNL A   1      43.783  34.123  33.952  1.00  0.00     0.041 A 
ATOM     67  F   UNL A   1      44.114  33.259  31.800  1.00  0.00    -0.206 F 
ATOM     68  C   UNL A   1      43.414  33.948  35.282  1.00  0.00     0.022 A 
BRANCH  65  69
ATOM     69  S   UNL A   1      42.424  32.419  37.394  1.00  0.00     0.124 S 
ATOM     70  O   UNL A   1      43.619  32.152  38.191  1.00  0.00    -0.237 OA
ATOM     71  O   UNL A   1      41.762  33.694  37.643  1.00  0.00    -0.237 OA
ATOM     72  O   UNL A   1      41.532  31.275  37.221  1.00  0.00    -0.744 OA
ENDBRANCH  65  69
ENDBRANCH  48  62
BRANCH  49  73
ATOM     73  C   UNL A   1      43.409  24.401  26.694  1.00  0.00     0.023 A 
ATOM     74  C   UNL A   1      42.712  23.198  26.889  1.00  0.00     0.031 A 
ATOM     75  C   UNL A   1      44.129  24.560  25.497  1.00  0.00     0.131 A 
ATOM     76  C   UNL A   1      42.785  22.183  25.922  1.00  0.00     0.055 A 
ATOM     77  C   UNL A   1      44.157  23.568  24.516  1.00  0.00     0.041 A 
ATOM     78  F   UNL A   1      44.806  25.695  25.258  1.00  0.00    -0.206 F 
ATOM     79  C   UNL A   1      43.491  22.365  24.731  1.00  0.00     0.022 A 
BRANCH  76  80
ATOM     80  S   UNL A   1      41.999  20.587  26.277  1.00  0.00     0.124 S 
ATOM     81  O   UNL A   1      42.433  20.342  27.648  1.00  0.00    -0.237 OA
ATOM     82  O   UNL A   1      40.586  20.899  26.096  1.00  0.00    -0.237 OA
ATOM     83  O   UNL A   1      42.573  19.695  25.271  1.00  0.00    -0.744 OA
ENDBRANCH  76  80
ENDBRANCH  49  73
BRANCH  61  84
ATOM     84  C   UNL A   1      48.145  26.515  31.356  1.00  0.00     0.023 A 
ATOM     85  C   UNL A   1      49.305  27.003  30.728  1.00  0.00     0.031 A 
ATOM     86  C   UNL A   1      48.292  25.508  32.325  1.00  0.00     0.131 A 
ATOM     87  C   UNL A   1      50.555  26.441  31.035  1.00  0.00     0.055 A 
ATOM     88  C   UNL A   1      49.544  24.997  32.672  1.00  0.00     0.041 A 
ATOM     89  F   UNL A   1      47.218  25.003  32.955  1.00  0.00    -0.206 F 
ATOM     90  C   UNL A   1      50.683  25.453  32.015  1.00  0.00     0.022 A 
BRANCH  87  91
ATOM     91  S   UNL A   1      52.000  26.949  30.065  1.00  0.00     0.124 S 
ATOM     92  O   UNL A   1      53.003  25.975  30.482  1.00  0.00    -0.237 OA
ATOM     93  O   UNL A   1      51.517  26.821  28.695  1.00  0.00    -0.237 OA
ATOM     94  O   UNL A   1      52.246  28.321  30.509  1.00  0.00    -0.744 OA
ENDBRANCH  87  91
ENDBRANCH  61  84
ENDBRANCH  35  36
ENDBRANCH  27  30
ENDBRANCH  25  26
ENDBRANCH  24  25
ENDBRANCH   1  24
TORSDOF 20
ENDMDL
MODEL 2
REMARK VINA RESULT:      -9.5      1.945      2.296
REMARK SMILES CCc1nnsc1C(=O)NC[C@@H](CC(C)C)C(=O)NCCCCNC(=O)c1ccc(-c2c3nc(c(-c4cc(S(=O)(=O)[O-])ccc4F)c4ccc([nH]4)c(-c4cc(S(=O)(=O)[O-])ccc4F)c4nc(c(-c5cc(S(=O)(=O)[O-])ccc5F)c5ccc2[nH]5)C=C4)C=C3)cc1
REMARK SMILES IDX 21 1 20 2 19 3 17 4 18 5 12 7 11 8 10 9 8 10 9 11 7 13 3 14
REMARK SMILES IDX 4 15 5 16 6 17 2 18 1 19 13 20 14 21 15 22 16 23 22 24 23 25
REMARK SMILES IDX 24 26 25 27 26 29 27 30 28 31 89 32 29 33 88 34 30 35 31 36
REMARK SMILES IDX 32 37 82 38 33 39 87 40 81 41 83 42 34 43 86 44 80 45 79 46
REMARK SMILES IDX 35 48 67 49 47 50 66 51 48 52 51 53 65 54 84 55 49 56 50 57
REMARK SMILES IDX 64 59 85 60 52 61 36 62 37 63 45 64 38 65 44 66 46 67 43 68
REMARK SMILES IDX 39 69 40 70 41 71 42 72 68 73 69 74 77 75 70 76 76 77 78 78
REMARK SMILES IDX 75 79 71 80 72 81 73 82 74 83 53 84 54 85 62 86 55 87 61 88
REMARK SMILES IDX 63 89 60 90 56 91 57 92 58 93 59 94
REMARK H PARENT 19 6 10 12 24 28 83 47 51 58
REMARK Flexibility Score: inf
ROOT
ATOM      1  C   UNL A   1      36.349  33.496  28.275  1.00  0.00     0.023 C 
ENDROOT
BRANCH   1   2
ATOM      2  C   UNL A   1      36.744  33.230  29.720  1.00  0.00     0.116 C 
BRANCH   2   3
ATOM      3  N   UNL A   1      37.866  34.039  30.155  1.00  0.00    -0.356 N 
ATOM      4  C   UNL A   1      38.419  34.224  31.380  1.00  0.00     0.224 C 
ATOM      5  O   UNL A   1      39.502  34.816  31.419  1.00  0.00    -0.275 OA
ATOM      6  H   UNL A   1      38.302  34.546  29.433  1.00  0.00     0.163 HD
BRANCH   4   7
ATOM      7  C   UNL A   1      37.780  33.747  32.678  1.00  0.00     0.098 C 
BRANCH   7   8
ATOM      8  C   UNL A   1      36.676  34.661  33.238  1.00  0.00     0.129 C 
BRANCH   8   9
ATOM      9  N   UNL A   1      35.381  34.009  33.299  1.00  0.00    -0.350 N 
ATOM     10  C   UNL A   1      34.117  34.315  32.859  1.00  0.00     0.264 C 
ATOM     11  O   UNL A   1      33.354  33.343  32.949  1.00  0.00    -0.268 OA
ATOM     12  H   UNL A   1      35.417  33.143  33.765  1.00  0.00     0.163 HD
BRANCH  10  13
ATOM     13  C   UNL A   1      33.666  35.594  32.332  1.00  0.00     0.136 A 
ATOM     14  C   UNL A   1      33.208  36.169  31.140  1.00  0.00     0.088 A 
ATOM     15  N   UNL A   1      32.947  37.541  31.213  1.00  0.00    -0.142 NA
ATOM     16  N   UNL A   1      33.209  38.050  32.394  1.00  0.00    -0.090 NA
ATOM     17  S   UNL A   1      33.752  36.916  33.470  1.00  0.00    -0.006 S 
BRANCH  14  18
ATOM     18  C   UNL A   1      32.970  35.548  29.806  1.00  0.00     0.056 C 
ATOM     19  C   UNL A   1      33.529  36.297  28.604  1.00  0.00     0.011 C 
ENDBRANCH  14  18
ENDBRANCH  10  13
ENDBRANCH   8   9
ENDBRANCH   7   8
BRANCH   7  20
ATOM     20  C   UNL A   1      37.425  32.238  32.662  1.00  0.00     0.018 C 
BRANCH  20  21
ATOM     21  C   UNL A   1      38.009  31.361  33.789  1.00  0.00    -0.017 C 
ATOM     22  C   UNL A   1      38.500  30.001  33.274  1.00  0.00     0.007 C 
ATOM     23  C   UNL A   1      39.185  32.063  34.475  1.00  0.00     0.007 C 
ENDBRANCH  20  21
ENDBRANCH   7  20
ENDBRANCH   4   7
ENDBRANCH   2   3
ENDBRANCH   1   2
BRANCH   1  24
ATOM     24  C   UNL A   1      34.941  33.032  27.905  1.00  0.00     0.023 C 
BRANCH  24  25
ATOM     25  C   UNL A   1      34.346  31.961  28.814  1.00  0.00     0.116 C 
BRANCH  25  26
ATOM     26  N   UNL A   1      34.021  30.728  28.111  1.00  0.00    -0.352 N 
ATOM     27  C   UNL A   1      34.836  29.677  27.756  1.00  0.00     0.251 C 
ATOM     28  H   UNL A   1      33.078  30.632  27.849  1.00  0.00     0.163 HD
ATOM     29  O   UNL A   1      34.396  28.779  27.054  1.00  0.00    -0.269 OA
BRANCH  27  30
ATOM     30  C   UNL A   1      36.247  29.676  28.193  1.00  0.00     0.039 A 
ATOM     31  C   UNL A   1      36.540  29.337  29.515  1.00  0.00     0.014 A 
ATOM     32  C   UNL A   1      37.275  29.955  27.290  1.00  0.00     0.014 A 
ATOM     33  C   UNL A   1      37.872  29.188  29.907  1.00  0.00     0.010 A 
ATOM     34  C   UNL A   1      38.596  29.722  27.659  1.00  0.00     0.010 A 
ATOM     35  C   UNL A   1      38.909  29.329  28.969  1.00  0.00    -0.014 A 
BRANCH  35  36
ATOM     36  C   UNL A   1      40.320  29.045  29.340  1.00  0.00     0.031 A 
ATOM     37  C   UNL A   1      41.118  30.057  30.117  1.00  0.00     0.074 A 
ATOM     38  C   UNL A   1      40.901  27.903  28.921  1.00  0.00     0.049 A 
ATOM     39  N   UNL A   1      42.369  30.010  30.494  1.00  0.00    -0.248 NA
ATOM     40  C   UNL A   1      40.425  31.299  30.487  1.00  0.00     0.031 C 
ATOM     41  C   UNL A   1      40.247  26.871  28.111  1.00  0.00     0.029 A 
ATOM     42  N   UNL A   1      42.170  27.417  29.112  1.00  0.00    -0.354 N 
ATOM     43  C   UNL A   1      42.618  31.218  31.136  1.00  0.00     0.074 A 
ATOM     44  C   UNL A   1      41.406  32.003  31.031  1.00  0.00     0.031 C 
ATOM     45  C   UNL A   1      41.107  25.862  27.907  1.00  0.00     0.029 A 
ATOM     46  C   UNL A   1      42.386  26.188  28.530  1.00  0.00     0.049 A 
ATOM     47  H   UNL A   1      42.860  27.901  29.618  1.00  0.00     0.167 HD
ATOM     48  C   UNL A   1      43.742  31.625  31.777  1.00  0.00     0.034 A 
ATOM     49  C   UNL A   1      43.489  25.416  28.497  1.00  0.00     0.034 A 
ATOM     50  C   UNL A   1      44.939  30.824  31.881  1.00  0.00     0.049 A 
ATOM     51  C   UNL A   1      44.732  25.892  29.205  1.00  0.00     0.074 A 
ATOM     52  C   UNL A   1      46.111  31.109  32.558  1.00  0.00     0.029 A 
ATOM     53  N   UNL A   1      45.122  29.584  31.280  1.00  0.00    -0.354 N 
ATOM     54  N   UNL A   1      44.930  27.011  29.865  1.00  0.00    -0.248 NA
ATOM     55  C   UNL A   1      45.894  24.996  29.174  1.00  0.00     0.031 C 
ATOM     56  C   UNL A   1      47.025  30.079  32.310  1.00  0.00     0.029 A 
ATOM     57  C   UNL A   1      46.397  29.109  31.544  1.00  0.00     0.049 A 
ATOM     58  H   UNL A   1      44.443  29.111  30.745  1.00  0.00     0.167 HD
ATOM     59  C   UNL A   1      46.231  26.935  30.355  1.00  0.00     0.074 A 
ATOM     60  C   UNL A   1      46.762  25.657  29.925  1.00  0.00     0.031 C 
ATOM     61  C   UNL A   1      46.921  27.838  31.098  1.00  0.00     0.034 A 
BRANCH  48  62
ATOM     62  C   UNL A   1      43.727  33.005  32.392  1.00  0.00     0.023 A 
ATOM     63  C   UNL A   1      43.228  33.232  33.687  1.00  0.00     0.031 A 
ATOM     64  C   UNL A   1      44.182  34.117  31.661  1.00  0.00     0.131 A 
ATOM     65  C   UNL A   1      43.111  34.542  34.175  1.00  0.00     0.055 A 
ATOM     66  C   UNL A   1      44.148  35.410  32.190  1.00  0.00     0.041 A 
ATOM     67  F   UNL A   1      44.651  33.970  30.412  1.00  0.00    -0.206 F 
ATOM     68  C   UNL A   1      43.593  35.631  33.446  1.00  0.00     0.022 A 
BRANCH  65  69
ATOM     69  S   UNL A   1      42.173  34.814  35.704  1.00  0.00     0.124 S 
ATOM     70  O   UNL A   1      43.153  35.516  36.530  1.00  0.00    -0.237 OA
ATOM     71  O   UNL A   1      41.041  35.607  35.243  1.00  0.00    -0.237 OA
ATOM     72  O   UNL A   1      41.849  33.461  36.152  1.00  0.00    -0.744 OA
ENDBRANCH  65  69
ENDBRANCH  48  62
BRANCH  49  73
ATOM     73  C   UNL A   1      43.474  24.111  27.778  1.00  0.00     0.023 A 
ATOM     74  C   UNL A   1      44.190  23.937  26.582  1.00  0.00     0.031 A 
ATOM     75  C   UNL A   1      42.721  23.025  28.259  1.00  0.00     0.131 A 
ATOM     76  C   UNL A   1      44.102  22.722  25.885  1.00  0.00     0.055 A 
ATOM     77  C   UNL A   1      42.677  21.802  27.588  1.00  0.00     0.041 A 
ATOM     78  F   UNL A   1      42.025  23.137  29.402  1.00  0.00    -0.206 F 
ATOM     79  C   UNL A   1      43.361  21.649  26.386  1.00  0.00     0.022 A 
BRANCH  76  80
ATOM     80  S   UNL A   1      44.914  22.587  24.268  1.00  0.00     0.124 S 
ATOM     81  O   UNL A   1      43.772  22.603  23.360  1.00  0.00    -0.237 OA
ATOM     82  O   UNL A   1      45.761  23.775  24.256  1.00  0.00    -0.237 OA
ATOM     83  O   UNL A   1      45.628  21.315  24.352  1.00  0.00    -0.744 OA
ENDBRANCH  76  80
ENDBRANCH  49  73
BRANCH  61  84
ATOM     84  C   UNL A   1      48.314  27.448  31.530  1.00  0.00     0.023 A 
ATOM     85  C   UNL A   1      48.551  26.744  32.724  1.00  0.00     0.031 A 
ATOM     86  C   UNL A   1      49.422  27.800  30.740  1.00  0.00     0.131 A 
ATOM     87  C   UNL A   1      49.868  26.467  33.123  1.00  0.00     0.055 A 
ATOM     88  C   UNL A   1      50.726  27.467  31.110  1.00  0.00     0.041 A 
ATOM     89  F   UNL A   1      49.255  28.476  29.591  1.00  0.00    -0.206 F 
ATOM     90  C   UNL A   1      50.956  26.809  32.315  1.00  0.00     0.022 A 
BRANCH  87  91
ATOM     91  S   UNL A   1      50.148  25.740  34.760  1.00  0.00     0.124 S 
ATOM     92  O   UNL A   1      51.308  24.887  34.520  1.00  0.00    -0.237 OA
ATOM     93  O   UNL A   1      50.382  26.917  35.589  1.00  0.00    -0.237 OA
ATOM     94  O   UNL A   1      48.901  25.027  35.036  1.00  0.00    -0.744 OA
ENDBRANCH  87  91
ENDBRANCH  61  84
ENDBRANCH  35  36
ENDBRANCH  27  30
ENDBRANCH  25  26
ENDBRANCH  24  25
ENDBRANCH   1  24
TORSDOF 20
ENDMDL
MODEL 3
REMARK VINA RESULT:      -9.3      1.650      2.029
REMARK SMILES CCc1nnsc1C(=O)NC[C@@H](CC(C)C)C(=O)NCCCCNC(=O)c1ccc(-c2c3nc(c(-c4cc(S(=O)(=O)[O-])ccc4F)c4ccc([nH]4)c(-c4cc(S(=O)(=O)[O-])ccc4F)c4nc(c(-c5cc(S(=O)(=O)[O-])ccc5F)c5ccc2[nH]5)C=C4)C=C3)cc1
REMARK SMILES IDX 21 1 20 2 19 3 17 4 18 5 12 7 11 8 10 9 8 10 9 11 7 13 3 14
REMARK SMILES IDX 4 15 5 16 6 17 2 18 1 19 13 20 14 21 15 22 16 23 22 24 23 25
REMARK SMILES IDX 24 26 25 27 26 29 27 30 28 31 89 32 29 33 88 34 30 35 31 36
REMARK SMILES IDX 32 37 82 38 33 39 87 40 81 41 83 42 34 43 86 44 80 45 79 46
REMARK SMILES IDX 35 48 67 49 47 50 66 51 48 52 51 53 65 54 84 55 49 56 50 57
REMARK SMILES IDX 64 59 85 60 52 61 36 62 37 63 45 64 38 65 44 66 46 67 43 68
REMARK SMILES IDX 39 69 40 70 41 71 42 72 68 73 69 74 77 75 70 76 76 77 78 78
REMARK SMILES IDX 75 79 71 80 72 81 73 82 74 83 53 84 54 85 62 86 55 87 61 88
REMARK SMILES IDX 63 89 60 90 56 91 57 92 58 93 59 94
REMARK H PARENT 19 6 10 12 24 28 83 47 51 58
REMARK Flexibility Score: inf
ROOT
ATOM      1  C   UNL A   1      36.716  33.580  28.962  1.00  0.00     0.023 C 
ENDROOT
BRANCH   1   2
ATOM      2  C   UNL A   1      37.276  32.794  30.139  1.00  0.00     0.116 C 
BRANCH   2   3
ATOM      3  N   UNL A   1      38.446  33.417  30.725  1.00  0.00    -0.356 N 
ATOM      4  C   UNL A   1      38.778  33.669  32.017  1.00  0.00     0.224 C 
ATOM      5  O   UNL A   1      39.939  34.031  32.234  1.00  0.00    -0.275 OA
ATOM      6  H   UNL A   1      39.119  33.711  30.070  1.00  0.00     0.163 HD
BRANCH   4   7
ATOM      7  C   UNL A   1      37.805  33.532  33.182  1.00  0.00     0.098 C 
BRANCH   7   8
ATOM      8  C   UNL A   1      36.670  34.569  33.212  1.00  0.00     0.129 C 
BRANCH   8   9
ATOM      9  N   UNL A   1      35.359  33.966  33.369  1.00  0.00    -0.350 N 
ATOM     10  C   UNL A   1      34.088  34.282  32.955  1.00  0.00     0.264 C 
ATOM     11  O   UNL A   1      33.301  33.343  33.143  1.00  0.00    -0.268 OA
ATOM     12  H   UNL A   1      35.388  33.134  33.894  1.00  0.00     0.163 HD
BRANCH  10  13
ATOM     13  C   UNL A   1      33.655  35.534  32.355  1.00  0.00     0.136 A 
ATOM     14  C   UNL A   1      33.264  36.059  31.118  1.00  0.00     0.088 A 
ATOM     15  N   UNL A   1      32.982  37.429  31.124  1.00  0.00    -0.142 NA
ATOM     16  N   UNL A   1      33.166  37.983  32.300  1.00  0.00    -0.090 NA
ATOM     17  S   UNL A   1      33.656  36.897  33.448  1.00  0.00    -0.006 S 
BRANCH  14  18
ATOM     18  C   UNL A   1      33.116  35.388  29.795  1.00  0.00     0.056 C 
ATOM     19  C   UNL A   1      33.410  36.240  28.568  1.00  0.00     0.011 C 
ENDBRANCH  14  18
ENDBRANCH  10  13
ENDBRANCH   8   9
ENDBRANCH   7   8
BRANCH   7  20
ATOM     20  C   UNL A   1      37.354  32.069  33.427  1.00  0.00     0.018 C 
BRANCH  20  21
ATOM     21  C   UNL A   1      38.448  31.041  33.783  1.00  0.00    -0.017 C 
ATOM     22  C   UNL A   1      38.682  30.940  35.296  1.00  0.00     0.007 C 
ATOM     23  C   UNL A   1      38.079  29.647  33.264  1.00  0.00     0.007 C 
ENDBRANCH  20  21
ENDBRANCH   7  20
ENDBRANCH   4   7
ENDBRANCH   2   3
ENDBRANCH   1   2
BRANCH   1  24
ATOM     24  C   UNL A   1      35.545  32.906  28.248  1.00  0.00     0.023 C 
BRANCH  24  25
ATOM     25  C   UNL A   1      34.714  31.957  29.106  1.00  0.00     0.116 C 
BRANCH  25  26
ATOM     26  N   UNL A   1      34.296  30.758  28.395  1.00  0.00    -0.352 N 
ATOM     27  C   UNL A   1      35.046  29.692  27.951  1.00  0.00     0.251 C 
ATOM     28  H   UNL A   1      33.333  30.701  28.201  1.00  0.00     0.163 HD
ATOM     29  O   UNL A   1      34.525  28.831  27.259  1.00  0.00    -0.269 OA
BRANCH  27  30
ATOM     30  C   UNL A   1      36.484  29.631  28.282  1.00  0.00     0.039 A 
ATOM     31  C   UNL A   1      36.863  29.184  29.549  1.00  0.00     0.014 A 
ATOM     32  C   UNL A   1      37.451  29.964  27.331  1.00  0.00     0.014 A 
ATOM     33  C   UNL A   1      38.216  28.981  29.830  1.00  0.00     0.010 A 
ATOM     34  C   UNL A   1      38.790  29.679  27.583  1.00  0.00     0.010 A 
ATOM     35  C   UNL A   1      39.186  29.177  28.832  1.00  0.00    -0.014 A 
BRANCH  35  36
ATOM     36  C   UNL A   1      40.614  28.841  29.076  1.00  0.00     0.031 A 
ATOM     37  C   UNL A   1      41.536  29.854  29.697  1.00  0.00     0.074 A 
ATOM     38  C   UNL A   1      41.091  27.645  28.677  1.00  0.00     0.049 A 
ATOM     39  N   UNL A   1      42.816  29.762  29.947  1.00  0.00    -0.248 NA
ATOM     40  C   UNL A   1      40.946  31.153  30.052  1.00  0.00     0.031 C 
ATOM     41  C   UNL A   1      40.307  26.602  28.009  1.00  0.00     0.029 A 
ATOM     42  N   UNL A   1      42.348  27.103  28.770  1.00  0.00    -0.354 N 
ATOM     43  C   UNL A   1      43.188  30.992  30.478  1.00  0.00     0.074 A 
ATOM     44  C   UNL A   1      42.011  31.834  30.444  1.00  0.00     0.031 C 
ATOM     45  C   UNL A   1      41.092  25.537  27.787  1.00  0.00     0.029 A 
ATOM     46  C   UNL A   1      42.443  25.831  28.253  1.00  0.00     0.049 A 
ATOM     47  H   UNL A   1      43.111  27.580  29.169  1.00  0.00     0.167 HD
ATOM     48  C   UNL A   1      44.392  31.376  30.972  1.00  0.00     0.034 A 
ATOM     49  C   UNL A   1      43.498  24.999  28.160  1.00  0.00     0.034 A 
ATOM     50  C   UNL A   1      45.553  30.519  31.007  1.00  0.00     0.049 A 
ATOM     51  C   UNL A   1      44.830  25.449  28.704  1.00  0.00     0.074 A 
ATOM     52  C   UNL A   1      46.803  30.780  31.540  1.00  0.00     0.029 A 
ATOM     53  N   UNL A   1      45.613  29.236  30.476  1.00  0.00    -0.354 N 
ATOM     54  N   UNL A   1      45.150  26.594  29.264  1.00  0.00    -0.248 NA
ATOM     55  C   UNL A   1      45.939  24.491  28.615  1.00  0.00     0.031 C 
ATOM     56  C   UNL A   1      47.635  29.689  31.270  1.00  0.00     0.029 A 
ATOM     57  C   UNL A   1      46.885  28.709  30.639  1.00  0.00     0.049 A 
ATOM     58  H   UNL A   1      44.859  28.769  30.045  1.00  0.00     0.167 HD
ATOM     59  C   UNL A   1      46.490  26.478  29.622  1.00  0.00     0.074 A 
ATOM     60  C   UNL A   1      46.911  25.149  29.228  1.00  0.00     0.031 C 
ATOM     61  C   UNL A   1      47.297  27.386  30.229  1.00  0.00     0.034 A 
BRANCH  48  62
ATOM     62  C   UNL A   1      44.508  32.790  31.491  1.00  0.00     0.023 A 
ATOM     63  C   UNL A   1      44.147  33.126  32.808  1.00  0.00     0.031 A 
ATOM     64  C   UNL A   1      44.950  33.826  30.648  1.00  0.00     0.131 A 
ATOM     65  C   UNL A   1      44.146  34.469  33.215  1.00  0.00     0.055 A 
ATOM     66  C   UNL A   1      45.033  35.149  31.089  1.00  0.00     0.041 A 
ATOM     67  F   UNL A   1      45.290  33.574  29.375  1.00  0.00    -0.206 F 
ATOM     68  C   UNL A   1      44.613  35.480  32.373  1.00  0.00     0.022 A 
BRANCH  65  69
ATOM     69  S   UNL A   1      43.372  34.890  34.801  1.00  0.00     0.124 S 
ATOM     70  O   UNL A   1      43.276  33.579  35.438  1.00  0.00    -0.237 OA
ATOM     71  O   UNL A   1      44.335  35.816  35.386  1.00  0.00    -0.237 OA
ATOM     72  O   UNL A   1      42.093  35.480  34.413  1.00  0.00    -0.744 OA
ENDBRANCH  65  69
ENDBRANCH  48  62
BRANCH  49  73
ATOM     73  C   UNL A   1      43.345  23.654  27.535  1.00  0.00     0.023 A 
ATOM     74  C   UNL A   1      44.101  23.291  26.408  1.00  0.00     0.031 A 
ATOM     75  C   UNL A   1      42.420  22.722  28.037  1.00  0.00     0.131 A 
ATOM     76  C   UNL A   1      43.887  22.047  25.794  1.00  0.00     0.055 A 
ATOM     77  C   UNL A   1      42.247  21.466  27.453  1.00  0.00     0.041 A 
ATOM     78  F   UNL A   1      41.679  23.016  29.118  1.00  0.00    -0.206 F 
ATOM     79  C   UNL A   1      42.975  21.127  26.317  1.00  0.00     0.022 A 
BRANCH  76  80
ATOM     80  S   UNL A   1      44.768  21.676  24.253  1.00  0.00     0.124 S 
ATOM     81  O   UNL A   1      46.154  21.916  24.639  1.00  0.00    -0.237 OA
ATOM     82  O   UNL A   1      44.397  20.285  24.020  1.00  0.00    -0.237 OA
ATOM     83  O   UNL A   1      44.209  22.636  23.303  1.00  0.00    -0.744 OA
ENDBRANCH  76  80
ENDBRANCH  49  73
BRANCH  61  84
ATOM     84  C   UNL A   1      48.708  26.948  30.541  1.00  0.00     0.023 A 
ATOM     85  C   UNL A   1      49.773  27.194  29.658  1.00  0.00     0.031 A 
ATOM     86  C   UNL A   1      48.984  26.259  31.735  1.00  0.00     0.131 A 
ATOM     87  C   UNL A   1      51.055  26.703  29.955  1.00  0.00     0.055 A 
ATOM     88  C   UNL A   1      50.273  25.829  32.055  1.00  0.00     0.041 A 
ATOM     89  F   UNL A   1      48.004  25.994  32.614  1.00  0.00    -0.206 F 
ATOM     90  C   UNL A   1      51.314  26.037  31.156  1.00  0.00     0.022 A 
BRANCH  87  91
ATOM     91  S   UNL A   1      52.360  26.861  28.705  1.00  0.00     0.124 S 
ATOM     92  O   UNL A   1      52.107  28.195  28.170  1.00  0.00    -0.237 OA
ATOM     93  O   UNL A   1      53.573  26.713  29.501  1.00  0.00    -0.237 OA
ATOM     94  O   UNL A   1      52.086  25.760  27.783  1.00  0.00    -0.744 OA
ENDBRANCH  87  91
ENDBRANCH  61  84
ENDBRANCH  35  36
ENDBRANCH  27  30
ENDBRANCH  25  26
ENDBRANCH  24  25
ENDBRANCH   1  24
TORSDOF 20
ENDMDL
