MODEL 1
REMARK VINA RESULT:     -12.7      0.000      0.000
REMARK SMILES CC(C)CSc1cc2c(cc1Cl)C=C(C(=O)NCCCCNC(=O)c1ccc(-c3c4nc(c(-c5cc(S(=O)(=O)[O-])ccc5F)c5ccc([nH]5)c(-c5cc(S(=O)(=O)[O-])ccc5F)c5nc(c(-c6cc(S(=O)(=O)[O-])ccc6F)c6ccc3[nH]6)C=C5)C=C4)cc1)[C@H](C(F)(F)F)O2
REMARK SMILES IDX 19 1 18 2 17 3 15 4 16 5 14 7 6 8 7 9 11 10 8 11 10 12 12 13
REMARK SMILES IDX 9 14 93 15 13 16 88 17 5 18 4 19 2 20 1 21 3 22 89 23 90 24
REMARK SMILES IDX 91 25 92 26 20 27 21 28 22 29 23 30 24 32 25 33 26 34 87 35
REMARK SMILES IDX 27 36 86 37 28 38 29 39 30 40 80 41 31 42 85 43 79 44 81 45
REMARK SMILES IDX 32 46 84 47 78 48 77 49 33 51 65 52 45 53 64 54 46 55 49 56
REMARK SMILES IDX 63 57 82 58 47 59 48 60 62 62 83 63 50 64 34 65 35 66 43 67
REMARK SMILES IDX 36 68 42 69 44 70 41 71 37 72 38 73 39 74 40 75 66 76 67 77
REMARK SMILES IDX 75 78 68 79 74 80 76 81 73 82 69 83 70 84 71 85 72 86 51 87
REMARK SMILES IDX 52 88 60 89 53 90 59 91 61 92 58 93 54 94 55 95 56 96 57 97
REMARK H PARENT 17 6 22 31 81 50 49 61
REMARK Flexibility Score: inf
ROOT
ATOM      1  C   UNL A   1      36.020  22.078  24.186  1.00  0.00     0.023 C 
ENDROOT
BRANCH   1   2
ATOM      2  C   UNL A   1      34.664  21.468  24.538  1.00  0.00     0.116 C 
BRANCH   2   3
ATOM      3  N   UNL A   1      34.444  21.441  25.972  1.00  0.00    -0.352 N 
ATOM      4  C   UNL A   1      33.782  22.191  26.880  1.00  0.00     0.251 C 
ATOM      5  O   UNL A   1      33.787  21.750  28.035  1.00  0.00    -0.270 OA
ATOM      6  H   UNL A   1      34.897  20.675  26.395  1.00  0.00     0.163 HD
BRANCH   4   7
ATOM      7  C   UNL A   1      33.074  23.475  26.596  1.00  0.00     0.067 C 
ATOM      8  C   UNL A   1      31.888  28.032  24.786  1.00  0.00     0.030 A 
ATOM      9  C   UNL A   1      31.290  27.156  25.702  1.00  0.00     0.063 A 
ATOM     10  C   UNL A   1      33.181  27.729  24.316  1.00  0.00     0.055 A 
ATOM     11  C   UNL A   1      31.923  25.967  26.058  1.00  0.00     0.129 A 
ATOM     12  C   UNL A   1      33.830  26.552  24.715  1.00  0.00     0.033 A 
ATOM     13  Cl  UNL A   1      34.035  28.755  23.212  1.00  0.00    -0.083 Cl
ATOM     14  C   UNL A   1      33.192  25.659  25.575  1.00  0.00     0.019 A 
ATOM     15  O   UNL A   1      31.246  25.138  26.909  1.00  0.00    -0.475 OA
ATOM     16  C   UNL A   1      33.826  24.417  25.993  1.00  0.00     0.025 C 
ATOM     17  C   UNL A   1      31.608  23.726  26.825  1.00  0.00     0.314 C 
BRANCH   8  18
ATOM     18  S   UNL A   1      31.000  29.497  24.257  1.00  0.00    -0.124 SA
BRANCH  18  19
ATOM     19  C   UNL A   1      29.966  28.869  22.877  1.00  0.00     0.078 C 
BRANCH  19  20
ATOM     20  C   UNL A   1      28.617  29.586  22.684  1.00  0.00    -0.007 C 
ATOM     21  C   UNL A   1      27.410  28.737  23.088  1.00  0.00     0.008 C 
ATOM     22  C   UNL A   1      28.613  30.874  23.517  1.00  0.00     0.008 C 
ENDBRANCH  19  20
ENDBRANCH  18  19
ENDBRANCH   8  18
BRANCH  17  23
ATOM     23  C   UNL A   1      30.690  23.005  25.821  1.00  0.00     0.429 C 
ATOM     24  F   UNL A   1      29.803  22.181  26.425  1.00  0.00    -0.167 F 
ATOM     25  F   UNL A   1      29.973  23.860  25.059  1.00  0.00    -0.167 F 
ATOM     26  F   UNL A   1      31.430  22.243  24.975  1.00  0.00    -0.167 F 
ENDBRANCH  17  23
ENDBRANCH   4   7
ENDBRANCH   2   3
ENDBRANCH   1   2
BRANCH   1  27
ATOM     27  C   UNL A   1      37.203  21.122  24.343  1.00  0.00     0.023 C 
BRANCH  27  28
ATOM     28  C   UNL A   1      37.917  21.192  25.686  1.00  0.00     0.116 C 
BRANCH  28  29
ATOM     29  N   UNL A   1      39.078  20.318  25.791  1.00  0.00    -0.352 N 
ATOM     30  C   UNL A   1      40.284  20.591  26.408  1.00  0.00     0.251 C 
ATOM     31  H   UNL A   1      38.993  19.429  25.374  1.00  0.00     0.163 HD
ATOM     32  O   UNL A   1      41.200  19.791  26.387  1.00  0.00    -0.269 OA
BRANCH  30  33
ATOM     33  C   UNL A   1      40.435  21.921  27.038  1.00  0.00     0.039 A 
ATOM     34  C   UNL A   1      39.781  23.023  26.486  1.00  0.00     0.014 A 
ATOM     35  C   UNL A   1      41.376  22.077  28.057  1.00  0.00     0.014 A 
ATOM     36  C   UNL A   1      40.212  24.300  26.820  1.00  0.00     0.010 A 
ATOM     37  C   UNL A   1      41.749  23.364  28.446  1.00  0.00     0.010 A 
ATOM     38  C   UNL A   1      41.221  24.482  27.781  1.00  0.00    -0.014 A 
BRANCH  38  39
ATOM     39  C   UNL A   1      41.752  25.845  28.034  1.00  0.00     0.031 A 
ATOM     40  C   UNL A   1      43.089  26.260  27.478  1.00  0.00     0.074 A 
ATOM     41  C   UNL A   1      40.995  26.730  28.708  1.00  0.00     0.049 A 
ATOM     42  N   UNL A   1      43.711  27.404  27.601  1.00  0.00    -0.248 NA
ATOM     43  C   UNL A   1      43.824  25.265  26.678  1.00  0.00     0.031 C 
ATOM     44  C   UNL A   1      39.671  26.442  29.258  1.00  0.00     0.029 A 
ATOM     45  N   UNL A   1      41.210  28.046  29.025  1.00  0.00    -0.354 N 
ATOM     46  C   UNL A   1      44.916  27.261  26.921  1.00  0.00     0.074 A 
ATOM     47  C   UNL A   1      44.950  25.910  26.404  1.00  0.00     0.031 C 
ATOM     48  C   UNL A   1      39.166  27.562  29.793  1.00  0.00     0.029 A 
ATOM     49  C   UNL A   1      40.161  28.628  29.696  1.00  0.00     0.049 A 
ATOM     50  H   UNL A   1      42.037  28.529  28.792  1.00  0.00     0.167 HD
ATOM     51  C   UNL A   1      45.897  28.177  26.738  1.00  0.00     0.034 A 
ATOM     52  C   UNL A   1      40.018  29.873  30.194  1.00  0.00     0.034 A 
ATOM     53  C   UNL A   1      45.835  29.527  27.234  1.00  0.00     0.049 A 
ATOM     54  C   UNL A   1      41.138  30.861  30.008  1.00  0.00     0.074 A 
ATOM     55  C   UNL A   1      46.774  30.534  27.091  1.00  0.00     0.029 A 
ATOM     56  N   UNL A   1      44.778  30.066  27.953  1.00  0.00    -0.354 N 
ATOM     57  N   UNL A   1      42.270  30.709  29.363  1.00  0.00    -0.248 NA
ATOM     58  C   UNL A   1      40.972  32.185  30.623  1.00  0.00     0.031 C 
ATOM     59  C   UNL A   1      46.303  31.666  27.756  1.00  0.00     0.029 A 
ATOM     60  C   UNL A   1      45.048  31.384  28.274  1.00  0.00     0.049 A 
ATOM     61  H   UNL A   1      43.956  29.581  28.198  1.00  0.00     0.167 HD
ATOM     62  C   UNL A   1      42.948  31.916  29.487  1.00  0.00     0.074 A 
ATOM     63  C   UNL A   1      42.087  32.800  30.245  1.00  0.00     0.031 C 
ATOM     64  C   UNL A   1      44.177  32.257  29.023  1.00  0.00     0.034 A 
BRANCH  51  65
ATOM     65  C   UNL A   1      47.125  27.772  25.965  1.00  0.00     0.023 A 
ATOM     66  C   UNL A   1      47.185  27.982  24.574  1.00  0.00     0.031 A 
ATOM     67  C   UNL A   1      48.180  27.075  26.580  1.00  0.00     0.131 A 
ATOM     68  C   UNL A   1      48.266  27.479  23.841  1.00  0.00     0.055 A 
ATOM     69  C   UNL A   1      49.269  26.599  25.848  1.00  0.00     0.041 A 
ATOM     70  F   UNL A   1      48.170  26.855  27.905  1.00  0.00    -0.206 F 
ATOM     71  C   UNL A   1      49.309  26.791  24.470  1.00  0.00     0.022 A 
BRANCH  68  72
ATOM     72  S   UNL A   1      48.339  27.651  22.036  1.00  0.00     0.124 S 
ATOM     73  O   UNL A   1      48.550  26.268  21.614  1.00  0.00    -0.237 OA
ATOM     74  O   UNL A   1      47.023  28.204  21.728  1.00  0.00    -0.237 OA
ATOM     75  O   UNL A   1      49.468  28.547  21.814  1.00  0.00    -0.744 OA
ENDBRANCH  68  72
ENDBRANCH  51  65
BRANCH  52  76
ATOM     76  C   UNL A   1      38.742  30.234  30.875  1.00  0.00     0.023 A 
ATOM     77  C   UNL A   1      37.711  30.889  30.176  1.00  0.00     0.031 A 
ATOM     78  C   UNL A   1      38.592  30.053  32.259  1.00  0.00     0.131 A 
ATOM     79  C   UNL A   1      36.621  31.418  30.878  1.00  0.00     0.055 A 
ATOM     80  C   UNL A   1      37.468  30.517  32.943  1.00  0.00     0.041 A 
ATOM     81  F   UNL A   1      39.554  29.442  32.968  1.00  0.00    -0.206 F 
ATOM     82  C   UNL A   1      36.486  31.224  32.255  1.00  0.00     0.022 A 
BRANCH  79  83
ATOM     83  S   UNL A   1      35.433  32.514  30.053  1.00  0.00     0.124 S 
ATOM     84  O   UNL A   1      34.337  32.554  31.015  1.00  0.00    -0.237 OA
ATOM     85  O   UNL A   1      36.204  33.749  29.922  1.00  0.00    -0.237 OA
ATOM     86  O   UNL A   1      35.149  31.829  28.796  1.00  0.00    -0.744 OA
ENDBRANCH  79  83
ENDBRANCH  52  76
BRANCH  64  87
ATOM     87  C   UNL A   1      44.695  33.641  29.318  1.00  0.00     0.023 A 
ATOM     88  C   UNL A   1      44.395  34.706  28.448  1.00  0.00     0.031 A 
ATOM     89  C   UNL A   1      45.605  33.865  30.364  1.00  0.00     0.131 A 
ATOM     90  C   UNL A   1      45.034  35.940  28.618  1.00  0.00     0.055 A 
ATOM     91  C   UNL A   1      46.210  35.108  30.552  1.00  0.00     0.041 A 
ATOM     92  F   UNL A   1      45.925  32.874  31.212  1.00  0.00    -0.206 F 
ATOM     93  C   UNL A   1      45.935  36.148  29.668  1.00  0.00     0.022 A 
BRANCH  90  94
ATOM     94  S   UNL A   1      44.776  37.297  27.442  1.00  0.00     0.124 S 
ATOM     95  O   UNL A   1      44.740  38.460  28.327  1.00  0.00    -0.237 OA
ATOM     96  O   UNL A   1      45.960  37.197  26.594  1.00  0.00    -0.237 OA
ATOM     97  O   UNL A   1      43.510  36.969  26.796  1.00  0.00    -0.744 OA
ENDBRANCH  90  94
ENDBRANCH  64  87
ENDBRANCH  38  39
ENDBRANCH  30  33
ENDBRANCH  28  29
ENDBRANCH  27  28
ENDBRANCH   1  27
TORSDOF 18
ENDMDL
MODEL 2
REMARK VINA RESULT:     -12.5      5.350     10.757
REMARK SMILES CC(C)CSc1cc2c(cc1Cl)C=C(C(=O)NCCCCNC(=O)c1ccc(-c3c4nc(c(-c5cc(S(=O)(=O)[O-])ccc5F)c5ccc([nH]5)c(-c5cc(S(=O)(=O)[O-])ccc5F)c5nc(c(-c6cc(S(=O)(=O)[O-])ccc6F)c6ccc3[nH]6)C=C5)C=C4)cc1)[C@H](C(F)(F)F)O2
REMARK SMILES IDX 19 1 18 2 17 3 15 4 16 5 14 7 6 8 7 9 11 10 8 11 10 12 12 13
REMARK SMILES IDX 9 14 93 15 13 16 88 17 5 18 4 19 2 20 1 21 3 22 89 23 90 24
REMARK SMILES IDX 91 25 92 26 20 27 21 28 22 29 23 30 24 32 25 33 26 34 87 35
REMARK SMILES IDX 27 36 86 37 28 38 29 39 30 40 80 41 31 42 85 43 79 44 81 45
REMARK SMILES IDX 32 46 84 47 78 48 77 49 33 51 65 52 45 53 64 54 46 55 49 56
REMARK SMILES IDX 63 57 82 58 47 59 48 60 62 62 83 63 50 64 34 65 35 66 43 67
REMARK SMILES IDX 36 68 42 69 44 70 41 71 37 72 38 73 39 74 40 75 66 76 67 77
REMARK SMILES IDX 75 78 68 79 74 80 76 81 73 82 69 83 70 84 71 85 72 86 51 87
REMARK SMILES IDX 52 88 60 89 53 90 59 91 61 92 58 93 54 94 55 95 56 96 57 97
REMARK H PARENT 17 6 22 31 81 50 49 61
REMARK Flexibility Score: inf
ROOT
ATOM      1  C   UNL A   1      32.038  30.101  27.128  1.00  0.00     0.023 C 
ENDROOT
BRANCH   1   2
ATOM      2  C   UNL A   1      31.757  29.030  26.075  1.00  0.00     0.116 C 
BRANCH   2   3
ATOM      3  N   UNL A   1      32.664  29.135  24.948  1.00  0.00    -0.352 N 
ATOM      4  C   UNL A   1      33.161  28.304  24.004  1.00  0.00     0.251 C 
ATOM      5  O   UNL A   1      33.870  28.843  23.147  1.00  0.00    -0.270 OA
ATOM      6  H   UNL A   1      33.008  30.052  24.842  1.00  0.00     0.163 HD
BRANCH   4   7
ATOM      7  C   UNL A   1      32.926  26.832  23.933  1.00  0.00     0.067 C 
ATOM      8  C   UNL A   1      32.877  21.898  24.979  1.00  0.00     0.030 A 
ATOM      9  C   UNL A   1      32.423  22.675  23.905  1.00  0.00     0.063 A 
ATOM     10  C   UNL A   1      33.658  22.519  25.973  1.00  0.00     0.055 A 
ATOM     11  C   UNL A   1      32.660  24.048  23.878  1.00  0.00     0.129 A 
ATOM     12  C   UNL A   1      33.930  23.893  25.915  1.00  0.00     0.033 A 
ATOM     13  Cl  UNL A   1      34.304  21.652  27.327  1.00  0.00    -0.083 Cl
ATOM     14  C   UNL A   1      33.415  24.664  24.873  1.00  0.00     0.019 A 
ATOM     15  O   UNL A   1      32.133  24.745  22.827  1.00  0.00    -0.475 OA
ATOM     16  C   UNL A   1      33.658  26.096  24.793  1.00  0.00     0.025 C 
ATOM     17  C   UNL A   1      31.883  26.161  23.080  1.00  0.00     0.314 C 
BRANCH   8  18
ATOM     18  S   UNL A   1      32.458  20.155  25.046  1.00  0.00    -0.124 SA
BRANCH  18  19
ATOM     19  C   UNL A   1      34.018  19.343  24.522  1.00  0.00     0.078 C 
BRANCH  19  20
ATOM     20  C   UNL A   1      34.031  17.806  24.632  1.00  0.00    -0.007 C 
ATOM     21  C   UNL A   1      32.867  17.242  25.449  1.00  0.00     0.008 C 
ATOM     22  C   UNL A   1      33.980  17.204  23.222  1.00  0.00     0.008 C 
ENDBRANCH  19  20
ENDBRANCH  18  19
ENDBRANCH   8  18
BRANCH  17  23
ATOM     23  C   UNL A   1      30.443  26.360  23.587  1.00  0.00     0.429 C 
ATOM     24  F   UNL A   1      29.656  25.283  23.360  1.00  0.00    -0.167 F 
ATOM     25  F   UNL A   1      30.386  26.613  24.914  1.00  0.00    -0.167 F 
ATOM     26  F   UNL A   1      29.867  27.415  22.957  1.00  0.00    -0.167 F 
ENDBRANCH  17  23
ENDBRANCH   4   7
ENDBRANCH   2   3
ENDBRANCH   1   2
BRANCH   1  27
ATOM     27  C   UNL A   1      31.434  31.470  26.813  1.00  0.00     0.023 C 
BRANCH  27  28
ATOM     28  C   UNL A   1      32.443  32.561  26.475  1.00  0.00     0.116 C 
BRANCH  28  29
ATOM     29  N   UNL A   1      32.378  33.725  27.348  1.00  0.00    -0.352 N 
ATOM     30  C   UNL A   1      33.295  34.108  28.310  1.00  0.00     0.251 C 
ATOM     31  H   UNL A   1      31.591  34.307  27.241  1.00  0.00     0.163 HD
ATOM     32  O   UNL A   1      33.103  35.081  29.012  1.00  0.00    -0.269 OA
BRANCH  30  33
ATOM     33  C   UNL A   1      34.483  33.247  28.491  1.00  0.00     0.039 A 
ATOM     34  C   UNL A   1      34.335  31.973  29.041  1.00  0.00     0.014 A 
ATOM     35  C   UNL A   1      35.748  33.799  28.282  1.00  0.00     0.014 A 
ATOM     36  C   UNL A   1      35.449  31.330  29.563  1.00  0.00     0.010 A 
ATOM     37  C   UNL A   1      36.873  33.110  28.737  1.00  0.00     0.010 A 
ATOM     38  C   UNL A   1      36.725  31.906  29.443  1.00  0.00    -0.014 A 
BRANCH  38  39
ATOM     39  C   UNL A   1      37.883  31.263  30.114  1.00  0.00     0.031 A 
ATOM     40  C   UNL A   1      38.179  31.541  31.564  1.00  0.00     0.074 A 
ATOM     41  C   UNL A   1      38.627  30.375  29.430  1.00  0.00     0.049 A 
ATOM     42  N   UNL A   1      39.146  31.075  32.310  1.00  0.00    -0.248 NA
ATOM     43  C   UNL A   1      37.270  32.460  32.272  1.00  0.00     0.031 C 
ATOM     44  C   UNL A   1      38.405  30.005  28.032  1.00  0.00     0.029 A 
ATOM     45  N   UNL A   1      39.695  29.605  29.814  1.00  0.00    -0.354 N 
ATOM     46  C   UNL A   1      38.981  31.659  33.561  1.00  0.00     0.074 A 
ATOM     47  C   UNL A   1      37.833  32.533  33.470  1.00  0.00     0.031 C 
ATOM     48  C   UNL A   1      39.271  29.040  27.692  1.00  0.00     0.029 A 
ATOM     49  C   UNL A   1      40.160  28.777  28.821  1.00  0.00     0.049 A 
ATOM     50  H   UNL A   1      40.090  29.642  30.716  1.00  0.00     0.167 HD
ATOM     51  C   UNL A   1      39.716  31.474  34.684  1.00  0.00     0.034 A 
ATOM     52  C   UNL A   1      41.196  27.913  28.809  1.00  0.00     0.034 A 
ATOM     53  C   UNL A   1      40.840  30.577  34.768  1.00  0.00     0.049 A 
ATOM     54  C   UNL A   1      42.020  27.752  30.059  1.00  0.00     0.074 A 
ATOM     55  C   UNL A   1      41.642  30.312  35.863  1.00  0.00     0.029 A 
ATOM     56  N   UNL A   1      41.313  29.792  33.726  1.00  0.00    -0.354 N 
ATOM     57  N   UNL A   1      41.850  28.313  31.233  1.00  0.00    -0.248 NA
ATOM     58  C   UNL A   1      43.180  26.854  29.986  1.00  0.00     0.031 C 
ATOM     59  C   UNL A   1      42.622  29.398  35.475  1.00  0.00     0.029 A 
ATOM     60  C   UNL A   1      42.405  29.054  34.149  1.00  0.00     0.049 A 
ATOM     61  H   UNL A   1      40.927  29.763  32.820  1.00  0.00     0.167 HD
ATOM     62  C   UNL A   1      42.875  27.831  32.040  1.00  0.00     0.074 A 
ATOM     63  C   UNL A   1      43.644  26.911  31.229  1.00  0.00     0.031 C 
ATOM     64  C   UNL A   1      43.157  28.133  33.333  1.00  0.00     0.034 A 
BRANCH  51  65
ATOM     65  C   UNL A   1      39.340  32.239  35.926  1.00  0.00     0.023 A 
ATOM     66  C   UNL A   1      38.520  31.643  36.902  1.00  0.00     0.031 A 
ATOM     67  C   UNL A   1      39.693  33.591  36.087  1.00  0.00     0.131 A 
ATOM     68  C   UNL A   1      38.059  32.404  37.983  1.00  0.00     0.055 A 
ATOM     69  C   UNL A   1      39.253  34.337  37.182  1.00  0.00     0.041 A 
ATOM     70  F   UNL A   1      40.477  34.202  35.185  1.00  0.00    -0.206 F 
ATOM     71  C   UNL A   1      38.424  33.746  38.130  1.00  0.00     0.022 A 
BRANCH  68  72
ATOM     72  S   UNL A   1      36.930  31.698  39.216  1.00  0.00     0.124 S 
ATOM     73  O   UNL A   1      36.685  30.366  38.667  1.00  0.00    -0.237 OA
ATOM     74  O   UNL A   1      37.740  31.735  40.430  1.00  0.00    -0.237 OA
ATOM     75  O   UNL A   1      35.782  32.598  39.196  1.00  0.00    -0.744 OA
ENDBRANCH  68  72
ENDBRANCH  51  65
BRANCH  52  76
ATOM     76  C   UNL A   1      41.463  27.124  27.573  1.00  0.00     0.023 A 
ATOM     77  C   UNL A   1      41.172  25.748  27.519  1.00  0.00     0.031 A 
ATOM     78  C   UNL A   1      42.135  27.703  26.484  1.00  0.00     0.131 A 
ATOM     79  C   UNL A   1      41.632  24.982  26.441  1.00  0.00     0.055 A 
ATOM     80  C   UNL A   1      42.526  26.948  25.378  1.00  0.00     0.041 A 
ATOM     81  F   UNL A   1      42.441  29.009  26.497  1.00  0.00    -0.206 F 
ATOM     82  C   UNL A   1      42.295  25.576  25.363  1.00  0.00     0.022 A 
BRANCH  79  83
ATOM     83  S   UNL A   1      41.530  23.170  26.484  1.00  0.00     0.124 S 
ATOM     84  O   UNL A   1      40.092  22.944  26.378  1.00  0.00    -0.237 OA
ATOM     85  O   UNL A   1      42.317  22.797  25.310  1.00  0.00    -0.237 OA
ATOM     86  O   UNL A   1      42.133  22.822  27.766  1.00  0.00    -0.744 OA
ENDBRANCH  79  83
ENDBRANCH  52  76
BRANCH  64  87
ATOM     87  C   UNL A   1      44.353  27.480  33.975  1.00  0.00     0.023 A 
ATOM     88  C   UNL A   1      44.186  26.339  34.782  1.00  0.00     0.031 A 
ATOM     89  C   UNL A   1      45.623  28.077  33.914  1.00  0.00     0.131 A 
ATOM     90  C   UNL A   1      45.265  25.854  35.528  1.00  0.00     0.055 A 
ATOM     91  C   UNL A   1      46.706  27.567  34.631  1.00  0.00     0.041 A 
ATOM     92  F   UNL A   1      45.825  29.172  33.163  1.00  0.00    -0.206 F 
ATOM     93  C   UNL A   1      46.526  26.458  35.454  1.00  0.00     0.022 A 
BRANCH  90  94
ATOM     94  S   UNL A   1      45.059  24.468  36.680  1.00  0.00     0.124 S 
ATOM     95  O   UNL A   1      44.351  25.101  37.791  1.00  0.00    -0.237 OA
ATOM     96  O   UNL A   1      44.268  23.528  35.891  1.00  0.00    -0.237 OA
ATOM     97  O   UNL A   1      46.425  24.048  36.974  1.00  0.00    -0.744 OA
ENDBRANCH  90  94
ENDBRANCH  64  87
ENDBRANCH  38  39
ENDBRANCH  30  33
ENDBRANCH  28  29
ENDBRANCH  27  28
ENDBRANCH   1  27
TORSDOF 18
ENDMDL
MODEL 3
REMARK VINA RESULT:     -12.3      2.922      7.786
REMARK SMILES CC(C)CSc1cc2c(cc1Cl)C=C(C(=O)NCCCCNC(=O)c1ccc(-c3c4nc(c(-c5cc(S(=O)(=O)[O-])ccc5F)c5ccc([nH]5)c(-c5cc(S(=O)(=O)[O-])ccc5F)c5nc(c(-c6cc(S(=O)(=O)[O-])ccc6F)c6ccc3[nH]6)C=C5)C=C4)cc1)[C@H](C(F)(F)F)O2
REMARK SMILES IDX 19 1 18 2 17 3 15 4 16 5 14 7 6 8 7 9 11 10 8 11 10 12 12 13
REMARK SMILES IDX 9 14 93 15 13 16 88 17 5 18 4 19 2 20 1 21 3 22 89 23 90 24
REMARK SMILES IDX 91 25 92 26 20 27 21 28 22 29 23 30 24 32 25 33 26 34 87 35
REMARK SMILES IDX 27 36 86 37 28 38 29 39 30 40 80 41 31 42 85 43 79 44 81 45
REMARK SMILES IDX 32 46 84 47 78 48 77 49 33 51 65 52 45 53 64 54 46 55 49 56
REMARK SMILES IDX 63 57 82 58 47 59 48 60 62 62 83 63 50 64 34 65 35 66 43 67
REMARK SMILES IDX 36 68 42 69 44 70 41 71 37 72 38 73 39 74 40 75 66 76 67 77
REMARK SMILES IDX 75 78 68 79 74 80 76 81 73 82 69 83 70 84 71 85 72 86 51 87
REMARK SMILES IDX 52 88 60 89 53 90 59 91 61 92 58 93 54 94 55 95 56 96 57 97
REMARK H PARENT 17 6 22 31 81 50 49 61
REMARK Flexibility Score: inf
ROOT
ATOM      1  C   UNL A   1      35.506  22.326  23.930  1.00  0.00     0.023 C 
ENDROOT
BRANCH   1   2
ATOM      2  C   UNL A   1      34.666  21.169  24.468  1.00  0.00     0.116 C 
BRANCH   2   3
ATOM      3  N   UNL A   1      34.595  21.186  25.917  1.00  0.00    -0.352 N 
ATOM      4  C   UNL A   1      34.003  21.947  26.865  1.00  0.00     0.251 C 
ATOM      5  O   UNL A   1      34.142  21.547  28.026  1.00  0.00    -0.270 OA
ATOM      6  H   UNL A   1      35.115  20.450  26.315  1.00  0.00     0.163 HD
BRANCH   4   7
ATOM      7  C   UNL A   1      33.226  23.198  26.614  1.00  0.00     0.067 C 
ATOM      8  C   UNL A   1      31.783  27.721  24.913  1.00  0.00     0.030 A 
ATOM      9  C   UNL A   1      31.241  26.796  25.815  1.00  0.00     0.063 A 
ATOM     10  C   UNL A   1      33.085  27.497  24.424  1.00  0.00     0.055 A 
ATOM     11  C   UNL A   1      31.939  25.635  26.140  1.00  0.00     0.129 A 
ATOM     12  C   UNL A   1      33.799  26.348  24.792  1.00  0.00     0.033 A 
ATOM     13  Cl  UNL A   1      33.872  28.589  23.333  1.00  0.00    -0.083 Cl
ATOM     14  C   UNL A   1      33.218  25.405  25.639  1.00  0.00     0.019 A 
ATOM     15  O   UNL A   1      31.316  24.755  26.980  1.00  0.00    -0.475 OA
ATOM     16  C   UNL A   1      33.921  24.190  26.024  1.00  0.00     0.025 C 
ATOM     17  C   UNL A   1      31.751  23.366  26.862  1.00  0.00     0.314 C 
BRANCH   8  18
ATOM     18  S   UNL A   1      30.814  29.148  24.423  1.00  0.00    -0.124 SA
BRANCH  18  19
ATOM     19  C   UNL A   1      29.454  28.399  23.445  1.00  0.00     0.078 C 
BRANCH  19  20
ATOM     20  C   UNL A   1      28.729  29.357  22.481  1.00  0.00    -0.007 C 
ATOM     21  C   UNL A   1      27.901  30.429  23.192  1.00  0.00     0.008 C 
ATOM     22  C   UNL A   1      29.768  30.049  21.589  1.00  0.00     0.008 C 
ENDBRANCH  19  20
ENDBRANCH  18  19
ENDBRANCH   8  18
BRANCH  17  23
ATOM     23  C   UNL A   1      30.862  22.618  25.852  1.00  0.00     0.429 C 
ATOM     24  F   UNL A   1      30.618  23.343  24.736  1.00  0.00    -0.167 F 
ATOM     25  F   UNL A   1      31.400  21.446  25.448  1.00  0.00    -0.167 F 
ATOM     26  F   UNL A   1      29.659  22.331  26.411  1.00  0.00    -0.167 F 
ENDBRANCH  17  23
ENDBRANCH   4   7
ENDBRANCH   2   3
ENDBRANCH   1   2
BRANCH   1  27
ATOM     27  C   UNL A   1      37.009  22.181  24.173  1.00  0.00     0.023 C 
BRANCH  27  28
ATOM     28  C   UNL A   1      37.512  22.769  25.486  1.00  0.00     0.116 C 
BRANCH  28  29
ATOM     29  N   UNL A   1      38.636  22.051  26.070  1.00  0.00    -0.352 N 
ATOM     30  C   UNL A   1      39.656  22.571  26.845  1.00  0.00     0.251 C 
ATOM     31  H   UNL A   1      38.675  21.083  25.892  1.00  0.00     0.163 HD
ATOM     32  O   UNL A   1      40.570  21.873  27.237  1.00  0.00    -0.269 OA
BRANCH  30  33
ATOM     33  C   UNL A   1      39.620  24.024  27.122  1.00  0.00     0.039 A 
ATOM     34  C   UNL A   1      40.041  24.923  26.141  1.00  0.00     0.014 A 
ATOM     35  C   UNL A   1      39.344  24.452  28.421  1.00  0.00     0.014 A 
ATOM     36  C   UNL A   1      40.374  26.219  26.513  1.00  0.00     0.010 A 
ATOM     37  C   UNL A   1      39.605  25.777  28.770  1.00  0.00     0.010 A 
ATOM     38  C   UNL A   1      40.188  26.650  27.837  1.00  0.00    -0.014 A 
BRANCH  38  39
ATOM     39  C   UNL A   1      40.662  27.997  28.240  1.00  0.00     0.031 A 
ATOM     40  C   UNL A   1      39.698  29.016  28.788  1.00  0.00     0.074 A 
ATOM     41  C   UNL A   1      41.977  28.277  28.175  1.00  0.00     0.049 A 
ATOM     42  N   UNL A   1      39.931  30.240  29.184  1.00  0.00    -0.248 NA
ATOM     43  C   UNL A   1      38.287  28.609  28.909  1.00  0.00     0.031 C 
ATOM     44  C   UNL A   1      43.001  27.350  27.694  1.00  0.00     0.029 A 
ATOM     45  N   UNL A   1      42.681  29.398  28.533  1.00  0.00    -0.354 N 
ATOM     46  C   UNL A   1      38.702  30.758  29.576  1.00  0.00     0.074 A 
ATOM     47  C   UNL A   1      37.717  29.723  29.349  1.00  0.00     0.031 C 
ATOM     48  C   UNL A   1      44.207  27.917  27.840  1.00  0.00     0.029 A 
ATOM     49  C   UNL A   1      44.038  29.275  28.350  1.00  0.00     0.049 A 
ATOM     50  H   UNL A   1      42.255  30.212  28.888  1.00  0.00     0.167 HD
ATOM     51  C   UNL A   1      38.425  31.981  30.088  1.00  0.00     0.034 A 
ATOM     52  C   UNL A   1      45.036  30.160  28.552  1.00  0.00     0.034 A 
ATOM     53  C   UNL A   1      39.421  32.991  30.336  1.00  0.00     0.049 A 
ATOM     54  C   UNL A   1      44.697  31.525  29.088  1.00  0.00     0.074 A 
ATOM     55  C   UNL A   1      39.242  34.258  30.862  1.00  0.00     0.029 A 
ATOM     56  N   UNL A   1      40.779  32.849  30.092  1.00  0.00    -0.354 N 
ATOM     57  N   UNL A   1      43.529  31.998  29.452  1.00  0.00    -0.248 NA
ATOM     58  C   UNL A   1      45.802  32.482  29.230  1.00  0.00     0.031 C 
ATOM     59  C   UNL A   1      40.482  34.895  30.898  1.00  0.00     0.029 A 
ATOM     60  C   UNL A   1      41.446  34.010  30.440  1.00  0.00     0.049 A 
ATOM     61  H   UNL A   1      41.206  32.040  29.724  1.00  0.00     0.167 HD
ATOM     62  C   UNL A   1      43.758  33.303  29.874  1.00  0.00     0.074 A 
ATOM     63  C   UNL A   1      45.181  33.537  29.746  1.00  0.00     0.031 C 
ATOM     64  C   UNL A   1      42.867  34.227  30.317  1.00  0.00     0.034 A 
BRANCH  51  65
ATOM     65  C   UNL A   1      36.995  32.313  30.428  1.00  0.00     0.023 A 
ATOM     66  C   UNL A   1      36.185  32.985  29.493  1.00  0.00     0.031 A 
ATOM     67  C   UNL A   1      36.473  32.073  31.712  1.00  0.00     0.131 A 
ATOM     68  C   UNL A   1      34.905  33.414  29.864  1.00  0.00     0.055 A 
ATOM     69  C   UNL A   1      35.186  32.479  32.066  1.00  0.00     0.041 A 
ATOM     70  F   UNL A   1      37.206  31.431  32.635  1.00  0.00    -0.206 F 
ATOM     71  C   UNL A   1      34.400  33.162  31.144  1.00  0.00     0.022 A 
BRANCH  68  72
ATOM     72  S   UNL A   1      33.862  34.359  28.718  1.00  0.00     0.124 S 
ATOM     73  O   UNL A   1      33.521  33.347  27.722  1.00  0.00    -0.237 OA
ATOM     74  O   UNL A   1      32.763  34.781  29.582  1.00  0.00    -0.237 OA
ATOM     75  O   UNL A   1      34.738  35.425  28.245  1.00  0.00    -0.744 OA
ENDBRANCH  68  72
ENDBRANCH  51  65
BRANCH  52  76
ATOM     76  C   UNL A   1      46.439  29.739  28.274  1.00  0.00     0.023 A 
ATOM     77  C   UNL A   1      47.214  29.112  29.268  1.00  0.00     0.031 A 
ATOM     78  C   UNL A   1      47.063  30.080  27.064  1.00  0.00     0.131 A 
ATOM     79  C   UNL A   1      48.587  28.929  29.067  1.00  0.00     0.055 A 
ATOM     80  C   UNL A   1      48.417  29.827  26.840  1.00  0.00     0.041 A 
ATOM     81  F   UNL A   1      46.366  30.688  26.092  1.00  0.00    -0.206 F 
ATOM     82  C   UNL A   1      49.191  29.270  27.853  1.00  0.00     0.022 A 
BRANCH  79  83
ATOM     83  S   UNL A   1      49.660  28.397  30.431  1.00  0.00     0.124 S 
ATOM     84  O   UNL A   1      49.670  29.578  31.288  1.00  0.00    -0.237 OA
ATOM     85  O   UNL A   1      48.930  27.243  30.953  1.00  0.00    -0.237 OA
ATOM     86  O   UNL A   1      50.923  28.081  29.772  1.00  0.00    -0.744 OA
ENDBRANCH  79  83
ENDBRANCH  52  76
BRANCH  64  87
ATOM     87  C   UNL A   1      43.380  35.592  30.695  1.00  0.00     0.023 A 
ATOM     88  C   UNL A   1      43.564  35.925  32.051  1.00  0.00     0.031 A 
ATOM     89  C   UNL A   1      43.533  36.600  29.730  1.00  0.00     0.131 A 
ATOM     90  C   UNL A   1      43.853  37.247  32.405  1.00  0.00     0.055 A 
ATOM     91  C   UNL A   1      43.858  37.909  30.086  1.00  0.00     0.041 A 
ATOM     92  F   UNL A   1      43.358  36.327  28.427  1.00  0.00    -0.206 F 
ATOM     93  C   UNL A   1      44.006  38.241  31.431  1.00  0.00     0.022 A 
BRANCH  90  94
ATOM     94  S   UNL A   1      43.968  37.746  34.146  1.00  0.00     0.124 S 
ATOM     95  O   UNL A   1      44.957  38.820  34.088  1.00  0.00    -0.237 OA
ATOM     96  O   UNL A   1      42.601  38.173  34.434  1.00  0.00    -0.237 OA
ATOM     97  O   UNL A   1      44.405  36.535  34.831  1.00  0.00    -0.744 OA
ENDBRANCH  90  94
ENDBRANCH  64  87
ENDBRANCH  38  39
ENDBRANCH  30  33
ENDBRANCH  28  29
ENDBRANCH  27  28
ENDBRANCH   1  27
TORSDOF 18
ENDMDL
