MODEL 1
REMARK VINA RESULT:     -12.6      0.000      0.000
REMARK SMILES Cc1nc2n(n1)[C@@H](c1ccc([N+](=O)[O-])o1)CC(C(=O)NCCCCNC(=O)c1ccc(-c3c4nc(c(-c5cc(S(=O)(=O)[O-])ccc5F)c5ccc([nH]5)c(-c5cc(S(=O)(=O)[O-])ccc5F)c5nc(c(-c6cc(S(=O)(=O)[O-])ccc6F)c6ccc3[nH]6)C=C5)C=C4)cc1)=N2
REMARK SMILES IDX 23 1 22 2 21 3 20 4 18 5 19 6 17 8 1 9 2 10 3 11 6 12 4 13
REMARK SMILES IDX 5 14 91 15 7 16 16 17 8 18 9 19 15 20 10 21 11 22 12 23
REMARK SMILES IDX 13 24 14 25 24 26 25 27 26 28 27 30 28 31 29 32 90 33 30 34
REMARK SMILES IDX 89 35 31 36 32 37 33 38 83 39 34 40 88 41 82 42 84 43 35 44
REMARK SMILES IDX 87 45 81 46 80 47 36 49 68 50 48 51 67 52 49 53 52 54 66 55
REMARK SMILES IDX 85 56 50 57 51 58 65 60 86 61 53 62 37 63 38 64 46 65 39 66
REMARK SMILES IDX 45 67 47 68 44 69 40 70 41 71 42 72 43 73 69 74 70 75 78 76
REMARK SMILES IDX 71 77 77 78 79 79 76 80 72 81 73 82 74 83 75 84 54 85 55 86
REMARK SMILES IDX 63 87 56 88 62 89 64 90 61 91 57 92 58 93 59 94 60 95
REMARK H PARENT 20 7 25 29 84 48 52 59
REMARK Flexibility Score: inf
ROOT
ATOM      1  C   UNL A   1      36.373  21.567  25.329  1.00  0.00     0.023 C 
ENDROOT
BRANCH   1   2
ATOM      2  C   UNL A   1      35.153  22.465  25.631  1.00  0.00     0.023 C 
BRANCH   2   3
ATOM      3  C   UNL A   1      34.817  22.614  27.120  1.00  0.00     0.116 C 
BRANCH   3   4
ATOM      4  N   UNL A   1      33.432  23.025  27.313  1.00  0.00    -0.351 N 
ATOM      5  C   UNL A   1      32.542  23.878  26.712  1.00  0.00     0.265 C 
ATOM      6  O   UNL A   1      31.434  23.974  27.240  1.00  0.00    -0.268 OA
ATOM      7  H   UNL A   1      33.025  22.567  28.084  1.00  0.00     0.163 HD
BRANCH   5   8
ATOM      8  C   UNL A   1      32.795  24.712  25.438  1.00  0.00     0.112 C 
ATOM      9  C   UNL A   1      32.631  25.500  19.677  1.00  0.00     0.092 C 
ATOM     10  C   UNL A   1      32.737  25.517  21.150  1.00  0.00     0.149 A 
ATOM     11  N   UNL A   1      32.328  24.463  21.926  1.00  0.00    -0.195 NA
ATOM     12  N   UNL A   1      33.214  26.564  21.835  1.00  0.00    -0.154 NA
ATOM     13  C   UNL A   1      32.565  24.853  23.160  1.00  0.00     0.249 A 
ATOM     14  N   UNL A   1      33.075  26.119  23.100  1.00  0.00    -0.219 N 
ATOM     15  N   UNL A   1      32.358  24.200  24.324  1.00  0.00    -0.211 NA
ATOM     16  C   UNL A   1      33.457  26.887  24.262  1.00  0.00     0.184 C 
ATOM     17  C   UNL A   1      33.560  26.006  25.516  1.00  0.00     0.098 C 
BRANCH  16  18
ATOM     18  C   UNL A   1      32.550  28.067  24.474  1.00  0.00     0.136 A 
ATOM     19  C   UNL A   1      32.407  29.043  25.448  1.00  0.00     0.056 A 
ATOM     20  O   UNL A   1      31.574  28.230  23.524  1.00  0.00    -0.404 OA
ATOM     21  C   UNL A   1      31.302  29.853  25.069  1.00  0.00     0.134 A 
ATOM     22  C   UNL A   1      30.847  29.316  23.890  1.00  0.00     0.433 A 
BRANCH  22  23
ATOM     23  N   UNL A   1      29.780  29.684  23.014  1.00  0.00     0.102 N 
ATOM     24  O   UNL A   1      29.496  28.871  22.124  1.00  0.00    -0.256 OA
ATOM     25  O   UNL A   1      29.222  30.770  23.216  1.00  0.00    -0.256 OA
ENDBRANCH  22  23
ENDBRANCH  16  18
ENDBRANCH   5   8
ENDBRANCH   3   4
ENDBRANCH   2   3
ENDBRANCH   1   2
BRANCH   1  26
ATOM     26  C   UNL A   1      37.745  22.273  25.310  1.00  0.00     0.116 C 
BRANCH  26  27
ATOM     27  N   UNL A   1      38.776  21.449  25.919  1.00  0.00    -0.352 N 
ATOM     28  C   UNL A   1      39.949  21.749  26.563  1.00  0.00     0.251 C 
ATOM     29  H   UNL A   1      38.598  20.483  25.856  1.00  0.00     0.163 HD
ATOM     30  O   UNL A   1      40.702  20.806  26.813  1.00  0.00    -0.269 OA
BRANCH  28  31
ATOM     31  C   UNL A   1      40.365  23.120  26.955  1.00  0.00     0.039 A 
ATOM     32  C   UNL A   1      41.672  23.514  26.618  1.00  0.00     0.014 A 
ATOM     33  C   UNL A   1      39.587  23.975  27.737  1.00  0.00     0.014 A 
ATOM     34  C   UNL A   1      42.177  24.759  27.011  1.00  0.00     0.010 A 
ATOM     35  C   UNL A   1      40.098  25.224  28.132  1.00  0.00     0.010 A 
ATOM     36  C   UNL A   1      41.388  25.641  27.758  1.00  0.00    -0.014 A 
BRANCH  36  37
ATOM     37  C   UNL A   1      41.870  27.032  27.963  1.00  0.00     0.031 A 
ATOM     38  C   UNL A   1      40.817  28.088  27.928  1.00  0.00     0.074 A 
ATOM     39  C   UNL A   1      43.034  27.380  28.558  1.00  0.00     0.049 A 
ATOM     40  N   UNL A   1      40.088  28.372  28.967  1.00  0.00    -0.248 NA
ATOM     41  C   UNL A   1      40.360  28.711  26.689  1.00  0.00     0.031 C 
ATOM     42  C   UNL A   1      43.703  26.577  29.585  1.00  0.00     0.029 A 
ATOM     43  N   UNL A   1      43.712  28.581  28.573  1.00  0.00    -0.354 N 
ATOM     44  C   UNL A   1      39.036  29.149  28.527  1.00  0.00     0.074 A 
ATOM     45  C   UNL A   1      39.257  29.352  27.109  1.00  0.00     0.031 C 
ATOM     46  C   UNL A   1      44.576  27.368  30.246  1.00  0.00     0.029 A 
ATOM     47  C   UNL A   1      44.664  28.677  29.591  1.00  0.00     0.049 A 
ATOM     48  H   UNL A   1      43.541  29.303  27.927  1.00  0.00     0.167 HD
ATOM     49  C   UNL A   1      38.028  29.549  29.345  1.00  0.00     0.034 A 
ATOM     50  C   UNL A   1      44.988  29.820  30.260  1.00  0.00     0.034 A 
ATOM     51  C   UNL A   1      38.148  29.155  30.720  1.00  0.00     0.049 A 
ATOM     52  C   UNL A   1      43.694  30.201  30.924  1.00  0.00     0.074 A 
ATOM     53  C   UNL A   1      37.718  28.109  31.508  1.00  0.00     0.029 A 
ATOM     54  N   UNL A   1      38.909  29.927  31.567  1.00  0.00    -0.354 N 
ATOM     55  N   UNL A   1      43.224  29.713  32.037  1.00  0.00    -0.248 NA
ATOM     56  C   UNL A   1      42.727  30.965  30.134  1.00  0.00     0.031 C 
ATOM     57  C   UNL A   1      38.611  28.076  32.625  1.00  0.00     0.029 A 
ATOM     58  C   UNL A   1      39.571  29.061  32.403  1.00  0.00     0.049 A 
ATOM     59  H   UNL A   1      38.967  30.910  31.573  1.00  0.00     0.167 HD
ATOM     60  C   UNL A   1      41.844  29.903  31.979  1.00  0.00     0.074 A 
ATOM     61  C   UNL A   1      41.610  30.717  30.803  1.00  0.00     0.031 C 
ATOM     62  C   UNL A   1      40.958  29.237  32.777  1.00  0.00     0.034 A 
BRANCH  49  63
ATOM     63  C   UNL A   1      36.872  30.367  28.927  1.00  0.00     0.023 A 
ATOM     64  C   UNL A   1      36.591  31.531  29.656  1.00  0.00     0.031 A 
ATOM     65  C   UNL A   1      35.931  29.922  27.991  1.00  0.00     0.131 A 
ATOM     66  C   UNL A   1      35.374  32.192  29.483  1.00  0.00     0.055 A 
ATOM     67  C   UNL A   1      34.719  30.595  27.808  1.00  0.00     0.041 A 
ATOM     68  F   UNL A   1      36.147  28.800  27.286  1.00  0.00    -0.206 F 
ATOM     69  C   UNL A   1      34.429  31.727  28.569  1.00  0.00     0.022 A 
BRANCH  66  70
ATOM     70  S   UNL A   1      35.015  33.600  30.564  1.00  0.00     0.124 S 
ATOM     71  O   UNL A   1      34.398  34.548  29.644  1.00  0.00    -0.237 OA
ATOM     72  O   UNL A   1      34.125  32.993  31.548  1.00  0.00    -0.237 OA
ATOM     73  O   UNL A   1      36.335  33.985  31.064  1.00  0.00    -0.744 OA
ENDBRANCH  66  70
ENDBRANCH  49  63
BRANCH  50  74
ATOM     74  C   UNL A   1      45.868  30.827  29.575  1.00  0.00     0.023 A 
ATOM     75  C   UNL A   1      45.363  31.521  28.454  1.00  0.00     0.031 A 
ATOM     76  C   UNL A   1      47.210  31.093  29.916  1.00  0.00     0.131 A 
ATOM     77  C   UNL A   1      46.149  32.473  27.775  1.00  0.00     0.055 A 
ATOM     78  C   UNL A   1      47.971  32.077  29.274  1.00  0.00     0.041 A 
ATOM     79  F   UNL A   1      47.838  30.409  30.881  1.00  0.00    -0.206 F 
ATOM     80  C   UNL A   1      47.439  32.781  28.204  1.00  0.00     0.022 A 
BRANCH  77  81
ATOM     81  S   UNL A   1      45.469  33.325  26.324  1.00  0.00     0.124 S 
ATOM     82  O   UNL A   1      46.675  33.657  25.574  1.00  0.00    -0.237 OA
ATOM     83  O   UNL A   1      44.605  32.309  25.731  1.00  0.00    -0.237 OA
ATOM     84  O   UNL A   1      44.762  34.467  26.903  1.00  0.00    -0.744 OA
ENDBRANCH  77  81
ENDBRANCH  50  74
BRANCH  62  85
ATOM     85  C   UNL A   1      41.557  28.439  33.893  1.00  0.00     0.023 A 
ATOM     86  C   UNL A   1      42.286  27.267  33.621  1.00  0.00     0.031 A 
ATOM     87  C   UNL A   1      41.425  28.837  35.236  1.00  0.00     0.131 A 
ATOM     88  C   UNL A   1      42.873  26.546  34.672  1.00  0.00     0.055 A 
ATOM     89  C   UNL A   1      42.042  28.137  36.274  1.00  0.00     0.041 A 
ATOM     90  F   UNL A   1      40.702  29.918  35.571  1.00  0.00    -0.206 F 
ATOM     91  C   UNL A   1      42.773  26.988  35.994  1.00  0.00     0.022 A 
BRANCH  88  92
ATOM     92  S   UNL A   1      43.804  25.034  34.298  1.00  0.00     0.124 S 
ATOM     93  O   UNL A   1      42.887  23.983  34.732  1.00  0.00    -0.237 OA
ATOM     94  O   UNL A   1      44.028  25.138  32.865  1.00  0.00    -0.237 OA
ATOM     95  O   UNL A   1      45.012  25.170  35.118  1.00  0.00    -0.744 OA
ENDBRANCH  88  92
ENDBRANCH  62  85
ENDBRANCH  36  37
ENDBRANCH  28  31
ENDBRANCH  26  27
ENDBRANCH   1  26
TORSDOF 16
ENDMDL
MODEL 2
REMARK VINA RESULT:     -12.4      3.048      8.333
REMARK SMILES Cc1nc2n(n1)[C@@H](c1ccc([N+](=O)[O-])o1)CC(C(=O)NCCCCNC(=O)c1ccc(-c3c4nc(c(-c5cc(S(=O)(=O)[O-])ccc5F)c5ccc([nH]5)c(-c5cc(S(=O)(=O)[O-])ccc5F)c5nc(c(-c6cc(S(=O)(=O)[O-])ccc6F)c6ccc3[nH]6)C=C5)C=C4)cc1)=N2
REMARK SMILES IDX 23 1 22 2 21 3 20 4 18 5 19 6 17 8 1 9 2 10 3 11 6 12 4 13
REMARK SMILES IDX 5 14 91 15 7 16 16 17 8 18 9 19 15 20 10 21 11 22 12 23
REMARK SMILES IDX 13 24 14 25 24 26 25 27 26 28 27 30 28 31 29 32 90 33 30 34
REMARK SMILES IDX 89 35 31 36 32 37 33 38 83 39 34 40 88 41 82 42 84 43 35 44
REMARK SMILES IDX 87 45 81 46 80 47 36 49 68 50 48 51 67 52 49 53 52 54 66 55
REMARK SMILES IDX 85 56 50 57 51 58 65 60 86 61 53 62 37 63 38 64 46 65 39 66
REMARK SMILES IDX 45 67 47 68 44 69 40 70 41 71 42 72 43 73 69 74 70 75 78 76
REMARK SMILES IDX 71 77 77 78 79 79 76 80 72 81 73 82 74 83 75 84 54 85 55 86
REMARK SMILES IDX 63 87 56 88 62 89 64 90 61 91 57 92 58 93 59 94 60 95
REMARK H PARENT 20 7 25 29 84 48 52 59
REMARK Flexibility Score: inf
ROOT
ATOM      1  C   UNL A   1      32.065  29.755  25.769  1.00  0.00     0.023 C 
ENDROOT
BRANCH   1   2
ATOM      2  C   UNL A   1      32.245  28.949  24.463  1.00  0.00     0.023 C 
BRANCH   2   3
ATOM      3  C   UNL A   1      33.629  28.312  24.287  1.00  0.00     0.116 C 
BRANCH   3   4
ATOM      4  N   UNL A   1      33.687  27.494  23.082  1.00  0.00    -0.351 N 
ATOM      5  C   UNL A   1      33.460  26.185  22.742  1.00  0.00     0.265 C 
ATOM      6  O   UNL A   1      33.681  25.877  21.570  1.00  0.00    -0.268 OA
ATOM      7  H   UNL A   1      33.966  28.025  22.300  1.00  0.00     0.163 HD
BRANCH   5   8
ATOM      8  C   UNL A   1      32.944  25.074  23.682  1.00  0.00     0.112 C 
ATOM      9  C   UNL A   1      29.170  22.950  27.564  1.00  0.00     0.092 C 
ATOM     10  C   UNL A   1      30.217  23.281  26.577  1.00  0.00     0.149 A 
ATOM     11  N   UNL A   1      30.256  24.488  25.927  1.00  0.00    -0.195 NA
ATOM     12  N   UNL A   1      31.186  22.425  26.227  1.00  0.00    -0.154 NA
ATOM     13  C   UNL A   1      31.303  24.400  25.134  1.00  0.00     0.249 A 
ATOM     14  N   UNL A   1      31.841  23.156  25.302  1.00  0.00    -0.219 N 
ATOM     15  N   UNL A   1      31.809  25.309  24.274  1.00  0.00    -0.211 NA
ATOM     16  C   UNL A   1      33.009  22.684  24.594  1.00  0.00     0.184 C 
ATOM     17  C   UNL A   1      33.766  23.836  23.918  1.00  0.00     0.098 C 
BRANCH  16  18
ATOM     18  C   UNL A   1      32.667  21.586  23.625  1.00  0.00     0.136 A 
ATOM     19  C   UNL A   1      32.194  21.527  22.324  1.00  0.00     0.056 A 
ATOM     20  O   UNL A   1      32.788  20.313  24.121  1.00  0.00    -0.404 OA
ATOM     21  C   UNL A   1      32.033  20.152  22.000  1.00  0.00     0.134 A 
ATOM     22  C   UNL A   1      32.419  19.467  23.125  1.00  0.00     0.433 A 
BRANCH  22  23
ATOM     23  N   UNL A   1      32.496  18.073  23.422  1.00  0.00     0.102 N 
ATOM     24  O   UNL A   1      33.055  17.361  22.577  1.00  0.00    -0.256 OA
ATOM     25  O   UNL A   1      32.013  17.688  24.495  1.00  0.00    -0.256 OA
ENDBRANCH  22  23
ENDBRANCH  16  18
ENDBRANCH   5   8
ENDBRANCH   3   4
ENDBRANCH   2   3
ENDBRANCH   1   2
BRANCH   1  26
ATOM     26  C   UNL A   1      33.344  29.995  26.599  1.00  0.00     0.116 C 
BRANCH  26  27
ATOM     27  N   UNL A   1      33.404  31.357  27.103  1.00  0.00    -0.352 N 
ATOM     28  C   UNL A   1      34.223  31.979  28.010  1.00  0.00     0.251 C 
ATOM     29  H   UNL A   1      32.721  31.951  26.717  1.00  0.00     0.163 HD
ATOM     30  O   UNL A   1      33.901  33.116  28.359  1.00  0.00    -0.269 OA
BRANCH  28  31
ATOM     31  C   UNL A   1      35.442  31.367  28.599  1.00  0.00     0.039 A 
ATOM     32  C   UNL A   1      35.714  31.652  29.949  1.00  0.00     0.014 A 
ATOM     33  C   UNL A   1      36.381  30.644  27.863  1.00  0.00     0.014 A 
ATOM     34  C   UNL A   1      36.879  31.182  30.568  1.00  0.00     0.010 A 
ATOM     35  C   UNL A   1      37.551  30.175  28.487  1.00  0.00     0.010 A 
ATOM     36  C   UNL A   1      37.805  30.419  29.849  1.00  0.00    -0.014 A 
BRANCH  36  37
ATOM     37  C   UNL A   1      38.908  29.752  30.589  1.00  0.00     0.031 A 
ATOM     38  C   UNL A   1      39.235  28.367  30.141  1.00  0.00     0.074 A 
ATOM     39  C   UNL A   1      39.867  30.382  31.305  1.00  0.00     0.049 A 
ATOM     40  N   UNL A   1      40.010  28.134  29.123  1.00  0.00    -0.248 NA
ATOM     41  C   UNL A   1      38.540  27.185  30.644  1.00  0.00     0.031 C 
ATOM     42  C   UNL A   1      40.349  31.735  31.018  1.00  0.00     0.029 A 
ATOM     43  N   UNL A   1      40.762  29.894  32.234  1.00  0.00    -0.354 N 
ATOM     44  C   UNL A   1      39.864  26.802  28.794  1.00  0.00     0.074 A 
ATOM     45  C   UNL A   1      38.958  26.247  29.778  1.00  0.00     0.031 C 
ATOM     46  C   UNL A   1      41.546  31.900  31.622  1.00  0.00     0.029 A 
ATOM     47  C   UNL A   1      41.841  30.747  32.477  1.00  0.00     0.049 A 
ATOM     48  H   UNL A   1      40.652  29.025  32.683  1.00  0.00     0.167 HD
ATOM     49  C   UNL A   1      40.468  26.244  27.713  1.00  0.00     0.034 A 
ATOM     50  C   UNL A   1      43.112  30.346  32.767  1.00  0.00     0.034 A 
ATOM     51  C   UNL A   1      41.317  27.117  26.954  1.00  0.00     0.049 A 
ATOM     52  C   UNL A   1      43.513  29.580  31.536  1.00  0.00     0.074 A 
ATOM     53  C   UNL A   1      41.191  27.934  25.850  1.00  0.00     0.029 A 
ATOM     54  N   UNL A   1      42.616  27.303  27.366  1.00  0.00    -0.354 N 
ATOM     55  N   UNL A   1      43.955  30.089  30.420  1.00  0.00    -0.248 NA
ATOM     56  C   UNL A   1      43.113  28.175  31.452  1.00  0.00     0.031 C 
ATOM     57  C   UNL A   1      42.254  28.886  25.953  1.00  0.00     0.029 A 
ATOM     58  C   UNL A   1      42.912  28.627  27.152  1.00  0.00     0.049 A 
ATOM     59  H   UNL A   1      43.217  26.619  27.741  1.00  0.00     0.167 HD
ATOM     60  C   UNL A   1      43.670  29.143  29.437  1.00  0.00     0.074 A 
ATOM     61  C   UNL A   1      43.192  27.972  30.145  1.00  0.00     0.031 C 
ATOM     62  C   UNL A   1      43.658  29.427  28.101  1.00  0.00     0.034 A 
BRANCH  49  63
ATOM     63  C   UNL A   1      40.336  24.831  27.305  1.00  0.00     0.023 A 
ATOM     64  C   UNL A   1      39.234  24.473  26.516  1.00  0.00     0.031 A 
ATOM     65  C   UNL A   1      41.130  23.813  27.846  1.00  0.00     0.131 A 
ATOM     66  C   UNL A   1      38.913  23.128  26.327  1.00  0.00     0.055 A 
ATOM     67  C   UNL A   1      40.816  22.466  27.642  1.00  0.00     0.041 A 
ATOM     68  F   UNL A   1      42.183  24.108  28.626  1.00  0.00    -0.206 F 
ATOM     69  C   UNL A   1      39.691  22.118  26.893  1.00  0.00     0.022 A 
BRANCH  66  70
ATOM     70  S   UNL A   1      37.391  22.740  25.425  1.00  0.00     0.124 S 
ATOM     71  O   UNL A   1      37.198  23.937  24.614  1.00  0.00    -0.237 OA
ATOM     72  O   UNL A   1      37.779  21.534  24.703  1.00  0.00    -0.237 OA
ATOM     73  O   UNL A   1      36.409  22.545  26.492  1.00  0.00    -0.744 OA
ENDBRANCH  66  70
ENDBRANCH  49  63
BRANCH  50  74
ATOM     74  C   UNL A   1      43.409  29.851  34.154  1.00  0.00     0.023 A 
ATOM     75  C   UNL A   1      42.911  28.591  34.549  1.00  0.00     0.031 A 
ATOM     76  C   UNL A   1      44.096  30.584  35.144  1.00  0.00     0.131 A 
ATOM     77  C   UNL A   1      43.159  28.084  35.839  1.00  0.00     0.055 A 
ATOM     78  C   UNL A   1      44.387  30.056  36.407  1.00  0.00     0.041 A 
ATOM     79  F   UNL A   1      44.508  31.840  34.928  1.00  0.00    -0.206 F 
ATOM     80  C   UNL A   1      43.928  28.795  36.758  1.00  0.00     0.022 A 
BRANCH  77  81
ATOM     81  S   UNL A   1      42.479  26.469  36.313  1.00  0.00     0.124 S 
ATOM     82  O   UNL A   1      43.438  25.548  35.713  1.00  0.00    -0.237 OA
ATOM     83  O   UNL A   1      42.482  26.535  37.771  1.00  0.00    -0.237 OA
ATOM     84  O   UNL A   1      41.150  26.469  35.703  1.00  0.00    -0.744 OA
ENDBRANCH  77  81
ENDBRANCH  50  74
BRANCH  62  85
ATOM     85  C   UNL A   1      44.194  30.771  27.714  1.00  0.00     0.023 A 
ATOM     86  C   UNL A   1      43.659  31.941  28.282  1.00  0.00     0.031 A 
ATOM     87  C   UNL A   1      45.246  30.906  26.791  1.00  0.00     0.131 A 
ATOM     88  C   UNL A   1      44.192  33.194  27.939  1.00  0.00     0.055 A 
ATOM     89  C   UNL A   1      45.797  32.151  26.482  1.00  0.00     0.041 A 
ATOM     90  F   UNL A   1      45.770  29.834  26.174  1.00  0.00    -0.206 F 
ATOM     91  C   UNL A   1      45.272  33.302  27.059  1.00  0.00     0.022 A 
BRANCH  88  92
ATOM     92  S   UNL A   1      43.484  34.691  28.681  1.00  0.00     0.124 S 
ATOM     93  O   UNL A   1      42.142  34.252  29.058  1.00  0.00    -0.237 OA
ATOM     94  O   UNL A   1      44.398  34.973  29.777  1.00  0.00    -0.237 OA
ATOM     95  O   UNL A   1      43.524  35.663  27.584  1.00  0.00    -0.744 OA
ENDBRANCH  88  92
ENDBRANCH  62  85
ENDBRANCH  36  37
ENDBRANCH  28  31
ENDBRANCH  26  27
ENDBRANCH   1  26
TORSDOF 16
ENDMDL
MODEL 3
REMARK VINA RESULT:     -11.8      2.487      3.674
REMARK SMILES Cc1nc2n(n1)[C@@H](c1ccc([N+](=O)[O-])o1)CC(C(=O)NCCCCNC(=O)c1ccc(-c3c4nc(c(-c5cc(S(=O)(=O)[O-])ccc5F)c5ccc([nH]5)c(-c5cc(S(=O)(=O)[O-])ccc5F)c5nc(c(-c6cc(S(=O)(=O)[O-])ccc6F)c6ccc3[nH]6)C=C5)C=C4)cc1)=N2
REMARK SMILES IDX 23 1 22 2 21 3 20 4 18 5 19 6 17 8 1 9 2 10 3 11 6 12 4 13
REMARK SMILES IDX 5 14 91 15 7 16 16 17 8 18 9 19 15 20 10 21 11 22 12 23
REMARK SMILES IDX 13 24 14 25 24 26 25 27 26 28 27 30 28 31 29 32 90 33 30 34
REMARK SMILES IDX 89 35 31 36 32 37 33 38 83 39 34 40 88 41 82 42 84 43 35 44
REMARK SMILES IDX 87 45 81 46 80 47 36 49 68 50 48 51 67 52 49 53 52 54 66 55
REMARK SMILES IDX 85 56 50 57 51 58 65 60 86 61 53 62 37 63 38 64 46 65 39 66
REMARK SMILES IDX 45 67 47 68 44 69 40 70 41 71 42 72 43 73 69 74 70 75 78 76
REMARK SMILES IDX 71 77 77 78 79 79 76 80 72 81 73 82 74 83 75 84 54 85 55 86
REMARK SMILES IDX 63 87 56 88 62 89 64 90 61 91 57 92 58 93 59 94 60 95
REMARK H PARENT 20 7 25 29 84 48 52 59
REMARK Flexibility Score: inf
ROOT
ATOM      1  C   UNL A   1      35.293  23.482  24.889  1.00  0.00     0.023 C 
ENDROOT
BRANCH   1   2
ATOM      2  C   UNL A   1      34.548  24.585  24.106  1.00  0.00     0.023 C 
BRANCH   2   3
ATOM      3  C   UNL A   1      33.318  24.102  23.327  1.00  0.00     0.116 C 
BRANCH   3   4
ATOM      4  N   UNL A   1      33.282  24.670  21.985  1.00  0.00    -0.351 N 
ATOM      5  C   UNL A   1      32.821  25.816  21.390  1.00  0.00     0.265 C 
ATOM      6  O   UNL A   1      32.951  25.888  20.167  1.00  0.00    -0.268 OA
ATOM      7  H   UNL A   1      33.702  24.068  21.329  1.00  0.00     0.163 HD
BRANCH   5   8
ATOM      8  C   UNL A   1      32.171  27.019  22.106  1.00  0.00     0.112 C 
ATOM      9  C   UNL A   1      27.954  30.974  22.744  1.00  0.00     0.092 C 
ATOM     10  C   UNL A   1      29.104  30.049  22.779  1.00  0.00     0.149 A 
ATOM     11  N   UNL A   1      29.256  29.034  21.869  1.00  0.00    -0.195 NA
ATOM     12  N   UNL A   1      30.066  30.116  23.708  1.00  0.00    -0.154 NA
ATOM     13  C   UNL A   1      30.370  28.434  22.230  1.00  0.00     0.249 A 
ATOM     14  N   UNL A   1      30.838  29.072  23.344  1.00  0.00    -0.219 N 
ATOM     15  N   UNL A   1      30.994  27.373  21.676  1.00  0.00    -0.211 NA
ATOM     16  C   UNL A   1      32.048  28.694  24.037  1.00  0.00     0.184 C 
ATOM     17  C   UNL A   1      32.914  27.749  23.193  1.00  0.00     0.098 C 
BRANCH  16  18
ATOM     18  C   UNL A   1      31.756  28.128  25.400  1.00  0.00     0.136 A 
ATOM     19  C   UNL A   1      31.867  28.582  26.705  1.00  0.00     0.056 A 
ATOM     20  O   UNL A   1      31.320  26.827  25.408  1.00  0.00    -0.404 OA
ATOM     21  C   UNL A   1      31.464  27.515  27.553  1.00  0.00     0.134 A 
ATOM     22  C   UNL A   1      31.135  26.484  26.709  1.00  0.00     0.433 A 
BRANCH  22  23
ATOM     23  N   UNL A   1      30.651  25.162  26.948  1.00  0.00     0.102 N 
ATOM     24  O   UNL A   1      29.429  24.996  26.837  1.00  0.00    -0.256 OA
ATOM     25  O   UNL A   1      31.482  24.291  27.236  1.00  0.00    -0.256 OA
ENDBRANCH  22  23
ENDBRANCH  16  18
ENDBRANCH   5   8
ENDBRANCH   3   4
ENDBRANCH   2   3
ENDBRANCH   1   2
BRANCH   1  26
ATOM     26  C   UNL A   1      36.779  23.757  25.200  1.00  0.00     0.116 C 
BRANCH  26  27
ATOM     27  N   UNL A   1      37.462  22.554  25.645  1.00  0.00    -0.352 N 
ATOM     28  C   UNL A   1      38.679  22.340  26.239  1.00  0.00     0.251 C 
ATOM     29  H   UNL A   1      36.949  21.728  25.489  1.00  0.00     0.163 HD
ATOM     30  O   UNL A   1      39.052  21.168  26.333  1.00  0.00    -0.269 OA
BRANCH  28  31
ATOM     31  C   UNL A   1      39.566  23.416  26.750  1.00  0.00     0.039 A 
ATOM     32  C   UNL A   1      40.952  23.232  26.596  1.00  0.00     0.014 A 
ATOM     33  C   UNL A   1      39.112  24.519  27.474  1.00  0.00     0.014 A 
ATOM     34  C   UNL A   1      41.867  24.157  27.114  1.00  0.00     0.010 A 
ATOM     35  C   UNL A   1      40.033  25.445  27.994  1.00  0.00     0.010 A 
ATOM     36  C   UNL A   1      41.418  25.289  27.804  1.00  0.00    -0.014 A 
BRANCH  36  37
ATOM     37  C   UNL A   1      42.397  26.355  28.138  1.00  0.00     0.031 A 
ATOM     38  C   UNL A   1      41.819  27.715  28.348  1.00  0.00     0.074 A 
ATOM     39  C   UNL A   1      43.632  26.154  28.654  1.00  0.00     0.049 A 
ATOM     40  N   UNL A   1      41.297  28.077  29.483  1.00  0.00    -0.248 NA
ATOM     41  C   UNL A   1      41.575  28.650  27.254  1.00  0.00     0.031 C 
ATOM     42  C   UNL A   1      43.994  25.011  29.494  1.00  0.00     0.029 A 
ATOM     43  N   UNL A   1      44.712  27.006  28.757  1.00  0.00    -0.354 N 
ATOM     44  C   UNL A   1      40.597  29.244  29.257  1.00  0.00     0.074 A 
ATOM     45  C   UNL A   1      40.815  29.575  27.863  1.00  0.00     0.031 C 
ATOM     46  C   UNL A   1      45.129  25.312  30.161  1.00  0.00     0.029 A 
ATOM     47  C   UNL A   1      45.675  26.584  29.677  1.00  0.00     0.049 A 
ATOM     48  H   UNL A   1      44.797  27.833  28.231  1.00  0.00     0.167 HD
ATOM     49  C   UNL A   1      39.852  29.849  30.218  1.00  0.00     0.034 A 
ATOM     50  C   UNL A   1      46.435  27.407  30.454  1.00  0.00     0.034 A 
ATOM     51  C   UNL A   1      39.876  29.226  31.510  1.00  0.00     0.049 A 
ATOM     52  C   UNL A   1      45.411  28.125  31.289  1.00  0.00     0.074 A 
ATOM     53  C   UNL A   1      39.119  28.299  32.195  1.00  0.00     0.029 A 
ATOM     54  N   UNL A   1      40.910  29.521  32.370  1.00  0.00    -0.354 N 
ATOM     55  N   UNL A   1      44.842  27.672  32.370  1.00  0.00    -0.248 NA
ATOM     56  C   UNL A   1      44.768  29.304  30.707  1.00  0.00     0.031 C 
ATOM     57  C   UNL A   1      39.984  27.764  33.202  1.00  0.00     0.029 A 
ATOM     58  C   UNL A   1      41.232  28.352  33.014  1.00  0.00     0.049 A 
ATOM     59  H   UNL A   1      41.334  30.400  32.498  1.00  0.00     0.167 HD
ATOM     60  C   UNL A   1      43.635  28.360  32.477  1.00  0.00     0.074 A 
ATOM     61  C   UNL A   1      43.671  29.379  31.447  1.00  0.00     0.031 C 
ATOM     62  C   UNL A   1      42.599  27.947  33.266  1.00  0.00     0.034 A 
BRANCH  49  63
ATOM     63  C   UNL A   1      39.072  31.089  30.030  1.00  0.00     0.023 A 
ATOM     64  C   UNL A   1      37.784  30.981  29.487  1.00  0.00     0.031 A 
ATOM     65  C   UNL A   1      39.638  32.363  30.161  1.00  0.00     0.131 A 
ATOM     66  C   UNL A   1      37.112  32.120  29.040  1.00  0.00     0.055 A 
ATOM     67  C   UNL A   1      38.956  33.504  29.728  1.00  0.00     0.041 A 
ATOM     68  F   UNL A   1      40.877  32.513  30.655  1.00  0.00    -0.206 F 
ATOM     69  C   UNL A   1      37.693  33.384  29.147  1.00  0.00     0.022 A 
BRANCH  66  70
ATOM     70  S   UNL A   1      35.518  31.891  28.212  1.00  0.00     0.124 S 
ATOM     71  O   UNL A   1      34.602  31.749  29.337  1.00  0.00    -0.237 OA
ATOM     72  O   UNL A   1      35.406  33.129  27.448  1.00  0.00    -0.237 OA
ATOM     73  O   UNL A   1      35.723  30.680  27.418  1.00  0.00    -0.744 OA
ENDBRANCH  66  70
ENDBRANCH  49  63
BRANCH  50  74
ATOM     74  C   UNL A   1      47.598  28.118  29.821  1.00  0.00     0.023 A 
ATOM     75  C   UNL A   1      47.997  27.745  28.519  1.00  0.00     0.031 A 
ATOM     76  C   UNL A   1      48.390  29.096  30.455  1.00  0.00     0.131 A 
ATOM     77  C   UNL A   1      49.083  28.378  27.883  1.00  0.00     0.055 A 
ATOM     78  C   UNL A   1      49.434  29.761  29.802  1.00  0.00     0.041 A 
ATOM     79  F   UNL A   1      48.187  29.444  31.733  1.00  0.00    -0.206 F 
ATOM     80  C   UNL A   1      49.780  29.412  28.505  1.00  0.00     0.022 A 
BRANCH  77  81
ATOM     81  S   UNL A   1      49.577  27.851  26.218  1.00  0.00     0.124 S 
ATOM     82  O   UNL A   1      50.959  28.315  26.150  1.00  0.00    -0.237 OA
ATOM     83  O   UNL A   1      49.391  26.405  26.270  1.00  0.00    -0.237 OA
ATOM     84  O   UNL A   1      48.639  28.558  25.347  1.00  0.00    -0.744 OA
ENDBRANCH  77  81
ENDBRANCH  50  74
BRANCH  62  85
ATOM     85  C   UNL A   1      42.903  26.818  34.203  1.00  0.00     0.023 A 
ATOM     86  C   UNL A   1      43.545  25.657  33.736  1.00  0.00     0.031 A 
ATOM     87  C   UNL A   1      42.572  26.886  35.568  1.00  0.00     0.131 A 
ATOM     88  C   UNL A   1      43.857  24.620  34.629  1.00  0.00     0.055 A 
ATOM     89  C   UNL A   1      42.918  25.869  36.459  1.00  0.00     0.041 A 
ATOM     90  F   UNL A   1      41.915  27.944  36.071  1.00  0.00    -0.206 F 
ATOM     91  C   UNL A   1      43.566  24.731  35.992  1.00  0.00     0.022 A 
BRANCH  88  92
ATOM     92  S   UNL A   1      44.682  23.130  34.004  1.00  0.00     0.124 S 
ATOM     93  O   UNL A   1      46.095  23.493  34.090  1.00  0.00    -0.237 OA
ATOM     94  O   UNL A   1      44.228  22.099  34.923  1.00  0.00    -0.237 OA
ATOM     95  O   UNL A   1      44.164  23.005  32.638  1.00  0.00    -0.744 OA
ENDBRANCH  88  92
ENDBRANCH  62  85
ENDBRANCH  36  37
ENDBRANCH  28  31
ENDBRANCH  26  27
ENDBRANCH   1  26
TORSDOF 16
ENDMDL
