MODEL 1
REMARK VINA RESULT:     -10.8      0.000      0.000
REMARK SMILES CCC[C@@H]1SC[C@H](C(=O)NCCCCNC(=O)c2ccc(-c3c4nc(c(-c5cc(S(=O)(=O)[O-])ccc5F)c5ccc([nH]5)c(-c5cc(S(=O)(=O)[O-])ccc5F)c5nc(c(-c6cc(S(=O)(=O)[O-])ccc6F)c6ccc3[nH]6)C=C5)C=C4)cc2)N1C(=O)C[NH+]1CCC([NH3+])CC1
REMARK SMILES IDX 12 1 11 2 10 3 8 4 9 5 7 7 4 8 5 9 81 10 6 11 3 12 2 13 1 14
REMARK SMILES IDX 82 15 83 16 84 17 85 18 86 19 91 20 87 22 90 23 88 24 89 25
REMARK SMILES IDX 13 29 14 30 15 31 16 32 17 34 18 35 19 36 80 37 20 38 79 39
REMARK SMILES IDX 21 40 22 41 23 42 73 43 24 44 78 45 72 46 74 47 25 48 77 49
REMARK SMILES IDX 71 50 70 51 26 53 58 54 38 55 57 56 39 57 42 58 56 59 75 60
REMARK SMILES IDX 40 61 41 62 55 64 76 65 43 66 27 67 28 68 36 69 29 70 35 71
REMARK SMILES IDX 37 72 34 73 30 74 31 75 32 76 33 77 59 78 60 79 68 80 61 81
REMARK SMILES IDX 67 82 69 83 66 84 62 85 63 86 64 87 65 88 44 89 45 90 53 91
REMARK SMILES IDX 46 92 52 93 54 94 51 95 47 96 48 97 49 98 50 99
REMARK H PARENT 10 6 85 21 89 26 89 27 89 28 15 33 74 52 42 63
REMARK Flexibility Score: inf
ROOT
ATOM      1  C   UNL A   1      37.255  21.328  24.556  1.00  0.00     0.023 C 
ENDROOT
BRANCH   1   2
ATOM      2  C   UNL A   1      36.853  22.315  25.651  1.00  0.00     0.116 C 
BRANCH   2   3
ATOM      3  N   UNL A   1      35.799  21.818  26.517  1.00  0.00    -0.354 N 
ATOM      4  C   UNL A   1      34.438  21.822  26.343  1.00  0.00     0.243 C 
ATOM      5  O   UNL A   1      33.732  21.373  27.247  1.00  0.00    -0.273 OA
ATOM      6  H   UNL A   1      36.109  21.417  27.360  1.00  0.00     0.163 HD
BRANCH   4   7
ATOM      7  C   UNL A   1      33.856  22.377  25.023  1.00  0.00     0.185 C 
ATOM      8  C   UNL A   1      32.145  23.507  23.715  1.00  0.00     0.144 C 
ATOM      9  S   UNL A   1      32.360  21.872  22.886  1.00  0.00    -0.134 SA
ATOM     10  N   UNL A   1      32.730  23.335  25.038  1.00  0.00    -0.313 N 
ATOM     11  C   UNL A   1      33.441  21.187  24.159  1.00  0.00     0.107 C 
BRANCH   8  12
ATOM     12  C   UNL A   1      30.667  23.925  23.650  1.00  0.00     0.036 C 
BRANCH  12  13
ATOM     13  C   UNL A   1      30.488  25.410  23.283  1.00  0.00    -0.000 C 
ATOM     14  C   UNL A   1      29.293  26.085  23.934  1.00  0.00     0.004 C 
ENDBRANCH  12  13
ENDBRANCH   8  12
BRANCH  10  15
ATOM     15  C   UNL A   1      32.630  24.211  26.096  1.00  0.00     0.279 C 
ATOM     16  O   UNL A   1      31.874  23.936  27.037  1.00  0.00    -0.268 OA
BRANCH  15  17
ATOM     17  C   UNL A   1      33.349  25.569  26.165  1.00  0.00     0.363 C 
BRANCH  17  18
ATOM     18  N   UNL A   1      32.712  26.709  25.471  1.00  0.00    -0.327 N 
ATOM     19  C   UNL A   1      31.680  27.314  26.337  1.00  0.00     0.268 C 
ATOM     20  C   UNL A   1      33.645  27.741  24.990  1.00  0.00     0.268 C 
ATOM     21  H   UNL A   1      32.291  26.317  24.629  1.00  0.00     0.348 HD
ATOM     22  C   UNL A   1      32.234  28.169  27.484  1.00  0.00     0.126 C 
ATOM     23  C   UNL A   1      34.227  28.665  26.061  1.00  0.00     0.126 C 
ATOM     24  C   UNL A   1      33.125  29.277  26.924  1.00  0.00     0.192 C 
BRANCH  24  25
ATOM     25  N   UNL A   1      33.711  30.089  27.988  1.00  0.00    -0.355 N 
ATOM     26  H   UNL A   1      34.693  29.841  28.103  1.00  0.00     0.344 HD
ATOM     27  H   UNL A   1      33.212  29.916  28.861  1.00  0.00     0.344 HD
ATOM     28  H   UNL A   1      33.636  31.076  27.743  1.00  0.00     0.344 HD
ENDBRANCH  24  25
ENDBRANCH  17  18
ENDBRANCH  15  17
ENDBRANCH  10  15
ENDBRANCH   4   7
ENDBRANCH   2   3
ENDBRANCH   1   2
BRANCH   1  29
ATOM     29  C   UNL A   1      38.026  20.110  25.043  1.00  0.00     0.023 C 
BRANCH  29  30
ATOM     30  C   UNL A   1      39.102  20.454  26.055  1.00  0.00     0.116 C 
BRANCH  30  31
ATOM     31  N   UNL A   1      40.153  19.444  26.092  1.00  0.00    -0.352 N 
ATOM     32  C   UNL A   1      41.514  19.619  26.121  1.00  0.00     0.251 C 
ATOM     33  H   UNL A   1      39.844  18.509  26.096  1.00  0.00     0.163 HD
ATOM     34  O   UNL A   1      42.256  18.668  25.906  1.00  0.00    -0.269 OA
BRANCH  32  35
ATOM     35  C   UNL A   1      42.057  20.962  26.397  1.00  0.00     0.039 A 
ATOM     36  C   UNL A   1      42.412  21.303  27.704  1.00  0.00     0.014 A 
ATOM     37  C   UNL A   1      42.227  21.877  25.355  1.00  0.00     0.014 A 
ATOM     38  C   UNL A   1      42.971  22.555  27.955  1.00  0.00     0.010 A 
ATOM     39  C   UNL A   1      42.893  23.069  25.587  1.00  0.00     0.010 A 
ATOM     40  C   UNL A   1      43.235  23.439  26.895  1.00  0.00    -0.014 A 
BRANCH  40  41
ATOM     41  C   UNL A   1      43.789  24.793  27.134  1.00  0.00     0.031 A 
ATOM     42  C   UNL A   1      42.894  25.871  27.686  1.00  0.00     0.074 A 
ATOM     43  C   UNL A   1      45.067  25.064  26.811  1.00  0.00     0.049 A 
ATOM     44  N   UNL A   1      43.155  27.130  27.919  1.00  0.00    -0.248 NA
ATOM     45  C   UNL A   1      41.502  25.486  27.966  1.00  0.00     0.031 C 
ATOM     46  C   UNL A   1      46.013  24.110  26.229  1.00  0.00     0.029 A 
ATOM     47  N   UNL A   1      45.790  26.221  26.932  1.00  0.00    -0.354 N 
ATOM     48  C   UNL A   1      41.957  27.688  28.353  1.00  0.00     0.074 A 
ATOM     49  C   UNL A   1      40.952  26.653  28.248  1.00  0.00     0.031 C 
ATOM     50  C   UNL A   1      47.208  24.707  26.095  1.00  0.00     0.029 A 
ATOM     51  C   UNL A   1      47.101  26.095  26.535  1.00  0.00     0.049 A 
ATOM     52  H   UNL A   1      45.408  27.063  27.270  1.00  0.00     0.167 HD
ATOM     53  C   UNL A   1      41.722  28.933  28.836  1.00  0.00     0.034 A 
ATOM     54  C   UNL A   1      48.100  26.997  26.536  1.00  0.00     0.034 A 
ATOM     55  C   UNL A   1      42.745  29.946  28.937  1.00  0.00     0.049 A 
ATOM     56  C   UNL A   1      47.817  28.388  27.044  1.00  0.00     0.074 A 
ATOM     57  C   UNL A   1      42.647  31.230  29.442  1.00  0.00     0.029 A 
ATOM     58  N   UNL A   1      44.061  29.787  28.513  1.00  0.00    -0.354 N 
ATOM     59  N   UNL A   1      46.693  28.893  27.498  1.00  0.00    -0.248 NA
ATOM     60  C   UNL A   1      48.947  29.324  27.051  1.00  0.00     0.031 C 
ATOM     61  C   UNL A   1      43.878  31.869  29.254  1.00  0.00     0.029 A 
ATOM     62  C   UNL A   1      44.774  30.958  28.718  1.00  0.00     0.049 A 
ATOM     63  H   UNL A   1      44.432  28.961  28.125  1.00  0.00     0.167 HD
ATOM     64  C   UNL A   1      46.993  30.196  27.889  1.00  0.00     0.074 A 
ATOM     65  C   UNL A   1      48.404  30.391  27.618  1.00  0.00     0.031 C 
ATOM     66  C   UNL A   1      46.180  31.140  28.433  1.00  0.00     0.034 A 
BRANCH  53  67
ATOM     67  C   UNL A   1      40.300  29.253  29.251  1.00  0.00     0.023 A 
ATOM     68  C   UNL A   1      39.908  29.248  30.603  1.00  0.00     0.031 A 
ATOM     69  C   UNL A   1      39.303  29.469  28.284  1.00  0.00     0.131 A 
ATOM     70  C   UNL A   1      38.548  29.320  30.940  1.00  0.00     0.055 A 
ATOM     71  C   UNL A   1      37.963  29.656  28.636  1.00  0.00     0.041 A 
ATOM     72  F   UNL A   1      39.603  29.466  26.975  1.00  0.00    -0.206 F 
ATOM     73  C   UNL A   1      37.575  29.554  29.969  1.00  0.00     0.022 A 
BRANCH  70  74
ATOM     74  S   UNL A   1      38.057  28.878  32.632  1.00  0.00     0.124 S 
ATOM     75  O   UNL A   1      38.972  29.695  33.427  1.00  0.00    -0.237 OA
ATOM     76  O   UNL A   1      36.654  29.271  32.667  1.00  0.00    -0.237 OA
ATOM     77  O   UNL A   1      38.307  27.439  32.695  1.00  0.00    -0.744 OA
ENDBRANCH  70  74
ENDBRANCH  53  67
BRANCH  54  78
ATOM     78  C   UNL A   1      49.463  26.606  26.081  1.00  0.00     0.023 A 
ATOM     79  C   UNL A   1      49.968  27.066  24.854  1.00  0.00     0.031 A 
ATOM     80  C   UNL A   1      50.278  25.765  26.858  1.00  0.00     0.131 A 
ATOM     81  C   UNL A   1      51.237  26.653  24.421  1.00  0.00     0.055 A 
ATOM     82  C   UNL A   1      51.560  25.395  26.445  1.00  0.00     0.041 A 
ATOM     83  F   UNL A   1      49.846  25.306  28.043  1.00  0.00    -0.206 F 
ATOM     84  C   UNL A   1      52.042  25.832  25.214  1.00  0.00     0.022 A 
BRANCH  81  85
ATOM     85  S   UNL A   1      51.799  27.159  22.773  1.00  0.00     0.124 S 
ATOM     86  O   UNL A   1      51.927  28.603  22.932  1.00  0.00    -0.237 OA
ATOM     87  O   UNL A   1      53.047  26.414  22.636  1.00  0.00    -0.237 OA
ATOM     88  O   UNL A   1      50.716  26.720  21.895  1.00  0.00    -0.744 OA
ENDBRANCH  81  85
ENDBRANCH  54  78
BRANCH  66  89
ATOM     89  C   UNL A   1      46.822  32.449  28.832  1.00  0.00     0.023 A 
ATOM     90  C   UNL A   1      47.360  32.658  30.114  1.00  0.00     0.031 A 
ATOM     91  C   UNL A   1      46.875  33.512  27.912  1.00  0.00     0.131 A 
ATOM     92  C   UNL A   1      47.864  33.920  30.462  1.00  0.00     0.055 A 
ATOM     93  C   UNL A   1      47.445  34.742  28.242  1.00  0.00     0.041 A 
ATOM     94  F   UNL A   1      46.374  33.372  26.675  1.00  0.00    -0.206 F 
ATOM     95  C   UNL A   1      47.929  34.958  29.528  1.00  0.00     0.022 A 
BRANCH  92  96
ATOM     96  S   UNL A   1      48.323  34.228  32.190  1.00  0.00     0.124 S 
ATOM     97  O   UNL A   1      47.934  32.977  32.834  1.00  0.00    -0.237 OA
ATOM     98  O   UNL A   1      49.758  34.475  32.091  1.00  0.00    -0.237 OA
ATOM     99  O   UNL A   1      47.518  35.391  32.557  1.00  0.00    -0.744 OA
ENDBRANCH  92  96
ENDBRANCH  66  89
ENDBRANCH  40  41
ENDBRANCH  32  35
ENDBRANCH  30  31
ENDBRANCH  29  30
ENDBRANCH   1  29
TORSDOF 20
ENDMDL
MODEL 2
REMARK VINA RESULT:     -10.8      2.187      3.698
REMARK SMILES CCC[C@@H]1SC[C@H](C(=O)NCCCCNC(=O)c2ccc(-c3c4nc(c(-c5cc(S(=O)(=O)[O-])ccc5F)c5ccc([nH]5)c(-c5cc(S(=O)(=O)[O-])ccc5F)c5nc(c(-c6cc(S(=O)(=O)[O-])ccc6F)c6ccc3[nH]6)C=C5)C=C4)cc2)N1C(=O)C[NH+]1CCC([NH3+])CC1
REMARK SMILES IDX 12 1 11 2 10 3 8 4 9 5 7 7 4 8 5 9 81 10 6 11 3 12 2 13 1 14
REMARK SMILES IDX 82 15 83 16 84 17 85 18 86 19 91 20 87 22 90 23 88 24 89 25
REMARK SMILES IDX 13 29 14 30 15 31 16 32 17 34 18 35 19 36 80 37 20 38 79 39
REMARK SMILES IDX 21 40 22 41 23 42 73 43 24 44 78 45 72 46 74 47 25 48 77 49
REMARK SMILES IDX 71 50 70 51 26 53 58 54 38 55 57 56 39 57 42 58 56 59 75 60
REMARK SMILES IDX 40 61 41 62 55 64 76 65 43 66 27 67 28 68 36 69 29 70 35 71
REMARK SMILES IDX 37 72 34 73 30 74 31 75 32 76 33 77 59 78 60 79 68 80 61 81
REMARK SMILES IDX 67 82 69 83 66 84 62 85 63 86 64 87 65 88 44 89 45 90 53 91
REMARK SMILES IDX 46 92 52 93 54 94 51 95 47 96 48 97 49 98 50 99
REMARK H PARENT 10 6 85 21 89 26 89 27 89 28 15 33 74 52 42 63
REMARK Flexibility Score: inf
ROOT
ATOM      1  C   UNL A   1      39.294  22.454  26.536  1.00  0.00     0.023 C 
ENDROOT
BRANCH   1   2
ATOM      2  C   UNL A   1      38.040  23.149  26.006  1.00  0.00     0.116 C 
BRANCH   2   3
ATOM      3  N   UNL A   1      37.785  22.886  24.601  1.00  0.00    -0.354 N 
ATOM      4  C   UNL A   1      36.633  23.033  23.871  1.00  0.00     0.243 C 
ATOM      5  O   UNL A   1      36.649  22.705  22.683  1.00  0.00    -0.273 OA
ATOM      6  H   UNL A   1      38.559  22.551  24.094  1.00  0.00     0.163 HD
BRANCH   4   7
ATOM      7  C   UNL A   1      35.378  23.612  24.563  1.00  0.00     0.185 C 
ATOM      8  C   UNL A   1      33.144  23.426  25.507  1.00  0.00     0.144 C 
ATOM      9  S   UNL A   1      33.001  24.750  24.230  1.00  0.00    -0.134 SA
ATOM     10  N   UNL A   1      34.372  22.716  25.173  1.00  0.00    -0.313 N 
ATOM     11  C   UNL A   1      34.655  24.500  23.552  1.00  0.00     0.107 C 
BRANCH   8  12
ATOM     12  C   UNL A   1      31.846  22.603  25.542  1.00  0.00     0.036 C 
BRANCH  12  13
ATOM     13  C   UNL A   1      30.948  22.966  26.739  1.00  0.00    -0.000 C 
ATOM     14  C   UNL A   1      30.048  24.169  26.516  1.00  0.00     0.004 C 
ENDBRANCH  12  13
ENDBRANCH   8  12
BRANCH  10  15
ATOM     15  C   UNL A   1      34.799  21.523  25.713  1.00  0.00     0.279 C 
ATOM     16  O   UNL A   1      35.138  21.487  26.903  1.00  0.00    -0.268 OA
BRANCH  15  17
ATOM     17  C   UNL A   1      34.957  20.220  24.912  1.00  0.00     0.363 C 
BRANCH  17  18
ATOM     18  N   UNL A   1      34.155  19.056  25.347  1.00  0.00    -0.327 N 
ATOM     19  C   UNL A   1      32.716  19.370  25.247  1.00  0.00     0.268 C 
ATOM     20  C   UNL A   1      34.454  17.799  24.642  1.00  0.00     0.268 C 
ATOM     21  H   UNL A   1      34.420  18.887  26.317  1.00  0.00     0.348 HD
ATOM     22  C   UNL A   1      32.162  19.367  23.817  1.00  0.00     0.126 C 
ATOM     23  C   UNL A   1      33.914  17.690  23.215  1.00  0.00     0.126 C 
ATOM     24  C   UNL A   1      32.422  18.011  23.161  1.00  0.00     0.192 C 
BRANCH  24  25
ATOM     25  N   UNL A   1      31.949  17.980  21.778  1.00  0.00    -0.355 N 
ATOM     26  H   UNL A   1      31.035  17.531  21.742  1.00  0.00     0.344 HD
ATOM     27  H   UNL A   1      32.610  17.454  21.206  1.00  0.00     0.344 HD
ATOM     28  H   UNL A   1      31.874  18.933  21.424  1.00  0.00     0.344 HD
ENDBRANCH  24  25
ENDBRANCH  17  18
ENDBRANCH  15  17
ENDBRANCH  10  15
ENDBRANCH   4   7
ENDBRANCH   2   3
ENDBRANCH   1   2
BRANCH   1  29
ATOM     29  C   UNL A   1      39.616  21.122  25.873  1.00  0.00     0.023 C 
BRANCH  29  30
ATOM     30  C   UNL A   1      40.192  20.103  26.837  1.00  0.00     0.116 C 
BRANCH  30  31
ATOM     31  N   UNL A   1      41.236  19.298  26.214  1.00  0.00    -0.352 N 
ATOM     32  C   UNL A   1      42.440  19.700  25.694  1.00  0.00     0.251 C 
ATOM     33  H   UNL A   1      41.050  18.332  26.157  1.00  0.00     0.163 HD
ATOM     34  O   UNL A   1      43.089  18.934  24.994  1.00  0.00    -0.269 OA
BRANCH  32  35
ATOM     35  C   UNL A   1      42.923  21.065  25.982  1.00  0.00     0.039 A 
ATOM     36  C   UNL A   1      43.017  21.992  24.943  1.00  0.00     0.014 A 
ATOM     37  C   UNL A   1      43.268  21.426  27.287  1.00  0.00     0.014 A 
ATOM     38  C   UNL A   1      43.426  23.295  25.225  1.00  0.00     0.010 A 
ATOM     39  C   UNL A   1      43.554  22.748  27.583  1.00  0.00     0.010 A 
ATOM     40  C   UNL A   1      43.677  23.687  26.551  1.00  0.00    -0.014 A 
BRANCH  40  41
ATOM     41  C   UNL A   1      44.154  25.052  26.878  1.00  0.00     0.031 A 
ATOM     42  C   UNL A   1      43.197  26.043  27.486  1.00  0.00     0.074 A 
ATOM     43  C   UNL A   1      45.417  25.412  26.585  1.00  0.00     0.049 A 
ATOM     44  N   UNL A   1      43.386  27.297  27.799  1.00  0.00    -0.248 NA
ATOM     45  C   UNL A   1      41.827  25.565  27.728  1.00  0.00     0.031 C 
ATOM     46  C   UNL A   1      46.419  24.549  25.956  1.00  0.00     0.029 A 
ATOM     47  N   UNL A   1      46.075  26.597  26.784  1.00  0.00    -0.354 N 
ATOM     48  C   UNL A   1      42.156  27.761  28.255  1.00  0.00     0.074 A 
ATOM     49  C   UNL A   1      41.211  26.681  28.075  1.00  0.00     0.031 C 
ATOM     50  C   UNL A   1      47.580  25.219  25.870  1.00  0.00     0.029 A 
ATOM     51  C   UNL A   1      47.393  26.568  26.394  1.00  0.00     0.049 A 
ATOM     52  H   UNL A   1      45.644  27.394  27.170  1.00  0.00     0.167 HD
ATOM     53  C   UNL A   1      41.850  28.959  28.811  1.00  0.00     0.034 A 
ATOM     54  C   UNL A   1      48.340  27.522  26.460  1.00  0.00     0.034 A 
ATOM     55  C   UNL A   1      42.815  30.018  28.984  1.00  0.00     0.049 A 
ATOM     56  C   UNL A   1      47.978  28.861  27.050  1.00  0.00     0.074 A 
ATOM     57  C   UNL A   1      42.642  31.261  29.566  1.00  0.00     0.029 A 
ATOM     58  N   UNL A   1      44.140  29.958  28.565  1.00  0.00    -0.354 N 
ATOM     59  N   UNL A   1      46.825  29.275  27.523  1.00  0.00    -0.248 NA
ATOM     60  C   UNL A   1      49.054  29.856  27.127  1.00  0.00     0.031 C 
ATOM     61  C   UNL A   1      43.837  31.977  29.430  1.00  0.00     0.029 A 
ATOM     62  C   UNL A   1      44.786  31.151  28.848  1.00  0.00     0.049 A 
ATOM     63  H   UNL A   1      44.558  29.180  28.130  1.00  0.00     0.167 HD
ATOM     64  C   UNL A   1      47.049  30.565  27.996  1.00  0.00     0.074 A 
ATOM     65  C   UNL A   1      48.449  30.854  27.753  1.00  0.00     0.031 C 
ATOM     66  C   UNL A   1      46.181  31.427  28.589  1.00  0.00     0.034 A 
BRANCH  53  67
ATOM     67  C   UNL A   1      40.410  29.174  29.229  1.00  0.00     0.023 A 
ATOM     68  C   UNL A   1      40.021  29.129  30.582  1.00  0.00     0.031 A 
ATOM     69  C   UNL A   1      39.398  29.328  28.266  1.00  0.00     0.131 A 
ATOM     70  C   UNL A   1      38.660  29.103  30.921  1.00  0.00     0.055 A 
ATOM     71  C   UNL A   1      38.049  29.417  28.621  1.00  0.00     0.041 A 
ATOM     72  F   UNL A   1      39.696  29.358  26.957  1.00  0.00    -0.206 F 
ATOM     73  C   UNL A   1      37.671  29.276  29.953  1.00  0.00     0.022 A 
BRANCH  70  74
ATOM     74  S   UNL A   1      38.204  28.611  32.609  1.00  0.00     0.124 S 
ATOM     75  O   UNL A   1      36.873  29.201  32.737  1.00  0.00    -0.237 OA
ATOM     76  O   UNL A   1      38.255  27.156  32.539  1.00  0.00    -0.237 OA
ATOM     77  O   UNL A   1      39.234  29.235  33.437  1.00  0.00    -0.744 OA
ENDBRANCH  70  74
ENDBRANCH  53  67
BRANCH  54  78
ATOM     78  C   UNL A   1      49.726  27.235  25.996  1.00  0.00     0.023 A 
ATOM     79  C   UNL A   1      50.093  27.452  24.658  1.00  0.00     0.031 A 
ATOM     80  C   UNL A   1      50.702  26.736  26.876  1.00  0.00     0.131 A 
ATOM     81  C   UNL A   1      51.390  27.136  24.228  1.00  0.00     0.055 A 
ATOM     82  C   UNL A   1      52.006  26.468  26.455  1.00  0.00     0.041 A 
ATOM     83  F   UNL A   1      50.406  26.522  28.168  1.00  0.00    -0.206 F 
ATOM     84  C   UNL A   1      52.353  26.658  25.120  1.00  0.00     0.022 A 
BRANCH  81  85
ATOM     85  S   UNL A   1      51.785  27.302  22.466  1.00  0.00     0.124 S 
ATOM     86  O   UNL A   1      52.807  26.276  22.293  1.00  0.00    -0.237 OA
ATOM     87  O   UNL A   1      50.494  27.036  21.839  1.00  0.00    -0.237 OA
ATOM     88  O   UNL A   1      52.257  28.680  22.352  1.00  0.00    -0.744 OA
ENDBRANCH  81  85
ENDBRANCH  54  78
BRANCH  66  89
ATOM     89  C   UNL A   1      46.747  32.743  29.074  1.00  0.00     0.023 A 
ATOM     90  C   UNL A   1      46.759  33.894  28.267  1.00  0.00     0.031 A 
ATOM     91  C   UNL A   1      47.302  32.833  30.364  1.00  0.00     0.131 A 
ATOM     92  C   UNL A   1      47.377  35.065  28.732  1.00  0.00     0.055 A 
ATOM     93  C   UNL A   1      47.849  34.023  30.847  1.00  0.00     0.041 A 
ATOM     94  F   UNL A   1      47.322  31.766  31.177  1.00  0.00    -0.206 F 
ATOM     95  C   UNL A   1      47.904  35.144  30.024  1.00  0.00     0.022 A 
BRANCH  92  96
ATOM     96  S   UNL A   1      47.593  36.451  27.581  1.00  0.00     0.124 S 
ATOM     97  O   UNL A   1      47.580  35.775  26.288  1.00  0.00    -0.237 OA
ATOM     98  O   UNL A   1      46.431  37.284  27.877  1.00  0.00    -0.237 OA
ATOM     99  O   UNL A   1      48.881  37.022  27.970  1.00  0.00    -0.744 OA
ENDBRANCH  92  96
ENDBRANCH  66  89
ENDBRANCH  40  41
ENDBRANCH  32  35
ENDBRANCH  30  31
ENDBRANCH  29  30
ENDBRANCH   1  29
TORSDOF 20
ENDMDL
MODEL 3
REMARK VINA RESULT:     -10.8      2.079      2.513
REMARK SMILES CCC[C@@H]1SC[C@H](C(=O)NCCCCNC(=O)c2ccc(-c3c4nc(c(-c5cc(S(=O)(=O)[O-])ccc5F)c5ccc([nH]5)c(-c5cc(S(=O)(=O)[O-])ccc5F)c5nc(c(-c6cc(S(=O)(=O)[O-])ccc6F)c6ccc3[nH]6)C=C5)C=C4)cc2)N1C(=O)C[NH+]1CCC([NH3+])CC1
REMARK SMILES IDX 12 1 11 2 10 3 8 4 9 5 7 7 4 8 5 9 81 10 6 11 3 12 2 13 1 14
REMARK SMILES IDX 82 15 83 16 84 17 85 18 86 19 91 20 87 22 90 23 88 24 89 25
REMARK SMILES IDX 13 29 14 30 15 31 16 32 17 34 18 35 19 36 80 37 20 38 79 39
REMARK SMILES IDX 21 40 22 41 23 42 73 43 24 44 78 45 72 46 74 47 25 48 77 49
REMARK SMILES IDX 71 50 70 51 26 53 58 54 38 55 57 56 39 57 42 58 56 59 75 60
REMARK SMILES IDX 40 61 41 62 55 64 76 65 43 66 27 67 28 68 36 69 29 70 35 71
REMARK SMILES IDX 37 72 34 73 30 74 31 75 32 76 33 77 59 78 60 79 68 80 61 81
REMARK SMILES IDX 67 82 69 83 66 84 62 85 63 86 64 87 65 88 44 89 45 90 53 91
REMARK SMILES IDX 46 92 52 93 54 94 51 95 47 96 48 97 49 98 50 99
REMARK H PARENT 10 6 85 21 89 26 89 27 89 28 15 33 74 52 42 63
REMARK Flexibility Score: inf
ROOT
ATOM      1  C   UNL A   1      36.989  20.548  24.685  1.00  0.00     0.023 C 
ENDROOT
BRANCH   1   2
ATOM      2  C   UNL A   1      36.803  21.680  25.694  1.00  0.00     0.116 C 
BRANCH   2   3
ATOM      3  N   UNL A   1      35.599  21.549  26.495  1.00  0.00    -0.354 N 
ATOM      4  C   UNL A   1      34.289  21.785  26.164  1.00  0.00     0.243 C 
ATOM      5  O   UNL A   1      33.431  21.638  27.036  1.00  0.00    -0.273 OA
ATOM      6  H   UNL A   1      35.746  21.242  27.418  1.00  0.00     0.163 HD
BRANCH   4   7
ATOM      7  C   UNL A   1      33.949  22.213  24.718  1.00  0.00     0.185 C 
ATOM      8  C   UNL A   1      32.965  23.713  23.077  1.00  0.00     0.144 C 
ATOM      9  S   UNL A   1      32.189  22.076  22.733  1.00  0.00    -0.134 SA
ATOM     10  N   UNL A   1      33.512  23.594  24.422  1.00  0.00    -0.313 N 
ATOM     11  C   UNL A   1      32.874  21.263  24.191  1.00  0.00     0.107 C 
BRANCH   8  12
ATOM     12  C   UNL A   1      31.937  24.830  22.834  1.00  0.00     0.036 C 
BRANCH  12  13
ATOM     13  C   UNL A   1      30.598  24.566  23.547  1.00  0.00    -0.000 C 
ATOM     14  C   UNL A   1      29.764  25.808  23.811  1.00  0.00     0.004 C 
ENDBRANCH  12  13
ENDBRANCH   8  12
BRANCH  10  15
ATOM     15  C   UNL A   1      34.008  24.618  25.197  1.00  0.00     0.279 C 
ATOM     16  O   UNL A   1      35.219  24.648  25.453  1.00  0.00    -0.268 OA
BRANCH  15  17
ATOM     17  C   UNL A   1      33.141  25.712  25.842  1.00  0.00     0.363 C 
BRANCH  17  18
ATOM     18  N   UNL A   1      33.742  27.056  25.986  1.00  0.00    -0.327 N 
ATOM     19  C   UNL A   1      33.969  27.651  24.653  1.00  0.00     0.268 C 
ATOM     20  C   UNL A   1      32.985  27.986  26.838  1.00  0.00     0.268 C 
ATOM     21  H   UNL A   1      34.627  26.910  26.470  1.00  0.00     0.348 HD
ATOM     22  C   UNL A   1      32.700  28.164  23.961  1.00  0.00     0.126 C 
ATOM     23  C   UNL A   1      31.715  28.575  26.220  1.00  0.00     0.126 C 
ATOM     24  C   UNL A   1      32.000  29.189  24.851  1.00  0.00     0.192 C 
BRANCH  24  25
ATOM     25  N   UNL A   1      30.758  29.670  24.247  1.00  0.00    -0.355 N 
ATOM     26  H   UNL A   1      29.986  29.524  24.896  1.00  0.00     0.344 HD
ATOM     27  H   UNL A   1      30.579  29.157  23.384  1.00  0.00     0.344 HD
ATOM     28  H   UNL A   1      30.844  30.665  24.040  1.00  0.00     0.344 HD
ENDBRANCH  24  25
ENDBRANCH  17  18
ENDBRANCH  15  17
ENDBRANCH  10  15
ENDBRANCH   4   7
ENDBRANCH   2   3
ENDBRANCH   1   2
BRANCH   1  29
ATOM     29  C   UNL A   1      38.116  19.579  25.010  1.00  0.00     0.023 C 
BRANCH  29  30
ATOM     30  C   UNL A   1      39.187  20.190  25.893  1.00  0.00     0.116 C 
BRANCH  30  31
ATOM     31  N   UNL A   1      40.274  19.253  26.154  1.00  0.00    -0.352 N 
ATOM     32  C   UNL A   1      41.607  19.512  26.350  1.00  0.00     0.251 C 
ATOM     33  H   UNL A   1      40.015  18.303  26.193  1.00  0.00     0.163 HD
ATOM     34  O   UNL A   1      42.418  18.596  26.316  1.00  0.00    -0.269 OA
BRANCH  32  35
ATOM     35  C   UNL A   1      42.037  20.904  26.585  1.00  0.00     0.039 A 
ATOM     36  C   UNL A   1      42.244  21.752  25.495  1.00  0.00     0.014 A 
ATOM     37  C   UNL A   1      42.222  21.369  27.890  1.00  0.00     0.014 A 
ATOM     38  C   UNL A   1      42.602  23.080  25.722  1.00  0.00     0.010 A 
ATOM     39  C   UNL A   1      42.458  22.716  28.114  1.00  0.00     0.010 A 
ATOM     40  C   UNL A   1      42.692  23.576  27.033  1.00  0.00    -0.014 A 
BRANCH  40  41
ATOM     41  C   UNL A   1      43.112  24.971  27.307  1.00  0.00     0.031 A 
ATOM     42  C   UNL A   1      42.139  25.922  27.952  1.00  0.00     0.074 A 
ATOM     43  C   UNL A   1      44.334  25.391  26.934  1.00  0.00     0.049 A 
ATOM     44  N   UNL A   1      42.278  27.192  28.231  1.00  0.00    -0.248 NA
ATOM     45  C   UNL A   1      40.814  25.378  28.283  1.00  0.00     0.031 C 
ATOM     46  C   UNL A   1      45.344  24.570  26.262  1.00  0.00     0.029 A 
ATOM     47  N   UNL A   1      44.937  26.614  27.072  1.00  0.00    -0.354 N 
ATOM     48  C   UNL A   1      41.053  27.599  28.750  1.00  0.00     0.074 A 
ATOM     49  C   UNL A   1      40.159  26.467  28.646  1.00  0.00     0.031 C 
ATOM     50  C   UNL A   1      46.459  25.298  26.096  1.00  0.00     0.029 A 
ATOM     51  C   UNL A   1      46.230  26.646  26.605  1.00  0.00     0.049 A 
ATOM     52  H   UNL A   1      44.487  27.395  27.468  1.00  0.00     0.167 HD
ATOM     53  C   UNL A   1      40.715  28.791  29.301  1.00  0.00     0.034 A 
ATOM     54  C   UNL A   1      47.127  27.650  26.598  1.00  0.00     0.034 A 
ATOM     55  C   UNL A   1      41.630  29.903  29.398  1.00  0.00     0.049 A 
ATOM     56  C   UNL A   1      46.727  28.981  27.184  1.00  0.00     0.074 A 
ATOM     57  C   UNL A   1      41.424  31.146  29.967  1.00  0.00     0.029 A 
ATOM     58  N   UNL A   1      42.929  29.904  28.902  1.00  0.00    -0.354 N 
ATOM     59  N   UNL A   1      45.583  29.342  27.716  1.00  0.00    -0.248 NA
ATOM     60  C   UNL A   1      47.750  30.032  27.179  1.00  0.00     0.031 C 
ATOM     61  C   UNL A   1      42.568  31.922  29.747  1.00  0.00     0.029 A 
ATOM     62  C   UNL A   1      43.525  31.136  29.126  1.00  0.00     0.049 A 
ATOM     63  H   UNL A   1      43.364  29.140  28.458  1.00  0.00     0.167 HD
ATOM     64  C   UNL A   1      45.764  30.653  28.152  1.00  0.00     0.074 A 
ATOM     65  C   UNL A   1      47.130  31.010  27.821  1.00  0.00     0.031 C 
ATOM     66  C   UNL A   1      44.886  31.480  28.780  1.00  0.00     0.034 A 
BRANCH  53  67
ATOM     67  C   UNL A   1      39.292  28.937  29.800  1.00  0.00     0.023 A 
ATOM     68  C   UNL A   1      38.317  29.625  29.053  1.00  0.00     0.031 A 
ATOM     69  C   UNL A   1      38.928  28.473  31.076  1.00  0.00     0.131 A 
ATOM     70  C   UNL A   1      37.080  29.941  29.636  1.00  0.00     0.055 A 
ATOM     71  C   UNL A   1      37.653  28.694  31.605  1.00  0.00     0.041 A 
ATOM     72  F   UNL A   1      39.815  27.829  31.851  1.00  0.00    -0.206 F 
ATOM     73  C   UNL A   1      36.730  29.456  30.895  1.00  0.00     0.022 A 
BRANCH  70  74
ATOM     74  S   UNL A   1      36.037  31.182  28.817  1.00  0.00     0.124 S 
ATOM     75  O   UNL A   1      35.329  30.367  27.831  1.00  0.00    -0.237 OA
ATOM     76  O   UNL A   1      35.232  31.695  29.918  1.00  0.00    -0.237 OA
ATOM     77  O   UNL A   1      37.003  32.124  28.254  1.00  0.00    -0.744 OA
ENDBRANCH  70  74
ENDBRANCH  53  67
BRANCH  54  78
ATOM     78  C   UNL A   1      48.497  27.428  26.059  1.00  0.00     0.023 A 
ATOM     79  C   UNL A   1      48.781  27.666  24.704  1.00  0.00     0.031 A 
ATOM     80  C   UNL A   1      49.540  26.969  26.882  1.00  0.00     0.131 A 
ATOM     81  C   UNL A   1      50.066  27.410  24.203  1.00  0.00     0.055 A 
ATOM     82  C   UNL A   1      50.830  26.761  26.389  1.00  0.00     0.041 A 
ATOM     83  F   UNL A   1      49.324  26.736  28.186  1.00  0.00    -0.206 F 
ATOM     84  C   UNL A   1      51.096  26.973  25.039  1.00  0.00     0.022 A 
BRANCH  81  85
ATOM     85  S   UNL A   1      50.358  27.601  22.423  1.00  0.00     0.124 S 
ATOM     86  O   UNL A   1      50.695  29.017  22.328  1.00  0.00    -0.237 OA
ATOM     87  O   UNL A   1      51.451  26.663  22.193  1.00  0.00    -0.237 OA
ATOM     88  O   UNL A   1      49.079  27.221  21.827  1.00  0.00    -0.744 OA
ENDBRANCH  81  85
ENDBRANCH  54  78
BRANCH  66  89
ATOM     89  C   UNL A   1      45.407  32.833  29.207  1.00  0.00     0.023 A 
ATOM     90  C   UNL A   1      45.277  33.974  28.395  1.00  0.00     0.031 A 
ATOM     91  C   UNL A   1      46.064  32.973  30.443  1.00  0.00     0.131 A 
ATOM     92  C   UNL A   1      45.857  35.187  28.798  1.00  0.00     0.055 A 
ATOM     93  C   UNL A   1      46.573  34.200  30.871  1.00  0.00     0.041 A 
ATOM     94  F   UNL A   1      46.221  31.918  31.258  1.00  0.00    -0.206 F 
ATOM     95  C   UNL A   1      46.486  35.312  30.040  1.00  0.00     0.022 A 
BRANCH  92  96
ATOM     96  S   UNL A   1      45.885  36.570  27.625  1.00  0.00     0.124 S 
ATOM     97  O   UNL A   1      44.797  36.220  26.718  1.00  0.00    -0.237 OA
ATOM     98  O   UNL A   1      45.646  37.719  28.493  1.00  0.00    -0.237 OA
ATOM     99  O   UNL A   1      47.225  36.501  27.045  1.00  0.00    -0.744 OA
ENDBRANCH  92  96
ENDBRANCH  66  89
ENDBRANCH  40  41
ENDBRANCH  32  35
ENDBRANCH  30  31
ENDBRANCH  29  30
ENDBRANCH   1  29
TORSDOF 20
ENDMDL
