MODEL 1
REMARK VINA RESULT:     -13.7      0.000      0.000
REMARK SMILES Cc1cc(C(=O)NCCCCNC(=O)c2ccc(-c3c4nc(c(-c5cc(S(=O)(=O)[O-])ccc5F)c5ccc([nH]5)c(-c5cc(S(=O)(=O)[O-])ccc5F)c5nc(c(-c6cc(S(=O)(=O)[O-])ccc6F)c6ccc3[nH]6)C=C5)C=C4)cc2)ccc1NC(=O)N1C[C@@H](C)[C@H](C)C1
REMARK SMILES IDX 10 1 9 2 8 3 7 4 5 5 6 6 4 8 1 9 2 10 3 11 80 12 79 13 78 14
REMARK SMILES IDX 81 15 82 16 83 18 84 19 85 20 90 21 86 22 88 23 87 24 89 25
REMARK SMILES IDX 11 26 12 27 13 28 14 30 15 31 16 32 77 33 17 34 76 35 18 36
REMARK SMILES IDX 19 37 20 38 70 39 21 40 75 41 69 42 71 43 22 44 74 45 68 46
REMARK SMILES IDX 67 47 23 49 55 50 35 51 54 52 36 53 39 54 53 55 72 56 37 57
REMARK SMILES IDX 38 58 52 60 73 61 40 62 24 63 25 64 33 65 26 66 32 67 34 68
REMARK SMILES IDX 31 69 27 70 28 71 29 72 30 73 56 74 57 75 65 76 58 77 64 78
REMARK SMILES IDX 66 79 63 80 59 81 60 82 61 83 62 84 41 85 42 86 50 87 43 88
REMARK SMILES IDX 49 89 51 90 48 91 44 92 45 93 46 94 47 95
REMARK H PARENT 7 7 81 17 12 29 71 48 39 59
REMARK Flexibility Score: inf
ROOT
ATOM      1  C   UNL A   1      38.503  21.506  25.423  1.00  0.00     0.023 C 
ENDROOT
BRANCH   1   2
ATOM      2  C   UNL A   1      37.168  21.559  24.684  1.00  0.00     0.023 C 
BRANCH   2   3
ATOM      3  C   UNL A   1      35.920  21.496  25.585  1.00  0.00     0.116 C 
BRANCH   3   4
ATOM      4  N   UNL A   1      35.067  20.332  25.323  1.00  0.00    -0.352 N 
ATOM      5  C   UNL A   1      33.801  20.225  24.790  1.00  0.00     0.251 C 
ATOM      6  O   UNL A   1      33.361  19.112  24.501  1.00  0.00    -0.269 OA
ATOM      7  H   UNL A   1      35.472  19.470  25.574  1.00  0.00     0.163 HD
BRANCH   5   8
ATOM      8  C   UNL A   1      32.959  21.419  24.526  1.00  0.00     0.040 A 
ATOM      9  C   UNL A   1      30.579  23.656  26.465  1.00  0.00     0.046 C 
ATOM     10  C   UNL A   1      31.283  23.042  25.288  1.00  0.00    -0.027 A 
ATOM     11  C   UNL A   1      32.166  21.965  25.543  1.00  0.00     0.019 A 
ATOM     12  C   UNL A   1      31.157  23.509  23.967  1.00  0.00     0.045 A 
ATOM     13  C   UNL A   1      32.085  23.079  23.018  1.00  0.00     0.027 A 
ATOM     14  C   UNL A   1      32.988  22.066  23.303  1.00  0.00     0.016 A 
BRANCH  12  15
ATOM     15  N   UNL A   1      30.156  24.428  23.591  1.00  0.00    -0.308 N 
ATOM     16  C   UNL A   1      30.036  25.742  23.963  1.00  0.00     0.321 C 
ATOM     17  H   UNL A   1      29.458  24.084  22.987  1.00  0.00     0.171 HD
ATOM     18  O   UNL A   1      28.907  26.209  24.130  1.00  0.00    -0.248 OA
ATOM     19  N   UNL A   1      31.175  26.490  24.121  1.00  0.00    -0.324 N 
ATOM     20  C   UNL A   1      31.225  27.625  25.025  1.00  0.00     0.125 C 
ATOM     21  C   UNL A   1      32.330  26.487  23.222  1.00  0.00     0.125 C 
ATOM     22  C   UNL A   1      32.341  28.520  24.492  1.00  0.00     0.010 C 
ATOM     23  C   UNL A   1      33.293  27.525  23.806  1.00  0.00     0.010 C 
ATOM     24  C   UNL A   1      33.009  29.339  25.585  1.00  0.00     0.010 C 
ATOM     25  C   UNL A   1      34.189  28.176  22.758  1.00  0.00     0.010 C 
ENDBRANCH  12  15
ENDBRANCH   5   8
ENDBRANCH   3   4
ENDBRANCH   2   3
ENDBRANCH   1   2
BRANCH   1  26
ATOM     26  C   UNL A   1      38.855  22.815  26.111  1.00  0.00     0.116 C 
BRANCH  26  27
ATOM     27  N   UNL A   1      40.232  22.899  26.586  1.00  0.00    -0.352 N 
ATOM     28  C   UNL A   1      40.947  24.027  26.967  1.00  0.00     0.251 C 
ATOM     29  H   UNL A   1      40.717  22.045  26.643  1.00  0.00     0.163 HD
ATOM     30  O   UNL A   1      42.132  23.975  27.244  1.00  0.00    -0.269 OA
BRANCH  28  31
ATOM     31  C   UNL A   1      40.197  25.294  27.152  1.00  0.00     0.039 A 
ATOM     32  C   UNL A   1      40.608  26.395  26.392  1.00  0.00     0.014 A 
ATOM     33  C   UNL A   1      39.347  25.458  28.239  1.00  0.00     0.014 A 
ATOM     34  C   UNL A   1      40.379  27.677  26.882  1.00  0.00     0.010 A 
ATOM     35  C   UNL A   1      39.226  26.719  28.788  1.00  0.00     0.010 A 
ATOM     36  C   UNL A   1      39.806  27.819  28.145  1.00  0.00    -0.014 A 
BRANCH  36  37
ATOM     37  C   UNL A   1      39.937  29.036  28.940  1.00  0.00     0.031 A 
ATOM     38  C   UNL A   1      38.902  30.089  28.901  1.00  0.00     0.074 A 
ATOM     39  C   UNL A   1      40.981  29.160  29.790  1.00  0.00     0.049 A 
ATOM     40  N   UNL A   1      39.100  31.322  29.228  1.00  0.00    -0.248 NA
ATOM     41  C   UNL A   1      37.549  29.834  28.429  1.00  0.00     0.031 C 
ATOM     42  C   UNL A   1      41.143  30.136  30.865  1.00  0.00     0.029 A 
ATOM     43  N   UNL A   1      42.230  28.559  29.679  1.00  0.00    -0.354 N 
ATOM     44  C   UNL A   1      37.870  31.933  29.320  1.00  0.00     0.074 A 
ATOM     45  C   UNL A   1      36.953  30.993  28.720  1.00  0.00     0.031 C 
ATOM     46  C   UNL A   1      42.449  30.255  31.149  1.00  0.00     0.029 A 
ATOM     47  C   UNL A   1      43.180  29.469  30.171  1.00  0.00     0.049 A 
ATOM     48  H   UNL A   1      42.414  27.660  29.323  1.00  0.00     0.167 HD
ATOM     49  C   UNL A   1      37.753  33.091  30.033  1.00  0.00     0.034 A 
ATOM     50  C   UNL A   1      44.172  29.945  29.363  1.00  0.00     0.034 A 
ATOM     51  C   UNL A   1      39.064  33.585  30.470  1.00  0.00     0.049 A 
ATOM     52  C   UNL A   1      44.124  31.444  29.165  1.00  0.00     0.074 A 
ATOM     53  C   UNL A   1      39.723  33.564  31.689  1.00  0.00     0.029 A 
ATOM     54  N   UNL A   1      40.011  33.963  29.523  1.00  0.00    -0.354 N 
ATOM     55  N   UNL A   1      43.096  32.189  29.466  1.00  0.00    -0.248 NA
ATOM     56  C   UNL A   1      45.224  32.221  28.600  1.00  0.00     0.031 C 
ATOM     57  C   UNL A   1      41.091  33.862  31.456  1.00  0.00     0.029 A 
ATOM     58  C   UNL A   1      41.259  34.099  30.102  1.00  0.00     0.049 A 
ATOM     59  H   UNL A   1      39.818  34.114  28.569  1.00  0.00     0.167 HD
ATOM     60  C   UNL A   1      43.354  33.495  29.133  1.00  0.00     0.074 A 
ATOM     61  C   UNL A   1      44.714  33.465  28.621  1.00  0.00     0.031 C 
ATOM     62  C   UNL A   1      42.417  34.479  29.299  1.00  0.00     0.034 A 
BRANCH  49  63
ATOM     63  C   UNL A   1      36.442  33.596  30.619  1.00  0.00     0.023 A 
ATOM     64  C   UNL A   1      35.505  34.222  29.766  1.00  0.00     0.031 A 
ATOM     65  C   UNL A   1      36.078  33.572  31.978  1.00  0.00     0.131 A 
ATOM     66  C   UNL A   1      34.368  34.883  30.272  1.00  0.00     0.055 A 
ATOM     67  C   UNL A   1      34.979  34.276  32.491  1.00  0.00     0.041 A 
ATOM     68  F   UNL A   1      36.722  32.814  32.872  1.00  0.00    -0.206 F 
ATOM     69  C   UNL A   1      34.124  34.953  31.638  1.00  0.00     0.022 A 
BRANCH  66  70
ATOM     70  S   UNL A   1      33.205  35.655  29.114  1.00  0.00     0.124 S 
ATOM     71  O   UNL A   1      34.087  36.464  28.280  1.00  0.00    -0.237 OA
ATOM     72  O   UNL A   1      32.592  34.495  28.475  1.00  0.00    -0.237 OA
ATOM     73  O   UNL A   1      32.312  36.416  29.989  1.00  0.00    -0.744 OA
ENDBRANCH  66  70
ENDBRANCH  49  63
BRANCH  50  74
ATOM     74  C   UNL A   1      44.642  28.941  28.366  1.00  0.00     0.023 A 
ATOM     75  C   UNL A   1      45.438  27.886  28.860  1.00  0.00     0.031 A 
ATOM     76  C   UNL A   1      44.023  28.766  27.122  1.00  0.00     0.131 A 
ATOM     77  C   UNL A   1      45.451  26.643  28.215  1.00  0.00     0.055 A 
ATOM     78  C   UNL A   1      44.105  27.545  26.437  1.00  0.00     0.041 A 
ATOM     79  F   UNL A   1      43.224  29.717  26.615  1.00  0.00    -0.206 F 
ATOM     80  C   UNL A   1      44.783  26.462  27.004  1.00  0.00     0.022 A 
BRANCH  77  81
ATOM     81  S   UNL A   1      46.113  25.218  29.128  1.00  0.00     0.124 S 
ATOM     82  O   UNL A   1      47.515  25.228  28.728  1.00  0.00    -0.237 OA
ATOM     83  O   UNL A   1      45.847  25.580  30.521  1.00  0.00    -0.237 OA
ATOM     84  O   UNL A   1      45.324  24.093  28.638  1.00  0.00    -0.744 OA
ENDBRANCH  77  81
ENDBRANCH  50  74
BRANCH  62  85
ATOM     85  C   UNL A   1      42.527  35.908  28.801  1.00  0.00     0.023 A 
ATOM     86  C   UNL A   1      43.101  36.949  29.543  1.00  0.00     0.031 A 
ATOM     87  C   UNL A   1      42.110  36.253  27.490  1.00  0.00     0.131 A 
ATOM     88  C   UNL A   1      43.169  38.260  29.033  1.00  0.00     0.055 A 
ATOM     89  C   UNL A   1      42.252  37.537  26.955  1.00  0.00     0.041 A 
ATOM     90  F   UNL A   1      41.551  35.355  26.665  1.00  0.00    -0.206 F 
ATOM     91  C   UNL A   1      42.770  38.557  27.734  1.00  0.00     0.022 A 
BRANCH  88  92
ATOM     92  S   UNL A   1      43.734  39.584  30.136  1.00  0.00     0.124 S 
ATOM     93  O   UNL A   1      44.996  39.974  29.513  1.00  0.00    -0.237 OA
ATOM     94  O   UNL A   1      42.652  40.558  30.037  1.00  0.00    -0.237 OA
ATOM     95  O   UNL A   1      43.860  38.923  31.433  1.00  0.00    -0.744 OA
ENDBRANCH  88  92
ENDBRANCH  62  85
ENDBRANCH  36  37
ENDBRANCH  28  31
ENDBRANCH  26  27
ENDBRANCH   1  26
TORSDOF 15
ENDMDL
MODEL 2
REMARK VINA RESULT:     -13.3      4.202     10.645
REMARK SMILES Cc1cc(C(=O)NCCCCNC(=O)c2ccc(-c3c4nc(c(-c5cc(S(=O)(=O)[O-])ccc5F)c5ccc([nH]5)c(-c5cc(S(=O)(=O)[O-])ccc5F)c5nc(c(-c6cc(S(=O)(=O)[O-])ccc6F)c6ccc3[nH]6)C=C5)C=C4)cc2)ccc1NC(=O)N1C[C@@H](C)[C@H](C)C1
REMARK SMILES IDX 10 1 9 2 8 3 7 4 5 5 6 6 4 8 1 9 2 10 3 11 80 12 79 13 78 14
REMARK SMILES IDX 81 15 82 16 83 18 84 19 85 20 90 21 86 22 88 23 87 24 89 25
REMARK SMILES IDX 11 26 12 27 13 28 14 30 15 31 16 32 77 33 17 34 76 35 18 36
REMARK SMILES IDX 19 37 20 38 70 39 21 40 75 41 69 42 71 43 22 44 74 45 68 46
REMARK SMILES IDX 67 47 23 49 55 50 35 51 54 52 36 53 39 54 53 55 72 56 37 57
REMARK SMILES IDX 38 58 52 60 73 61 40 62 24 63 25 64 33 65 26 66 32 67 34 68
REMARK SMILES IDX 31 69 27 70 28 71 29 72 30 73 56 74 57 75 65 76 58 77 64 78
REMARK SMILES IDX 66 79 63 80 59 81 60 82 61 83 62 84 41 85 42 86 50 87 43 88
REMARK SMILES IDX 49 89 51 90 48 91 44 92 45 93 46 94 47 95
REMARK H PARENT 7 7 81 17 12 29 71 48 39 59
REMARK Flexibility Score: inf
ROOT
ATOM      1  C   UNL A   1      33.248  29.443  27.628  1.00  0.00     0.023 C 
ENDROOT
BRANCH   1   2
ATOM      2  C   UNL A   1      32.097  29.264  26.642  1.00  0.00     0.023 C 
BRANCH   2   3
ATOM      3  C   UNL A   1      32.438  29.589  25.175  1.00  0.00     0.116 C 
BRANCH   3   4
ATOM      4  N   UNL A   1      31.259  29.867  24.347  1.00  0.00    -0.352 N 
ATOM      5  C   UNL A   1      30.382  29.030  23.692  1.00  0.00     0.251 C 
ATOM      6  O   UNL A   1      29.354  29.499  23.203  1.00  0.00    -0.269 OA
ATOM      7  H   UNL A   1      31.058  30.825  24.239  1.00  0.00     0.163 HD
BRANCH   5   8
ATOM      8  C   UNL A   1      30.625  27.570  23.583  1.00  0.00     0.040 A 
ATOM      9  C   UNL A   1      32.723  25.230  21.449  1.00  0.00     0.046 C 
ATOM     10  C   UNL A   1      31.666  25.675  22.421  1.00  0.00    -0.027 A 
ATOM     11  C   UNL A   1      31.495  27.068  22.606  1.00  0.00     0.019 A 
ATOM     12  C   UNL A   1      30.885  24.794  23.190  1.00  0.00     0.045 A 
ATOM     13  C   UNL A   1      30.174  25.309  24.275  1.00  0.00     0.027 A 
ATOM     14  C   UNL A   1      30.067  26.676  24.480  1.00  0.00     0.016 A 
BRANCH  12  15
ATOM     15  N   UNL A   1      30.840  23.409  22.926  1.00  0.00    -0.308 N 
ATOM     16  C   UNL A   1      31.842  22.488  23.086  1.00  0.00     0.321 C 
ATOM     17  H   UNL A   1      29.984  23.062  22.585  1.00  0.00     0.171 HD
ATOM     18  O   UNL A   1      31.926  21.558  22.281  1.00  0.00    -0.248 OA
ATOM     19  N   UNL A   1      32.705  22.628  24.144  1.00  0.00    -0.324 N 
ATOM     20  C   UNL A   1      34.065  22.122  24.094  1.00  0.00     0.125 C 
ATOM     21  C   UNL A   1      32.326  22.972  25.515  1.00  0.00     0.125 C 
ATOM     22  C   UNL A   1      34.468  21.899  25.549  1.00  0.00     0.010 C 
ATOM     23  C   UNL A   1      33.634  22.943  26.310  1.00  0.00     0.010 C 
ATOM     24  C   UNL A   1      35.966  22.044  25.772  1.00  0.00     0.010 C 
ATOM     25  C   UNL A   1      33.439  22.600  27.783  1.00  0.00     0.010 C 
ENDBRANCH  12  15
ENDBRANCH   5   8
ENDBRANCH   3   4
ENDBRANCH   2   3
ENDBRANCH   1   2
BRANCH   1  26
ATOM     26  C   UNL A   1      34.447  30.154  27.022  1.00  0.00     0.116 C 
BRANCH  26  27
ATOM     27  N   UNL A   1      35.069  31.144  27.894  1.00  0.00    -0.352 N 
ATOM     28  C   UNL A   1      36.218  31.018  28.664  1.00  0.00     0.251 C 
ATOM     29  H   UNL A   1      34.614  32.016  27.944  1.00  0.00     0.163 HD
ATOM     30  O   UNL A   1      36.575  31.888  29.436  1.00  0.00    -0.269 OA
BRANCH  28  31
ATOM     31  C   UNL A   1      37.082  29.834  28.430  1.00  0.00     0.039 A 
ATOM     32  C   UNL A   1      37.215  28.924  29.484  1.00  0.00     0.014 A 
ATOM     33  C   UNL A   1      37.950  29.798  27.345  1.00  0.00     0.014 A 
ATOM     34  C   UNL A   1      38.373  28.157  29.573  1.00  0.00     0.010 A 
ATOM     35  C   UNL A   1      39.151  29.134  27.493  1.00  0.00     0.010 A 
ATOM     36  C   UNL A   1      39.390  28.370  28.643  1.00  0.00    -0.014 A 
BRANCH  36  37
ATOM     37  C   UNL A   1      40.778  27.991  28.889  1.00  0.00     0.031 A 
ATOM     38  C   UNL A   1      41.343  26.752  28.318  1.00  0.00     0.074 A 
ATOM     39  C   UNL A   1      41.580  28.832  29.579  1.00  0.00     0.049 A 
ATOM     40  N   UNL A   1      42.381  26.140  28.781  1.00  0.00    -0.248 NA
ATOM     41  C   UNL A   1      40.734  26.067  27.187  1.00  0.00     0.031 C 
ATOM     42  C   UNL A   1      43.036  28.789  29.684  1.00  0.00     0.029 A 
ATOM     43  N   UNL A   1      41.194  29.767  30.534  1.00  0.00    -0.354 N 
ATOM     44  C   UNL A   1      42.760  25.198  27.853  1.00  0.00     0.074 A 
ATOM     45  C   UNL A   1      41.649  25.129  26.933  1.00  0.00     0.031 C 
ATOM     46  C   UNL A   1      43.411  29.449  30.791  1.00  0.00     0.029 A 
ATOM     47  C   UNL A   1      42.203  29.813  31.509  1.00  0.00     0.049 A 
ATOM     48  H   UNL A   1      40.365  30.298  30.527  1.00  0.00     0.167 HD
ATOM     49  C   UNL A   1      44.033  24.703  27.885  1.00  0.00     0.034 A 
ATOM     50  C   UNL A   1      41.933  29.490  32.808  1.00  0.00     0.034 A 
ATOM     51  C   UNL A   1      44.761  25.181  29.066  1.00  0.00     0.049 A 
ATOM     52  C   UNL A   1      42.715  28.296  33.310  1.00  0.00     0.074 A 
ATOM     53  C   UNL A   1      45.736  26.149  29.248  1.00  0.00     0.029 A 
ATOM     54  N   UNL A   1      44.319  24.832  30.339  1.00  0.00    -0.354 N 
ATOM     55  N   UNL A   1      43.353  27.462  32.535  1.00  0.00    -0.248 NA
ATOM     56  C   UNL A   1      42.828  27.938  34.720  1.00  0.00     0.031 C 
ATOM     57  C   UNL A   1      45.824  26.432  30.636  1.00  0.00     0.029 A 
ATOM     58  C   UNL A   1      44.929  25.612  31.304  1.00  0.00     0.049 A 
ATOM     59  H   UNL A   1      43.659  24.125  30.527  1.00  0.00     0.167 HD
ATOM     60  C   UNL A   1      43.926  26.470  33.290  1.00  0.00     0.074 A 
ATOM     61  C   UNL A   1      43.592  26.833  34.657  1.00  0.00     0.031 C 
ATOM     62  C   UNL A   1      44.614  25.435  32.717  1.00  0.00     0.034 A 
BRANCH  49  63
ATOM     63  C   UNL A   1      44.724  24.065  26.690  1.00  0.00     0.023 A 
ATOM     64  C   UNL A   1      44.425  22.724  26.359  1.00  0.00     0.031 A 
ATOM     65  C   UNL A   1      45.718  24.660  25.892  1.00  0.00     0.131 A 
ATOM     66  C   UNL A   1      45.168  22.015  25.394  1.00  0.00     0.055 A 
ATOM     67  C   UNL A   1      46.497  23.944  24.972  1.00  0.00     0.041 A 
ATOM     68  F   UNL A   1      45.945  25.979  25.907  1.00  0.00    -0.206 F 
ATOM     69  C   UNL A   1      46.235  22.606  24.730  1.00  0.00     0.022 A 
BRANCH  66  70
ATOM     70  S   UNL A   1      44.717  20.299  25.016  1.00  0.00     0.124 S 
ATOM     71  O   UNL A   1      45.856  19.555  25.542  1.00  0.00    -0.237 OA
ATOM     72  O   UNL A   1      43.456  20.147  25.734  1.00  0.00    -0.237 OA
ATOM     73  O   UNL A   1      44.598  20.294  23.557  1.00  0.00    -0.744 OA
ENDBRANCH  66  70
ENDBRANCH  49  63
BRANCH  50  74
ATOM     74  C   UNL A   1      40.559  29.882  33.231  1.00  0.00     0.023 A 
ATOM     75  C   UNL A   1      40.328  31.260  33.427  1.00  0.00     0.031 A 
ATOM     76  C   UNL A   1      39.445  29.052  33.042  1.00  0.00     0.131 A 
ATOM     77  C   UNL A   1      39.046  31.798  33.250  1.00  0.00     0.055 A 
ATOM     78  C   UNL A   1      38.152  29.586  32.948  1.00  0.00     0.041 A 
ATOM     79  F   UNL A   1      39.601  27.740  32.815  1.00  0.00    -0.206 F 
ATOM     80  C   UNL A   1      37.953  30.968  33.005  1.00  0.00     0.022 A 
BRANCH  77  81
ATOM     81  S   UNL A   1      38.899  33.600  33.067  1.00  0.00     0.124 S 
ATOM     82  O   UNL A   1      40.107  34.071  33.735  1.00  0.00    -0.237 OA
ATOM     83  O   UNL A   1      38.868  33.773  31.614  1.00  0.00    -0.237 OA
ATOM     84  O   UNL A   1      37.642  33.918  33.737  1.00  0.00    -0.744 OA
ENDBRANCH  77  81
ENDBRANCH  50  74
BRANCH  62  85
ATOM     85  C   UNL A   1      45.127  24.200  33.434  1.00  0.00     0.023 A 
ATOM     86  C   UNL A   1      46.382  24.126  34.054  1.00  0.00     0.031 A 
ATOM     87  C   UNL A   1      44.306  23.053  33.583  1.00  0.00     0.131 A 
ATOM     88  C   UNL A   1      46.811  22.949  34.699  1.00  0.00     0.055 A 
ATOM     89  C   UNL A   1      44.701  21.916  34.293  1.00  0.00     0.041 A 
ATOM     90  F   UNL A   1      43.077  22.988  33.049  1.00  0.00    -0.206 F 
ATOM     91  C   UNL A   1      45.970  21.851  34.844  1.00  0.00     0.022 A 
BRANCH  88  92
ATOM     92  S   UNL A   1      48.523  22.867  35.290  1.00  0.00     0.124 S 
ATOM     93  O   UNL A   1      48.450  21.786  36.268  1.00  0.00    -0.237 OA
ATOM     94  O   UNL A   1      49.262  22.566  34.068  1.00  0.00    -0.237 OA
ATOM     95  O   UNL A   1      48.759  24.196  35.850  1.00  0.00    -0.744 OA
ENDBRANCH  88  92
ENDBRANCH  62  85
ENDBRANCH  36  37
ENDBRANCH  28  31
ENDBRANCH  26  27
ENDBRANCH   1  26
TORSDOF 15
ENDMDL
MODEL 3
REMARK VINA RESULT:     -13.3      1.895      2.195
REMARK SMILES Cc1cc(C(=O)NCCCCNC(=O)c2ccc(-c3c4nc(c(-c5cc(S(=O)(=O)[O-])ccc5F)c5ccc([nH]5)c(-c5cc(S(=O)(=O)[O-])ccc5F)c5nc(c(-c6cc(S(=O)(=O)[O-])ccc6F)c6ccc3[nH]6)C=C5)C=C4)cc2)ccc1NC(=O)N1C[C@@H](C)[C@H](C)C1
REMARK SMILES IDX 10 1 9 2 8 3 7 4 5 5 6 6 4 8 1 9 2 10 3 11 80 12 79 13 78 14
REMARK SMILES IDX 81 15 82 16 83 18 84 19 85 20 90 21 86 22 88 23 87 24 89 25
REMARK SMILES IDX 11 26 12 27 13 28 14 30 15 31 16 32 77 33 17 34 76 35 18 36
REMARK SMILES IDX 19 37 20 38 70 39 21 40 75 41 69 42 71 43 22 44 74 45 68 46
REMARK SMILES IDX 67 47 23 49 55 50 35 51 54 52 36 53 39 54 53 55 72 56 37 57
REMARK SMILES IDX 38 58 52 60 73 61 40 62 24 63 25 64 33 65 26 66 32 67 34 68
REMARK SMILES IDX 31 69 27 70 28 71 29 72 30 73 56 74 57 75 65 76 58 77 64 78
REMARK SMILES IDX 66 79 63 80 59 81 60 82 61 83 62 84 41 85 42 86 50 87 43 88
REMARK SMILES IDX 49 89 51 90 48 91 44 92 45 93 46 94 47 95
REMARK H PARENT 7 7 81 17 12 29 71 48 39 59
REMARK Flexibility Score: inf
ROOT
ATOM      1  C   UNL A   1      38.166  21.007  25.165  1.00  0.00     0.023 C 
ENDROOT
BRANCH   1   2
ATOM      2  C   UNL A   1      36.784  21.184  24.541  1.00  0.00     0.023 C 
BRANCH   2   3
ATOM      3  C   UNL A   1      35.642  21.438  25.544  1.00  0.00     0.116 C 
BRANCH   3   4
ATOM      4  N   UNL A   1      34.665  20.346  25.608  1.00  0.00    -0.352 N 
ATOM      5  C   UNL A   1      33.340  20.279  25.236  1.00  0.00     0.251 C 
ATOM      6  O   UNL A   1      32.773  19.187  25.223  1.00  0.00    -0.269 OA
ATOM      7  H   UNL A   1      35.020  19.509  25.986  1.00  0.00     0.163 HD
BRANCH   5   8
ATOM      8  C   UNL A   1      32.581  21.486  24.822  1.00  0.00     0.040 A 
ATOM      9  C   UNL A   1      30.374  24.109  26.459  1.00  0.00     0.046 C 
ATOM     10  C   UNL A   1      31.026  23.304  25.370  1.00  0.00    -0.027 A 
ATOM     11  C   UNL A   1      31.835  22.210  25.760  1.00  0.00     0.019 A 
ATOM     12  C   UNL A   1      30.924  23.609  24.000  1.00  0.00     0.045 A 
ATOM     13  C   UNL A   1      31.814  22.999  23.115  1.00  0.00     0.027 A 
ATOM     14  C   UNL A   1      32.646  21.970  23.527  1.00  0.00     0.016 A 
BRANCH  12  15
ATOM     15  N   UNL A   1      29.986  24.541  23.509  1.00  0.00    -0.308 N 
ATOM     16  C   UNL A   1      29.895  25.877  23.800  1.00  0.00     0.321 C 
ATOM     17  H   UNL A   1      29.315  24.189  22.880  1.00  0.00     0.171 HD
ATOM     18  O   UNL A   1      28.777  26.393  23.867  1.00  0.00    -0.248 OA
ATOM     19  N   UNL A   1      31.050  26.591  23.993  1.00  0.00    -0.324 N 
ATOM     20  C   UNL A   1      31.087  27.773  24.835  1.00  0.00     0.125 C 
ATOM     21  C   UNL A   1      32.259  26.496  23.174  1.00  0.00     0.125 C 
ATOM     22  C   UNL A   1      32.269  28.596  24.329  1.00  0.00     0.010 C 
ATOM     23  C   UNL A   1      33.223  27.529  23.763  1.00  0.00     0.010 C 
ATOM     24  C   UNL A   1      32.898  29.451  25.418  1.00  0.00     0.010 C 
ATOM     25  C   UNL A   1      34.210  28.087  22.743  1.00  0.00     0.010 C 
ENDBRANCH  12  15
ENDBRANCH   5   8
ENDBRANCH   3   4
ENDBRANCH   2   3
ENDBRANCH   1   2
BRANCH   1  26
ATOM     26  C   UNL A   1      38.618  22.221  25.961  1.00  0.00     0.116 C 
BRANCH  26  27
ATOM     27  N   UNL A   1      40.048  22.259  26.248  1.00  0.00    -0.352 N 
ATOM     28  C   UNL A   1      40.851  23.364  26.498  1.00  0.00     0.251 C 
ATOM     29  H   UNL A   1      40.504  21.386  26.266  1.00  0.00     0.163 HD
ATOM     30  O   UNL A   1      42.059  23.269  26.618  1.00  0.00    -0.269 OA
BRANCH  28  31
ATOM     31  C   UNL A   1      40.181  24.666  26.741  1.00  0.00     0.039 A 
ATOM     32  C   UNL A   1      40.783  25.804  26.193  1.00  0.00     0.014 A 
ATOM     33  C   UNL A   1      39.196  24.781  27.714  1.00  0.00     0.014 A 
ATOM     34  C   UNL A   1      40.584  27.037  26.809  1.00  0.00     0.010 A 
ATOM     35  C   UNL A   1      39.094  25.974  28.401  1.00  0.00     0.010 A 
ATOM     36  C   UNL A   1      39.844  27.083  27.990  1.00  0.00    -0.014 A 
BRANCH  36  37
ATOM     37  C   UNL A   1      39.950  28.181  28.947  1.00  0.00     0.031 A 
ATOM     38  C   UNL A   1      39.029  29.333  28.892  1.00  0.00     0.074 A 
ATOM     39  C   UNL A   1      40.852  28.097  29.950  1.00  0.00     0.049 A 
ATOM     40  N   UNL A   1      39.277  30.493  29.400  1.00  0.00    -0.248 NA
ATOM     41  C   UNL A   1      37.751  29.276  28.196  1.00  0.00     0.031 C 
ATOM     42  C   UNL A   1      40.924  28.921  31.154  1.00  0.00     0.029 A 
ATOM     43  N   UNL A   1      42.047  27.385  29.948  1.00  0.00    -0.354 N 
ATOM     44  C   UNL A   1      38.104  31.214  29.389  1.00  0.00     0.074 A 
ATOM     45  C   UNL A   1      37.218  30.450  28.543  1.00  0.00     0.031 C 
ATOM     46  C   UNL A   1      42.174  28.869  31.641  1.00  0.00     0.029 A 
ATOM     47  C   UNL A   1      42.981  28.129  30.687  1.00  0.00     0.049 A 
ATOM     48  H   UNL A   1      42.209  26.518  29.509  1.00  0.00     0.167 HD
ATOM     49  C   UNL A   1      37.974  32.289  30.220  1.00  0.00     0.034 A 
ATOM     50  C   UNL A   1      44.126  28.589  30.103  1.00  0.00     0.034 A 
ATOM     51  C   UNL A   1      39.236  32.590  30.906  1.00  0.00     0.049 A 
ATOM     52  C   UNL A   1      44.239  30.097  30.096  1.00  0.00     0.074 A 
ATOM     53  C   UNL A   1      39.689  32.361  32.196  1.00  0.00     0.029 A 
ATOM     54  N   UNL A   1      40.351  32.974  30.165  1.00  0.00    -0.354 N 
ATOM     55  N   UNL A   1      43.243  30.906  30.336  1.00  0.00    -0.248 NA
ATOM     56  C   UNL A   1      45.476  30.814  29.805  1.00  0.00     0.031 C 
ATOM     57  C   UNL A   1      41.097  32.539  32.207  1.00  0.00     0.029 A 
ATOM     58  C   UNL A   1      41.498  32.911  30.935  1.00  0.00     0.049 A 
ATOM     59  H   UNL A   1      40.326  33.252  29.221  1.00  0.00     0.167 HD
ATOM     60  C   UNL A   1      43.661  32.207  30.216  1.00  0.00     0.074 A 
ATOM     61  C   UNL A   1      45.077  32.094  29.911  1.00  0.00     0.031 C 
ATOM     62  C   UNL A   1      42.797  33.258  30.368  1.00  0.00     0.034 A 
BRANCH  49  63
ATOM     63  C   UNL A   1      36.635  32.857  30.666  1.00  0.00     0.023 A 
ATOM     64  C   UNL A   1      35.807  33.493  29.714  1.00  0.00     0.031 A 
ATOM     65  C   UNL A   1      36.144  32.885  31.985  1.00  0.00     0.131 A 
ATOM     66  C   UNL A   1      34.654  34.209  30.093  1.00  0.00     0.055 A 
ATOM     67  C   UNL A   1      35.030  33.643  32.374  1.00  0.00     0.041 A 
ATOM     68  F   UNL A   1      36.672  32.130  32.954  1.00  0.00    -0.206 F 
ATOM     69  C   UNL A   1      34.286  34.326  31.427  1.00  0.00     0.022 A 
BRANCH  66  70
ATOM     70  S   UNL A   1      33.635  34.989  28.811  1.00  0.00     0.124 S 
ATOM     71  O   UNL A   1      34.562  35.944  28.216  1.00  0.00    -0.237 OA
ATOM     72  O   UNL A   1      33.258  33.849  27.982  1.00  0.00    -0.237 OA
ATOM     73  O   UNL A   1      32.536  35.587  29.570  1.00  0.00    -0.744 OA
ENDBRANCH  66  70
ENDBRANCH  49  63
BRANCH  50  74
ATOM     74  C   UNL A   1      44.662  27.662  29.065  1.00  0.00     0.023 A 
ATOM     75  C   UNL A   1      44.881  28.209  27.783  1.00  0.00     0.031 A 
ATOM     76  C   UNL A   1      45.318  26.467  29.388  1.00  0.00     0.131 A 
ATOM     77  C   UNL A   1      45.863  27.673  26.940  1.00  0.00     0.055 A 
ATOM     78  C   UNL A   1      46.242  25.887  28.506  1.00  0.00     0.041 A 
ATOM     79  F   UNL A   1      45.180  25.917  30.603  1.00  0.00    -0.206 F 
ATOM     80  C   UNL A   1      46.553  26.515  27.296  1.00  0.00     0.022 A 
BRANCH  77  81
ATOM     81  S   UNL A   1      46.406  28.675  25.525  1.00  0.00     0.124 S 
ATOM     82  O   UNL A   1      45.774  29.958  25.803  1.00  0.00    -0.237 OA
ATOM     83  O   UNL A   1      47.864  28.644  25.651  1.00  0.00    -0.237 OA
ATOM     84  O   UNL A   1      45.888  27.954  24.367  1.00  0.00    -0.744 OA
ENDBRANCH  77  81
ENDBRANCH  50  74
BRANCH  62  85
ATOM     85  C   UNL A   1      43.106  34.715  30.080  1.00  0.00     0.023 A 
ATOM     86  C   UNL A   1      42.856  35.336  28.848  1.00  0.00     0.031 A 
ATOM     87  C   UNL A   1      43.607  35.565  31.099  1.00  0.00     0.131 A 
ATOM     88  C   UNL A   1      43.171  36.692  28.635  1.00  0.00     0.055 A 
ATOM     89  C   UNL A   1      43.843  36.930  30.910  1.00  0.00     0.041 A 
ATOM     90  F   UNL A   1      43.884  35.109  32.330  1.00  0.00    -0.206 F 
ATOM     91  C   UNL A   1      43.641  37.501  29.664  1.00  0.00     0.022 A 
BRANCH  88  92
ATOM     92  S   UNL A   1      43.011  37.358  26.957  1.00  0.00     0.124 S 
ATOM     93  O   UNL A   1      41.738  38.068  27.037  1.00  0.00    -0.237 OA
ATOM     94  O   UNL A   1      44.198  38.199  26.838  1.00  0.00    -0.237 OA
ATOM     95  O   UNL A   1      43.004  36.167  26.111  1.00  0.00    -0.744 OA
ENDBRANCH  88  92
ENDBRANCH  62  85
ENDBRANCH  36  37
ENDBRANCH  28  31
ENDBRANCH  26  27
ENDBRANCH   1  26
TORSDOF 15
ENDMDL
