MODEL 1
REMARK VINA RESULT:     -13.2      0.000      0.000
REMARK SMILES Cc1ccc2c(c1)OCCN2c1sc(C(=O)NCCCCNC(=O)c2ccc(-c3c4nc(c(-c5cc(S(=O)(=O)[O-])ccc5F)c5ccc([nH]5)c(-c5cc(S(=O)(=O)[O-])ccc5F)c5nc(c(-c6cc(S(=O)(=O)[O-])ccc6F)c6ccc3[nH]6)C=C5)C=C4)cc2)cc1C
REMARK SMILES IDX 20 1 19 2 18 3 17 4 15 5 16 6 14 8 12 9 13 10 89 11 88 12
REMARK SMILES IDX 90 13 11 14 1 15 2 16 3 17 7 18 4 19 6 20 5 21 8 22 9 23
REMARK SMILES IDX 10 24 21 25 22 26 23 27 24 29 25 30 26 31 87 32 27 33 86 34
REMARK SMILES IDX 28 35 29 36 30 37 80 38 31 39 85 40 79 41 81 42 32 43 84 44
REMARK SMILES IDX 78 45 77 46 33 48 65 49 45 50 64 51 46 52 49 53 63 54 82 55
REMARK SMILES IDX 47 56 48 57 62 59 83 60 50 61 34 62 35 63 43 64 36 65 42 66
REMARK SMILES IDX 44 67 41 68 37 69 38 70 39 71 40 72 66 73 67 74 75 75 68 76
REMARK SMILES IDX 74 77 76 78 73 79 69 80 70 81 71 82 72 83 51 84 52 85 60 86
REMARK SMILES IDX 53 87 59 88 61 89 58 90 54 91 55 92 56 93 57 94
REMARK H PARENT 17 7 22 28 81 47 49 58
REMARK Flexibility Score: inf
ROOT
ATOM      1  C   UNL A   1      35.890  21.186  25.500  1.00  0.00     0.023 C 
ENDROOT
BRANCH   1   2
ATOM      2  C   UNL A   1      35.136  22.105  26.467  1.00  0.00     0.023 C 
BRANCH   2   3
ATOM      3  C   UNL A   1      34.058  21.397  27.289  1.00  0.00     0.116 C 
BRANCH   3   4
ATOM      4  N   UNL A   1      33.310  20.460  26.475  1.00  0.00    -0.351 N 
ATOM      5  C   UNL A   1      32.506  20.621  25.372  1.00  0.00     0.261 C 
ATOM      6  O   UNL A   1      32.070  19.570  24.890  1.00  0.00    -0.268 OA
ATOM      7  H   UNL A   1      33.395  19.525  26.769  1.00  0.00     0.163 HD
BRANCH   5   8
ATOM      8  C   UNL A   1      32.223  21.907  24.748  1.00  0.00     0.094 A 
ATOM      9  C   UNL A   1      31.615  24.244  24.157  1.00  0.00     0.099 A 
ATOM     10  S   UNL A   1      31.137  23.084  25.327  1.00  0.00    -0.112 S 
ATOM     11  C   UNL A   1      32.386  23.654  23.167  1.00  0.00    -0.015 A 
ATOM     12  C   UNL A   1      32.730  22.310  23.524  1.00  0.00     0.031 A 
ATOM     13  C   UNL A   1      32.869  24.311  21.919  1.00  0.00     0.047 C 
BRANCH   9  14
ATOM     14  N   UNL A   1      31.209  25.545  24.207  1.00  0.00    -0.327 N 
ATOM     15  C   UNL A   1      33.923  29.907  26.822  1.00  0.00     0.044 C 
ATOM     16  C   UNL A   1      33.240  28.777  26.112  1.00  0.00    -0.047 A 
ATOM     17  C   UNL A   1      33.752  27.480  26.182  1.00  0.00     0.006 A 
ATOM     18  C   UNL A   1      32.050  28.993  25.410  1.00  0.00     0.052 A 
ATOM     19  C   UNL A   1      33.098  26.419  25.542  1.00  0.00     0.030 A 
ATOM     20  C   UNL A   1      31.399  27.930  24.772  1.00  0.00     0.143 A 
ATOM     21  C   UNL A   1      31.896  26.611  24.844  1.00  0.00     0.085 A 
ATOM     22  O   UNL A   1      30.254  28.276  24.086  1.00  0.00    -0.490 OA
ATOM     23  C   UNL A   1      29.863  27.268  23.147  1.00  0.00     0.251 C 
ATOM     24  C   UNL A   1      29.852  25.885  23.786  1.00  0.00     0.165 C 
ENDBRANCH   9  14
ENDBRANCH   5   8
ENDBRANCH   3   4
ENDBRANCH   2   3
ENDBRANCH   1   2
BRANCH   1  25
ATOM     25  C   UNL A   1      37.322  21.608  25.183  1.00  0.00     0.116 C 
BRANCH  25  26
ATOM     26  N   UNL A   1      38.308  20.566  25.434  1.00  0.00    -0.352 N 
ATOM     27  C   UNL A   1      39.515  20.674  26.088  1.00  0.00     0.251 C 
ATOM     28  H   UNL A   1      38.082  19.671  25.093  1.00  0.00     0.163 HD
ATOM     29  O   UNL A   1      40.279  19.714  26.135  1.00  0.00    -0.269 OA
BRANCH  27  30
ATOM     30  C   UNL A   1      39.898  21.973  26.679  1.00  0.00     0.039 A 
ATOM     31  C   UNL A   1      39.371  23.162  26.173  1.00  0.00     0.014 A 
ATOM     32  C   UNL A   1      40.848  22.000  27.703  1.00  0.00     0.014 A 
ATOM     33  C   UNL A   1      39.925  24.375  26.562  1.00  0.00     0.010 A 
ATOM     34  C   UNL A   1      41.345  23.228  28.152  1.00  0.00     0.010 A 
ATOM     35  C   UNL A   1      40.930  24.422  27.543  1.00  0.00    -0.014 A 
BRANCH  35  36
ATOM     36  C   UNL A   1      41.531  25.734  27.901  1.00  0.00     0.031 A 
ATOM     37  C   UNL A   1      42.880  26.138  27.371  1.00  0.00     0.074 A 
ATOM     38  C   UNL A   1      40.818  26.592  28.653  1.00  0.00     0.049 A 
ATOM     39  N   UNL A   1      43.503  27.282  27.500  1.00  0.00    -0.248 NA
ATOM     40  C   UNL A   1      43.630  25.134  26.601  1.00  0.00     0.031 C 
ATOM     41  C   UNL A   1      39.504  26.301  29.225  1.00  0.00     0.029 A 
ATOM     42  N   UNL A   1      41.073  27.884  29.037  1.00  0.00    -0.354 N 
ATOM     43  C   UNL A   1      44.721  27.130  26.846  1.00  0.00     0.074 A 
ATOM     44  C   UNL A   1      44.765  25.772  26.352  1.00  0.00     0.031 C 
ATOM     45  C   UNL A   1      39.038  27.401  29.831  1.00  0.00     0.029 A 
ATOM     46  C   UNL A   1      40.043  28.459  29.746  1.00  0.00     0.049 A 
ATOM     47  H   UNL A   1      41.911  28.356  28.827  1.00  0.00     0.167 HD
ATOM     48  C   UNL A   1      45.703  28.046  26.664  1.00  0.00     0.034 A 
ATOM     49  C   UNL A   1      39.914  29.696  30.268  1.00  0.00     0.034 A 
ATOM     50  C   UNL A   1      45.633  29.404  27.141  1.00  0.00     0.049 A 
ATOM     51  C   UNL A   1      41.021  30.694  30.060  1.00  0.00     0.074 A 
ATOM     52  C   UNL A   1      46.553  30.421  26.956  1.00  0.00     0.029 A 
ATOM     53  N   UNL A   1      44.595  29.936  27.894  1.00  0.00    -0.354 N 
ATOM     54  N   UNL A   1      42.137  30.554  29.381  1.00  0.00    -0.248 NA
ATOM     55  C   UNL A   1      40.859  32.013  30.683  1.00  0.00     0.031 C 
ATOM     56  C   UNL A   1      46.101  31.548  27.646  1.00  0.00     0.029 A 
ATOM     57  C   UNL A   1      44.869  31.257  28.209  1.00  0.00     0.049 A 
ATOM     58  H   UNL A   1      43.785  29.447  28.164  1.00  0.00     0.167 HD
ATOM     59  C   UNL A   1      42.805  31.769  29.490  1.00  0.00     0.074 A 
ATOM     60  C   UNL A   1      41.955  32.642  30.273  1.00  0.00     0.031 C 
ATOM     61  C   UNL A   1      44.017  32.123  28.992  1.00  0.00     0.034 A 
BRANCH  48  62
ATOM     62  C   UNL A   1      46.941  27.633  25.907  1.00  0.00     0.023 A 
ATOM     63  C   UNL A   1      47.059  27.930  24.536  1.00  0.00     0.031 A 
ATOM     64  C   UNL A   1      47.946  26.855  26.507  1.00  0.00     0.131 A 
ATOM     65  C   UNL A   1      48.147  27.434  23.806  1.00  0.00     0.055 A 
ATOM     66  C   UNL A   1      49.045  26.390  25.784  1.00  0.00     0.041 A 
ATOM     67  F   UNL A   1      47.879  26.543  27.812  1.00  0.00    -0.206 F 
ATOM     68  C   UNL A   1      49.143  26.671  24.424  1.00  0.00     0.022 A 
BRANCH  65  69
ATOM     69  S   UNL A   1      48.283  27.705  22.018  1.00  0.00     0.124 S 
ATOM     70  O   UNL A   1      49.463  28.563  21.937  1.00  0.00    -0.237 OA
ATOM     71  O   UNL A   1      48.465  26.347  21.514  1.00  0.00    -0.237 OA
ATOM     72  O   UNL A   1      47.022  28.346  21.663  1.00  0.00    -0.744 OA
ENDBRANCH  65  69
ENDBRANCH  48  62
BRANCH  49  73
ATOM     73  C   UNL A   1      38.648  30.044  30.976  1.00  0.00     0.023 A 
ATOM     74  C   UNL A   1      37.651  30.802  30.336  1.00  0.00     0.031 A 
ATOM     75  C   UNL A   1      38.488  29.754  32.341  1.00  0.00     0.131 A 
ATOM     76  C   UNL A   1      36.587  31.324  31.083  1.00  0.00     0.055 A 
ATOM     77  C   UNL A   1      37.385  30.212  33.064  1.00  0.00     0.041 A 
ATOM     78  F   UNL A   1      39.419  29.043  32.995  1.00  0.00    -0.206 F 
ATOM     79  C   UNL A   1      36.439  31.021  32.439  1.00  0.00     0.022 A 
BRANCH  76  80
ATOM     80  S   UNL A   1      35.453  32.540  30.357  1.00  0.00     0.124 S 
ATOM     81  O   UNL A   1      35.034  31.872  29.129  1.00  0.00    -0.237 OA
ATOM     82  O   UNL A   1      34.431  32.650  31.396  1.00  0.00    -0.237 OA
ATOM     83  O   UNL A   1      36.285  33.724  30.178  1.00  0.00    -0.744 OA
ENDBRANCH  76  80
ENDBRANCH  49  73
BRANCH  61  84
ATOM     84  C   UNL A   1      44.536  33.511  29.281  1.00  0.00     0.023 A 
ATOM     85  C   UNL A   1      44.271  34.566  28.387  1.00  0.00     0.031 A 
ATOM     86  C   UNL A   1      45.417  33.749  30.350  1.00  0.00     0.131 A 
ATOM     87  C   UNL A   1      44.913  35.799  28.555  1.00  0.00     0.055 A 
ATOM     88  C   UNL A   1      46.019  34.994  30.539  1.00  0.00     0.041 A 
ATOM     89  F   UNL A   1      45.708  32.773  31.223  1.00  0.00    -0.206 F 
ATOM     90  C   UNL A   1      45.780  36.021  29.630  1.00  0.00     0.022 A 
BRANCH  87  91
ATOM     91  S   UNL A   1      44.716  37.131  27.339  1.00  0.00     0.124 S 
ATOM     92  O   UNL A   1      43.459  36.765  26.690  1.00  0.00    -0.237 OA
ATOM     93  O   UNL A   1      44.656  38.318  28.189  1.00  0.00    -0.237 OA
ATOM     94  O   UNL A   1      45.904  37.021  26.500  1.00  0.00    -0.744 OA
ENDBRANCH  87  91
ENDBRANCH  61  84
ENDBRANCH  35  36
ENDBRANCH  27  30
ENDBRANCH  25  26
ENDBRANCH   1  25
TORSDOF 15
ENDMDL
MODEL 2
REMARK VINA RESULT:     -13.1      4.810     10.391
REMARK SMILES Cc1ccc2c(c1)OCCN2c1sc(C(=O)NCCCCNC(=O)c2ccc(-c3c4nc(c(-c5cc(S(=O)(=O)[O-])ccc5F)c5ccc([nH]5)c(-c5cc(S(=O)(=O)[O-])ccc5F)c5nc(c(-c6cc(S(=O)(=O)[O-])ccc6F)c6ccc3[nH]6)C=C5)C=C4)cc2)cc1C
REMARK SMILES IDX 20 1 19 2 18 3 17 4 15 5 16 6 14 8 12 9 13 10 89 11 88 12
REMARK SMILES IDX 90 13 11 14 1 15 2 16 3 17 7 18 4 19 6 20 5 21 8 22 9 23
REMARK SMILES IDX 10 24 21 25 22 26 23 27 24 29 25 30 26 31 87 32 27 33 86 34
REMARK SMILES IDX 28 35 29 36 30 37 80 38 31 39 85 40 79 41 81 42 32 43 84 44
REMARK SMILES IDX 78 45 77 46 33 48 65 49 45 50 64 51 46 52 49 53 63 54 82 55
REMARK SMILES IDX 47 56 48 57 62 59 83 60 50 61 34 62 35 63 43 64 36 65 42 66
REMARK SMILES IDX 44 67 41 68 37 69 38 70 39 71 40 72 66 73 67 74 75 75 68 76
REMARK SMILES IDX 74 77 76 78 73 79 69 80 70 81 71 82 72 83 51 84 52 85 60 86
REMARK SMILES IDX 53 87 59 88 61 89 58 90 54 91 55 92 56 93 57 94
REMARK H PARENT 17 7 22 28 81 47 49 58
REMARK Flexibility Score: inf
ROOT
ATOM      1  C   UNL A   1      32.408  30.039  25.197  1.00  0.00     0.023 C 
ENDROOT
BRANCH   1   2
ATOM      2  C   UNL A   1      33.445  28.925  25.018  1.00  0.00     0.023 C 
BRANCH   2   3
ATOM      3  C   UNL A   1      33.749  28.582  23.559  1.00  0.00     0.116 C 
BRANCH   3   4
ATOM      4  N   UNL A   1      32.530  28.350  22.811  1.00  0.00    -0.351 N 
ATOM      5  C   UNL A   1      31.697  27.262  22.703  1.00  0.00     0.261 C 
ATOM      6  O   UNL A   1      30.693  27.444  22.006  1.00  0.00    -0.268 OA
ATOM      7  H   UNL A   1      32.240  29.123  22.275  1.00  0.00     0.163 HD
BRANCH   5   8
ATOM      8  C   UNL A   1      31.910  25.998  23.397  1.00  0.00     0.094 A 
ATOM      9  C   UNL A   1      32.762  23.909  24.443  1.00  0.00     0.099 A 
ATOM     10  S   UNL A   1      33.166  24.889  23.093  1.00  0.00    -0.112 S 
ATOM     11  C   UNL A   1      31.523  24.264  24.952  1.00  0.00    -0.015 A 
ATOM     12  C   UNL A   1      31.048  25.471  24.342  1.00  0.00     0.031 A 
ATOM     13  C   UNL A   1      30.779  23.555  26.034  1.00  0.00     0.047 C 
BRANCH   9  14
ATOM     14  N   UNL A   1      33.559  22.891  24.873  1.00  0.00    -0.327 N 
ATOM     15  C   UNL A   1      33.097  17.319  23.471  1.00  0.00     0.044 C 
ATOM     16  C   UNL A   1      33.236  18.773  23.803  1.00  0.00    -0.047 A 
ATOM     17  C   UNL A   1      32.316  19.705  23.320  1.00  0.00     0.006 A 
ATOM     18  C   UNL A   1      34.261  19.217  24.645  1.00  0.00     0.052 A 
ATOM     19  C   UNL A   1      32.429  21.061  23.653  1.00  0.00     0.030 A 
ATOM     20  C   UNL A   1      34.372  20.572  24.976  1.00  0.00     0.143 A 
ATOM     21  C   UNL A   1      33.441  21.525  24.507  1.00  0.00     0.085 A 
ATOM     22  O   UNL A   1      35.442  20.889  25.787  1.00  0.00    -0.490 OA
ATOM     23  C   UNL A   1      35.738  22.289  25.766  1.00  0.00     0.251 C 
ATOM     24  C   UNL A   1      34.484  23.128  25.980  1.00  0.00     0.165 C 
ENDBRANCH   9  14
ENDBRANCH   5   8
ENDBRANCH   3   4
ENDBRANCH   2   3
ENDBRANCH   1   2
BRANCH   1  25
ATOM     25  C   UNL A   1      32.069  30.388  26.643  1.00  0.00     0.116 C 
BRANCH  25  26
ATOM     26  N   UNL A   1      31.923  31.817  26.882  1.00  0.00    -0.352 N 
ATOM     27  C   UNL A   1      32.827  32.682  27.455  1.00  0.00     0.251 C 
ATOM     28  H   UNL A   1      31.070  32.214  26.595  1.00  0.00     0.163 HD
ATOM     29  O   UNL A   1      32.514  33.849  27.670  1.00  0.00    -0.269 OA
BRANCH  27  30
ATOM     30  C   UNL A   1      34.155  32.171  27.857  1.00  0.00     0.039 A 
ATOM     31  C   UNL A   1      34.316  30.835  28.223  1.00  0.00     0.014 A 
ATOM     32  C   UNL A   1      35.231  33.060  27.934  1.00  0.00     0.014 A 
ATOM     33  C   UNL A   1      35.496  30.432  28.836  1.00  0.00     0.010 A 
ATOM     34  C   UNL A   1      36.445  32.629  28.476  1.00  0.00     0.010 A 
ATOM     35  C   UNL A   1      36.569  31.327  28.985  1.00  0.00    -0.014 A 
BRANCH  35  36
ATOM     36  C   UNL A   1      37.798  30.873  29.686  1.00  0.00     0.031 A 
ATOM     37  C   UNL A   1      38.072  31.276  31.110  1.00  0.00     0.074 A 
ATOM     38  C   UNL A   1      38.636  30.033  29.051  1.00  0.00     0.049 A 
ATOM     39  N   UNL A   1      39.039  30.888  31.900  1.00  0.00    -0.248 NA
ATOM     40  C   UNL A   1      37.146  32.239  31.727  1.00  0.00     0.031 C 
ATOM     41  C   UNL A   1      38.472  29.584  27.669  1.00  0.00     0.029 A 
ATOM     42  N   UNL A   1      39.763  29.382  29.484  1.00  0.00    -0.354 N 
ATOM     43  C   UNL A   1      38.852  31.570  33.098  1.00  0.00     0.074 A 
ATOM     44  C   UNL A   1      37.699  32.423  32.918  1.00  0.00     0.031 C 
ATOM     45  C   UNL A   1      39.421  28.683  27.387  1.00  0.00     0.029 A 
ATOM     46  C   UNL A   1      40.301  28.533  28.544  1.00  0.00     0.049 A 
ATOM     47  H   UNL A   1      40.152  29.511  30.379  1.00  0.00     0.167 HD
ATOM     48  C   UNL A   1      39.568  31.478  34.245  1.00  0.00     0.034 A 
ATOM     49  C   UNL A   1      41.377  27.722  28.602  1.00  0.00     0.034 A 
ATOM     50  C   UNL A   1      40.701  30.603  34.416  1.00  0.00     0.049 A 
ATOM     51  C   UNL A   1      42.162  27.643  29.884  1.00  0.00     0.074 A 
ATOM     52  C   UNL A   1      41.455  30.400  35.558  1.00  0.00     0.029 A 
ATOM     53  N   UNL A   1      41.244  29.793  33.429  1.00  0.00    -0.354 N 
ATOM     54  N   UNL A   1      41.931  28.243  31.028  1.00  0.00    -0.248 NA
ATOM     55  C   UNL A   1      43.351  26.781  29.889  1.00  0.00     0.031 C 
ATOM     56  C   UNL A   1      42.488  29.513  35.246  1.00  0.00     0.029 A 
ATOM     57  C   UNL A   1      42.343  29.113  33.927  1.00  0.00     0.049 A 
ATOM     58  H   UNL A   1      40.898  29.713  32.511  1.00  0.00     0.167 HD
ATOM     59  C   UNL A   1      42.940  27.827  31.890  1.00  0.00     0.074 A 
ATOM     60  C   UNL A   1      43.766  26.899  31.145  1.00  0.00     0.031 C 
ATOM     61  C   UNL A   1      43.163  28.189  33.179  1.00  0.00     0.034 A 
BRANCH  48  62
ATOM     62  C   UNL A   1      39.156  32.329  35.421  1.00  0.00     0.023 A 
ATOM     63  C   UNL A   1      39.652  33.640  35.548  1.00  0.00     0.031 A 
ATOM     64  C   UNL A   1      38.370  31.811  36.465  1.00  0.00     0.131 A 
ATOM     65  C   UNL A   1      39.373  34.382  36.704  1.00  0.00     0.055 A 
ATOM     66  C   UNL A   1      38.067  32.565  37.600  1.00  0.00     0.041 A 
ATOM     67  F   UNL A   1      37.874  30.565  36.392  1.00  0.00    -0.206 F 
ATOM     68  C   UNL A   1      38.579  33.854  37.727  1.00  0.00     0.022 A 
BRANCH  65  69
ATOM     69  S   UNL A   1      40.079  36.034  36.955  1.00  0.00     0.124 S 
ATOM     70  O   UNL A   1      39.309  36.514  38.100  1.00  0.00    -0.237 OA
ATOM     71  O   UNL A   1      41.480  35.731  37.229  1.00  0.00    -0.237 OA
ATOM     72  O   UNL A   1      39.818  36.723  35.696  1.00  0.00    -0.744 OA
ENDBRANCH  65  69
ENDBRANCH  48  62
BRANCH  49  73
ATOM     73  C   UNL A   1      41.705  26.885  27.412  1.00  0.00     0.023 A 
ATOM     74  C   UNL A   1      41.384  25.515  27.384  1.00  0.00     0.031 A 
ATOM     75  C   UNL A   1      42.474  27.408  26.359  1.00  0.00     0.131 A 
ATOM     76  C   UNL A   1      41.911  24.698  26.375  1.00  0.00     0.055 A 
ATOM     77  C   UNL A   1      42.932  26.603  25.314  1.00  0.00     0.041 A 
ATOM     78  F   UNL A   1      42.814  28.706  26.350  1.00  0.00    -0.206 F 
ATOM     79  C   UNL A   1      42.669  25.236  25.332  1.00  0.00     0.022 A 
BRANCH  76  80
ATOM     80  S   UNL A   1      41.761  22.893  26.473  1.00  0.00     0.124 S 
ATOM     81  O   UNL A   1      40.316  22.710  26.556  1.00  0.00    -0.237 OA
ATOM     82  O   UNL A   1      42.379  22.476  25.216  1.00  0.00    -0.237 OA
ATOM     83  O   UNL A   1      42.510  22.549  27.676  1.00  0.00    -0.744 OA
ENDBRANCH  76  80
ENDBRANCH  49  73
BRANCH  61  84
ATOM     84  C   UNL A   1      44.361  27.608  33.892  1.00  0.00     0.023 A 
ATOM     85  C   UNL A   1      44.216  26.465  34.702  1.00  0.00     0.031 A 
ATOM     86  C   UNL A   1      45.599  28.273  33.892  1.00  0.00     0.131 A 
ATOM     87  C   UNL A   1      45.280  26.048  35.511  1.00  0.00     0.055 A 
ATOM     88  C   UNL A   1      46.670  27.826  34.667  1.00  0.00     0.041 A 
ATOM     89  F   UNL A   1      45.783  29.372  33.143  1.00  0.00    -0.206 F 
ATOM     90  C   UNL A   1      46.508  26.716  35.493  1.00  0.00     0.022 A 
BRANCH  87  91
ATOM     91  S   UNL A   1      45.083  24.675  36.681  1.00  0.00     0.124 S 
ATOM     92  O   UNL A   1      44.725  23.571  35.794  1.00  0.00    -0.237 OA
ATOM     93  O   UNL A   1      46.412  24.587  37.280  1.00  0.00    -0.237 OA
ATOM     94  O   UNL A   1      44.021  25.124  37.576  1.00  0.00    -0.744 OA
ENDBRANCH  87  91
ENDBRANCH  61  84
ENDBRANCH  35  36
ENDBRANCH  27  30
ENDBRANCH  25  26
ENDBRANCH   1  25
TORSDOF 15
ENDMDL
MODEL 3
REMARK VINA RESULT:     -12.9      0.356      7.441
REMARK SMILES Cc1ccc2c(c1)OCCN2c1sc(C(=O)NCCCCNC(=O)c2ccc(-c3c4nc(c(-c5cc(S(=O)(=O)[O-])ccc5F)c5ccc([nH]5)c(-c5cc(S(=O)(=O)[O-])ccc5F)c5nc(c(-c6cc(S(=O)(=O)[O-])ccc6F)c6ccc3[nH]6)C=C5)C=C4)cc2)cc1C
REMARK SMILES IDX 20 1 19 2 18 3 17 4 15 5 16 6 14 8 12 9 13 10 89 11 88 12
REMARK SMILES IDX 90 13 11 14 1 15 2 16 3 17 7 18 4 19 6 20 5 21 8 22 9 23
REMARK SMILES IDX 10 24 21 25 22 26 23 27 24 29 25 30 26 31 87 32 27 33 86 34
REMARK SMILES IDX 28 35 29 36 30 37 80 38 31 39 85 40 79 41 81 42 32 43 84 44
REMARK SMILES IDX 78 45 77 46 33 48 65 49 45 50 64 51 46 52 49 53 63 54 82 55
REMARK SMILES IDX 47 56 48 57 62 59 83 60 50 61 34 62 35 63 43 64 36 65 42 66
REMARK SMILES IDX 44 67 41 68 37 69 38 70 39 71 40 72 66 73 67 74 75 75 68 76
REMARK SMILES IDX 74 77 76 78 73 79 69 80 70 81 71 82 72 83 51 84 52 85 60 86
REMARK SMILES IDX 53 87 59 88 61 89 58 90 54 91 55 92 56 93 57 94
REMARK H PARENT 17 7 22 28 81 47 49 58
REMARK Flexibility Score: inf
ROOT
ATOM      1  C   UNL A   1      36.056  21.001  25.379  1.00  0.00     0.023 C 
ENDROOT
BRANCH   1   2
ATOM      2  C   UNL A   1      35.259  22.047  26.167  1.00  0.00     0.023 C 
BRANCH   2   3
ATOM      3  C   UNL A   1      34.219  21.454  27.117  1.00  0.00     0.116 C 
BRANCH   3   4
ATOM      4  N   UNL A   1      33.326  20.550  26.419  1.00  0.00    -0.351 N 
ATOM      5  C   UNL A   1      32.422  20.737  25.401  1.00  0.00     0.261 C 
ATOM      6  O   UNL A   1      31.867  19.706  25.004  1.00  0.00    -0.268 OA
ATOM      7  H   UNL A   1      33.378  19.619  26.736  1.00  0.00     0.163 HD
BRANCH   5   8
ATOM      8  C   UNL A   1      32.163  22.021  24.764  1.00  0.00     0.094 A 
ATOM      9  C   UNL A   1      31.586  24.361  24.150  1.00  0.00     0.099 A 
ATOM     10  S   UNL A   1      31.076  23.211  25.317  1.00  0.00    -0.112 S 
ATOM     11  C   UNL A   1      32.370  23.759  23.178  1.00  0.00    -0.015 A 
ATOM     12  C   UNL A   1      32.696  22.413  23.548  1.00  0.00     0.031 A 
ATOM     13  C   UNL A   1      32.883  24.404  21.935  1.00  0.00     0.047 C 
BRANCH   9  14
ATOM     14  N   UNL A   1      31.191  25.665  24.185  1.00  0.00    -0.327 N 
ATOM     15  C   UNL A   1      33.866  30.008  26.872  1.00  0.00     0.044 C 
ATOM     16  C   UNL A   1      33.194  28.883  26.144  1.00  0.00    -0.047 A 
ATOM     17  C   UNL A   1      33.692  27.582  26.231  1.00  0.00     0.006 A 
ATOM     18  C   UNL A   1      32.028  29.108  25.406  1.00  0.00     0.052 A 
ATOM     19  C   UNL A   1      33.048  26.525  25.575  1.00  0.00     0.030 A 
ATOM     20  C   UNL A   1      31.387  28.050  24.750  1.00  0.00     0.143 A 
ATOM     21  C   UNL A   1      31.869  26.726  24.840  1.00  0.00     0.085 A 
ATOM     22  O   UNL A   1      30.266  28.405  24.030  1.00  0.00    -0.490 OA
ATOM     23  C   UNL A   1      29.894  27.398  23.082  1.00  0.00     0.251 C 
ATOM     24  C   UNL A   1      29.850  26.017  23.723  1.00  0.00     0.165 C 
ENDBRANCH   9  14
ENDBRANCH   5   8
ENDBRANCH   3   4
ENDBRANCH   2   3
ENDBRANCH   1   2
BRANCH   1  25
ATOM     25  C   UNL A   1      37.495  21.389  25.053  1.00  0.00     0.116 C 
BRANCH  25  26
ATOM     26  N   UNL A   1      38.474  20.384  25.441  1.00  0.00    -0.352 N 
ATOM     27  C   UNL A   1      39.655  20.563  26.128  1.00  0.00     0.251 C 
ATOM     28  H   UNL A   1      38.265  19.458  25.182  1.00  0.00     0.163 HD
ATOM     29  O   UNL A   1      40.420  19.619  26.298  1.00  0.00    -0.269 OA
BRANCH  27  30
ATOM     30  C   UNL A   1      40.009  21.917  26.604  1.00  0.00     0.039 A 
ATOM     31  C   UNL A   1      39.302  23.032  26.152  1.00  0.00     0.014 A 
ATOM     32  C   UNL A   1      41.107  22.073  27.454  1.00  0.00     0.014 A 
ATOM     33  C   UNL A   1      39.800  24.305  26.404  1.00  0.00     0.010 A 
ATOM     34  C   UNL A   1      41.557  23.358  27.772  1.00  0.00     0.010 A 
ATOM     35  C   UNL A   1      40.943  24.483  27.201  1.00  0.00    -0.014 A 
BRANCH  35  36
ATOM     36  C   UNL A   1      41.472  25.856  27.410  1.00  0.00     0.031 A 
ATOM     37  C   UNL A   1      40.731  26.851  28.261  1.00  0.00     0.074 A 
ATOM     38  C   UNL A   1      42.667  26.180  26.881  1.00  0.00     0.049 A 
ATOM     39  N   UNL A   1      41.099  28.052  28.628  1.00  0.00    -0.248 NA
ATOM     40  C   UNL A   1      39.406  26.453  28.763  1.00  0.00     0.031 C 
ATOM     41  C   UNL A   1      43.466  25.296  26.035  1.00  0.00     0.029 A 
ATOM     42  N   UNL A   1      43.431  27.312  27.001  1.00  0.00    -0.354 N 
ATOM     43  C   UNL A   1      40.050  28.559  29.386  1.00  0.00     0.074 A 
ATOM     44  C   UNL A   1      39.014  27.551  29.396  1.00  0.00     0.031 C 
ATOM     45  C   UNL A   1      44.636  25.890  25.764  1.00  0.00     0.029 A 
ATOM     46  C   UNL A   1      44.648  27.222  26.365  1.00  0.00     0.049 A 
ATOM     47  H   UNL A   1      43.138  28.113  27.493  1.00  0.00     0.167 HD
ATOM     48  C   UNL A   1      39.967  29.751  30.026  1.00  0.00     0.034 A 
ATOM     49  C   UNL A   1      45.663  28.106  26.274  1.00  0.00     0.034 A 
ATOM     50  C   UNL A   1      41.019  30.736  30.027  1.00  0.00     0.049 A 
ATOM     51  C   UNL A   1      45.545  29.427  26.986  1.00  0.00     0.074 A 
ATOM     52  C   UNL A   1      41.050  31.949  30.693  1.00  0.00     0.029 A 
ATOM     53  N   UNL A   1      42.217  30.630  29.335  1.00  0.00    -0.354 N 
ATOM     54  N   UNL A   1      44.573  29.863  27.754  1.00  0.00    -0.248 NA
ATOM     55  C   UNL A   1      46.653  30.376  26.824  1.00  0.00     0.031 C 
ATOM     56  C   UNL A   1      42.239  32.601  30.356  1.00  0.00     0.029 A 
ATOM     57  C   UNL A   1      42.980  31.770  29.531  1.00  0.00     0.049 A 
ATOM     58  H   UNL A   1      42.485  29.858  28.786  1.00  0.00     0.167 HD
ATOM     59  C   UNL A   1      44.957  31.133  28.172  1.00  0.00     0.074 A 
ATOM     60  C   UNL A   1      46.262  31.383  27.597  1.00  0.00     0.031 C 
ATOM     61  C   UNL A   1      44.281  32.013  28.954  1.00  0.00     0.034 A 
BRANCH  48  62
ATOM     62  C   UNL A   1      38.709  30.069  30.796  1.00  0.00     0.023 A 
ATOM     63  C   UNL A   1      37.766  30.967  30.261  1.00  0.00     0.031 A 
ATOM     64  C   UNL A   1      38.496  29.578  32.095  1.00  0.00     0.131 A 
ATOM     65  C   UNL A   1      36.663  31.361  31.031  1.00  0.00     0.055 A 
ATOM     66  C   UNL A   1      37.379  29.947  32.846  1.00  0.00     0.041 A 
ATOM     67  F   UNL A   1      39.367  28.720  32.651  1.00  0.00    -0.206 F 
ATOM     68  C   UNL A   1      36.462  30.851  32.318  1.00  0.00     0.022 A 
BRANCH  65  69
ATOM     69  S   UNL A   1      35.482  32.594  30.421  1.00  0.00     0.124 S 
ATOM     70  O   UNL A   1      36.307  33.800  30.381  1.00  0.00    -0.237 OA
ATOM     71  O   UNL A   1      35.113  32.049  29.117  1.00  0.00    -0.237 OA
ATOM     72  O   UNL A   1      34.425  32.596  31.425  1.00  0.00    -0.744 OA
ENDBRANCH  65  69
ENDBRANCH  48  62
BRANCH  49  73
ATOM     73  C   UNL A   1      46.890  27.710  25.524  1.00  0.00     0.023 A 
ATOM     74  C   UNL A   1      47.075  28.104  24.186  1.00  0.00     0.031 A 
ATOM     75  C   UNL A   1      47.812  26.811  26.084  1.00  0.00     0.131 A 
ATOM     76  C   UNL A   1      48.101  27.527  23.427  1.00  0.00     0.055 A 
ATOM     77  C   UNL A   1      48.879  26.298  25.345  1.00  0.00     0.041 A 
ATOM     78  F   UNL A   1      47.669  26.398  27.353  1.00  0.00    -0.206 F 
ATOM     79  C   UNL A   1      49.013  26.639  24.002  1.00  0.00     0.022 A 
BRANCH  76  80
ATOM     80  S   UNL A   1      48.185  27.789  21.634  1.00  0.00     0.124 S 
ATOM     81  O   UNL A   1      48.461  26.443  21.141  1.00  0.00    -0.237 OA
ATOM     82  O   UNL A   1      46.849  28.306  21.347  1.00  0.00    -0.237 OA
ATOM     83  O   UNL A   1      49.270  28.752  21.476  1.00  0.00    -0.744 OA
ENDBRANCH  76  80
ENDBRANCH  49  73
BRANCH  61  84
ATOM     84  C   UNL A   1      44.913  33.355  29.238  1.00  0.00     0.023 A 
ATOM     85  C   UNL A   1      44.688  34.441  28.371  1.00  0.00     0.031 A 
ATOM     86  C   UNL A   1      45.854  33.511  30.271  1.00  0.00     0.131 A 
ATOM     87  C   UNL A   1      45.426  35.621  28.527  1.00  0.00     0.055 A 
ATOM     88  C   UNL A   1      46.554  34.705  30.449  1.00  0.00     0.041 A 
ATOM     89  F   UNL A   1      46.110  32.501  31.118  1.00  0.00    -0.206 F 
ATOM     90  C   UNL A   1      46.352  35.762  29.565  1.00  0.00     0.022 A 
BRANCH  87  91
ATOM     91  S   UNL A   1      45.275  36.984  27.339  1.00  0.00     0.124 S 
ATOM     92  O   UNL A   1      46.250  36.605  26.320  1.00  0.00    -0.237 OA
ATOM     93  O   UNL A   1      43.876  36.884  26.931  1.00  0.00    -0.237 OA
ATOM     94  O   UNL A   1      45.617  38.169  28.118  1.00  0.00    -0.744 OA
ENDBRANCH  87  91
ENDBRANCH  61  84
ENDBRANCH  35  36
ENDBRANCH  27  30
ENDBRANCH  25  26
ENDBRANCH   1  25
TORSDOF 15
ENDMDL
