MODEL 1
REMARK VINA RESULT:     -12.4      0.000      0.000
REMARK SMILES CC[C@@H](C)[C@H](NC(=O)N1CCn2c1nc1ccccc12)C(=O)N[C@H](C)C(=O)NCCCCNC(=O)c1ccc(-c2c3nc(c(-c4cc(S(=O)(=O)[O-])ccc4F)c4ccc([nH]4)c(-c4cc(S(=O)(=O)[O-])ccc4F)c4nc(c(-c5cc(S(=O)(=O)[O-])ccc5F)c5ccc2[nH]5)C=C4)C=C3)cc1
REMARK SMILES IDX 30 1 29 2 28 3 26 4 27 5 24 7 25 8 23 9 21 10 22 11 5 13
REMARK SMILES IDX 3 14 4 15 2 16 1 17 6 18 7 19 8 21 9 22 10 23 13 24 11 25
REMARK SMILES IDX 12 26 14 27 20 28 15 29 19 30 16 31 18 32 17 33 31 34 32 35
REMARK SMILES IDX 33 36 34 37 35 39 36 40 37 41 98 42 38 43 97 44 39 45 40 46
REMARK SMILES IDX 41 47 91 48 42 49 96 50 90 51 92 52 43 53 95 54 89 55 88 56
REMARK SMILES IDX 44 58 76 59 56 60 75 61 57 62 60 63 74 64 93 65 58 66 59 67
REMARK SMILES IDX 73 69 94 70 61 71 45 72 46 73 54 74 47 75 53 76 55 77 52 78
REMARK SMILES IDX 48 79 49 80 50 81 51 82 77 83 78 84 86 85 79 86 85 87 87 88
REMARK SMILES IDX 84 89 80 90 81 91 82 92 83 93 62 94 63 95 71 96 64 97 70 98
REMARK SMILES IDX 72 99 69 100 65 101 66 102 67 103 68 104
REMARK H PARENT 28 6 23 12 6 20 33 38 92 57 60 68
REMARK Flexibility Score: inf
ROOT
ATOM      1  C   UNL A   1      37.293  22.352  24.787  1.00  0.00     0.023 C 
ENDROOT
BRANCH   1   2
ATOM      2  C   UNL A   1      35.906  21.771  24.511  1.00  0.00     0.116 C 
BRANCH   2   3
ATOM      3  N   UNL A   1      34.975  21.946  25.624  1.00  0.00    -0.354 N 
ATOM      4  C   UNL A   1      33.642  21.632  25.714  1.00  0.00     0.242 C 
ATOM      5  O   UNL A   1      33.035  21.888  26.754  1.00  0.00    -0.273 OA
ATOM      6  H   UNL A   1      35.363  22.350  26.433  1.00  0.00     0.163 HD
BRANCH   4   7
ATOM      7  C   UNL A   1      32.932  21.002  24.495  1.00  0.00     0.168 C 
ATOM      8  C   UNL A   1      32.503  19.603  24.934  1.00  0.00     0.041 C 
BRANCH   7   9
ATOM      9  N   UNL A   1      31.904  21.986  24.091  1.00  0.00    -0.343 N 
ATOM     10  C   UNL A   1      31.827  23.307  23.795  1.00  0.00     0.243 C 
ATOM     11  O   UNL A   1      30.682  23.758  23.671  1.00  0.00    -0.273 OA
ATOM     12  H   UNL A   1      31.021  21.558  24.015  1.00  0.00     0.164 HD
BRANCH  10  13
ATOM     13  C   UNL A   1      33.051  24.233  23.605  1.00  0.00     0.176 C 
BRANCH  13  14
ATOM     14  C   UNL A   1      32.986  25.393  24.646  1.00  0.00     0.018 C 
ATOM     15  C   UNL A   1      34.278  25.680  25.410  1.00  0.00     0.010 C 
BRANCH  14  16
ATOM     16  C   UNL A   1      31.743  25.247  25.558  1.00  0.00     0.002 C 
ATOM     17  C   UNL A   1      31.090  26.550  25.994  1.00  0.00     0.004 C 
ENDBRANCH  14  16
ENDBRANCH  13  14
BRANCH  13  18
ATOM     18  N   UNL A   1      33.141  24.545  22.176  1.00  0.00    -0.326 N 
ATOM     19  C   UNL A   1      32.986  25.674  21.452  1.00  0.00     0.324 C 
ATOM     20  H   UNL A   1      33.364  23.761  21.624  1.00  0.00     0.166 HD
ATOM     21  O   UNL A   1      32.984  25.543  20.224  1.00  0.00    -0.248 OA
BRANCH  19  22
ATOM     22  N   UNL A   1      32.641  26.853  22.020  1.00  0.00    -0.262 N 
ATOM     23  C   UNL A   1      33.659  27.824  22.453  1.00  0.00     0.152 C 
ATOM     24  C   UNL A   1      31.402  27.304  22.382  1.00  0.00     0.214 A 
ATOM     25  C   UNL A   1      32.866  29.098  22.787  1.00  0.00     0.148 C 
ATOM     26  N   UNL A   1      31.508  28.593  22.820  1.00  0.00    -0.308 N 
ATOM     27  N   UNL A   1      30.171  26.878  22.459  1.00  0.00    -0.212 NA
ATOM     28  C   UNL A   1      30.284  29.114  23.039  1.00  0.00     0.070 A 
ATOM     29  C   UNL A   1      29.449  28.005  22.852  1.00  0.00     0.091 A 
ATOM     30  C   UNL A   1      29.817  30.393  23.349  1.00  0.00     0.028 A 
ATOM     31  C   UNL A   1      28.065  28.172  23.018  1.00  0.00     0.031 A 
ATOM     32  C   UNL A   1      28.431  30.538  23.478  1.00  0.00     0.002 A 
ATOM     33  C   UNL A   1      27.569  29.448  23.325  1.00  0.00     0.002 A 
ENDBRANCH  19  22
ENDBRANCH  13  18
ENDBRANCH  10  13
ENDBRANCH   7   9
ENDBRANCH   4   7
ENDBRANCH   2   3
ENDBRANCH   1   2
BRANCH   1  34
ATOM     34  C   UNL A   1      38.267  21.378  25.446  1.00  0.00     0.023 C 
BRANCH  34  35
ATOM     35  C   UNL A   1      39.288  22.050  26.355  1.00  0.00     0.116 C 
BRANCH  35  36
ATOM     36  N   UNL A   1      40.537  21.317  26.453  1.00  0.00    -0.352 N 
ATOM     37  C   UNL A   1      41.806  21.823  26.660  1.00  0.00     0.251 C 
ATOM     38  H   UNL A   1      40.472  20.339  26.361  1.00  0.00     0.163 HD
ATOM     39  O   UNL A   1      42.782  21.102  26.666  1.00  0.00    -0.269 OA
BRANCH  37  40
ATOM     40  C   UNL A   1      41.922  23.283  26.849  1.00  0.00     0.039 A 
ATOM     41  C   UNL A   1      42.414  24.075  25.804  1.00  0.00     0.014 A 
ATOM     42  C   UNL A   1      41.676  23.819  28.110  1.00  0.00     0.014 A 
ATOM     43  C   UNL A   1      42.800  25.383  26.059  1.00  0.00     0.010 A 
ATOM     44  C   UNL A   1      42.020  25.146  28.349  1.00  0.00     0.010 A 
ATOM     45  C   UNL A   1      42.619  25.917  27.336  1.00  0.00    -0.014 A 
BRANCH  45  46
ATOM     46  C   UNL A   1      42.948  27.336  27.536  1.00  0.00     0.031 A 
ATOM     47  C   UNL A   1      41.757  28.215  27.454  1.00  0.00     0.074 A 
ATOM     48  C   UNL A   1      43.939  27.764  28.347  1.00  0.00     0.049 A 
ATOM     49  N   UNL A   1      40.960  28.283  28.474  1.00  0.00    -0.248 NA
ATOM     50  C   UNL A   1      41.226  28.818  26.239  1.00  0.00     0.031 C 
ATOM     51  C   UNL A   1      44.613  26.930  29.353  1.00  0.00     0.029 A 
ATOM     52  N   UNL A   1      44.381  29.042  28.611  1.00  0.00    -0.354 N 
ATOM     53  C   UNL A   1      39.794  28.875  28.051  1.00  0.00     0.074 A 
ATOM     54  C   UNL A   1      40.012  29.218  26.660  1.00  0.00     0.031 C 
ATOM     55  C   UNL A   1      45.227  27.740  30.240  1.00  0.00     0.029 A 
ATOM     56  C   UNL A   1      45.138  29.115  29.771  1.00  0.00     0.049 A 
ATOM     57  H   UNL A   1      44.182  29.817  28.039  1.00  0.00     0.167 HD
ATOM     58  C   UNL A   1      38.737  29.032  28.891  1.00  0.00     0.034 A 
ATOM     59  C   UNL A   1      45.340  30.221  30.532  1.00  0.00     0.034 A 
ATOM     60  C   UNL A   1      38.884  28.598  30.271  1.00  0.00     0.049 A 
ATOM     61  C   UNL A   1      44.022  30.361  31.255  1.00  0.00     0.074 A 
ATOM     62  C   UNL A   1      38.069  28.185  31.308  1.00  0.00     0.029 A 
ATOM     63  N   UNL A   1      40.147  28.583  30.803  1.00  0.00    -0.354 N 
ATOM     64  N   UNL A   1      43.645  29.664  32.300  1.00  0.00    -0.248 NA
ATOM     65  C   UNL A   1      42.949  31.156  30.636  1.00  0.00     0.031 C 
ATOM     66  C   UNL A   1      38.870  28.137  32.500  1.00  0.00     0.029 A 
ATOM     67  C   UNL A   1      40.144  28.569  32.172  1.00  0.00     0.049 A 
ATOM     68  H   UNL A   1      40.968  28.582  30.260  1.00  0.00     0.167 HD
ATOM     69  C   UNL A   1      42.255  29.736  32.290  1.00  0.00     0.074 A 
ATOM     70  C   UNL A   1      41.895  30.766  31.339  1.00  0.00     0.031 C 
ATOM     71  C   UNL A   1      41.414  28.801  32.821  1.00  0.00     0.034 A 
BRANCH  58  72
ATOM     72  C   UNL A   1      37.568  29.858  28.506  1.00  0.00     0.023 A 
ATOM     73  C   UNL A   1      36.399  29.348  27.923  1.00  0.00     0.031 A 
ATOM     74  C   UNL A   1      37.620  31.225  28.839  1.00  0.00     0.131 A 
ATOM     75  C   UNL A   1      35.314  30.216  27.711  1.00  0.00     0.055 A 
ATOM     76  C   UNL A   1      36.539  32.076  28.635  1.00  0.00     0.041 A 
ATOM     77  F   UNL A   1      38.733  31.747  29.381  1.00  0.00    -0.206 F 
ATOM     78  C   UNL A   1      35.375  31.569  28.073  1.00  0.00     0.022 A 
BRANCH  75  79
ATOM     79  S   UNL A   1      33.763  29.635  26.968  1.00  0.00     0.124 S 
ATOM     80  O   UNL A   1      33.339  28.601  27.908  1.00  0.00    -0.237 OA
ATOM     81  O   UNL A   1      32.952  30.850  26.967  1.00  0.00    -0.237 OA
ATOM     82  O   UNL A   1      34.166  29.157  25.650  1.00  0.00    -0.744 OA
ENDBRANCH  75  79
ENDBRANCH  58  72
BRANCH  59  83
ATOM     83  C   UNL A   1      46.050  31.331  29.819  1.00  0.00     0.023 A 
ATOM     84  C   UNL A   1      45.626  31.936  28.631  1.00  0.00     0.031 A 
ATOM     85  C   UNL A   1      47.269  31.800  30.366  1.00  0.00     0.131 A 
ATOM     86  C   UNL A   1      46.475  32.821  27.944  1.00  0.00     0.055 A 
ATOM     87  C   UNL A   1      48.084  32.730  29.714  1.00  0.00     0.041 A 
ATOM     88  F   UNL A   1      47.699  31.347  31.557  1.00  0.00    -0.206 F 
ATOM     89  C   UNL A   1      47.701  33.223  28.475  1.00  0.00     0.022 A 
BRANCH  86  90
ATOM     90  S   UNL A   1      46.025  33.418  26.291  1.00  0.00     0.124 S 
ATOM     91  O   UNL A   1      45.368  32.255  25.703  1.00  0.00    -0.237 OA
ATOM     92  O   UNL A   1      45.152  34.539  26.622  1.00  0.00    -0.237 OA
ATOM     93  O   UNL A   1      47.312  33.773  25.702  1.00  0.00    -0.744 OA
ENDBRANCH  86  90
ENDBRANCH  59  83
BRANCH  71  94
ATOM     94  C   UNL A   1      41.886  27.958  33.952  1.00  0.00     0.023 A 
ATOM     95  C   UNL A   1      42.592  26.762  33.732  1.00  0.00     0.031 A 
ATOM     96  C   UNL A   1      41.516  28.281  35.271  1.00  0.00     0.131 A 
ATOM     97  C   UNL A   1      42.897  25.927  34.815  1.00  0.00     0.055 A 
ATOM     98  C   UNL A   1      41.846  27.459  36.348  1.00  0.00     0.041 A 
ATOM     99  F   UNL A   1      40.773  29.370  35.530  1.00  0.00    -0.206 F 
ATOM    100  C   UNL A   1      42.537  26.275  36.122  1.00  0.00     0.022 A 
BRANCH  97 101
ATOM    101  S   UNL A   1      43.752  24.349  34.565  1.00  0.00     0.124 S 
ATOM    102  O   UNL A   1      44.159  24.426  33.163  1.00  0.00    -0.237 OA
ATOM    103  O   UNL A   1      44.842  24.442  35.533  1.00  0.00    -0.237 OA
ATOM    104  O   UNL A   1      42.733  23.345  34.855  1.00  0.00    -0.744 OA
ENDBRANCH  97 101
ENDBRANCH  71  94
ENDBRANCH  45  46
ENDBRANCH  37  40
ENDBRANCH  35  36
ENDBRANCH  34  35
ENDBRANCH   1  34
TORSDOF 20
ENDMDL
MODEL 2
REMARK VINA RESULT:     -12.2      1.566      2.060
REMARK SMILES CC[C@@H](C)[C@H](NC(=O)N1CCn2c1nc1ccccc12)C(=O)N[C@H](C)C(=O)NCCCCNC(=O)c1ccc(-c2c3nc(c(-c4cc(S(=O)(=O)[O-])ccc4F)c4ccc([nH]4)c(-c4cc(S(=O)(=O)[O-])ccc4F)c4nc(c(-c5cc(S(=O)(=O)[O-])ccc5F)c5ccc2[nH]5)C=C4)C=C3)cc1
REMARK SMILES IDX 30 1 29 2 28 3 26 4 27 5 24 7 25 8 23 9 21 10 22 11 5 13
REMARK SMILES IDX 3 14 4 15 2 16 1 17 6 18 7 19 8 21 9 22 10 23 13 24 11 25
REMARK SMILES IDX 12 26 14 27 20 28 15 29 19 30 16 31 18 32 17 33 31 34 32 35
REMARK SMILES IDX 33 36 34 37 35 39 36 40 37 41 98 42 38 43 97 44 39 45 40 46
REMARK SMILES IDX 41 47 91 48 42 49 96 50 90 51 92 52 43 53 95 54 89 55 88 56
REMARK SMILES IDX 44 58 76 59 56 60 75 61 57 62 60 63 74 64 93 65 58 66 59 67
REMARK SMILES IDX 73 69 94 70 61 71 45 72 46 73 54 74 47 75 53 76 55 77 52 78
REMARK SMILES IDX 48 79 49 80 50 81 51 82 77 83 78 84 86 85 79 86 85 87 87 88
REMARK SMILES IDX 84 89 80 90 81 91 82 92 83 93 62 94 63 95 71 96 64 97 70 98
REMARK SMILES IDX 72 99 69 100 65 101 66 102 67 103 68 104
REMARK H PARENT 28 6 23 12 6 20 33 38 92 57 60 68
REMARK Flexibility Score: inf
ROOT
ATOM      1  C   UNL A   1      37.123  22.019  24.418  1.00  0.00     0.023 C 
ENDROOT
BRANCH   1   2
ATOM      2  C   UNL A   1      35.619  21.774  24.548  1.00  0.00     0.116 C 
BRANCH   2   3
ATOM      3  N   UNL A   1      35.213  21.386  25.898  1.00  0.00    -0.354 N 
ATOM      4  C   UNL A   1      34.111  21.759  26.627  1.00  0.00     0.242 C 
ATOM      5  O   UNL A   1      33.973  21.322  27.770  1.00  0.00    -0.273 OA
ATOM      6  H   UNL A   1      35.822  20.760  26.354  1.00  0.00     0.163 HD
BRANCH   4   7
ATOM      7  C   UNL A   1      33.097  22.746  26.008  1.00  0.00     0.168 C 
ATOM      8  C   UNL A   1      31.825  22.623  26.846  1.00  0.00     0.041 C 
BRANCH   7   9
ATOM      9  N   UNL A   1      33.804  24.043  25.943  1.00  0.00    -0.343 N 
ATOM     10  C   UNL A   1      33.854  25.130  25.133  1.00  0.00     0.243 C 
ATOM     11  O   UNL A   1      34.754  25.940  25.386  1.00  0.00    -0.273 OA
ATOM     12  H   UNL A   1      34.415  24.148  26.708  1.00  0.00     0.164 HD
BRANCH  10  13
ATOM     13  C   UNL A   1      32.875  25.396  23.966  1.00  0.00     0.176 C 
BRANCH  13  14
ATOM     14  C   UNL A   1      32.342  24.036  23.420  1.00  0.00     0.018 C 
ATOM     15  C   UNL A   1      33.013  23.515  22.150  1.00  0.00     0.010 C 
BRANCH  14  16
ATOM     16  C   UNL A   1      30.795  24.037  23.352  1.00  0.00     0.002 C 
ATOM     17  C   UNL A   1      30.122  25.363  23.670  1.00  0.00     0.004 C 
ENDBRANCH  14  16
ENDBRANCH  13  14
BRANCH  13  18
ATOM     18  N   UNL A   1      33.533  26.336  23.054  1.00  0.00    -0.326 N 
ATOM     19  C   UNL A   1      33.411  27.661  22.827  1.00  0.00     0.324 C 
ATOM     20  H   UNL A   1      34.212  25.909  22.484  1.00  0.00     0.166 HD
ATOM     21  O   UNL A   1      34.030  28.112  21.857  1.00  0.00    -0.248 OA
BRANCH  19  22
ATOM     22  N   UNL A   1      32.506  28.425  23.482  1.00  0.00    -0.262 N 
ATOM     23  C   UNL A   1      32.671  28.763  24.905  1.00  0.00     0.152 C 
ATOM     24  C   UNL A   1      31.303  28.905  23.039  1.00  0.00     0.214 A 
ATOM     25  C   UNL A   1      31.600  29.831  25.180  1.00  0.00     0.148 C 
ATOM     26  N   UNL A   1      30.769  29.718  23.997  1.00  0.00    -0.308 N 
ATOM     27  N   UNL A   1      30.512  28.805  22.007  1.00  0.00    -0.212 NA
ATOM     28  C   UNL A   1      29.662  30.326  23.528  1.00  0.00     0.070 A 
ATOM     29  C   UNL A   1      29.482  29.704  22.285  1.00  0.00     0.091 A 
ATOM     30  C   UNL A   1      28.828  31.333  24.018  1.00  0.00     0.028 A 
ATOM     31  C   UNL A   1      28.384  30.085  21.497  1.00  0.00     0.031 A 
ATOM     32  C   UNL A   1      27.759  31.715  23.199  1.00  0.00     0.002 A 
ATOM     33  C   UNL A   1      27.534  31.098  21.965  1.00  0.00     0.002 A 
ENDBRANCH  19  22
ENDBRANCH  13  18
ENDBRANCH  10  13
ENDBRANCH   7   9
ENDBRANCH   4   7
ENDBRANCH   2   3
ENDBRANCH   1   2
BRANCH   1  34
ATOM     34  C   UNL A   1      37.970  21.327  25.483  1.00  0.00     0.023 C 
BRANCH  34  35
ATOM     35  C   UNL A   1      39.094  22.196  26.035  1.00  0.00     0.116 C 
BRANCH  35  36
ATOM     36  N   UNL A   1      40.297  21.445  26.347  1.00  0.00    -0.352 N 
ATOM     37  C   UNL A   1      41.523  21.936  26.756  1.00  0.00     0.251 C 
ATOM     38  H   UNL A   1      40.232  20.468  26.257  1.00  0.00     0.163 HD
ATOM     39  O   UNL A   1      42.471  21.201  26.931  1.00  0.00    -0.269 OA
BRANCH  37  40
ATOM     40  C   UNL A   1      41.630  23.396  26.944  1.00  0.00     0.039 A 
ATOM     41  C   UNL A   1      42.325  24.163  26.001  1.00  0.00     0.014 A 
ATOM     42  C   UNL A   1      41.164  23.957  28.131  1.00  0.00     0.014 A 
ATOM     43  C   UNL A   1      42.682  25.468  26.306  1.00  0.00     0.010 A 
ATOM     44  C   UNL A   1      41.483  25.282  28.413  1.00  0.00     0.010 A 
ATOM     45  C   UNL A   1      42.276  26.026  27.520  1.00  0.00    -0.014 A 
BRANCH  45  46
ATOM     46  C   UNL A   1      42.590  27.442  27.761  1.00  0.00     0.031 A 
ATOM     47  C   UNL A   1      41.382  28.301  27.768  1.00  0.00     0.074 A 
ATOM     48  C   UNL A   1      43.611  27.857  28.541  1.00  0.00     0.049 A 
ATOM     49  N   UNL A   1      40.633  28.315  28.826  1.00  0.00    -0.248 NA
ATOM     50  C   UNL A   1      40.785  28.940  26.604  1.00  0.00     0.031 C 
ATOM     51  C   UNL A   1      44.346  26.998  29.481  1.00  0.00     0.029 A 
ATOM     52  N   UNL A   1      44.043  29.132  28.834  1.00  0.00    -0.354 N 
ATOM     53  C   UNL A   1      39.438  28.901  28.480  1.00  0.00     0.074 A 
ATOM     54  C   UNL A   1      39.585  29.301  27.096  1.00  0.00     0.031 C 
ATOM     55  C   UNL A   1      44.986  27.784  30.370  1.00  0.00     0.029 A 
ATOM     56  C   UNL A   1      44.853  29.175  29.960  1.00  0.00     0.049 A 
ATOM     57  H   UNL A   1      43.804  29.925  28.303  1.00  0.00     0.167 HD
ATOM     58  C   UNL A   1      38.420  29.006  29.374  1.00  0.00     0.034 A 
ATOM     59  C   UNL A   1      45.071  30.253  30.754  1.00  0.00     0.034 A 
ATOM     60  C   UNL A   1      38.638  28.522  30.728  1.00  0.00     0.049 A 
ATOM     61  C   UNL A   1      43.787  30.342  31.542  1.00  0.00     0.074 A 
ATOM     62  C   UNL A   1      37.880  28.054  31.785  1.00  0.00     0.029 A 
ATOM     63  N   UNL A   1      39.925  28.509  31.200  1.00  0.00    -0.354 N 
ATOM     64  N   UNL A   1      43.470  29.598  32.575  1.00  0.00    -0.248 NA
ATOM     65  C   UNL A   1      42.672  31.139  31.005  1.00  0.00     0.031 C 
ATOM     66  C   UNL A   1      38.737  27.975  32.936  1.00  0.00     0.029 A 
ATOM     67  C   UNL A   1      39.986  28.443  32.566  1.00  0.00     0.049 A 
ATOM     68  H   UNL A   1      40.719  28.545  30.620  1.00  0.00     0.167 HD
ATOM     69  C   UNL A   1      42.081  29.644  32.632  1.00  0.00     0.074 A 
ATOM     70  C   UNL A   1      41.659  30.703  31.740  1.00  0.00     0.031 C 
ATOM     71  C   UNL A   1      41.281  28.673  33.164  1.00  0.00     0.034 A 
BRANCH  58  72
ATOM     72  C   UNL A   1      37.220  29.823  29.076  1.00  0.00     0.023 A 
ATOM     73  C   UNL A   1      36.950  31.071  29.655  1.00  0.00     0.031 A 
ATOM     74  C   UNL A   1      36.354  29.337  28.077  1.00  0.00     0.131 A 
ATOM     75  C   UNL A   1      35.838  31.801  29.204  1.00  0.00     0.055 A 
ATOM     76  C   UNL A   1      35.260  30.070  27.629  1.00  0.00     0.041 A 
ATOM     77  F   UNL A   1      36.574  28.136  27.517  1.00  0.00    -0.206 F 
ATOM     78  C   UNL A   1      35.001  31.313  28.190  1.00  0.00     0.022 A 
BRANCH  75  79
ATOM     79  S   UNL A   1      35.423  33.427  29.897  1.00  0.00     0.124 S 
ATOM     80  O   UNL A   1      36.681  33.825  30.523  1.00  0.00    -0.237 OA
ATOM     81  O   UNL A   1      35.051  34.181  28.703  1.00  0.00    -0.237 OA
ATOM     82  O   UNL A   1      34.327  33.143  30.818  1.00  0.00    -0.744 OA
ENDBRANCH  75  79
ENDBRANCH  58  72
BRANCH  59  83
ATOM     83  C   UNL A   1      45.728  31.403  30.053  1.00  0.00     0.023 A 
ATOM     84  C   UNL A   1      46.020  31.462  28.685  1.00  0.00     0.031 A 
ATOM     85  C   UNL A   1      46.116  32.522  30.829  1.00  0.00     0.131 A 
ATOM     86  C   UNL A   1      46.822  32.498  28.176  1.00  0.00     0.055 A 
ATOM     87  C   UNL A   1      46.859  33.585  30.308  1.00  0.00     0.041 A 
ATOM     88  F   UNL A   1      45.783  32.595  32.130  1.00  0.00    -0.206 F 
ATOM     89  C   UNL A   1      47.244  33.561  28.976  1.00  0.00     0.022 A 
BRANCH  86  90
ATOM     90  S   UNL A   1      47.398  32.444  26.456  1.00  0.00     0.124 S 
ATOM     91  O   UNL A   1      48.824  32.172  26.609  1.00  0.00    -0.237 OA
ATOM     92  O   UNL A   1      46.597  31.347  25.923  1.00  0.00    -0.237 OA
ATOM     93  O   UNL A   1      47.065  33.772  25.951  1.00  0.00    -0.744 OA
ENDBRANCH  86  90
ENDBRANCH  59  83
BRANCH  71  94
ATOM     94  C   UNL A   1      41.820  27.797  34.238  1.00  0.00     0.023 A 
ATOM     95  C   UNL A   1      42.523  26.617  33.939  1.00  0.00     0.031 A 
ATOM     96  C   UNL A   1      41.519  28.070  35.585  1.00  0.00     0.131 A 
ATOM     97  C   UNL A   1      42.892  25.748  34.974  1.00  0.00     0.055 A 
ATOM     98  C   UNL A   1      41.912  27.215  36.614  1.00  0.00     0.041 A 
ATOM     99  F   UNL A   1      40.781  29.141  35.922  1.00  0.00    -0.206 F 
ATOM    100  C   UNL A   1      42.600  26.046  36.310  1.00  0.00     0.022 A 
BRANCH  97 101
ATOM    101  S   UNL A   1      43.746  24.188  34.624  1.00  0.00     0.124 S 
ATOM    102  O   UNL A   1      42.640  23.245  34.474  1.00  0.00    -0.237 OA
ATOM    103  O   UNL A   1      44.460  24.507  33.390  1.00  0.00    -0.237 OA
ATOM    104  O   UNL A   1      44.583  23.972  35.800  1.00  0.00    -0.744 OA
ENDBRANCH  97 101
ENDBRANCH  71  94
ENDBRANCH  45  46
ENDBRANCH  37  40
ENDBRANCH  35  36
ENDBRANCH  34  35
ENDBRANCH   1  34
TORSDOF 20
ENDMDL
MODEL 3
REMARK VINA RESULT:     -11.5      2.441      3.174
REMARK SMILES CC[C@@H](C)[C@H](NC(=O)N1CCn2c1nc1ccccc12)C(=O)N[C@H](C)C(=O)NCCCCNC(=O)c1ccc(-c2c3nc(c(-c4cc(S(=O)(=O)[O-])ccc4F)c4ccc([nH]4)c(-c4cc(S(=O)(=O)[O-])ccc4F)c4nc(c(-c5cc(S(=O)(=O)[O-])ccc5F)c5ccc2[nH]5)C=C4)C=C3)cc1
REMARK SMILES IDX 30 1 29 2 28 3 26 4 27 5 24 7 25 8 23 9 21 10 22 11 5 13
REMARK SMILES IDX 3 14 4 15 2 16 1 17 6 18 7 19 8 21 9 22 10 23 13 24 11 25
REMARK SMILES IDX 12 26 14 27 20 28 15 29 19 30 16 31 18 32 17 33 31 34 32 35
REMARK SMILES IDX 33 36 34 37 35 39 36 40 37 41 98 42 38 43 97 44 39 45 40 46
REMARK SMILES IDX 41 47 91 48 42 49 96 50 90 51 92 52 43 53 95 54 89 55 88 56
REMARK SMILES IDX 44 58 76 59 56 60 75 61 57 62 60 63 74 64 93 65 58 66 59 67
REMARK SMILES IDX 73 69 94 70 61 71 45 72 46 73 54 74 47 75 53 76 55 77 52 78
REMARK SMILES IDX 48 79 49 80 50 81 51 82 77 83 78 84 86 85 79 86 85 87 87 88
REMARK SMILES IDX 84 89 80 90 81 91 82 92 83 93 62 94 63 95 71 96 64 97 70 98
REMARK SMILES IDX 72 99 69 100 65 101 66 102 67 103 68 104
REMARK H PARENT 28 6 23 12 6 20 33 38 92 57 60 68
REMARK Flexibility Score: inf
ROOT
ATOM      1  C   UNL A   1      37.656  22.591  24.782  1.00  0.00     0.023 C 
ENDROOT
BRANCH   1   2
ATOM      2  C   UNL A   1      36.641  21.634  24.157  1.00  0.00     0.116 C 
BRANCH   2   3
ATOM      3  N   UNL A   1      36.840  20.242  24.555  1.00  0.00    -0.354 N 
ATOM      4  C   UNL A   1      35.917  19.262  24.821  1.00  0.00     0.242 C 
ATOM      5  O   UNL A   1      36.309  18.147  25.165  1.00  0.00    -0.273 OA
ATOM      6  H   UNL A   1      37.780  19.964  24.645  1.00  0.00     0.163 HD
BRANCH   4   7
ATOM      7  C   UNL A   1      34.412  19.596  24.718  1.00  0.00     0.168 C 
ATOM      8  C   UNL A   1      33.717  18.292  24.327  1.00  0.00     0.041 C 
BRANCH   7   9
ATOM      9  N   UNL A   1      34.068  20.247  26.001  1.00  0.00    -0.343 N 
ATOM     10  C   UNL A   1      33.326  21.295  26.437  1.00  0.00     0.243 C 
ATOM     11  O   UNL A   1      33.472  21.589  27.630  1.00  0.00    -0.273 OA
ATOM     12  H   UNL A   1      34.504  19.788  26.755  1.00  0.00     0.164 HD
BRANCH  10  13
ATOM     13  C   UNL A   1      32.342  22.098  25.555  1.00  0.00     0.176 C 
BRANCH  13  14
ATOM     14  C   UNL A   1      33.117  23.239  24.826  1.00  0.00     0.018 C 
ATOM     15  C   UNL A   1      33.600  22.923  23.411  1.00  0.00     0.010 C 
BRANCH  14  16
ATOM     16  C   UNL A   1      34.218  23.831  25.742  1.00  0.00     0.002 C 
ATOM     17  C   UNL A   1      34.599  25.276  25.463  1.00  0.00     0.004 C 
ENDBRANCH  14  16
ENDBRANCH  13  14
BRANCH  13  18
ATOM     18  N   UNL A   1      31.182  22.426  26.387  1.00  0.00    -0.326 N 
ATOM     19  C   UNL A   1      30.362  23.495  26.471  1.00  0.00     0.324 C 
ATOM     20  H   UNL A   1      30.949  21.711  27.022  1.00  0.00     0.166 HD
ATOM     21  O   UNL A   1      29.559  23.499  27.411  1.00  0.00    -0.248 OA
BRANCH  19  22
ATOM     22  N   UNL A   1      30.536  24.599  25.709  1.00  0.00    -0.262 N 
ATOM     23  C   UNL A   1      30.304  24.575  24.256  1.00  0.00     0.152 C 
ATOM     24  C   UNL A   1      31.027  25.825  26.069  1.00  0.00     0.214 A 
ATOM     25  C   UNL A   1      30.354  26.051  23.827  1.00  0.00     0.148 C 
ATOM     26  N   UNL A   1      30.926  26.674  25.004  1.00  0.00    -0.308 N 
ATOM     27  N   UNL A   1      31.575  26.415  27.096  1.00  0.00    -0.212 NA
ATOM     28  C   UNL A   1      31.258  27.927  25.374  1.00  0.00     0.070 A 
ATOM     29  C   UNL A   1      31.712  27.742  26.687  1.00  0.00     0.091 A 
ATOM     30  C   UNL A   1      31.199  29.171  24.743  1.00  0.00     0.028 A 
ATOM     31  C   UNL A   1      32.167  28.860  27.403  1.00  0.00     0.031 A 
ATOM     32  C   UNL A   1      31.630  30.273  25.491  1.00  0.00     0.002 A 
ATOM     33  C   UNL A   1      32.114  30.122  26.793  1.00  0.00     0.002 A 
ENDBRANCH  19  22
ENDBRANCH  13  18
ENDBRANCH  10  13
ENDBRANCH   7   9
ENDBRANCH   4   7
ENDBRANCH   2   3
ENDBRANCH   1   2
BRANCH   1  34
ATOM     34  C   UNL A   1      38.096  22.212  26.194  1.00  0.00     0.023 C 
BRANCH  34  35
ATOM     35  C   UNL A   1      39.511  22.662  26.538  1.00  0.00     0.116 C 
BRANCH  35  36
ATOM     36  N   UNL A   1      40.485  21.587  26.471  1.00  0.00    -0.352 N 
ATOM     37  C   UNL A   1      41.863  21.687  26.483  1.00  0.00     0.251 C 
ATOM     38  H   UNL A   1      40.119  20.675  26.410  1.00  0.00     0.163 HD
ATOM     39  O   UNL A   1      42.569  20.709  26.363  1.00  0.00    -0.269 OA
BRANCH  37  40
ATOM     40  C   UNL A   1      42.434  23.041  26.623  1.00  0.00     0.039 A 
ATOM     41  C   UNL A   1      42.402  23.677  27.870  1.00  0.00     0.014 A 
ATOM     42  C   UNL A   1      42.859  23.712  25.479  1.00  0.00     0.014 A 
ATOM     43  C   UNL A   1      42.661  25.038  27.953  1.00  0.00     0.010 A 
ATOM     44  C   UNL A   1      43.166  25.066  25.575  1.00  0.00     0.010 A 
ATOM     45  C   UNL A   1      43.028  25.739  26.803  1.00  0.00    -0.014 A 
BRANCH  45  46
ATOM     46  C   UNL A   1      43.391  27.156  26.954  1.00  0.00     0.031 A 
ATOM     47  C   UNL A   1      42.207  28.039  27.069  1.00  0.00     0.074 A 
ATOM     48  C   UNL A   1      44.503  27.576  27.596  1.00  0.00     0.049 A 
ATOM     49  N   UNL A   1      41.586  28.106  28.204  1.00  0.00    -0.248 NA
ATOM     50  C   UNL A   1      41.489  28.650  25.959  1.00  0.00     0.031 C 
ATOM     51  C   UNL A   1      45.327  26.736  28.475  1.00  0.00     0.029 A 
ATOM     52  N   UNL A   1      44.988  28.851  27.789  1.00  0.00    -0.354 N 
ATOM     53  C   UNL A   1      40.369  28.704  27.978  1.00  0.00     0.074 A 
ATOM     54  C   UNL A   1      40.361  29.053  26.572  1.00  0.00     0.031 C 
ATOM     55  C   UNL A   1      46.080  27.539  29.255  1.00  0.00     0.029 A 
ATOM     56  C   UNL A   1      45.923  28.916  28.812  1.00  0.00     0.049 A 
ATOM     57  H   UNL A   1      44.701  29.630  27.260  1.00  0.00     0.167 HD
ATOM     58  C   UNL A   1      39.463  28.861  28.978  1.00  0.00     0.034 A 
ATOM     59  C   UNL A   1      46.249  30.017  29.535  1.00  0.00     0.034 A 
ATOM     60  C   UNL A   1      39.829  28.420  30.315  1.00  0.00     0.049 A 
ATOM     61  C   UNL A   1      45.067  30.160  30.462  1.00  0.00     0.074 A 
ATOM     62  C   UNL A   1      39.191  28.006  31.469  1.00  0.00     0.029 A 
ATOM     63  N   UNL A   1      41.161  28.397  30.636  1.00  0.00    -0.354 N 
ATOM     64  N   UNL A   1      44.860  29.459  31.552  1.00  0.00    -0.248 NA
ATOM     65  C   UNL A   1      43.911  30.961  30.028  1.00  0.00     0.031 C 
ATOM     66  C   UNL A   1      40.174  27.949  32.515  1.00  0.00     0.029 A 
ATOM     67  C   UNL A   1      41.379  28.377  31.987  1.00  0.00     0.049 A 
ATOM     68  H   UNL A   1      41.884  28.396  29.967  1.00  0.00     0.167 HD
ATOM     69  C   UNL A   1      43.488  29.536  31.767  1.00  0.00     0.074 A 
ATOM     70  C   UNL A   1      42.983  30.572  30.891  1.00  0.00     0.031 C 
ATOM     71  C   UNL A   1      42.739  28.602  32.423  1.00  0.00     0.034 A 
BRANCH  58  72
ATOM     72  C   UNL A   1      38.250  29.693  28.791  1.00  0.00     0.023 A 
ATOM     73  C   UNL A   1      38.153  31.042  29.158  1.00  0.00     0.031 A 
ATOM     74  C   UNL A   1      37.168  29.093  28.118  1.00  0.00     0.131 A 
ATOM     75  C   UNL A   1      36.989  31.754  28.821  1.00  0.00     0.055 A 
ATOM     76  C   UNL A   1      36.023  29.806  27.780  1.00  0.00     0.041 A 
ATOM     77  F   UNL A   1      37.223  27.796  27.770  1.00  0.00    -0.206 F 
ATOM     78  C   UNL A   1      35.932  31.146  28.128  1.00  0.00     0.022 A 
BRANCH  75  79
ATOM     79  S   UNL A   1      36.787  33.505  29.254  1.00  0.00     0.124 S 
ATOM     80  O   UNL A   1      38.144  34.020  29.094  1.00  0.00    -0.237 OA
ATOM     81  O   UNL A   1      35.824  33.957  28.252  1.00  0.00    -0.237 OA
ATOM     82  O   UNL A   1      36.286  33.470  30.624  1.00  0.00    -0.744 OA
ENDBRANCH  75  79
ENDBRANCH  58  72
BRANCH  59  83
ATOM     83  C   UNL A   1      46.840  31.128  28.721  1.00  0.00     0.023 A 
ATOM     84  C   UNL A   1      46.115  32.045  27.951  1.00  0.00     0.031 A 
ATOM     85  C   UNL A   1      48.250  31.258  28.696  1.00  0.00     0.131 A 
ATOM     86  C   UNL A   1      46.783  32.911  27.067  1.00  0.00     0.055 A 
ATOM     87  C   UNL A   1      48.912  32.165  27.864  1.00  0.00     0.041 A 
ATOM     88  F   UNL A   1      49.018  30.486  29.485  1.00  0.00    -0.206 F 
ATOM     89  C   UNL A   1      48.176  32.979  27.017  1.00  0.00     0.022 A 
BRANCH  86  90
ATOM     90  S   UNL A   1      45.837  33.929  25.899  1.00  0.00     0.124 S 
ATOM     91  O   UNL A   1      45.005  32.940  25.221  1.00  0.00    -0.237 OA
ATOM     92  O   UNL A   1      45.137  34.828  26.810  1.00  0.00    -0.237 OA
ATOM     93  O   UNL A   1      46.874  34.544  25.077  1.00  0.00    -0.744 OA
ENDBRANCH  86  90
ENDBRANCH  59  83
BRANCH  71  94
ATOM     94  C   UNL A   1      43.384  27.752  33.459  1.00  0.00     0.023 A 
ATOM     95  C   UNL A   1      43.511  28.187  34.790  1.00  0.00     0.031 A 
ATOM     96  C   UNL A   1      44.002  26.543  33.092  1.00  0.00     0.131 A 
ATOM     97  C   UNL A   1      44.247  27.421  35.704  1.00  0.00     0.055 A 
ATOM     98  C   UNL A   1      44.711  25.771  34.012  1.00  0.00     0.041 A 
ATOM     99  F   UNL A   1      43.982  26.119  31.818  1.00  0.00    -0.206 F 
ATOM    100  C   UNL A   1      44.838  26.211  35.324  1.00  0.00     0.022 A 
BRANCH  97 101
ATOM    101  S   UNL A   1      44.483  27.978  37.412  1.00  0.00     0.124 S 
ATOM    102  O   UNL A   1      45.939  28.012  37.539  1.00  0.00    -0.237 OA
ATOM    103  O   UNL A   1      43.831  29.285  37.395  1.00  0.00    -0.237 OA
ATOM    104  O   UNL A   1      43.821  26.952  38.213  1.00  0.00    -0.744 OA
ENDBRANCH  97 101
ENDBRANCH  71  94
ENDBRANCH  45  46
ENDBRANCH  37  40
ENDBRANCH  35  36
ENDBRANCH  34  35
ENDBRANCH   1  34
TORSDOF 20
ENDMDL
