MODEL 1
REMARK VINA RESULT:     -12.8      0.000      0.000
REMARK SMILES O=C(NCCCCNC(=O)c1cc(-c2ccc(C(F)(F)F)cc2)cc([N+](=O)[O-])c1)c1ccc(-c2c3nc(c(-c4cc(S(=O)(=O)[O-])ccc4F)c4ccc([nH]4)c(-c4cc(S(=O)(=O)[O-])ccc4F)c4nc(c(-c5cc(S(=O)(=O)[O-])ccc5F)c5ccc2[nH]5)C=C4)C=C3)cc1
REMARK SMILES IDX 5 1 4 2 3 3 1 4 2 5 30 7 31 8 92 9 32 10 91 11 33 12 34 13
REMARK SMILES IDX 35 14 85 15 36 16 90 17 84 18 86 19 37 20 89 21 83 22 82 23
REMARK SMILES IDX 38 25 70 26 50 27 69 28 51 29 54 30 68 31 87 32 52 33 53 34
REMARK SMILES IDX 67 36 88 37 55 38 39 39 40 40 48 41 41 42 47 43 49 44 46 45
REMARK SMILES IDX 42 46 43 47 44 48 45 49 71 50 72 51 80 52 73 53 79 54 81 55
REMARK SMILES IDX 78 56 74 57 75 58 76 59 77 60 56 61 57 62 65 63 58 64 64 65
REMARK SMILES IDX 66 66 63 67 59 68 60 69 61 70 62 71 6 72 7 73 8 74 9 75
REMARK SMILES IDX 10 77 11 78 12 79 29 80 13 81 25 82 24 83 14 84 15 85 23 86
REMARK SMILES IDX 16 87 22 88 17 89 18 90 19 91 20 92 21 93 26 94 27 95 28 96
REMARK H PARENT 3 6 86 24 54 35 8 76
REMARK Flexibility Score: inf
ROOT
ATOM      1  C   UNL A   1      33.139  27.729  26.095  1.00  0.00     0.023 C 
ENDROOT
BRANCH   1   2
ATOM      2  C   UNL A   1      33.662  28.969  25.383  1.00  0.00     0.116 C 
BRANCH   2   3
ATOM      3  N   UNL A   1      33.035  30.193  25.854  1.00  0.00    -0.352 N 
ATOM      4  O   UNL A   1      32.653  31.909  27.267  1.00  0.00    -0.269 OA
ATOM      5  C   UNL A   1      33.394  30.994  26.911  1.00  0.00     0.251 C 
ATOM      6  H   UNL A   1      32.245  30.490  25.346  1.00  0.00     0.163 HD
BRANCH   5   7
ATOM      7  C   UNL A   1      34.660  30.737  27.628  1.00  0.00     0.039 A 
ATOM      8  C   UNL A   1      34.841  29.549  28.345  1.00  0.00     0.014 A 
ATOM      9  C   UNL A   1      35.678  31.692  27.580  1.00  0.00     0.014 A 
ATOM     10  C   UNL A   1      35.987  29.370  29.109  1.00  0.00     0.010 A 
ATOM     11  C   UNL A   1      36.865  31.474  28.287  1.00  0.00     0.010 A 
ATOM     12  C   UNL A   1      37.021  30.320  29.070  1.00  0.00    -0.014 A 
BRANCH  12  13
ATOM     13  C   UNL A   1      38.296  30.042  29.777  1.00  0.00     0.031 A 
ATOM     14  C   UNL A   1      39.312  29.094  29.204  1.00  0.00     0.074 A 
ATOM     15  C   UNL A   1      38.518  30.653  30.957  1.00  0.00     0.049 A 
ATOM     16  N   UNL A   1      40.453  28.708  29.713  1.00  0.00    -0.248 NA
ATOM     17  C   UNL A   1      39.006  28.498  27.896  1.00  0.00     0.031 C 
ATOM     18  C   UNL A   1      37.592  31.587  31.605  1.00  0.00     0.029 A 
ATOM     19  N   UNL A   1      39.579  30.588  31.823  1.00  0.00    -0.354 N 
ATOM     20  C   UNL A   1      40.993  27.806  28.803  1.00  0.00     0.074 A 
ATOM     21  C   UNL A   1      40.044  27.690  27.715  1.00  0.00     0.031 C 
ATOM     22  C   UNL A   1      38.132  32.019  32.753  1.00  0.00     0.029 A 
ATOM     23  C   UNL A   1      39.405  31.340  32.962  1.00  0.00     0.049 A 
ATOM     24  H   UNL A   1      40.386  30.052  31.648  1.00  0.00     0.167 HD
ATOM     25  C   UNL A   1      42.172  27.139  28.876  1.00  0.00     0.034 A 
ATOM     26  C   UNL A   1      40.161  31.442  34.071  1.00  0.00     0.034 A 
ATOM     27  C   UNL A   1      43.109  27.283  29.966  1.00  0.00     0.049 A 
ATOM     28  C   UNL A   1      41.439  30.652  34.144  1.00  0.00     0.074 A 
ATOM     29  C   UNL A   1      44.369  26.724  30.098  1.00  0.00     0.029 A 
ATOM     30  N   UNL A   1      42.881  28.021  31.121  1.00  0.00    -0.354 N 
ATOM     31  N   UNL A   1      41.961  29.846  33.248  1.00  0.00    -0.248 NA
ATOM     32  C   UNL A   1      42.227  30.780  35.374  1.00  0.00     0.031 C 
ATOM     33  C   UNL A   1      44.868  27.060  31.361  1.00  0.00     0.029 A 
ATOM     34  C   UNL A   1      43.953  27.888  31.990  1.00  0.00     0.049 A 
ATOM     35  H   UNL A   1      42.075  28.559  31.297  1.00  0.00     0.167 HD
ATOM     36  C   UNL A   1      43.146  29.380  33.805  1.00  0.00     0.074 A 
ATOM     37  C   UNL A   1      43.273  30.014  35.102  1.00  0.00     0.031 C 
ATOM     38  C   UNL A   1      44.049  28.506  33.292  1.00  0.00     0.034 A 
BRANCH  25  39
ATOM     39  C   UNL A   1      42.500  26.157  27.778  1.00  0.00     0.023 A 
ATOM     40  C   UNL A   1      41.972  24.856  27.756  1.00  0.00     0.031 A 
ATOM     41  C   UNL A   1      43.343  26.544  26.720  1.00  0.00     0.131 A 
ATOM     42  C   UNL A   1      42.329  23.973  26.724  1.00  0.00     0.055 A 
ATOM     43  C   UNL A   1      43.643  25.683  25.663  1.00  0.00     0.041 A 
ATOM     44  F   UNL A   1      43.890  27.770  26.698  1.00  0.00    -0.206 F 
ATOM     45  C   UNL A   1      43.143  24.385  25.665  1.00  0.00     0.022 A 
BRANCH  42  46
ATOM     46  S   UNL A   1      41.797  22.242  26.835  1.00  0.00     0.124 S 
ATOM     47  O   UNL A   1      42.453  21.808  28.066  1.00  0.00    -0.237 OA
ATOM     48  O   UNL A   1      40.345  22.362  26.893  1.00  0.00    -0.237 OA
ATOM     49  O   UNL A   1      42.326  21.641  25.611  1.00  0.00    -0.744 OA
ENDBRANCH  42  46
ENDBRANCH  25  39
BRANCH  26  50
ATOM     50  C   UNL A   1      39.699  32.268  35.221  1.00  0.00     0.023 A 
ATOM     51  C   UNL A   1      38.957  31.705  36.270  1.00  0.00     0.031 A 
ATOM     52  C   UNL A   1      39.968  33.648  35.269  1.00  0.00     0.131 A 
ATOM     53  C   UNL A   1      38.474  32.525  37.301  1.00  0.00     0.055 A 
ATOM     54  C   UNL A   1      39.534  34.449  36.326  1.00  0.00     0.041 A 
ATOM     55  F   UNL A   1      40.676  34.237  34.292  1.00  0.00    -0.206 F 
ATOM     56  C   UNL A   1      38.770  33.890  37.344  1.00  0.00     0.022 A 
BRANCH  53  57
ATOM     57  S   UNL A   1      37.370  31.798  38.542  1.00  0.00     0.124 S 
ATOM     58  O   UNL A   1      36.211  32.681  38.465  1.00  0.00    -0.237 OA
ATOM     59  O   UNL A   1      37.182  30.447  38.023  1.00  0.00    -0.237 OA
ATOM     60  O   UNL A   1      38.142  31.888  39.779  1.00  0.00    -0.744 OA
ENDBRANCH  53  57
ENDBRANCH  26  50
BRANCH  38  61
ATOM     61  C   UNL A   1      45.259  28.211  34.139  1.00  0.00     0.023 A 
ATOM     62  C   UNL A   1      45.294  27.104  35.004  1.00  0.00     0.031 A 
ATOM     63  C   UNL A   1      46.383  29.054  34.091  1.00  0.00     0.131 A 
ATOM     64  C   UNL A   1      46.412  26.896  35.824  1.00  0.00     0.055 A 
ATOM     65  C   UNL A   1      47.515  28.811  34.868  1.00  0.00     0.041 A 
ATOM     66  F   UNL A   1      46.397  30.127  33.283  1.00  0.00    -0.206 F 
ATOM     67  C   UNL A   1      47.530  27.733  35.749  1.00  0.00     0.022 A 
BRANCH  64  68
ATOM     68  S   UNL A   1      46.363  25.555  37.044  1.00  0.00     0.124 S 
ATOM     69  O   UNL A   1      47.771  25.183  37.141  1.00  0.00    -0.237 OA
ATOM     70  O   UNL A   1      45.798  26.217  38.216  1.00  0.00    -0.237 OA
ATOM     71  O   UNL A   1      45.498  24.556  36.422  1.00  0.00    -0.744 OA
ENDBRANCH  64  68
ENDBRANCH  38  61
ENDBRANCH  12  13
ENDBRANCH   5   7
ENDBRANCH   2   3
ENDBRANCH   1   2
BRANCH   1  72
ATOM     72  C   UNL A   1      31.688  27.811  26.561  1.00  0.00     0.023 C 
BRANCH  72  73
ATOM     73  C   UNL A   1      30.730  26.828  25.894  1.00  0.00     0.116 C 
BRANCH  73  74
ATOM     74  N   UNL A   1      30.470  25.655  26.710  1.00  0.00    -0.352 N 
ATOM     75  C   UNL A   1      30.642  24.329  26.419  1.00  0.00     0.251 C 
ATOM     76  H   UNL A   1      30.118  25.842  27.610  1.00  0.00     0.163 HD
ATOM     77  O   UNL A   1      30.236  23.465  27.195  1.00  0.00    -0.269 OA
BRANCH  75  78
ATOM     78  C   UNL A   1      31.300  23.911  25.166  1.00  0.00     0.047 A 
ATOM     79  C   UNL A   1      31.622  22.557  25.009  1.00  0.00     0.023 A 
ATOM     80  C   UNL A   1      31.680  24.841  24.197  1.00  0.00     0.099 A 
ATOM     81  C   UNL A   1      32.297  22.101  23.865  1.00  0.00    -0.011 A 
ATOM     82  C   UNL A   1      32.296  24.388  23.028  1.00  0.00     0.270 A 
ATOM     83  C   UNL A   1      32.598  23.029  22.855  1.00  0.00     0.094 A 
BRANCH  81  84
ATOM     84  C   UNL A   1      32.770  20.713  23.787  1.00  0.00    -0.018 A 
ATOM     85  C   UNL A   1      32.128  19.750  22.995  1.00  0.00     0.009 A 
ATOM     86  C   UNL A   1      33.852  20.303  24.583  1.00  0.00     0.009 A 
ATOM     87  C   UNL A   1      32.540  18.412  23.022  1.00  0.00     0.014 A 
ATOM     88  C   UNL A   1      34.263  18.970  24.614  1.00  0.00     0.014 A 
ATOM     89  C   UNL A   1      33.603  18.006  23.843  1.00  0.00     0.056 A 
BRANCH  89  90
ATOM     90  C   UNL A   1      34.006  16.554  23.909  1.00  0.00     0.416 C 
ATOM     91  F   UNL A   1      34.963  16.319  24.848  1.00  0.00    -0.166 F 
ATOM     92  F   UNL A   1      32.963  15.736  24.224  1.00  0.00    -0.166 F 
ATOM     93  F   UNL A   1      34.510  16.075  22.737  1.00  0.00    -0.166 F 
ENDBRANCH  89  90
ENDBRANCH  81  84
BRANCH  82  94
ATOM     94  N   UNL A   1      32.646  25.351  21.977  1.00  0.00     0.062 N 
ATOM     95  O   UNL A   1      31.719  25.936  21.401  1.00  0.00    -0.258 OA
ATOM     96  O   UNL A   1      33.848  25.526  21.736  1.00  0.00    -0.258 OA
ENDBRANCH  82  94
ENDBRANCH  75  78
ENDBRANCH  73  74
ENDBRANCH  72  73
ENDBRANCH   1  72
TORSDOF 17
ENDMDL
MODEL 2
REMARK VINA RESULT:     -12.7      2.335      7.730
REMARK SMILES O=C(NCCCCNC(=O)c1cc(-c2ccc(C(F)(F)F)cc2)cc([N+](=O)[O-])c1)c1ccc(-c2c3nc(c(-c4cc(S(=O)(=O)[O-])ccc4F)c4ccc([nH]4)c(-c4cc(S(=O)(=O)[O-])ccc4F)c4nc(c(-c5cc(S(=O)(=O)[O-])ccc5F)c5ccc2[nH]5)C=C4)C=C3)cc1
REMARK SMILES IDX 5 1 4 2 3 3 1 4 2 5 30 7 31 8 92 9 32 10 91 11 33 12 34 13
REMARK SMILES IDX 35 14 85 15 36 16 90 17 84 18 86 19 37 20 89 21 83 22 82 23
REMARK SMILES IDX 38 25 70 26 50 27 69 28 51 29 54 30 68 31 87 32 52 33 53 34
REMARK SMILES IDX 67 36 88 37 55 38 39 39 40 40 48 41 41 42 47 43 49 44 46 45
REMARK SMILES IDX 42 46 43 47 44 48 45 49 71 50 72 51 80 52 73 53 79 54 81 55
REMARK SMILES IDX 78 56 74 57 75 58 76 59 77 60 56 61 57 62 65 63 58 64 64 65
REMARK SMILES IDX 66 66 63 67 59 68 60 69 61 70 62 71 6 72 7 73 8 74 9 75
REMARK SMILES IDX 10 77 11 78 12 79 29 80 13 81 25 82 24 83 14 84 15 85 23 86
REMARK SMILES IDX 16 87 22 88 17 89 18 90 19 91 20 92 21 93 26 94 27 95 28 96
REMARK H PARENT 3 6 86 24 54 35 8 76
REMARK Flexibility Score: inf
ROOT
ATOM      1  C   UNL A   1      33.279  27.965  26.808  1.00  0.00     0.023 C 
ENDROOT
BRANCH   1   2
ATOM      2  C   UNL A   1      34.074  29.055  26.103  1.00  0.00     0.116 C 
BRANCH   2   3
ATOM      3  N   UNL A   1      33.798  30.382  26.631  1.00  0.00    -0.352 N 
ATOM      4  O   UNL A   1      33.989  32.122  28.051  1.00  0.00    -0.269 OA
ATOM      5  C   UNL A   1      34.458  31.072  27.618  1.00  0.00     0.251 C 
ATOM      6  H   UNL A   1      33.032  30.850  26.225  1.00  0.00     0.163 HD
BRANCH   5   7
ATOM      7  C   UNL A   1      35.720  30.534  28.169  1.00  0.00     0.039 A 
ATOM      8  C   UNL A   1      36.940  30.804  27.541  1.00  0.00     0.014 A 
ATOM      9  C   UNL A   1      35.681  29.755  29.327  1.00  0.00     0.014 A 
ATOM     10  C   UNL A   1      38.103  30.198  28.000  1.00  0.00     0.010 A 
ATOM     11  C   UNL A   1      36.865  29.210  29.835  1.00  0.00     0.010 A 
ATOM     12  C   UNL A   1      38.081  29.414  29.165  1.00  0.00    -0.014 A 
BRANCH  12  13
ATOM     13  C   UNL A   1      39.358  28.896  29.721  1.00  0.00     0.031 A 
ATOM     14  C   UNL A   1      40.037  29.581  30.873  1.00  0.00     0.074 A 
ATOM     15  C   UNL A   1      39.900  27.800  29.157  1.00  0.00     0.049 A 
ATOM     16  N   UNL A   1      41.174  29.285  31.448  1.00  0.00    -0.248 NA
ATOM     17  C   UNL A   1      39.358  30.749  31.451  1.00  0.00     0.031 C 
ATOM     18  C   UNL A   1      39.323  27.064  28.028  1.00  0.00     0.029 A 
ATOM     19  N   UNL A   1      41.050  27.111  29.446  1.00  0.00    -0.354 N 
ATOM     20  C   UNL A   1      41.363  30.242  32.440  1.00  0.00     0.074 A 
ATOM     21  C   UNL A   1      40.227  31.139  32.376  1.00  0.00     0.031 C 
ATOM     22  C   UNL A   1      40.111  26.020  27.733  1.00  0.00     0.029 A 
ATOM     23  C   UNL A   1      41.283  26.052  28.598  1.00  0.00     0.049 A 
ATOM     24  H   UNL A   1      41.652  27.352  30.187  1.00  0.00     0.167 HD
ATOM     25  C   UNL A   1      42.391  30.355  33.316  1.00  0.00     0.034 A 
ATOM     26  C   UNL A   1      42.341  25.225  28.497  1.00  0.00     0.034 A 
ATOM     27  C   UNL A   1      43.506  29.438  33.368  1.00  0.00     0.049 A 
ATOM     28  C   UNL A   1      43.489  25.407  29.451  1.00  0.00     0.074 A 
ATOM     29  C   UNL A   1      44.556  29.409  34.271  1.00  0.00     0.029 A 
ATOM     30  N   UNL A   1      43.730  28.404  32.469  1.00  0.00    -0.354 N 
ATOM     31  N   UNL A   1      43.624  26.284  30.420  1.00  0.00    -0.248 NA
ATOM     32  C   UNL A   1      44.627  24.494  29.300  1.00  0.00     0.031 C 
ATOM     33  C   UNL A   1      45.450  28.409  33.872  1.00  0.00     0.029 A 
ATOM     34  C   UNL A   1      44.925  27.765  32.764  1.00  0.00     0.049 A 
ATOM     35  H   UNL A   1      43.128  28.160  31.728  1.00  0.00     0.167 HD
ATOM     36  C   UNL A   1      44.859  26.019  30.999  1.00  0.00     0.074 A 
ATOM     37  C   UNL A   1      45.417  24.886  30.288  1.00  0.00     0.031 C 
ATOM     38  C   UNL A   1      45.478  26.654  32.026  1.00  0.00     0.034 A 
BRANCH  25  39
ATOM     39  C   UNL A   1      42.392  31.534  34.258  1.00  0.00     0.023 A 
ATOM     40  C   UNL A   1      41.597  31.567  35.416  1.00  0.00     0.031 A 
ATOM     41  C   UNL A   1      43.225  32.638  34.000  1.00  0.00     0.131 A 
ATOM     42  C   UNL A   1      41.616  32.699  36.247  1.00  0.00     0.055 A 
ATOM     43  C   UNL A   1      43.288  33.733  34.862  1.00  0.00     0.041 A 
ATOM     44  F   UNL A   1      43.993  32.669  32.899  1.00  0.00    -0.206 F 
ATOM     45  C   UNL A   1      42.473  33.773  35.990  1.00  0.00     0.022 A 
BRANCH  42  46
ATOM     46  S   UNL A   1      40.430  32.796  37.615  1.00  0.00     0.124 S 
ATOM     47  O   UNL A   1      40.049  34.206  37.579  1.00  0.00    -0.237 OA
ATOM     48  O   UNL A   1      39.401  31.846  37.209  1.00  0.00    -0.237 OA
ATOM     49  O   UNL A   1      41.218  32.402  38.782  1.00  0.00    -0.744 OA
ENDBRANCH  42  46
ENDBRANCH  25  39
BRANCH  26  50
ATOM     50  C   UNL A   1      42.391  24.200  27.417  1.00  0.00     0.023 A 
ATOM     51  C   UNL A   1      41.797  22.940  27.582  1.00  0.00     0.031 A 
ATOM     52  C   UNL A   1      43.066  24.460  26.211  1.00  0.00     0.131 A 
ATOM     53  C   UNL A   1      41.926  21.972  26.574  1.00  0.00     0.055 A 
ATOM     54  C   UNL A   1      43.142  23.513  25.188  1.00  0.00     0.041 A 
ATOM     55  F   UNL A   1      43.650  25.650  26.001  1.00  0.00    -0.206 F 
ATOM     56  C   UNL A   1      42.580  22.254  25.373  1.00  0.00     0.022 A 
BRANCH  53  57
ATOM     57  S   UNL A   1      41.302  20.299  26.894  1.00  0.00     0.124 S 
ATOM     58  O   UNL A   1      40.247  20.177  25.894  1.00  0.00    -0.237 OA
ATOM     59  O   UNL A   1      42.493  19.486  26.672  1.00  0.00    -0.237 OA
ATOM     60  O   UNL A   1      40.843  20.367  28.280  1.00  0.00    -0.744 OA
ENDBRANCH  53  57
ENDBRANCH  26  50
BRANCH  38  61
ATOM     61  C   UNL A   1      46.821  26.113  32.444  1.00  0.00     0.023 A 
ATOM     62  C   UNL A   1      48.004  26.520  31.805  1.00  0.00     0.031 A 
ATOM     63  C   UNL A   1      46.914  25.170  33.482  1.00  0.00     0.131 A 
ATOM     64  C   UNL A   1      49.229  25.947  32.178  1.00  0.00     0.055 A 
ATOM     65  C   UNL A   1      48.141  24.645  33.886  1.00  0.00     0.041 A 
ATOM     66  F   UNL A   1      45.811  24.746  34.120  1.00  0.00    -0.206 F 
ATOM     67  C   UNL A   1      49.308  25.025  33.226  1.00  0.00     0.022 A 
BRANCH  64  68
ATOM     68  S   UNL A   1      50.715  26.371  31.229  1.00  0.00     0.124 S 
ATOM     69  O   UNL A   1      51.492  25.139  31.319  1.00  0.00    -0.237 OA
ATOM     70  O   UNL A   1      50.169  26.685  29.913  1.00  0.00    -0.237 OA
ATOM     71  O   UNL A   1      51.273  27.510  31.955  1.00  0.00    -0.744 OA
ENDBRANCH  64  68
ENDBRANCH  38  61
ENDBRANCH  12  13
ENDBRANCH   5   7
ENDBRANCH   2   3
ENDBRANCH   1   2
BRANCH   1  72
ATOM     72  C   UNL A   1      31.763  28.064  26.655  1.00  0.00     0.023 C 
BRANCH  72  73
ATOM     73  C   UNL A   1      31.124  26.999  25.769  1.00  0.00     0.116 C 
BRANCH  73  74
ATOM     74  N   UNL A   1      30.570  25.893  26.531  1.00  0.00    -0.352 N 
ATOM     75  C   UNL A   1      30.529  24.558  26.235  1.00  0.00     0.251 C 
ATOM     76  H   UNL A   1      30.163  26.141  27.391  1.00  0.00     0.163 HD
ATOM     77  O   UNL A   1      29.893  23.782  26.947  1.00  0.00    -0.269 OA
BRANCH  75  78
ATOM     78  C   UNL A   1      31.231  24.026  25.050  1.00  0.00     0.047 A 
ATOM     79  C   UNL A   1      31.508  22.653  25.008  1.00  0.00     0.023 A 
ATOM     80  C   UNL A   1      31.694  24.868  24.038  1.00  0.00     0.099 A 
ATOM     81  C   UNL A   1      32.220  22.091  23.936  1.00  0.00    -0.011 A 
ATOM     82  C   UNL A   1      32.348  24.309  22.938  1.00  0.00     0.270 A 
ATOM     83  C   UNL A   1      32.606  22.931  22.878  1.00  0.00     0.094 A 
BRANCH  81  84
ATOM     84  C   UNL A   1      32.643  20.686  23.981  1.00  0.00    -0.018 A 
ATOM     85  C   UNL A   1      33.642  20.235  24.855  1.00  0.00     0.009 A 
ATOM     86  C   UNL A   1      32.091  19.766  23.073  1.00  0.00     0.009 A 
ATOM     87  C   UNL A   1      34.094  18.911  24.802  1.00  0.00     0.014 A 
ATOM     88  C   UNL A   1      32.543  18.447  23.015  1.00  0.00     0.014 A 
ATOM     89  C   UNL A   1      33.559  18.008  23.871  1.00  0.00     0.056 A 
BRANCH  89  90
ATOM     90  C   UNL A   1      34.091  16.599  23.781  1.00  0.00     0.416 C 
ATOM     91  F   UNL A   1      35.207  16.413  24.537  1.00  0.00    -0.166 F 
ATOM     92  F   UNL A   1      33.190  15.671  24.207  1.00  0.00    -0.166 F 
ATOM     93  F   UNL A   1      34.433  16.227  22.515  1.00  0.00    -0.166 F 
ENDBRANCH  89  90
ENDBRANCH  81  84
BRANCH  82  94
ATOM     94  N   UNL A   1      32.785  25.179  21.840  1.00  0.00     0.062 N 
ATOM     95  O   UNL A   1      33.200  24.637  20.806  1.00  0.00    -0.258 OA
ATOM     96  O   UNL A   1      32.705  26.404  22.011  1.00  0.00    -0.258 OA
ENDBRANCH  82  94
ENDBRANCH  75  78
ENDBRANCH  73  74
ENDBRANCH  72  73
ENDBRANCH   1  72
TORSDOF 17
ENDMDL
MODEL 3
REMARK VINA RESULT:     -12.7      0.830      2.004
REMARK SMILES O=C(NCCCCNC(=O)c1cc(-c2ccc(C(F)(F)F)cc2)cc([N+](=O)[O-])c1)c1ccc(-c2c3nc(c(-c4cc(S(=O)(=O)[O-])ccc4F)c4ccc([nH]4)c(-c4cc(S(=O)(=O)[O-])ccc4F)c4nc(c(-c5cc(S(=O)(=O)[O-])ccc5F)c5ccc2[nH]5)C=C4)C=C3)cc1
REMARK SMILES IDX 5 1 4 2 3 3 1 4 2 5 30 7 31 8 92 9 32 10 91 11 33 12 34 13
REMARK SMILES IDX 35 14 85 15 36 16 90 17 84 18 86 19 37 20 89 21 83 22 82 23
REMARK SMILES IDX 38 25 70 26 50 27 69 28 51 29 54 30 68 31 87 32 52 33 53 34
REMARK SMILES IDX 67 36 88 37 55 38 39 39 40 40 48 41 41 42 47 43 49 44 46 45
REMARK SMILES IDX 42 46 43 47 44 48 45 49 71 50 72 51 80 52 73 53 79 54 81 55
REMARK SMILES IDX 78 56 74 57 75 58 76 59 77 60 56 61 57 62 65 63 58 64 64 65
REMARK SMILES IDX 66 66 63 67 59 68 60 69 61 70 62 71 6 72 7 73 8 74 9 75
REMARK SMILES IDX 10 77 11 78 12 79 29 80 13 81 25 82 24 83 14 84 15 85 23 86
REMARK SMILES IDX 16 87 22 88 17 89 18 90 19 91 20 92 21 93 26 94 27 95 28 96
REMARK H PARENT 3 6 86 24 54 35 8 76
REMARK Flexibility Score: inf
ROOT
ATOM      1  C   UNL A   1      33.788  28.641  24.351  1.00  0.00     0.023 C 
ENDROOT
BRANCH   1   2
ATOM      2  C   UNL A   1      33.074  28.802  25.687  1.00  0.00     0.116 C 
BRANCH   2   3
ATOM      3  N   UNL A   1      32.616  30.162  25.918  1.00  0.00    -0.352 N 
ATOM      4  O   UNL A   1      32.484  32.145  26.983  1.00  0.00    -0.269 OA
ATOM      5  C   UNL A   1      33.095  31.093  26.807  1.00  0.00     0.251 C 
ATOM      6  H   UNL A   1      31.859  30.457  25.362  1.00  0.00     0.163 HD
BRANCH   5   7
ATOM      7  C   UNL A   1      34.334  30.814  27.563  1.00  0.00     0.039 A 
ATOM      8  C   UNL A   1      34.518  29.579  28.192  1.00  0.00     0.014 A 
ATOM      9  C   UNL A   1      35.323  31.798  27.641  1.00  0.00     0.014 A 
ATOM     10  C   UNL A   1      35.633  29.371  28.996  1.00  0.00     0.010 A 
ATOM     11  C   UNL A   1      36.481  31.558  28.386  1.00  0.00     0.010 A 
ATOM     12  C   UNL A   1      36.636  30.349  29.083  1.00  0.00    -0.014 A 
BRANCH  12  13
ATOM     13  C   UNL A   1      37.886  30.050  29.828  1.00  0.00     0.031 A 
ATOM     14  C   UNL A   1      38.921  29.117  29.266  1.00  0.00     0.074 A 
ATOM     15  C   UNL A   1      38.065  30.629  31.031  1.00  0.00     0.049 A 
ATOM     16  N   UNL A   1      40.043  28.716  29.806  1.00  0.00    -0.248 NA
ATOM     17  C   UNL A   1      38.662  28.557  27.932  1.00  0.00     0.031 C 
ATOM     18  C   UNL A   1      37.115  31.546  31.670  1.00  0.00     0.029 A 
ATOM     19  N   UNL A   1      39.093  30.539  31.933  1.00  0.00    -0.354 N 
ATOM     20  C   UNL A   1      40.616  27.838  28.891  1.00  0.00     0.074 A 
ATOM     21  C   UNL A   1      39.706  27.753  27.768  1.00  0.00     0.031 C 
ATOM     22  C   UNL A   1      37.614  31.946  32.848  1.00  0.00     0.029 A 
ATOM     23  C   UNL A   1      38.878  31.261  33.084  1.00  0.00     0.049 A 
ATOM     24  H   UNL A   1      39.906  30.008  31.772  1.00  0.00     0.167 HD
ATOM     25  C   UNL A   1      41.791  27.169  28.989  1.00  0.00     0.034 A 
ATOM     26  C   UNL A   1      39.594  31.331  34.223  1.00  0.00     0.034 A 
ATOM     27  C   UNL A   1      42.688  27.282  30.116  1.00  0.00     0.049 A 
ATOM     28  C   UNL A   1      40.868  30.538  34.320  1.00  0.00     0.074 A 
ATOM     29  C   UNL A   1      43.943  26.718  30.278  1.00  0.00     0.029 A 
ATOM     30  N   UNL A   1      42.419  27.989  31.281  1.00  0.00    -0.354 N 
ATOM     31  N   UNL A   1      41.422  29.757  33.422  1.00  0.00    -0.248 NA
ATOM     32  C   UNL A   1      41.611  30.632  35.581  1.00  0.00     0.031 C 
ATOM     33  C   UNL A   1      44.395  27.019  31.567  1.00  0.00     0.029 A 
ATOM     34  C   UNL A   1      43.459  27.831  32.185  1.00  0.00     0.049 A 
ATOM     35  H   UNL A   1      41.607  28.523  31.442  1.00  0.00     0.167 HD
ATOM     36  C   UNL A   1      42.586  29.274  34.009  1.00  0.00     0.074 A 
ATOM     37  C   UNL A   1      42.667  29.873  35.326  1.00  0.00     0.031 C 
ATOM     38  C   UNL A   1      43.507  28.414  33.505  1.00  0.00     0.034 A 
BRANCH  25  39
ATOM     39  C   UNL A   1      42.158  26.217  27.878  1.00  0.00     0.023 A 
ATOM     40  C   UNL A   1      41.703  24.888  27.849  1.00  0.00     0.031 A 
ATOM     41  C   UNL A   1      42.965  26.659  26.813  1.00  0.00     0.131 A 
ATOM     42  C   UNL A   1      42.094  24.035  26.805  1.00  0.00     0.055 A 
ATOM     43  C   UNL A   1      43.299  25.826  25.744  1.00  0.00     0.041 A 
ATOM     44  F   UNL A   1      43.444  27.914  26.796  1.00  0.00    -0.206 F 
ATOM     45  C   UNL A   1      42.871  24.502  25.740  1.00  0.00     0.022 A 
BRANCH  42  46
ATOM     46  S   UNL A   1      41.661  22.277  26.905  1.00  0.00     0.124 S 
ATOM     47  O   UNL A   1      41.958  21.820  25.550  1.00  0.00    -0.237 OA
ATOM     48  O   UNL A   1      42.551  21.792  27.953  1.00  0.00    -0.237 OA
ATOM     49  O   UNL A   1      40.240  22.292  27.252  1.00  0.00    -0.744 OA
ENDBRANCH  42  46
ENDBRANCH  25  39
BRANCH  26  50
ATOM     50  C   UNL A   1      39.091  32.127  35.377  1.00  0.00     0.023 A 
ATOM     51  C   UNL A   1      38.490  31.506  36.481  1.00  0.00     0.031 A 
ATOM     52  C   UNL A   1      39.176  33.531  35.374  1.00  0.00     0.131 A 
ATOM     53  C   UNL A   1      37.960  32.289  37.519  1.00  0.00     0.055 A 
ATOM     54  C   UNL A   1      38.698  34.302  36.435  1.00  0.00     0.041 A 
ATOM     55  F   UNL A   1      39.743  34.176  34.342  1.00  0.00    -0.206 F 
ATOM     56  C   UNL A   1      38.073  33.681  37.510  1.00  0.00     0.022 A 
BRANCH  53  57
ATOM     57  S   UNL A   1      37.033  31.463  38.841  1.00  0.00     0.124 S 
ATOM     58  O   UNL A   1      36.804  30.143  38.266  1.00  0.00    -0.237 OA
ATOM     59  O   UNL A   1      37.977  31.523  39.953  1.00  0.00    -0.237 OA
ATOM     60  O   UNL A   1      35.841  32.294  38.990  1.00  0.00    -0.744 OA
ENDBRANCH  53  57
ENDBRANCH  26  50
BRANCH  38  61
ATOM     61  C   UNL A   1      44.686  28.094  34.387  1.00  0.00     0.023 A 
ATOM     62  C   UNL A   1      44.660  27.008  35.278  1.00  0.00     0.031 A 
ATOM     63  C   UNL A   1      45.841  28.895  34.347  1.00  0.00     0.131 A 
ATOM     64  C   UNL A   1      45.751  26.778  36.129  1.00  0.00     0.055 A 
ATOM     65  C   UNL A   1      46.945  28.629  35.156  1.00  0.00     0.041 A 
ATOM     66  F   UNL A   1      45.913  29.947  33.515  1.00  0.00    -0.206 F 
ATOM     67  C   UNL A   1      46.900  27.571  36.062  1.00  0.00     0.022 A 
BRANCH  64  68
ATOM     68  S   UNL A   1      45.623  25.469  37.377  1.00  0.00     0.124 S 
ATOM     69  O   UNL A   1      45.309  24.302  36.559  1.00  0.00    -0.237 OA
ATOM     70  O   UNL A   1      46.951  25.482  37.983  1.00  0.00    -0.237 OA
ATOM     71  O   UNL A   1      44.542  25.928  38.247  1.00  0.00    -0.744 OA
ENDBRANCH  64  68
ENDBRANCH  38  61
ENDBRANCH  12  13
ENDBRANCH   5   7
ENDBRANCH   2   3
ENDBRANCH   1   2
BRANCH   1  72
ATOM     72  C   UNL A   1      32.936  28.935  23.119  1.00  0.00     0.023 C 
BRANCH  72  73
ATOM     73  C   UNL A   1      31.930  27.851  22.746  1.00  0.00     0.116 C 
BRANCH  73  74
ATOM     74  N   UNL A   1      32.423  26.958  21.711  1.00  0.00    -0.352 N 
ATOM     75  C   UNL A   1      32.695  25.619  21.765  1.00  0.00     0.251 C 
ATOM     76  H   UNL A   1      32.585  27.382  20.838  1.00  0.00     0.163 HD
ATOM     77  O   UNL A   1      33.239  25.056  20.815  1.00  0.00    -0.269 OA
BRANCH  75  78
ATOM     78  C   UNL A   1      32.358  24.828  22.965  1.00  0.00     0.047 A 
ATOM     79  C   UNL A   1      32.797  23.499  23.025  1.00  0.00     0.023 A 
ATOM     80  C   UNL A   1      31.548  25.348  23.977  1.00  0.00     0.099 A 
ATOM     81  C   UNL A   1      32.465  22.676  24.113  1.00  0.00    -0.011 A 
ATOM     82  C   UNL A   1      31.265  24.556  25.092  1.00  0.00     0.270 A 
ATOM     83  C   UNL A   1      31.724  23.232  25.169  1.00  0.00     0.094 A 
BRANCH  81  84
ATOM     84  C   UNL A   1      32.793  21.245  24.088  1.00  0.00    -0.018 A 
ATOM     85  C   UNL A   1      33.746  20.683  24.949  1.00  0.00     0.009 A 
ATOM     86  C   UNL A   1      32.197  20.414  23.125  1.00  0.00     0.009 A 
ATOM     87  C   UNL A   1      34.111  19.336  24.830  1.00  0.00     0.014 A 
ATOM     88  C   UNL A   1      32.561  19.073  23.002  1.00  0.00     0.014 A 
ATOM     89  C   UNL A   1      33.532  18.521  23.845  1.00  0.00     0.056 A 
BRANCH  89  90
ATOM     90  C   UNL A   1      33.971  17.086  23.686  1.00  0.00     0.416 C 
ATOM     91  F   UNL A   1      33.008  16.201  24.061  1.00  0.00    -0.166 F 
ATOM     92  F   UNL A   1      34.286  16.775  22.399  1.00  0.00    -0.166 F 
ATOM     93  F   UNL A   1      35.073  16.771  24.423  1.00  0.00    -0.166 F 
ENDBRANCH  89  90
ENDBRANCH  81  84
BRANCH  82  94
ATOM     94  N   UNL A   1      30.464  25.114  26.188  1.00  0.00     0.062 N 
ATOM     95  O   UNL A   1      29.801  24.325  26.875  1.00  0.00    -0.258 OA
ATOM     96  O   UNL A   1      30.507  26.339  26.365  1.00  0.00    -0.258 OA
ENDBRANCH  82  94
ENDBRANCH  75  78
ENDBRANCH  73  74
ENDBRANCH  72  73
ENDBRANCH   1  72
TORSDOF 17
ENDMDL
