MODEL 1
REMARK VINA RESULT:     -12.3      0.000      0.000
REMARK SMILES COc1ccc(N2C(=O)/C(=C/c3c(C(=O)NCCCCNC(=O)c4ccc(-c5c6nc(c(-c7cc(S(=O)(=O)[O-])ccc7F)c7ccc([nH]7)c(-c7cc(S(=O)(=O)[O-])ccc7F)c7nc(c(-c8cc(S(=O)(=O)[O-])ccc8F)c8ccc5[nH]8)C=C7)C=C6)cc4)[nH]c4cc(OC)ccc34)SC2=S)cc1
REMARK SMILES IDX 18 1 17 2 16 3 14 4 15 5 13 7 12 8 95 9 87 10 88 11 94 12
REMARK SMILES IDX 89 14 93 15 90 16 11 17 7 18 8 19 97 20 9 21 10 22 96 23
REMARK SMILES IDX 98 24 6 25 3 26 4 27 100 28 5 29 99 30 2 31 1 32 91 33 92 34
REMARK SMILES IDX 19 35 20 36 21 37 22 38 23 40 24 41 25 42 86 43 26 44 85 45
REMARK SMILES IDX 27 46 28 47 29 48 79 49 30 50 84 51 78 52 80 53 31 54 83 55
REMARK SMILES IDX 77 56 76 57 32 59 64 60 44 61 63 62 45 63 48 64 62 65 81 66
REMARK SMILES IDX 46 67 47 68 61 70 82 71 49 72 33 73 34 74 42 75 35 76 41 77
REMARK SMILES IDX 43 78 40 79 36 80 37 81 38 82 39 83 65 84 66 85 74 86 67 87
REMARK SMILES IDX 73 88 75 89 72 90 68 91 69 92 70 93 71 94 50 95 51 96 59 97
REMARK SMILES IDX 52 98 58 99 60 100 57 101 53 102 54 103 55 104 56 105
REMARK H PARENT 16 6 87 13 21 39 80 58 48 69
REMARK Flexibility Score: inf
ROOT
ATOM      1  C   UNL A   1      33.998  28.936  27.260  1.00  0.00     0.023 C 
ENDROOT
BRANCH   1   2
ATOM      2  C   UNL A   1      33.775  28.007  26.053  1.00  0.00     0.116 C 
BRANCH   2   3
ATOM      3  N   UNL A   1      34.341  28.442  24.778  1.00  0.00    -0.351 N 
ATOM      4  C   UNL A   1      33.702  28.732  23.583  1.00  0.00     0.268 C 
ATOM      5  O   UNL A   1      34.398  28.903  22.583  1.00  0.00    -0.268 OA
ATOM      6  H   UNL A   1      35.320  28.543  24.766  1.00  0.00     0.163 HD
BRANCH   4   7
ATOM      7  C   UNL A   1      32.258  28.779  23.508  1.00  0.00     0.112 A 
ATOM      8  C   UNL A   1      31.292  27.983  22.885  1.00  0.00     0.014 A 
ATOM      9  C   UNL A   1      30.163  28.874  22.703  1.00  0.00     0.008 A 
ATOM     10  N   UNL A   1      31.522  29.635  24.292  1.00  0.00    -0.350 N 
ATOM     11  C   UNL A   1      30.342  29.894  23.645  1.00  0.00     0.050 A 
ATOM     12  C   UNL A   1      29.021  29.001  21.871  1.00  0.00     0.015 A 
ATOM     13  H   UNL A   1      31.796  30.000  25.164  1.00  0.00     0.167 HD
ATOM     14  C   UNL A   1      29.475  30.973  23.825  1.00  0.00     0.073 A 
ATOM     15  C   UNL A   1      28.182  30.155  21.972  1.00  0.00     0.047 A 
ATOM     16  C   UNL A   1      28.408  31.128  22.945  1.00  0.00     0.120 A 
BRANCH   8  17
ATOM     17  C   UNL A   1      31.679  26.676  22.387  1.00  0.00     0.032 C 
ATOM     18  N   UNL A   1      32.229  23.917  24.598  1.00  0.00    -0.261 N 
ATOM     19  C   UNL A   1      32.407  24.449  23.306  1.00  0.00     0.270 C 
ATOM     20  C   UNL A   1      31.026  24.204  25.211  1.00  0.00     0.152 C 
ATOM     21  O   UNL A   1      33.262  24.163  22.479  1.00  0.00    -0.268 OA
ATOM     22  C   UNL A   1      31.384  25.531  23.064  1.00  0.00     0.081 C 
ATOM     23  S   UNL A   1      30.088  25.292  24.187  1.00  0.00    -0.054 SA
ATOM     24  S   UNL A   1      30.447  23.675  26.684  1.00  0.00    -0.051 S 
BRANCH  18  25
ATOM     25  C   UNL A   1      33.171  22.996  25.152  1.00  0.00     0.051 A 
ATOM     26  C   UNL A   1      35.387  21.302  25.520  1.00  0.00     0.119 A 
ATOM     27  C   UNL A   1      35.375  22.556  26.125  1.00  0.00     0.048 A 
ATOM     28  C   UNL A   1      34.118  20.794  25.184  1.00  0.00     0.048 A 
ATOM     29  C   UNL A   1      34.241  23.393  25.963  1.00  0.00     0.030 A 
ATOM     30  C   UNL A   1      33.049  21.646  24.898  1.00  0.00     0.030 A 
BRANCH  26  31
ATOM     31  O   UNL A   1      36.700  20.797  25.101  1.00  0.00    -0.497 OA
ATOM     32  C   UNL A   1      38.136  19.411  24.923  1.00  0.00     0.278 C 
ENDBRANCH  26  31
ENDBRANCH  18  25
ENDBRANCH   8  17
BRANCH  16  33
ATOM     33  O   UNL A   1      27.731  32.297  23.151  1.00  0.00    -0.497 OA
ATOM     34  C   UNL A   1      28.429  33.527  23.080  1.00  0.00     0.278 C 
ENDBRANCH  16  33
ENDBRANCH   4   7
ENDBRANCH   2   3
ENDBRANCH   1   2
BRANCH   1  35
ATOM     35  C   UNL A   1      33.106  30.189  27.404  1.00  0.00     0.023 C 
BRANCH  35  36
ATOM     36  C   UNL A   1      33.768  31.569  27.201  1.00  0.00     0.116 C 
BRANCH  36  37
ATOM     37  N   UNL A   1      33.554  32.544  28.254  1.00  0.00    -0.352 N 
ATOM     38  C   UNL A   1      34.509  33.155  29.045  1.00  0.00     0.251 C 
ATOM     39  H   UNL A   1      32.619  32.801  28.424  1.00  0.00     0.163 HD
ATOM     40  O   UNL A   1      34.240  34.202  29.630  1.00  0.00    -0.269 OA
BRANCH  38  41
ATOM     41  C   UNL A   1      35.822  32.528  29.318  1.00  0.00     0.039 A 
ATOM     42  C   UNL A   1      35.794  31.074  30.356  1.00  0.00     0.014 A 
ATOM     43  C   UNL A   1      37.395  33.324  28.934  1.00  0.00     0.014 A 
ATOM     44  C   UNL A   1      37.324  30.341  30.950  1.00  0.00     0.010 A 
ATOM     45  C   UNL A   1      38.954  32.593  29.540  1.00  0.00     0.010 A 
ATOM     46  C   UNL A   1      38.931  31.048  30.518  1.00  0.00    -0.014 A 
BRANCH  46  47
ATOM     47  C   UNL A   1      40.165  30.262  30.928  1.00  0.00     0.031 A 
ATOM     48  C   UNL A   1      40.926  30.553  32.204  1.00  0.00     0.074 A 
ATOM     49  C   UNL A   1      40.640  29.266  30.132  1.00  0.00     0.049 A 
ATOM     50  N   UNL A   1      42.022  29.996  32.666  1.00  0.00    -0.248 NA
ATOM     51  C   UNL A   1      40.438  31.650  33.041  1.00  0.00     0.031 C 
ATOM     52  C   UNL A   1      40.143  28.927  28.795  1.00  0.00     0.029 A 
ATOM     53  N   UNL A   1      41.638  28.329  30.324  1.00  0.00    -0.354 N 
ATOM     54  C   UNL A   1      42.374  30.719  33.804  1.00  0.00     0.074 A 
ATOM     55  C   UNL A   1      41.429  31.808  33.902  1.00  0.00     0.031 C 
ATOM     56  C   UNL A   1      40.712  27.794  28.364  1.00  0.00     0.029 A 
ATOM     57  C   UNL A   1      41.732  27.384  29.316  1.00  0.00     0.049 A 
ATOM     58  H   UNL A   1      42.231  28.333  31.110  1.00  0.00     0.167 HD
ATOM     59  C   UNL A   1      43.350  30.481  34.720  1.00  0.00     0.034 A 
ATOM     60  C   UNL A   1      42.550  26.322  29.145  1.00  0.00     0.034 A 
ATOM     61  C   UNL A   1      44.251  29.357  34.664  1.00  0.00     0.049 A 
ATOM     62  C   UNL A   1      43.605  26.053  30.187  1.00  0.00     0.074 A 
ATOM     63  C   UNL A   1      45.230  28.988  35.570  1.00  0.00     0.029 A 
ATOM     64  N   UNL A   1      44.279  28.413  33.645  1.00  0.00    -0.354 N 
ATOM     65  N   UNL A   1      43.864  26.718  31.289  1.00  0.00    -0.248 NA
ATOM     66  C   UNL A   1      44.483  24.894  29.965  1.00  0.00     0.031 C 
ATOM     67  C   UNL A   1      45.892  27.862  35.069  1.00  0.00     0.029 A 
ATOM     68  C   UNL A   1      45.275  27.479  33.890  1.00  0.00     0.049 A 
ATOM     69  H   UNL A   1      43.681  28.408  32.864  1.00  0.00     0.167 HD
ATOM     70  C   UNL A   1      44.914  26.041  31.902  1.00  0.00     0.074 A 
ATOM     71  C   UNL A   1      45.224  24.903  31.063  1.00  0.00     0.031 C 
ATOM     72  C   UNL A   1      45.567  26.340  33.053  1.00  0.00     0.034 A 
BRANCH  59  73
ATOM     73  C   UNL A   1      43.488  31.469  35.861  1.00  0.00     0.023 A 
ATOM     74  C   UNL A   1      42.570  31.496  36.927  1.00  0.00     0.031 A 
ATOM     75  C   UNL A   1      44.506  32.438  35.854  1.00  0.00     0.131 A 
ATOM     76  C   UNL A   1      42.612  32.538  37.865  1.00  0.00     0.055 A 
ATOM     77  C   UNL A   1      44.606  33.412  36.851  1.00  0.00     0.041 A 
ATOM     78  F   UNL A   1      45.411  32.474  34.863  1.00  0.00    -0.206 F 
ATOM     79  C   UNL A   1      43.640  33.482  37.851  1.00  0.00     0.022 A 
BRANCH  76  80
ATOM     80  S   UNL A   1      41.194  32.751  38.976  1.00  0.00     0.124 S 
ATOM     81  O   UNL A   1      40.095  32.266  38.143  1.00  0.00    -0.237 OA
ATOM     82  O   UNL A   1      41.552  31.910  40.112  1.00  0.00    -0.237 OA
ATOM     83  O   UNL A   1      41.178  34.188  39.241  1.00  0.00    -0.744 OA
ENDBRANCH  76  80
ENDBRANCH  59  73
BRANCH  60  84
ATOM     84  C   UNL A   1      42.444  25.441  27.933  1.00  0.00     0.023 A 
ATOM     85  C   UNL A   1      41.591  24.322  27.914  1.00  0.00     0.031 A 
ATOM     86  C   UNL A   1      43.242  25.663  26.795  1.00  0.00     0.131 A 
ATOM     87  C   UNL A   1      41.593  23.447  26.814  1.00  0.00     0.055 A 
ATOM     88  C   UNL A   1      43.193  24.827  25.676  1.00  0.00     0.041 A 
ATOM     89  F   UNL A   1      44.082  26.709  26.748  1.00  0.00    -0.206 F 
ATOM     90  C   UNL A   1      42.377  23.702  25.687  1.00  0.00     0.022 A 
BRANCH  87  91
ATOM     91  S   UNL A   1      40.636  21.906  26.913  1.00  0.00     0.124 S 
ATOM     92  O   UNL A   1      39.302  22.360  26.540  1.00  0.00    -0.237 OA
ATOM     93  O   UNL A   1      41.322  21.060  25.941  1.00  0.00    -0.237 OA
ATOM     94  O   UNL A   1      40.790  21.497  28.308  1.00  0.00    -0.744 OA
ENDBRANCH  87  91
ENDBRANCH  60  84
BRANCH  72  95
ATOM     95  C   UNL A   1      46.641  25.383  33.505  1.00  0.00     0.023 A 
ATOM     96  C   UNL A   1      46.344  24.235  34.259  1.00  0.00     0.031 A 
ATOM     97  C   UNL A   1      47.986  25.625  33.169  1.00  0.00     0.131 A 
ATOM     98  C   UNL A   1      47.383  23.399  34.696  1.00  0.00     0.055 A 
ATOM     99  C   UNL A   1      49.006  24.754  33.550  1.00  0.00     0.041 A 
ATOM    100  F   UNL A   1      48.327  26.710  32.454  1.00  0.00    -0.206 F 
ATOM    101  C   UNL A   1      48.709  23.640  34.329  1.00  0.00     0.022 A 
BRANCH  98 102
ATOM    102  S   UNL A   1      46.987  22.040  35.829  1.00  0.00     0.124 S 
ATOM    103  O   UNL A   1      47.999  22.205  36.867  1.00  0.00    -0.237 OA
ATOM    104  O   UNL A   1      45.616  22.348  36.221  1.00  0.00    -0.237 OA
ATOM    105  O   UNL A   1      47.140  20.846  34.999  1.00  0.00    -0.744 OA
ENDBRANCH  98 102
ENDBRANCH  72  95
ENDBRANCH  46  47
ENDBRANCH  38  41
ENDBRANCH  36  37
ENDBRANCH  35  36
ENDBRANCH   1  35
TORSDOF 18
ENDMDL
MODEL 2
REMARK VINA RESULT:     -12.2      2.115      2.530
REMARK SMILES COc1ccc(N2C(=O)/C(=C/c3c(C(=O)NCCCCNC(=O)c4ccc(-c5c6nc(c(-c7cc(S(=O)(=O)[O-])ccc7F)c7ccc([nH]7)c(-c7cc(S(=O)(=O)[O-])ccc7F)c7nc(c(-c8cc(S(=O)(=O)[O-])ccc8F)c8ccc5[nH]8)C=C7)C=C6)cc4)[nH]c4cc(OC)ccc34)SC2=S)cc1
REMARK SMILES IDX 18 1 17 2 16 3 14 4 15 5 13 7 12 8 95 9 87 10 88 11 94 12
REMARK SMILES IDX 89 14 93 15 90 16 11 17 7 18 8 19 97 20 9 21 10 22 96 23
REMARK SMILES IDX 98 24 6 25 3 26 4 27 100 28 5 29 99 30 2 31 1 32 91 33 92 34
REMARK SMILES IDX 19 35 20 36 21 37 22 38 23 40 24 41 25 42 86 43 26 44 85 45
REMARK SMILES IDX 27 46 28 47 29 48 79 49 30 50 84 51 78 52 80 53 31 54 83 55
REMARK SMILES IDX 77 56 76 57 32 59 64 60 44 61 63 62 45 63 48 64 62 65 81 66
REMARK SMILES IDX 46 67 47 68 61 70 82 71 49 72 33 73 34 74 42 75 35 76 41 77
REMARK SMILES IDX 43 78 40 79 36 80 37 81 38 82 39 83 65 84 66 85 74 86 67 87
REMARK SMILES IDX 73 88 75 89 72 90 68 91 69 92 70 93 71 94 50 95 51 96 59 97
REMARK SMILES IDX 52 98 58 99 60 100 57 101 53 102 54 103 55 104 56 105
REMARK H PARENT 16 6 87 13 21 39 80 58 48 69
REMARK Flexibility Score: inf
ROOT
ATOM      1  C   UNL A   1      33.497  28.622  27.256  1.00  0.00     0.023 C 
ENDROOT
BRANCH   1   2
ATOM      2  C   UNL A   1      33.583  27.659  26.058  1.00  0.00     0.116 C 
BRANCH   2   3
ATOM      3  N   UNL A   1      34.215  28.177  24.846  1.00  0.00    -0.351 N 
ATOM      4  C   UNL A   1      33.634  28.604  23.662  1.00  0.00     0.268 C 
ATOM      5  O   UNL A   1      34.373  28.828  22.705  1.00  0.00    -0.268 OA
ATOM      6  H   UNL A   1      35.198  28.228  24.874  1.00  0.00     0.163 HD
BRANCH   4   7
ATOM      7  C   UNL A   1      32.197  28.731  23.546  1.00  0.00     0.112 A 
ATOM      8  C   UNL A   1      31.209  28.002  22.879  1.00  0.00     0.014 A 
ATOM      9  C   UNL A   1      30.137  28.957  22.682  1.00  0.00     0.008 A 
ATOM     10  N   UNL A   1      31.486  29.612  24.326  1.00  0.00    -0.350 N 
ATOM     11  C   UNL A   1      30.342  29.947  23.650  1.00  0.00     0.050 A 
ATOM     12  C   UNL A   1      29.028  29.162  21.820  1.00  0.00     0.015 A 
ATOM     13  H   UNL A   1      31.753  29.944  25.213  1.00  0.00     0.167 HD
ATOM     14  C   UNL A   1      29.529  31.069  23.826  1.00  0.00     0.073 A 
ATOM     15  C   UNL A   1      28.251  30.358  21.920  1.00  0.00     0.047 A 
ATOM     16  C   UNL A   1      28.500  31.298  22.919  1.00  0.00     0.120 A 
BRANCH   8  17
ATOM     17  C   UNL A   1      31.539  26.685  22.367  1.00  0.00     0.032 C 
ATOM     18  N   UNL A   1      32.075  23.903  24.552  1.00  0.00    -0.261 N 
ATOM     19  C   UNL A   1      32.228  24.434  23.256  1.00  0.00     0.270 C 
ATOM     20  C   UNL A   1      30.902  24.226  25.205  1.00  0.00     0.152 C 
ATOM     21  O   UNL A   1      33.047  24.125  22.402  1.00  0.00    -0.268 OA
ATOM     22  C   UNL A   1      31.232  25.547  23.050  1.00  0.00     0.081 C 
ATOM     23  S   UNL A   1      29.966  25.344  24.214  1.00  0.00    -0.054 SA
ATOM     24  S   UNL A   1      30.356  23.710  26.694  1.00  0.00    -0.051 S 
BRANCH  18  25
ATOM     25  C   UNL A   1      33.006  22.952  25.073  1.00  0.00     0.051 A 
ATOM     26  C   UNL A   1      35.235  21.268  25.411  1.00  0.00     0.119 A 
ATOM     27  C   UNL A   1      35.165  22.464  26.123  1.00  0.00     0.048 A 
ATOM     28  C   UNL A   1      33.997  20.772  24.963  1.00  0.00     0.048 A 
ATOM     29  C   UNL A   1      34.023  23.293  25.974  1.00  0.00     0.030 A 
ATOM     30  C   UNL A   1      32.926  21.629  24.695  1.00  0.00     0.030 A 
BRANCH  26  31
ATOM     31  O   UNL A   1      36.579  20.825  25.021  1.00  0.00    -0.497 OA
ATOM     32  C   UNL A   1      38.063  19.492  24.831  1.00  0.00     0.278 C 
ENDBRANCH  26  31
ENDBRANCH  18  25
ENDBRANCH   8  17
BRANCH  16  33
ATOM     33  O   UNL A   1      27.881  32.498  23.129  1.00  0.00    -0.497 OA
ATOM     34  C   UNL A   1      28.649  33.689  23.116  1.00  0.00     0.278 C 
ENDBRANCH  16  33
ENDBRANCH   4   7
ENDBRANCH   2   3
ENDBRANCH   1   2
BRANCH   1  35
ATOM     35  C   UNL A   1      34.714  29.518  27.575  1.00  0.00     0.023 C 
BRANCH  35  36
ATOM     36  C   UNL A   1      34.502  31.047  27.564  1.00  0.00     0.116 C 
BRANCH  36  37
ATOM     37  N   UNL A   1      34.059  31.641  28.811  1.00  0.00    -0.352 N 
ATOM     38  C   UNL A   1      34.839  32.033  29.884  1.00  0.00     0.251 C 
ATOM     39  H   UNL A   1      33.089  31.783  28.904  1.00  0.00     0.163 HD
ATOM     40  O   UNL A   1      34.395  32.836  30.703  1.00  0.00    -0.269 OA
BRANCH  38  41
ATOM     41  C   UNL A   1      36.160  31.424  30.159  1.00  0.00     0.039 A 
ATOM     42  C   UNL A   1      37.561  32.210  29.377  1.00  0.00     0.014 A 
ATOM     43  C   UNL A   1      36.360  29.812  30.944  1.00  0.00     0.014 A 
ATOM     44  C   UNL A   1      39.190  31.453  29.440  1.00  0.00     0.010 A 
ATOM     45  C   UNL A   1      38.008  29.031  31.005  1.00  0.00     0.010 A 
ATOM     46  C   UNL A   1      39.462  29.882  30.293  1.00  0.00    -0.014 A 
BRANCH  46  47
ATOM     47  C   UNL A   1      40.900  29.412  30.434  1.00  0.00     0.031 A 
ATOM     48  C   UNL A   1      41.819  29.926  31.520  1.00  0.00     0.074 A 
ATOM     49  C   UNL A   1      41.415  28.510  29.556  1.00  0.00     0.049 A 
ATOM     50  N   UNL A   1      43.085  29.652  31.741  1.00  0.00    -0.248 NA
ATOM     51  C   UNL A   1      41.276  30.926  32.441  1.00  0.00     0.031 C 
ATOM     52  C   UNL A   1      40.746  28.005  28.354  1.00  0.00     0.029 A 
ATOM     53  N   UNL A   1      42.619  27.830  29.533  1.00  0.00    -0.354 N 
ATOM     54  C   UNL A   1      43.488  30.489  32.779  1.00  0.00     0.074 A 
ATOM     55  C   UNL A   1      42.360  31.343  33.074  1.00  0.00     0.031 C 
ATOM     56  C   UNL A   1      41.457  27.007  27.812  1.00  0.00     0.029 A 
ATOM     57  C   UNL A   1      42.717  26.882  28.529  1.00  0.00     0.049 A 
ATOM     58  H   UNL A   1      43.344  28.004  30.176  1.00  0.00     0.167 HD
ATOM     59  C   UNL A   1      44.659  30.520  33.469  1.00  0.00     0.034 A 
ATOM     60  C   UNL A   1      43.703  26.022  28.188  1.00  0.00     0.034 A 
ATOM     61  C   UNL A   1      45.761  29.623  33.224  1.00  0.00     0.049 A 
ATOM     62  C   UNL A   1      44.983  26.046  28.985  1.00  0.00     0.074 A 
ATOM     63  C   UNL A   1      46.963  29.526  33.904  1.00  0.00     0.029 A 
ATOM     64  N   UNL A   1      45.795  28.661  32.223  1.00  0.00    -0.354 N 
ATOM     65  N   UNL A   1      45.303  26.804  30.007  1.00  0.00    -0.248 NA
ATOM     66  C   UNL A   1      46.037  25.103  28.583  1.00  0.00     0.031 C 
ATOM     67  C   UNL A   1      47.748  28.554  33.275  1.00  0.00     0.029 A 
ATOM     68  C   UNL A   1      47.005  27.986  32.252  1.00  0.00     0.049 A 
ATOM     69  H   UNL A   1      45.066  28.485  31.585  1.00  0.00     0.167 HD
ATOM     70  C   UNL A   1      46.583  26.410  30.386  1.00  0.00     0.074 A 
ATOM     71  C   UNL A   1      46.966  25.331  29.501  1.00  0.00     0.031 C 
ATOM     72  C   UNL A   1      47.372  26.902  31.373  1.00  0.00     0.034 A 
BRANCH  59  73
ATOM     73  C   UNL A   1      44.798  31.567  34.555  1.00  0.00     0.023 A 
ATOM     74  C   UNL A   1      45.339  32.838  34.289  1.00  0.00     0.031 A 
ATOM     75  C   UNL A   1      44.450  31.273  35.886  1.00  0.00     0.131 A 
ATOM     76  C   UNL A   1      45.630  33.714  35.344  1.00  0.00     0.055 A 
ATOM     77  C   UNL A   1      44.645  32.192  36.920  1.00  0.00     0.041 A 
ATOM     78  F   UNL A   1      43.936  30.077  36.211  1.00  0.00    -0.206 F 
ATOM     79  C   UNL A   1      45.262  33.413  36.657  1.00  0.00     0.022 A 
BRANCH  76  80
ATOM     80  S   UNL A   1      46.671  35.159  34.999  1.00  0.00     0.124 S 
ATOM     81  O   UNL A   1      45.791  35.956  34.147  1.00  0.00    -0.237 OA
ATOM     82  O   UNL A   1      46.923  35.694  36.332  1.00  0.00    -0.237 OA
ATOM     83  O   UNL A   1      47.835  34.590  34.322  1.00  0.00    -0.744 OA
ENDBRANCH  76  80
ENDBRANCH  59  73
BRANCH  60  84
ATOM     84  C   UNL A   1      43.555  25.082  27.027  1.00  0.00     0.023 A 
ATOM     85  C   UNL A   1      42.836  23.878  27.146  1.00  0.00     0.031 A 
ATOM     86  C   UNL A   1      44.184  25.338  25.794  1.00  0.00     0.131 A 
ATOM     87  C   UNL A   1      42.807  22.961  26.081  1.00  0.00     0.055 A 
ATOM     88  C   UNL A   1      44.098  24.453  24.715  1.00  0.00     0.041 A 
ATOM     89  F   UNL A   1      44.890  26.465  25.613  1.00  0.00    -0.206 F 
ATOM     90  C   UNL A   1      43.419  23.249  24.861  1.00  0.00     0.022 A 
BRANCH  87  91
ATOM     91  S   UNL A   1      42.046  21.332  26.344  1.00  0.00     0.124 S 
ATOM     92  O   UNL A   1      42.857  20.482  25.480  1.00  0.00    -0.237 OA
ATOM     93  O   UNL A   1      42.223  21.143  27.780  1.00  0.00    -0.237 OA
ATOM     94  O   UNL A   1      40.664  21.526  25.909  1.00  0.00    -0.744 OA
ENDBRANCH  87  91
ENDBRANCH  60  84
BRANCH  72  95
ATOM     95  C   UNL A   1      48.706  26.232  31.589  1.00  0.00     0.023 A 
ATOM     96  C   UNL A   1      48.846  25.108  32.422  1.00  0.00     0.031 A 
ATOM     97  C   UNL A   1      49.854  26.726  30.944  1.00  0.00     0.131 A 
ATOM     98  C   UNL A   1      50.116  24.548  32.627  1.00  0.00     0.055 A 
ATOM     99  C   UNL A   1      51.102  26.124  31.100  1.00  0.00     0.041 A 
ATOM    100  F   UNL A   1      49.777  27.800  30.141  1.00  0.00    -0.206 F 
ATOM    101  C   UNL A   1      51.241  25.035  31.956  1.00  0.00     0.022 A 
BRANCH  98 102
ATOM    102  S   UNL A   1      50.294  23.227  33.857  1.00  0.00     0.124 S 
ATOM    103  O   UNL A   1      50.760  22.112  33.040  1.00  0.00    -0.237 OA
ATOM    104  O   UNL A   1      51.270  23.791  34.783  1.00  0.00    -0.237 OA
ATOM    105  O   UNL A   1      48.944  23.078  34.397  1.00  0.00    -0.744 OA
ENDBRANCH  98 102
ENDBRANCH  72  95
ENDBRANCH  46  47
ENDBRANCH  38  41
ENDBRANCH  36  37
ENDBRANCH  35  36
ENDBRANCH   1  35
TORSDOF 18
ENDMDL
MODEL 3
REMARK VINA RESULT:     -12.2      5.347     10.227
REMARK SMILES COc1ccc(N2C(=O)/C(=C/c3c(C(=O)NCCCCNC(=O)c4ccc(-c5c6nc(c(-c7cc(S(=O)(=O)[O-])ccc7F)c7ccc([nH]7)c(-c7cc(S(=O)(=O)[O-])ccc7F)c7nc(c(-c8cc(S(=O)(=O)[O-])ccc8F)c8ccc5[nH]8)C=C7)C=C6)cc4)[nH]c4cc(OC)ccc34)SC2=S)cc1
REMARK SMILES IDX 18 1 17 2 16 3 14 4 15 5 13 7 12 8 95 9 87 10 88 11 94 12
REMARK SMILES IDX 89 14 93 15 90 16 11 17 7 18 8 19 97 20 9 21 10 22 96 23
REMARK SMILES IDX 98 24 6 25 3 26 4 27 100 28 5 29 99 30 2 31 1 32 91 33 92 34
REMARK SMILES IDX 19 35 20 36 21 37 22 38 23 40 24 41 25 42 86 43 26 44 85 45
REMARK SMILES IDX 27 46 28 47 29 48 79 49 30 50 84 51 78 52 80 53 31 54 83 55
REMARK SMILES IDX 77 56 76 57 32 59 64 60 44 61 63 62 45 63 48 64 62 65 81 66
REMARK SMILES IDX 46 67 47 68 61 70 82 71 49 72 33 73 34 74 42 75 35 76 41 77
REMARK SMILES IDX 43 78 40 79 36 80 37 81 38 82 39 83 65 84 66 85 74 86 67 87
REMARK SMILES IDX 73 88 75 89 72 90 68 91 69 92 70 93 71 94 50 95 51 96 59 97
REMARK SMILES IDX 52 98 58 99 60 100 57 101 53 102 54 103 55 104 56 105
REMARK H PARENT 16 6 87 13 21 39 80 58 48 69
REMARK Flexibility Score: inf
ROOT
ATOM      1  C   UNL A   1      37.458  23.655  25.514  1.00  0.00     0.023 C 
ENDROOT
BRANCH   1   2
ATOM      2  C   UNL A   1      35.928  23.795  25.616  1.00  0.00     0.116 C 
BRANCH   2   3
ATOM      3  N   UNL A   1      35.317  23.397  26.882  1.00  0.00    -0.351 N 
ATOM      4  C   UNL A   1      34.389  22.399  27.138  1.00  0.00     0.268 C 
ATOM      5  O   UNL A   1      33.875  22.362  28.255  1.00  0.00    -0.268 OA
ATOM      6  H   UNL A   1      35.605  23.914  27.669  1.00  0.00     0.163 HD
BRANCH   4   7
ATOM      7  C   UNL A   1      34.003  21.464  26.103  1.00  0.00     0.112 A 
ATOM      8  C   UNL A   1      32.808  21.204  25.426  1.00  0.00     0.014 A 
ATOM      9  C   UNL A   1      32.939  19.827  24.994  1.00  0.00     0.008 A 
ATOM     10  N   UNL A   1      34.934  20.711  25.428  1.00  0.00    -0.350 N 
ATOM     11  C   UNL A   1      34.315  19.573  24.982  1.00  0.00     0.050 A 
ATOM     12  C   UNL A   1      32.109  18.734  24.630  1.00  0.00     0.015 A 
ATOM     13  H   UNL A   1      35.879  20.948  25.290  1.00  0.00     0.167 HD
ATOM     14  C   UNL A   1      34.897  18.357  24.616  1.00  0.00     0.073 A 
ATOM     15  C   UNL A   1      32.686  17.455  24.356  1.00  0.00     0.047 A 
ATOM     16  C   UNL A   1      34.067  17.273  24.346  1.00  0.00     0.120 A 
BRANCH   8  17
ATOM     17  C   UNL A   1      31.729  22.170  25.520  1.00  0.00     0.032 C 
ATOM     18  N   UNL A   1      31.859  25.299  23.789  1.00  0.00    -0.261 N 
ATOM     19  C   UNL A   1      31.245  24.532  24.799  1.00  0.00     0.270 C 
ATOM     20  C   UNL A   1      32.212  24.618  22.642  1.00  0.00     0.152 C 
ATOM     21  O   UNL A   1      30.648  24.924  25.792  1.00  0.00    -0.268 OA
ATOM     22  C   UNL A   1      31.476  23.067  24.526  1.00  0.00     0.081 C 
ATOM     23  S   UNL A   1      31.874  22.899  22.849  1.00  0.00    -0.054 SA
ATOM     24  S   UNL A   1      32.870  25.214  21.229  1.00  0.00    -0.051 S 
BRANCH  18  25
ATOM     25  C   UNL A   1      31.943  26.722  23.893  1.00  0.00     0.051 A 
ATOM     26  C   UNL A   1      31.695  29.378  24.786  1.00  0.00     0.119 A 
ATOM     27  C   UNL A   1      32.906  28.710  24.949  1.00  0.00     0.048 A 
ATOM     28  C   UNL A   1      30.864  28.859  23.776  1.00  0.00     0.048 A 
ATOM     29  C   UNL A   1      33.036  27.382  24.467  1.00  0.00     0.030 A 
ATOM     30  C   UNL A   1      30.919  27.511  23.413  1.00  0.00     0.030 A 
BRANCH  26  31
ATOM     31  O   UNL A   1      31.349  30.356  25.824  1.00  0.00    -0.497 OA
ATOM     32  C   UNL A   1      31.456  32.129  26.752  1.00  0.00     0.278 C 
ENDBRANCH  26  31
ENDBRANCH  18  25
ENDBRANCH   8  17
BRANCH  16  33
ATOM     33  O   UNL A   1      34.772  16.120  24.142  1.00  0.00    -0.497 OA
ATOM     34  C   UNL A   1      35.519  15.563  25.209  1.00  0.00     0.278 C 
ENDBRANCH  16  33
ENDBRANCH   4   7
ENDBRANCH   2   3
ENDBRANCH   1   2
BRANCH   1  35
ATOM     35  C   UNL A   1      38.093  22.269  25.761  1.00  0.00     0.023 C 
BRANCH  35  36
ATOM     36  C   UNL A   1      39.445  22.220  26.504  1.00  0.00     0.116 C 
BRANCH  36  37
ATOM     37  N   UNL A   1      40.627  22.084  25.674  1.00  0.00    -0.352 N 
ATOM     38  C   UNL A   1      41.865  22.670  25.867  1.00  0.00     0.251 C 
ATOM     39  H   UNL A   1      40.538  21.507  24.881  1.00  0.00     0.163 HD
ATOM     40  O   UNL A   1      42.858  22.198  25.316  1.00  0.00    -0.269 OA
BRANCH  38  41
ATOM     41  C   UNL A   1      42.029  23.932  26.623  1.00  0.00     0.039 A 
ATOM     42  C   UNL A   1      41.742  25.437  25.704  1.00  0.00     0.014 A 
ATOM     43  C   UNL A   1      42.786  24.012  28.259  1.00  0.00     0.014 A 
ATOM     44  C   UNL A   1      42.118  27.039  26.428  1.00  0.00     0.010 A 
ATOM     45  C   UNL A   1      43.179  25.633  28.998  1.00  0.00     0.010 A 
ATOM     46  C   UNL A   1      42.793  27.178  28.099  1.00  0.00    -0.014 A 
BRANCH  46  47
ATOM     47  C   UNL A   1      42.918  28.576  28.681  1.00  0.00     0.031 A 
ATOM     48  C   UNL A   1      41.765  29.274  29.369  1.00  0.00     0.074 A 
ATOM     49  C   UNL A   1      44.089  29.259  28.579  1.00  0.00     0.049 A 
ATOM     50  N   UNL A   1      41.706  30.485  29.877  1.00  0.00    -0.248 NA
ATOM     51  C   UNL A   1      40.493  28.555  29.444  1.00  0.00     0.031 C 
ATOM     52  C   UNL A   1      45.271  28.827  27.826  1.00  0.00     0.029 A 
ATOM     53  N   UNL A   1      44.506  30.460  29.122  1.00  0.00    -0.354 N 
ATOM     54  C   UNL A   1      40.383  30.678  30.267  1.00  0.00     0.074 A 
ATOM     55  C   UNL A   1      39.660  29.499  29.850  1.00  0.00     0.031 C 
ATOM     56  C   UNL A   1      46.303  29.644  28.075  1.00  0.00     0.029 A 
ATOM     57  C   UNL A   1      45.839  30.757  28.890  1.00  0.00     0.049 A 
ATOM     58  H   UNL A   1      43.908  31.054  29.629  1.00  0.00     0.167 HD
ATOM     59  C   UNL A   1      39.819  31.705  30.957  1.00  0.00     0.034 A 
ATOM     60  C   UNL A   1      46.610  31.805  29.255  1.00  0.00     0.034 A 
ATOM     61  C   UNL A   1      40.551  32.851  31.436  1.00  0.00     0.049 A 
ATOM     62  C   UNL A   1      45.978  32.919  30.049  1.00  0.00     0.074 A 
ATOM     63  C   UNL A   1      40.093  33.913  32.196  1.00  0.00     0.029 A 
ATOM     64  N   UNL A   1      41.902  33.083  31.206  1.00  0.00    -0.354 N 
ATOM     65  N   UNL A   1      44.738  33.035  30.462  1.00  0.00    -0.248 NA
ATOM     66  C   UNL A   1      46.843  34.047  30.422  1.00  0.00     0.031 C 
ATOM     67  C   UNL A   1      41.146  34.817  32.370  1.00  0.00     0.029 A 
ATOM     68  C   UNL A   1      42.284  34.282  31.788  1.00  0.00     0.049 A 
ATOM     69  H   UNL A   1      42.499  32.485  30.702  1.00  0.00     0.167 HD
ATOM     70  C   UNL A   1      44.683  34.234  31.167  1.00  0.00     0.074 A 
ATOM     71  C   UNL A   1      46.019  34.791  31.146  1.00  0.00     0.031 C 
ATOM     72  C   UNL A   1      43.622  34.823  31.772  1.00  0.00     0.034 A 
BRANCH  59  73
ATOM     73  C   UNL A   1      38.330  31.626  31.227  1.00  0.00     0.023 A 
ATOM     74  C   UNL A   1      37.387  32.138  30.318  1.00  0.00     0.031 A 
ATOM     75  C   UNL A   1      37.847  31.093  32.436  1.00  0.00     0.131 A 
ATOM     76  C   UNL A   1      36.035  32.222  30.679  1.00  0.00     0.055 A 
ATOM     77  C   UNL A   1      36.485  31.083  32.745  1.00  0.00     0.041 A 
ATOM     78  F   UNL A   1      38.692  30.594  33.351  1.00  0.00    -0.206 F 
ATOM     79  C   UNL A   1      35.571  31.673  31.876  1.00  0.00     0.022 A 
BRANCH  76  80
ATOM     80  S   UNL A   1      34.932  33.232  29.652  1.00  0.00     0.124 S 
ATOM     81  O   UNL A   1      35.870  34.193  29.075  1.00  0.00    -0.237 OA
ATOM     82  O   UNL A   1      34.375  32.252  28.728  1.00  0.00    -0.237 OA
ATOM     83  O   UNL A   1      33.987  33.795  30.614  1.00  0.00    -0.744 OA
ENDBRANCH  76  80
ENDBRANCH  59  73
BRANCH  60  84
ATOM     84  C   UNL A   1      48.057  31.887  28.860  1.00  0.00     0.023 A 
ATOM     85  C   UNL A   1      48.477  32.683  27.777  1.00  0.00     0.031 A 
ATOM     86  C   UNL A   1      49.039  31.121  29.517  1.00  0.00     0.131 A 
ATOM     87  C   UNL A   1      49.817  32.655  27.355  1.00  0.00     0.055 A 
ATOM     88  C   UNL A   1      50.383  31.147  29.135  1.00  0.00     0.041 A 
ATOM     89  F   UNL A   1      48.707  30.337  30.554  1.00  0.00    -0.206 F 
ATOM     90  C   UNL A   1      50.776  31.905  28.037  1.00  0.00     0.022 A 
BRANCH  87  91
ATOM     91  S   UNL A   1      50.277  33.531  25.831  1.00  0.00     0.124 S 
ATOM     92  O   UNL A   1      51.146  34.583  26.344  1.00  0.00    -0.237 OA
ATOM     93  O   UNL A   1      50.931  32.476  25.061  1.00  0.00    -0.237 OA
ATOM     94  O   UNL A   1      48.995  33.984  25.297  1.00  0.00    -0.744 OA
ENDBRANCH  87  91
ENDBRANCH  60  84
BRANCH  72  95
ATOM     95  C   UNL A   1      43.878  36.109  32.517  1.00  0.00     0.023 A 
ATOM     96  C   UNL A   1      43.745  37.364  31.898  1.00  0.00     0.031 A 
ATOM     97  C   UNL A   1      44.256  36.074  33.871  1.00  0.00     0.131 A 
ATOM     98  C   UNL A   1      44.039  38.531  32.620  1.00  0.00     0.055 A 
ATOM     99  C   UNL A   1      44.482  37.241  34.601  1.00  0.00     0.041 A 
ATOM    100  F   UNL A   1      44.403  34.902  34.510  1.00  0.00    -0.206 F 
ATOM    101  C   UNL A   1      44.386  38.478  33.973  1.00  0.00     0.022 A 
BRANCH  98 102
ATOM    102  S   UNL A   1      44.048  40.117  31.741  1.00  0.00     0.124 S 
ATOM    103  O   UNL A   1      45.455  40.496  31.815  1.00  0.00    -0.237 OA
ATOM    104  O   UNL A   1      43.556  39.745  30.419  1.00  0.00    -0.237 OA
ATOM    105  O   UNL A   1      43.140  40.950  32.528  1.00  0.00    -0.744 OA
ENDBRANCH  98 102
ENDBRANCH  72  95
ENDBRANCH  46  47
ENDBRANCH  38  41
ENDBRANCH  36  37
ENDBRANCH  35  36
ENDBRANCH   1  35
TORSDOF 18
ENDMDL
