MODEL 1
REMARK VINA RESULT:     -11.9      0.000      0.000
REMARK SMILES Cn1cc(C(=O)NCCc2ccccc2)c(C(=O)NCCCCNC(=O)c2ccc(-c3c4nc(c(-c5cc(S(=O)(=O)[O-])ccc5F)c5ccc([nH]5)c(-c5cc(S(=O)(=O)[O-])ccc5F)c5nc(c(-c6cc(S(=O)(=O)[O-])ccc6F)c6ccc3[nH]6)C=C5)C=C4)cc2)n1
REMARK SMILES IDX 21 1 20 2 19 3 17 4 18 5 16 7 1 8 2 9 3 10 90 11 4 12 5 13
REMARK SMILES IDX 6 14 7 15 8 17 9 18 10 19 11 20 15 21 12 22 14 23 13 24
REMARK SMILES IDX 22 25 23 26 24 27 25 28 26 30 27 31 28 32 89 33 29 34 88 35
REMARK SMILES IDX 30 36 31 37 32 38 82 39 33 40 87 41 81 42 83 43 34 44 86 45
REMARK SMILES IDX 80 46 79 47 35 49 67 50 47 51 66 52 48 53 51 54 65 55 84 56
REMARK SMILES IDX 49 57 50 58 64 60 85 61 52 62 36 63 37 64 45 65 38 66 44 67
REMARK SMILES IDX 46 68 43 69 39 70 40 71 41 72 42 73 68 74 69 75 77 76 70 77
REMARK SMILES IDX 76 78 78 79 75 80 71 81 72 82 73 83 74 84 53 85 54 86 62 87
REMARK SMILES IDX 55 88 61 89 63 90 60 91 56 92 57 93 58 94 59 95
REMARK H PARENT 19 6 7 16 24 29 83 48 51 59
REMARK Flexibility Score: inf
ROOT
ATOM      1  C   UNL A   1      32.877  28.441  24.873  1.00  0.00     0.023 C 
ENDROOT
BRANCH   1   2
ATOM      2  C   UNL A   1      32.764  27.333  25.916  1.00  0.00     0.116 C 
BRANCH   2   3
ATOM      3  N   UNL A   1      33.829  26.362  25.847  1.00  0.00    -0.351 N 
ATOM      4  C   UNL A   1      34.098  25.385  24.916  1.00  0.00     0.272 C 
ATOM      5  O   UNL A   1      35.115  24.715  25.116  1.00  0.00    -0.267 OA
ATOM      6  H   UNL A   1      34.472  26.405  26.591  1.00  0.00     0.163 HD
BRANCH   4   7
ATOM      7  C   UNL A   1      33.196  25.093  23.778  1.00  0.00     0.162 A 
ATOM      8  C   UNL A   1      32.626  25.629  20.362  1.00  0.00     0.173 C 
ATOM      9  N   UNL A   1      32.560  25.232  21.748  1.00  0.00    -0.274 N 
ATOM     10  C   UNL A   1      31.485  24.719  22.398  1.00  0.00     0.123 A 
ATOM     11  N   UNL A   1      33.614  25.434  22.537  1.00  0.00    -0.167 NA
ATOM     12  C   UNL A   1      31.855  24.563  23.724  1.00  0.00     0.090 A 
BRANCH  12  13
ATOM     13  C   UNL A   1      31.010  24.138  24.822  1.00  0.00     0.255 C 
ATOM     14  O   UNL A   1      31.110  23.003  25.300  1.00  0.00    -0.269 OA
ATOM     15  N   UNL A   1      30.043  24.958  25.344  1.00  0.00    -0.352 N 
ATOM     16  H   UNL A   1      29.514  24.537  26.060  1.00  0.00     0.163 HD
BRANCH  15  17
ATOM     17  C   UNL A   1      29.639  26.329  25.052  1.00  0.00     0.121 C 
BRANCH  17  18
ATOM     18  C   UNL A   1      28.666  26.464  23.877  1.00  0.00     0.057 C 
BRANCH  18  19
ATOM     19  C   UNL A   1      28.734  27.815  23.207  1.00  0.00    -0.046 A 
ATOM     20  C   UNL A   1      27.596  28.632  23.130  1.00  0.00     0.004 A 
ATOM     21  C   UNL A   1      29.932  28.264  22.639  1.00  0.00     0.004 A 
ATOM     22  C   UNL A   1      27.657  29.875  22.497  1.00  0.00     0.000 A 
ATOM     23  C   UNL A   1      29.991  29.504  22.003  1.00  0.00     0.000 A 
ATOM     24  C   UNL A   1      28.855  30.309  21.931  1.00  0.00     0.000 A 
ENDBRANCH  18  19
ENDBRANCH  17  18
ENDBRANCH  15  17
ENDBRANCH  12  13
ENDBRANCH   4   7
ENDBRANCH   2   3
ENDBRANCH   1   2
BRANCH   1  25
ATOM     25  C   UNL A   1      32.121  29.737  25.171  1.00  0.00     0.023 C 
BRANCH  25  26
ATOM     26  C   UNL A   1      32.010  30.151  26.636  1.00  0.00     0.116 C 
BRANCH  26  27
ATOM     27  N   UNL A   1      31.930  31.590  26.839  1.00  0.00    -0.352 N 
ATOM     28  C   UNL A   1      32.831  32.460  27.409  1.00  0.00     0.251 C 
ATOM     29  H   UNL A   1      31.098  32.007  26.519  1.00  0.00     0.163 HD
ATOM     30  O   UNL A   1      32.519  33.639  27.556  1.00  0.00    -0.269 OA
BRANCH  28  31
ATOM     31  C   UNL A   1      34.145  31.971  27.887  1.00  0.00     0.039 A 
ATOM     32  C   UNL A   1      35.175  32.894  28.087  1.00  0.00     0.014 A 
ATOM     33  C   UNL A   1      34.358  30.619  28.168  1.00  0.00     0.014 A 
ATOM     34  C   UNL A   1      36.377  32.481  28.670  1.00  0.00     0.010 A 
ATOM     35  C   UNL A   1      35.523  30.224  28.822  1.00  0.00     0.010 A 
ATOM     36  C   UNL A   1      36.539  31.152  29.097  1.00  0.00    -0.014 A 
BRANCH  36  37
ATOM     37  C   UNL A   1      37.747  30.720  29.854  1.00  0.00     0.031 A 
ATOM     38  C   UNL A   1      38.723  29.754  29.240  1.00  0.00     0.074 A 
ATOM     39  C   UNL A   1      37.915  31.126  31.128  1.00  0.00     0.049 A 
ATOM     40  N   UNL A   1      39.769  29.179  29.776  1.00  0.00    -0.248 NA
ATOM     41  C   UNL A   1      38.464  29.357  27.849  1.00  0.00     0.031 C 
ATOM     42  C   UNL A   1      37.012  32.019  31.859  1.00  0.00     0.029 A 
ATOM     43  N   UNL A   1      38.896  30.831  32.043  1.00  0.00    -0.354 N 
ATOM     44  C   UNL A   1      40.281  28.333  28.797  1.00  0.00     0.074 A 
ATOM     45  C   UNL A   1      39.390  28.431  27.658  1.00  0.00     0.031 C 
ATOM     46  C   UNL A   1      37.492  32.217  33.097  1.00  0.00     0.029 A 
ATOM     47  C   UNL A   1      38.710  31.432  33.268  1.00  0.00     0.049 A 
ATOM     48  H   UNL A   1      39.660  30.245  31.842  1.00  0.00     0.167 HD
ATOM     49  C   UNL A   1      41.401  27.567  28.833  1.00  0.00     0.034 A 
ATOM     50  C   UNL A   1      39.431  31.352  34.404  1.00  0.00     0.034 A 
ATOM     51  C   UNL A   1      42.288  27.494  29.970  1.00  0.00     0.049 A 
ATOM     52  C   UNL A   1      40.667  30.490  34.426  1.00  0.00     0.074 A 
ATOM     53  C   UNL A   1      43.482  26.803  30.090  1.00  0.00     0.029 A 
ATOM     54  N   UNL A   1      42.076  28.130  31.188  1.00  0.00    -0.354 N 
ATOM     55  N   UNL A   1      41.167  29.738  33.473  1.00  0.00    -0.248 NA
ATOM     56  C   UNL A   1      41.439  30.474  35.675  1.00  0.00     0.031 C 
ATOM     57  C   UNL A   1      43.959  26.973  31.395  1.00  0.00     0.029 A 
ATOM     58  C   UNL A   1      43.101  27.824  32.071  1.00  0.00     0.049 A 
ATOM     59  H   UNL A   1      41.308  28.711  31.392  1.00  0.00     0.167 HD
ATOM     60  C   UNL A   1      42.329  29.182  34.001  1.00  0.00     0.074 A 
ATOM     61  C   UNL A   1      42.459  29.695  35.350  1.00  0.00     0.031 C 
ATOM     62  C   UNL A   1      43.212  28.330  33.420  1.00  0.00     0.034 A 
BRANCH  49  63
ATOM     63  C   UNL A   1      41.703  26.732  27.611  1.00  0.00     0.023 A 
ATOM     64  C   UNL A   1      41.341  25.374  27.540  1.00  0.00     0.031 A 
ATOM     65  C   UNL A   1      42.405  27.281  26.524  1.00  0.00     0.131 A 
ATOM     66  C   UNL A   1      41.763  24.593  26.455  1.00  0.00     0.055 A 
ATOM     67  C   UNL A   1      42.745  26.517  25.405  1.00  0.00     0.041 A 
ATOM     68  F   UNL A   1      42.793  28.566  26.540  1.00  0.00    -0.206 F 
ATOM     69  C   UNL A   1      42.442  25.160  25.375  1.00  0.00     0.022 A 
BRANCH  66  70
ATOM     70  S   UNL A   1      41.556  22.793  26.557  1.00  0.00     0.124 S 
ATOM     71  O   UNL A   1      42.188  22.496  27.839  1.00  0.00    -0.237 OA
ATOM     72  O   UNL A   1      40.107  22.638  26.508  1.00  0.00    -0.237 OA
ATOM     73  O   UNL A   1      42.277  22.298  25.386  1.00  0.00    -0.744 OA
ENDBRANCH  66  70
ENDBRANCH  49  63
BRANCH  50  74
ATOM     74  C   UNL A   1      39.006  32.101  35.619  1.00  0.00     0.023 A 
ATOM     75  C   UNL A   1      38.340  31.451  36.670  1.00  0.00     0.031 A 
ATOM     76  C   UNL A   1      39.233  33.483  35.736  1.00  0.00     0.131 A 
ATOM     77  C   UNL A   1      37.889  32.188  37.775  1.00  0.00     0.055 A 
ATOM     78  C   UNL A   1      38.823  34.205  36.858  1.00  0.00     0.041 A 
ATOM     79  F   UNL A   1      39.875  34.150  34.762  1.00  0.00    -0.206 F 
ATOM     80  C   UNL A   1      38.135  33.559  37.881  1.00  0.00     0.022 A 
BRANCH  77  81
ATOM     81  S   UNL A   1      36.915  31.339  39.049  1.00  0.00     0.124 S 
ATOM     82  O   UNL A   1      36.779  30.003  38.479  1.00  0.00    -0.237 OA
ATOM     83  O   UNL A   1      37.781  31.453  40.217  1.00  0.00    -0.237 OA
ATOM     84  O   UNL A   1      35.682  32.120  39.111  1.00  0.00    -0.744 OA
ENDBRANCH  77  81
ENDBRANCH  50  74
BRANCH  62  85
ATOM     85  C   UNL A   1      44.418  27.937  34.235  1.00  0.00     0.023 A 
ATOM     86  C   UNL A   1      44.387  26.856  35.133  1.00  0.00     0.031 A 
ATOM     87  C   UNL A   1      45.615  28.667  34.119  1.00  0.00     0.131 A 
ATOM     88  C   UNL A   1      45.513  26.568  35.919  1.00  0.00     0.055 A 
ATOM     89  C   UNL A   1      46.749  28.342  34.864  1.00  0.00     0.041 A 
ATOM     90  F   UNL A   1      45.699  29.710  33.278  1.00  0.00    -0.206 F 
ATOM     91  C   UNL A   1      46.698  27.295  35.780  1.00  0.00     0.022 A 
BRANCH  88  92
ATOM     92  S   UNL A   1      45.383  25.282  37.193  1.00  0.00     0.124 S 
ATOM     93  O   UNL A   1      45.550  24.062  36.409  1.00  0.00    -0.237 OA
ATOM     94  O   UNL A   1      46.485  25.619  38.089  1.00  0.00    -0.237 OA
ATOM     95  O   UNL A   1      44.047  25.483  37.750  1.00  0.00    -0.744 OA
ENDBRANCH  88  92
ENDBRANCH  62  85
ENDBRANCH  36  37
ENDBRANCH  28  31
ENDBRANCH  26  27
ENDBRANCH  25  26
ENDBRANCH   1  25
TORSDOF 18
ENDMDL
MODEL 2
REMARK VINA RESULT:     -11.8      5.077      9.903
REMARK SMILES Cn1cc(C(=O)NCCc2ccccc2)c(C(=O)NCCCCNC(=O)c2ccc(-c3c4nc(c(-c5cc(S(=O)(=O)[O-])ccc5F)c5ccc([nH]5)c(-c5cc(S(=O)(=O)[O-])ccc5F)c5nc(c(-c6cc(S(=O)(=O)[O-])ccc6F)c6ccc3[nH]6)C=C5)C=C4)cc2)n1
REMARK SMILES IDX 21 1 20 2 19 3 17 4 18 5 16 7 1 8 2 9 3 10 90 11 4 12 5 13
REMARK SMILES IDX 6 14 7 15 8 17 9 18 10 19 11 20 15 21 12 22 14 23 13 24
REMARK SMILES IDX 22 25 23 26 24 27 25 28 26 30 27 31 28 32 89 33 29 34 88 35
REMARK SMILES IDX 30 36 31 37 32 38 82 39 33 40 87 41 81 42 83 43 34 44 86 45
REMARK SMILES IDX 80 46 79 47 35 49 67 50 47 51 66 52 48 53 51 54 65 55 84 56
REMARK SMILES IDX 49 57 50 58 64 60 85 61 52 62 36 63 37 64 45 65 38 66 44 67
REMARK SMILES IDX 46 68 43 69 39 70 40 71 41 72 42 73 68 74 69 75 77 76 70 77
REMARK SMILES IDX 76 78 78 79 75 80 71 81 72 82 73 83 74 84 53 85 54 86 62 87
REMARK SMILES IDX 55 88 61 89 63 90 60 91 56 92 57 93 58 94 59 95
REMARK H PARENT 19 6 7 16 24 29 83 48 51 59
REMARK Flexibility Score: inf
ROOT
ATOM      1  C   UNL A   1      34.829  23.772  24.377  1.00  0.00     0.023 C 
ENDROOT
BRANCH   1   2
ATOM      2  C   UNL A   1      33.569  23.922  23.531  1.00  0.00     0.116 C 
BRANCH   2   3
ATOM      3  N   UNL A   1      33.644  24.990  22.564  1.00  0.00    -0.351 N 
ATOM      4  C   UNL A   1      33.465  26.347  22.705  1.00  0.00     0.272 C 
ATOM      5  O   UNL A   1      33.625  27.021  21.682  1.00  0.00    -0.267 OA
ATOM      6  H   UNL A   1      33.860  24.699  21.648  1.00  0.00     0.163 HD
BRANCH   4   7
ATOM      7  C   UNL A   1      33.037  26.970  23.978  1.00  0.00     0.162 A 
ATOM      8  C   UNL A   1      34.121  28.668  26.845  1.00  0.00     0.173 C 
ATOM      9  N   UNL A   1      33.363  27.992  25.820  1.00  0.00    -0.274 N 
ATOM     10  C   UNL A   1      32.095  27.519  25.922  1.00  0.00     0.123 A 
ATOM     11  N   UNL A   1      33.943  27.713  24.654  1.00  0.00    -0.167 NA
ATOM     12  C   UNL A   1      31.808  26.880  24.728  1.00  0.00     0.090 A 
BRANCH  12  13
ATOM     13  C   UNL A   1      30.608  26.135  24.404  1.00  0.00     0.255 C 
ATOM     14  O   UNL A   1      30.416  25.004  24.865  1.00  0.00    -0.269 OA
ATOM     15  N   UNL A   1      29.661  26.634  23.546  1.00  0.00    -0.352 N 
ATOM     16  H   UNL A   1      28.914  26.015  23.381  1.00  0.00     0.163 HD
BRANCH  15  17
ATOM     17  C   UNL A   1      29.539  27.898  22.827  1.00  0.00     0.121 C 
BRANCH  17  18
ATOM     18  C   UNL A   1      28.222  28.639  23.073  1.00  0.00     0.057 C 
BRANCH  18  19
ATOM     19  C   UNL A   1      28.266  30.081  22.627  1.00  0.00    -0.046 A 
ATOM     20  C   UNL A   1      28.447  31.112  23.561  1.00  0.00     0.004 A 
ATOM     21  C   UNL A   1      28.109  30.409  21.275  1.00  0.00     0.004 A 
ATOM     22  C   UNL A   1      28.472  32.446  23.148  1.00  0.00     0.000 A 
ATOM     23  C   UNL A   1      28.129  31.742  20.865  1.00  0.00     0.000 A 
ATOM     24  C   UNL A   1      28.311  32.760  21.800  1.00  0.00     0.000 A 
ENDBRANCH  18  19
ENDBRANCH  17  18
ENDBRANCH  15  17
ENDBRANCH  12  13
ENDBRANCH   4   7
ENDBRANCH   2   3
ENDBRANCH   1   2
BRANCH   1  25
ATOM     25  C   UNL A   1      35.476  22.386  24.398  1.00  0.00     0.023 C 
BRANCH  25  26
ATOM     26  C   UNL A   1      36.165  21.965  25.693  1.00  0.00     0.116 C 
BRANCH  26  27
ATOM     27  N   UNL A   1      37.221  20.980  25.507  1.00  0.00    -0.352 N 
ATOM     28  C   UNL A   1      38.571  21.064  25.761  1.00  0.00     0.251 C 
ATOM     29  H   UNL A   1      36.923  20.117  25.139  1.00  0.00     0.163 HD
ATOM     30  O   UNL A   1      39.303  20.129  25.445  1.00  0.00    -0.269 OA
BRANCH  28  31
ATOM     31  C   UNL A   1      39.145  22.290  26.363  1.00  0.00     0.039 A 
ATOM     32  C   UNL A   1      40.271  22.174  27.183  1.00  0.00     0.014 A 
ATOM     33  C   UNL A   1      38.604  23.551  26.099  1.00  0.00     0.014 A 
ATOM     34  C   UNL A   1      40.915  23.325  27.648  1.00  0.00     0.010 A 
ATOM     35  C   UNL A   1      39.292  24.696  26.494  1.00  0.00     0.010 A 
ATOM     36  C   UNL A   1      40.465  24.597  27.258  1.00  0.00    -0.014 A 
BRANCH  36  37
ATOM     37  C   UNL A   1      41.218  25.832  27.613  1.00  0.00     0.031 A 
ATOM     38  C   UNL A   1      40.561  26.917  28.421  1.00  0.00     0.074 A 
ATOM     39  C   UNL A   1      42.464  26.015  27.131  1.00  0.00     0.049 A 
ATOM     40  N   UNL A   1      41.011  28.105  28.738  1.00  0.00    -0.248 NA
ATOM     41  C   UNL A   1      39.201  26.640  28.905  1.00  0.00     0.031 C 
ATOM     42  C   UNL A   1      43.194  25.064  26.290  1.00  0.00     0.029 A 
ATOM     43  N   UNL A   1      43.332  27.071  27.263  1.00  0.00    -0.354 N 
ATOM     44  C   UNL A   1      39.982  28.727  29.438  1.00  0.00     0.074 A 
ATOM     45  C   UNL A   1      38.866  27.803  29.443  1.00  0.00     0.031 C 
ATOM     46  C   UNL A   1      44.406  25.567  26.003  1.00  0.00     0.029 A 
ATOM     47  C   UNL A   1      44.525  26.894  26.598  1.00  0.00     0.049 A 
ATOM     48  H   UNL A   1      43.123  27.877  27.787  1.00  0.00     0.167 HD
ATOM     49  C   UNL A   1      39.975  29.942  30.041  1.00  0.00     0.034 A 
ATOM     50  C   UNL A   1      45.588  27.712  26.470  1.00  0.00     0.034 A 
ATOM     51  C   UNL A   1      41.102  30.845  30.042  1.00  0.00     0.049 A 
ATOM     52  C   UNL A   1      45.559  29.060  27.142  1.00  0.00     0.074 A 
ATOM     53  C   UNL A   1      41.227  32.070  30.676  1.00  0.00     0.029 A 
ATOM     54  N   UNL A   1      42.299  30.625  29.370  1.00  0.00    -0.354 N 
ATOM     55  N   UNL A   1      44.598  29.612  27.846  1.00  0.00    -0.248 NA
ATOM     56  C   UNL A   1      46.762  29.892  27.007  1.00  0.00     0.031 C 
ATOM     57  C   UNL A   1      42.472  32.615  30.340  1.00  0.00     0.029 A 
ATOM     58  C   UNL A   1      43.154  31.702  29.552  1.00  0.00     0.049 A 
ATOM     59  H   UNL A   1      42.508  29.821  28.842  1.00  0.00     0.167 HD
ATOM     60  C   UNL A   1      45.093  30.845  28.261  1.00  0.00     0.074 A 
ATOM     61  C   UNL A   1      46.441  30.948  27.738  1.00  0.00     0.031 C 
ATOM     62  C   UNL A   1      44.490  31.801  29.013  1.00  0.00     0.034 A 
BRANCH  49  63
ATOM     63  C   UNL A   1      38.696  30.365  30.724  1.00  0.00     0.023 A 
ATOM     64  C   UNL A   1      37.644  30.967  30.009  1.00  0.00     0.031 A 
ATOM     65  C   UNL A   1      38.541  30.213  32.113  1.00  0.00     0.131 A 
ATOM     66  C   UNL A   1      36.533  31.477  30.695  1.00  0.00     0.055 A 
ATOM     67  C   UNL A   1      37.391  30.643  32.778  1.00  0.00     0.041 A 
ATOM     68  F   UNL A   1      39.516  29.660  32.852  1.00  0.00    -0.206 F 
ATOM     69  C   UNL A   1      36.387  31.299  32.072  1.00  0.00     0.022 A 
BRANCH  66  70
ATOM     70  S   UNL A   1      35.363  32.524  29.784  1.00  0.00     0.124 S 
ATOM     71  O   UNL A   1      34.338  32.770  30.795  1.00  0.00    -0.237 OA
ATOM     72  O   UNL A   1      36.186  33.670  29.416  1.00  0.00    -0.237 OA
ATOM     73  O   UNL A   1      34.939  31.676  28.672  1.00  0.00    -0.744 OA
ENDBRANCH  66  70
ENDBRANCH  49  63
BRANCH  50  74
ATOM     74  C   UNL A   1      46.772  27.287  25.672  1.00  0.00     0.023 A 
ATOM     75  C   UNL A   1      46.959  27.747  24.359  1.00  0.00     0.031 A 
ATOM     76  C   UNL A   1      47.719  26.391  26.199  1.00  0.00     0.131 A 
ATOM     77  C   UNL A   1      48.045  27.282  23.602  1.00  0.00     0.055 A 
ATOM     78  C   UNL A   1      48.823  25.965  25.458  1.00  0.00     0.041 A 
ATOM     79  F   UNL A   1      47.591  25.929  27.454  1.00  0.00    -0.206 F 
ATOM     80  C   UNL A   1      48.984  26.402  24.145  1.00  0.00     0.022 A 
BRANCH  77  81
ATOM     81  S   UNL A   1      48.177  27.794  21.867  1.00  0.00     0.124 S 
ATOM     82  O   UNL A   1      49.316  28.704  21.911  1.00  0.00    -0.237 OA
ATOM     83  O   UNL A   1      48.400  26.520  21.192  1.00  0.00    -0.237 OA
ATOM     84  O   UNL A   1      46.886  28.420  21.598  1.00  0.00    -0.744 OA
ENDBRANCH  77  81
ENDBRANCH  50  74
BRANCH  62  85
ATOM     85  C   UNL A   1      45.309  33.023  29.346  1.00  0.00     0.023 A 
ATOM     86  C   UNL A   1      45.388  34.123  28.475  1.00  0.00     0.031 A 
ATOM     87  C   UNL A   1      46.032  33.079  30.552  1.00  0.00     0.131 A 
ATOM     88  C   UNL A   1      46.215  35.211  28.795  1.00  0.00     0.055 A 
ATOM     89  C   UNL A   1      46.810  34.188  30.890  1.00  0.00     0.041 A 
ATOM     90  F   UNL A   1      45.994  32.056  31.419  1.00  0.00    -0.206 F 
ATOM     91  C   UNL A   1      46.914  35.256  30.004  1.00  0.00     0.022 A 
BRANCH  88  92
ATOM     92  S   UNL A   1      46.433  36.533  27.572  1.00  0.00     0.124 S 
ATOM     93  O   UNL A   1      47.866  36.462  27.300  1.00  0.00    -0.237 OA
ATOM     94  O   UNL A   1      45.557  36.102  26.487  1.00  0.00    -0.237 OA
ATOM     95  O   UNL A   1      45.996  37.733  28.282  1.00  0.00    -0.744 OA
ENDBRANCH  88  92
ENDBRANCH  62  85
ENDBRANCH  36  37
ENDBRANCH  28  31
ENDBRANCH  26  27
ENDBRANCH  25  26
ENDBRANCH   1  25
TORSDOF 18
ENDMDL
MODEL 3
REMARK VINA RESULT:     -11.8      5.070      7.607
REMARK SMILES Cn1cc(C(=O)NCCc2ccccc2)c(C(=O)NCCCCNC(=O)c2ccc(-c3c4nc(c(-c5cc(S(=O)(=O)[O-])ccc5F)c5ccc([nH]5)c(-c5cc(S(=O)(=O)[O-])ccc5F)c5nc(c(-c6cc(S(=O)(=O)[O-])ccc6F)c6ccc3[nH]6)C=C5)C=C4)cc2)n1
REMARK SMILES IDX 21 1 20 2 19 3 17 4 18 5 16 7 1 8 2 9 3 10 90 11 4 12 5 13
REMARK SMILES IDX 6 14 7 15 8 17 9 18 10 19 11 20 15 21 12 22 14 23 13 24
REMARK SMILES IDX 22 25 23 26 24 27 25 28 26 30 27 31 28 32 89 33 29 34 88 35
REMARK SMILES IDX 30 36 31 37 32 38 82 39 33 40 87 41 81 42 83 43 34 44 86 45
REMARK SMILES IDX 80 46 79 47 35 49 67 50 47 51 66 52 48 53 51 54 65 55 84 56
REMARK SMILES IDX 49 57 50 58 64 60 85 61 52 62 36 63 37 64 45 65 38 66 44 67
REMARK SMILES IDX 46 68 43 69 39 70 40 71 41 72 42 73 68 74 69 75 77 76 70 77
REMARK SMILES IDX 76 78 78 79 75 80 71 81 72 82 73 83 74 84 53 85 54 86 62 87
REMARK SMILES IDX 55 88 61 89 63 90 60 91 56 92 57 93 58 94 59 95
REMARK H PARENT 19 6 7 16 24 29 83 48 51 59
REMARK Flexibility Score: inf
ROOT
ATOM      1  C   UNL A   1      35.348  21.999  26.550  1.00  0.00     0.023 C 
ENDROOT
BRANCH   1   2
ATOM      2  C   UNL A   1      34.047  21.448  27.124  1.00  0.00     0.116 C 
BRANCH   2   3
ATOM      3  N   UNL A   1      33.047  22.459  27.368  1.00  0.00    -0.351 N 
ATOM      4  C   UNL A   1      32.261  23.177  26.496  1.00  0.00     0.272 C 
ATOM      5  O   UNL A   1      31.464  23.966  27.013  1.00  0.00    -0.267 OA
ATOM      6  H   UNL A   1      32.902  22.671  28.319  1.00  0.00     0.163 HD
BRANCH   4   7
ATOM      7  C   UNL A   1      32.399  23.077  25.025  1.00  0.00     0.162 A 
ATOM      8  C   UNL A   1      31.941  21.004  22.237  1.00  0.00     0.173 C 
ATOM      9  N   UNL A   1      32.258  22.078  23.147  1.00  0.00    -0.274 N 
ATOM     10  C   UNL A   1      33.030  23.164  22.888  1.00  0.00     0.123 A 
ATOM     11  N   UNL A   1      31.833  22.015  24.408  1.00  0.00    -0.167 NA
ATOM     12  C   UNL A   1      33.121  23.882  24.070  1.00  0.00     0.090 A 
BRANCH  12  13
ATOM     13  C   UNL A   1      33.920  25.066  24.311  1.00  0.00     0.255 C 
ATOM     14  O   UNL A   1      35.005  24.994  24.899  1.00  0.00    -0.269 OA
ATOM     15  N   UNL A   1      33.489  26.313  23.934  1.00  0.00    -0.352 N 
ATOM     16  H   UNL A   1      34.107  27.036  24.188  1.00  0.00     0.163 HD
BRANCH  15  17
ATOM     17  C   UNL A   1      32.299  26.784  23.234  1.00  0.00     0.121 C 
BRANCH  17  18
ATOM     18  C   UNL A   1      31.097  27.053  24.144  1.00  0.00     0.057 C 
BRANCH  18  19
ATOM     19  C   UNL A   1      31.381  28.092  25.202  1.00  0.00    -0.046 A 
ATOM     20  C   UNL A   1      31.422  29.455  24.870  1.00  0.00     0.004 A 
ATOM     21  C   UNL A   1      31.624  27.708  26.525  1.00  0.00     0.004 A 
ATOM     22  C   UNL A   1      31.700  30.414  25.846  1.00  0.00     0.000 A 
ATOM     23  C   UNL A   1      31.906  28.667  27.499  1.00  0.00     0.000 A 
ATOM     24  C   UNL A   1      31.944  30.019  27.160  1.00  0.00     0.000 A 
ENDBRANCH  18  19
ENDBRANCH  17  18
ENDBRANCH  15  17
ENDBRANCH  12  13
ENDBRANCH   4   7
ENDBRANCH   2   3
ENDBRANCH   1   2
BRANCH   1  25
ATOM     25  C   UNL A   1      35.738  21.511  25.153  1.00  0.00     0.023 C 
BRANCH  25  26
ATOM     26  C   UNL A   1      37.186  21.732  24.724  1.00  0.00     0.116 C 
BRANCH  26  27
ATOM     27  N   UNL A   1      38.111  20.729  25.230  1.00  0.00    -0.352 N 
ATOM     28  C   UNL A   1      39.226  20.867  26.025  1.00  0.00     0.251 C 
ATOM     29  H   UNL A   1      37.908  19.804  24.961  1.00  0.00     0.163 HD
ATOM     30  O   UNL A   1      39.920  19.882  26.266  1.00  0.00    -0.269 OA
BRANCH  28  31
ATOM     31  C   UNL A   1      39.616  22.199  26.543  1.00  0.00     0.039 A 
ATOM     32  C   UNL A   1      40.703  22.290  27.417  1.00  0.00     0.014 A 
ATOM     33  C   UNL A   1      38.941  23.357  26.150  1.00  0.00     0.014 A 
ATOM     34  C   UNL A   1      41.179  23.546  27.808  1.00  0.00     0.010 A 
ATOM     35  C   UNL A   1      39.464  24.607  26.475  1.00  0.00     0.010 A 
ATOM     36  C   UNL A   1      40.599  24.717  27.293  1.00  0.00    -0.014 A 
BRANCH  36  37
ATOM     37  C   UNL A   1      41.178  26.060  27.573  1.00  0.00     0.031 A 
ATOM     38  C   UNL A   1      42.577  26.392  27.128  1.00  0.00     0.074 A 
ATOM     39  C   UNL A   1      40.479  26.948  28.307  1.00  0.00     0.049 A 
ATOM     40  N   UNL A   1      43.293  27.460  27.370  1.00  0.00    -0.248 NA
ATOM     41  C   UNL A   1      43.272  25.367  26.336  1.00  0.00     0.031 C 
ATOM     42  C   UNL A   1      39.134  26.729  28.846  1.00  0.00     0.029 A 
ATOM     43  N   UNL A   1      40.806  28.209  28.743  1.00  0.00    -0.354 N 
ATOM     44  C   UNL A   1      44.531  27.229  26.780  1.00  0.00     0.074 A 
ATOM     45  C   UNL A   1      44.482  25.892  26.224  1.00  0.00     0.031 C 
ATOM     46  C   UNL A   1      38.743  27.824  29.518  1.00  0.00     0.029 A 
ATOM     47  C   UNL A   1      39.822  28.806  29.499  1.00  0.00     0.049 A 
ATOM     48  H   UNL A   1      41.662  28.645  28.534  1.00  0.00     0.167 HD
ATOM     49  C   UNL A   1      45.600  28.060  26.689  1.00  0.00     0.034 A 
ATOM     50  C   UNL A   1      39.795  30.003  30.117  1.00  0.00     0.034 A 
ATOM     51  C   UNL A   1      45.628  29.396  27.234  1.00  0.00     0.049 A 
ATOM     52  C   UNL A   1      40.995  30.909  30.010  1.00  0.00     0.074 A 
ATOM     53  C   UNL A   1      46.631  30.346  27.143  1.00  0.00     0.029 A 
ATOM     54  N   UNL A   1      44.606  29.973  27.980  1.00  0.00    -0.354 N 
ATOM     55  N   UNL A   1      42.139  30.696  29.403  1.00  0.00    -0.248 NA
ATOM     56  C   UNL A   1      40.894  32.219  30.665  1.00  0.00     0.031 C 
ATOM     57  C   UNL A   1      46.243  31.470  27.881  1.00  0.00     0.029 A 
ATOM     58  C   UNL A   1      44.968  31.252  28.377  1.00  0.00     0.049 A 
ATOM     59  H   UNL A   1      43.751  29.536  28.195  1.00  0.00     0.167 HD
ATOM     60  C   UNL A   1      42.883  31.859  29.581  1.00  0.00     0.074 A 
ATOM     61  C   UNL A   1      42.053  32.771  30.341  1.00  0.00     0.031 C 
ATOM     62  C   UNL A   1      44.137  32.147  29.148  1.00  0.00     0.034 A 
BRANCH  49  63
ATOM     63  C   UNL A   1      46.831  27.526  25.995  1.00  0.00     0.023 A 
ATOM     64  C   UNL A   1      47.177  27.933  24.693  1.00  0.00     0.031 A 
ATOM     65  C   UNL A   1      47.643  26.562  26.616  1.00  0.00     0.131 A 
ATOM     66  C   UNL A   1      48.241  27.313  24.024  1.00  0.00     0.055 A 
ATOM     67  C   UNL A   1      48.756  26.012  25.977  1.00  0.00     0.041 A 
ATOM     68  F   UNL A   1      47.356  26.121  27.851  1.00  0.00    -0.206 F 
ATOM     69  C   UNL A   1      49.049  26.371  24.665  1.00  0.00     0.022 A 
BRANCH  66  70
ATOM     70  S   UNL A   1      48.449  27.633  22.250  1.00  0.00     0.124 S 
ATOM     71  O   UNL A   1      47.231  28.378  21.941  1.00  0.00    -0.237 OA
ATOM     72  O   UNL A   1      49.691  28.396  22.210  1.00  0.00    -0.237 OA
ATOM     73  O   UNL A   1      48.518  26.296  21.666  1.00  0.00    -0.744 OA
ENDBRANCH  66  70
ENDBRANCH  49  63
BRANCH  50  74
ATOM     74  C   UNL A   1      38.597  30.420  30.898  1.00  0.00     0.023 A 
ATOM     75  C   UNL A   1      37.558  31.145  30.293  1.00  0.00     0.031 A 
ATOM     76  C   UNL A   1      38.486  30.126  32.268  1.00  0.00     0.131 A 
ATOM     77  C   UNL A   1      36.471  31.585  31.063  1.00  0.00     0.055 A 
ATOM     78  C   UNL A   1      37.381  30.527  33.022  1.00  0.00     0.041 A 
ATOM     79  F   UNL A   1      39.449  29.427  32.893  1.00  0.00    -0.206 F 
ATOM     80  C   UNL A   1      36.370  31.273  32.421  1.00  0.00     0.022 A 
BRANCH  77  81
ATOM     81  S   UNL A   1      35.216  32.633  30.277  1.00  0.00     0.124 S 
ATOM     82  O   UNL A   1      34.262  32.822  31.363  1.00  0.00    -0.237 OA
ATOM     83  O   UNL A   1      35.997  33.806  29.897  1.00  0.00    -0.237 OA
ATOM     84  O   UNL A   1      34.742  31.816  29.162  1.00  0.00    -0.744 OA
ENDBRANCH  77  81
ENDBRANCH  50  74
BRANCH  62  85
ATOM     85  C   UNL A   1      44.664  33.527  29.455  1.00  0.00     0.023 A 
ATOM     86  C   UNL A   1      44.380  34.630  28.631  1.00  0.00     0.031 A 
ATOM     87  C   UNL A   1      45.476  33.736  30.585  1.00  0.00     0.131 A 
ATOM     88  C   UNL A   1      44.946  35.881  28.919  1.00  0.00     0.055 A 
ATOM     89  C   UNL A   1      45.992  34.994  30.895  1.00  0.00     0.041 A 
ATOM     90  F   UNL A   1      45.781  32.717  31.404  1.00  0.00    -0.206 F 
ATOM     91  C   UNL A   1      45.738  36.073  30.054  1.00  0.00     0.022 A 
BRANCH  88  92
ATOM     92  S   UNL A   1      44.704  37.241  27.742  1.00  0.00     0.124 S 
ATOM     93  O   UNL A   1      45.907  37.148  26.920  1.00  0.00    -0.237 OA
ATOM     94  O   UNL A   1      43.455  36.867  27.086  1.00  0.00    -0.237 OA
ATOM     95  O   UNL A   1      44.627  38.424  28.595  1.00  0.00    -0.744 OA
ENDBRANCH  88  92
ENDBRANCH  62  85
ENDBRANCH  36  37
ENDBRANCH  28  31
ENDBRANCH  26  27
ENDBRANCH  25  26
ENDBRANCH   1  25
TORSDOF 18
ENDMDL
