MODEL 1
REMARK VINA RESULT:     -12.5      0.000      0.000
REMARK SMILES Nc1c(Nc2ncc(C(F)(F)F)cc2Cl)ncnc1N1CCC(C(=O)NCCCCNC(=O)c2ccc(-c3c4nc(c(-c5cc(S(=O)(=O)[O-])ccc5F)c5ccc([nH]5)c(-c5cc(S(=O)(=O)[O-])ccc5F)c5nc(c(-c6cc(S(=O)(=O)[O-])ccc6F)c6ccc3[nH]6)C=C5)C=C4)cc2)CC1
REMARK SMILES IDX 28 1 27 2 26 3 24 4 25 5 23 7 20 8 21 9 98 10 22 11 97 12
REMARK SMILES IDX 19 13 2 14 3 15 16 16 18 17 17 18 1 19 4 22 5 24 6 25 14 26
REMARK SMILES IDX 7 27 13 28 15 29 8 30 9 31 10 32 11 33 12 34 29 35 30 36
REMARK SMILES IDX 31 37 32 38 33 40 34 41 35 42 96 43 36 44 95 45 37 46 38 47
REMARK SMILES IDX 39 48 89 49 40 50 94 51 88 52 90 53 41 54 93 55 87 56 86 57
REMARK SMILES IDX 42 59 74 60 54 61 73 62 55 63 58 64 72 65 91 66 56 67 57 68
REMARK SMILES IDX 71 70 92 71 59 72 43 73 44 74 52 75 45 76 51 77 53 78 50 79
REMARK SMILES IDX 46 80 47 81 48 82 49 83 75 84 76 85 84 86 77 87 83 88 85 89
REMARK SMILES IDX 82 90 78 91 79 92 80 93 81 94 60 95 61 96 69 97 62 98 68 99
REMARK SMILES IDX 70 100 67 101 63 102 64 103 65 104 66 105
REMARK H PARENT 26 6 1 20 1 21 4 23 31 39 90 58 58 69
REMARK Flexibility Score: inf
ROOT
ATOM      1  C   UNL A   1      35.863  21.193  25.038  1.00  0.00     0.023 C 
ENDROOT
BRANCH   1   2
ATOM      2  C   UNL A   1      34.767  21.087  26.094  1.00  0.00     0.116 C 
BRANCH   2   3
ATOM      3  N   UNL A   1      33.954  19.895  25.923  1.00  0.00    -0.356 N 
ATOM      4  C   UNL A   1      32.735  19.724  25.342  1.00  0.00     0.223 C 
ATOM      5  O   UNL A   1      32.259  18.587  25.319  1.00  0.00    -0.275 OA
ATOM      6  H   UNL A   1      34.352  19.072  26.289  1.00  0.00     0.163 HD
BRANCH   4   7
ATOM      7  C   UNL A   1      31.975  20.882  24.715  1.00  0.00     0.082 C 
ATOM      8  N   UNL A   1      31.724  23.630  24.010  1.00  0.00    -0.355 N 
ATOM      9  C   UNL A   1      30.929  23.154  25.127  1.00  0.00     0.119 C 
ATOM     10  C   UNL A   1      32.062  22.704  22.943  1.00  0.00     0.119 C 
ATOM     11  C   UNL A   1      31.552  21.922  25.759  1.00  0.00     0.035 C 
ATOM     12  C   UNL A   1      32.720  21.448  23.499  1.00  0.00     0.035 C 
BRANCH   8  13
ATOM     13  C   UNL A   1      32.472  24.791  24.175  1.00  0.00     0.157 A 
ATOM     14  C   UNL A   1      32.240  25.881  23.320  1.00  0.00     0.118 A 
ATOM     15  C   UNL A   1      32.943  27.058  23.611  1.00  0.00     0.160 A 
ATOM     16  N   UNL A   1      33.865  27.122  24.586  1.00  0.00    -0.217 NA
ATOM     17  N   UNL A   1      33.369  24.849  25.174  1.00  0.00    -0.217 NA
ATOM     18  C   UNL A   1      34.035  26.007  25.310  1.00  0.00     0.226 A 
BRANCH  14  19
ATOM     19  N   UNL A   1      31.201  25.869  22.365  1.00  0.00    -0.393 N 
ATOM     20  H   UNL A   1      30.751  25.023  22.138  1.00  0.00     0.156 HD
ATOM     21  H   UNL A   1      30.927  26.706  21.923  1.00  0.00     0.156 HD
ENDBRANCH  14  19
BRANCH  15  22
ATOM     22  N   UNL A   1      32.584  28.216  22.876  1.00  0.00    -0.322 N 
ATOM     23  H   UNL A   1      33.195  28.465  22.146  1.00  0.00     0.170 HD
BRANCH  22  24
ATOM     24  C   UNL A   1      31.482  29.048  23.050  1.00  0.00     0.150 A 
ATOM     25  N   UNL A   1      30.687  29.141  21.951  1.00  0.00    -0.237 NA
ATOM     26  C   UNL A   1      31.196  29.767  24.217  1.00  0.00     0.084 A 
ATOM     27  C   UNL A   1      29.557  29.880  22.035  1.00  0.00     0.126 A 
ATOM     28  C   UNL A   1      30.028  30.534  24.268  1.00  0.00     0.039 A 
ATOM     29  Cl  UNL A   1      32.273  29.867  25.562  1.00  0.00    -0.080 Cl
ATOM     30  C   UNL A   1      29.175  30.585  23.162  1.00  0.00     0.075 A 
BRANCH  30  31
ATOM     31  C   UNL A   1      27.898  31.362  23.153  1.00  0.00     0.417 C 
ATOM     32  F   UNL A   1      27.139  31.125  24.259  1.00  0.00    -0.166 F 
ATOM     33  F   UNL A   1      28.108  32.707  23.130  1.00  0.00    -0.166 F 
ATOM     34  F   UNL A   1      27.098  31.088  22.088  1.00  0.00    -0.166 F 
ENDBRANCH  30  31
ENDBRANCH  22  24
ENDBRANCH  15  22
ENDBRANCH   8  13
ENDBRANCH   4   7
ENDBRANCH   2   3
ENDBRANCH   1   2
BRANCH   1  35
ATOM     35  C   UNL A   1      36.095  22.604  24.499  1.00  0.00     0.023 C 
BRANCH  35  36
ATOM     36  C   UNL A   1      37.354  23.293  25.013  1.00  0.00     0.116 C 
BRANCH  36  37
ATOM     37  N   UNL A   1      38.306  22.369  25.609  1.00  0.00    -0.352 N 
ATOM     38  C   UNL A   1      39.395  22.644  26.400  1.00  0.00     0.251 C 
ATOM     39  H   UNL A   1      38.147  21.415  25.421  1.00  0.00     0.163 HD
ATOM     40  O   UNL A   1      40.168  21.745  26.716  1.00  0.00    -0.269 OA
BRANCH  38  41
ATOM     41  C   UNL A   1      39.642  24.035  26.828  1.00  0.00     0.039 A 
ATOM     42  C   UNL A   1      39.379  24.388  28.152  1.00  0.00     0.014 A 
ATOM     43  C   UNL A   1      40.178  24.969  25.936  1.00  0.00     0.014 A 
ATOM     44  C   UNL A   1      39.724  25.663  28.604  1.00  0.00     0.010 A 
ATOM     45  C   UNL A   1      40.584  26.215  26.406  1.00  0.00     0.010 A 
ATOM     46  C   UNL A   1      40.363  26.572  27.744  1.00  0.00    -0.014 A 
BRANCH  46  47
ATOM     47  C   UNL A   1      40.797  27.902  28.235  1.00  0.00     0.031 A 
ATOM     48  C   UNL A   1      42.257  28.263  28.232  1.00  0.00     0.074 A 
ATOM     49  C   UNL A   1      39.882  28.770  28.712  1.00  0.00     0.049 A 
ATOM     50  N   UNL A   1      42.836  29.361  28.643  1.00  0.00    -0.248 NA
ATOM     51  C   UNL A   1      43.189  27.244  27.727  1.00  0.00     0.031 C 
ATOM     52  C   UNL A   1      38.443  28.515  28.803  1.00  0.00     0.029 A 
ATOM     53  N   UNL A   1      40.025  30.043  29.202  1.00  0.00    -0.354 N 
ATOM     54  C   UNL A   1      44.197  29.164  28.450  1.00  0.00     0.074 A 
ATOM     55  C   UNL A   1      44.362  27.819  27.943  1.00  0.00     0.031 C 
ATOM     56  C   UNL A   1      37.832  29.612  29.278  1.00  0.00     0.029 A 
ATOM     57  C   UNL A   1      38.835  30.635  29.555  1.00  0.00     0.049 A 
ATOM     58  H   UNL A   1      40.897  30.491  29.291  1.00  0.00     0.167 HD
ATOM     59  C   UNL A   1      45.215  30.037  28.649  1.00  0.00     0.034 A 
ATOM     60  C   UNL A   1      38.581  31.866  30.044  1.00  0.00     0.034 A 
ATOM     61  C   UNL A   1      45.037  31.382  29.127  1.00  0.00     0.049 A 
ATOM     62  C   UNL A   1      39.728  32.813  30.269  1.00  0.00     0.074 A 
ATOM     63  C   UNL A   1      45.994  32.366  29.309  1.00  0.00     0.029 A 
ATOM     64  N   UNL A   1      43.820  31.937  29.498  1.00  0.00    -0.354 N 
ATOM     65  N   UNL A   1      41.009  32.618  30.059  1.00  0.00    -0.248 NA
ATOM     66  C   UNL A   1      39.398  34.143  30.799  1.00  0.00     0.031 C 
ATOM     67  C   UNL A   1      45.363  33.498  29.833  1.00  0.00     0.029 A 
ATOM     68  C   UNL A   1      44.004  33.239  29.930  1.00  0.00     0.049 A 
ATOM     69  H   UNL A   1      42.953  31.471  29.460  1.00  0.00     0.167 HD
ATOM     70  C   UNL A   1      41.636  33.806  30.416  1.00  0.00     0.074 A 
ATOM     71  C   UNL A   1      40.595  34.714  30.851  1.00  0.00     0.031 C 
ATOM     72  C   UNL A   1      42.955  34.120  30.380  1.00  0.00     0.034 A 
BRANCH  59  73
ATOM     73  C   UNL A   1      46.608  29.550  28.352  1.00  0.00     0.023 A 
ATOM     74  C   UNL A   1      47.400  28.953  29.347  1.00  0.00     0.031 A 
ATOM     75  C   UNL A   1      47.155  29.696  27.065  1.00  0.00     0.131 A 
ATOM     76  C   UNL A   1      48.718  28.576  29.056  1.00  0.00     0.055 A 
ATOM     77  C   UNL A   1      48.445  29.256  26.765  1.00  0.00     0.041 A 
ATOM     78  F   UNL A   1      46.448  30.277  26.085  1.00  0.00    -0.206 F 
ATOM     79  C   UNL A   1      49.239  28.701  27.765  1.00  0.00     0.022 A 
BRANCH  76  80
ATOM     80  S   UNL A   1      49.776  28.002  30.411  1.00  0.00     0.124 S 
ATOM     81  O   UNL A   1      49.985  26.603  30.047  1.00  0.00    -0.237 OA
ATOM     82  O   UNL A   1      50.942  28.872  30.297  1.00  0.00    -0.237 OA
ATOM     83  O   UNL A   1      48.954  28.216  31.601  1.00  0.00    -0.744 OA
ENDBRANCH  76  80
ENDBRANCH  59  73
BRANCH  60  84
ATOM     84  C   UNL A   1      37.184  32.273  30.346  1.00  0.00     0.023 A 
ATOM     85  C   UNL A   1      36.322  32.697  29.322  1.00  0.00     0.031 A 
ATOM     86  C   UNL A   1      36.689  32.238  31.660  1.00  0.00     0.131 A 
ATOM     87  C   UNL A   1      35.011  33.093  29.635  1.00  0.00     0.055 A 
ATOM     88  C   UNL A   1      35.376  32.603  31.961  1.00  0.00     0.041 A 
ATOM     89  F   UNL A   1      37.475  31.827  32.669  1.00  0.00    -0.206 F 
ATOM     90  C   UNL A   1      34.531  33.038  30.946  1.00  0.00     0.022 A 
BRANCH  87  91
ATOM     91  S   UNL A   1      33.942  33.697  28.301  1.00  0.00     0.124 S 
ATOM     92  O   UNL A   1      33.446  32.450  27.731  1.00  0.00    -0.237 OA
ATOM     93  O   UNL A   1      32.969  34.504  29.030  1.00  0.00    -0.237 OA
ATOM     94  O   UNL A   1      34.857  34.454  27.448  1.00  0.00    -0.744 OA
ENDBRANCH  87  91
ENDBRANCH  60  84
BRANCH  72  95
ATOM     95  C   UNL A   1      43.347  35.506  30.808  1.00  0.00     0.023 A 
ATOM     96  C   UNL A   1      43.462  36.551  29.878  1.00  0.00     0.031 A 
ATOM     97  C   UNL A   1      43.555  35.794  32.168  1.00  0.00     0.131 A 
ATOM     98  C   UNL A   1      43.800  37.839  30.318  1.00  0.00     0.055 A 
ATOM     99  C   UNL A   1      43.852  37.084  32.605  1.00  0.00     0.041 A 
ATOM    100  F   UNL A   1      43.450  34.825  33.093  1.00  0.00    -0.206 F 
ATOM    101  C   UNL A   1      43.978  38.115  31.677  1.00  0.00     0.022 A 
BRANCH  98 102
ATOM    102  S   UNL A   1      44.011  39.156  29.091  1.00  0.00     0.124 S 
ATOM    103  O   UNL A   1      44.189  38.394  27.859  1.00  0.00    -0.237 OA
ATOM    104  O   UNL A   1      42.762  39.902  29.203  1.00  0.00    -0.237 OA
ATOM    105  O   UNL A   1      45.199  39.870  29.555  1.00  0.00    -0.744 OA
ENDBRANCH  98 102
ENDBRANCH  72  95
ENDBRANCH  46  47
ENDBRANCH  38  41
ENDBRANCH  36  37
ENDBRANCH  35  36
ENDBRANCH   1  35
TORSDOF 19
ENDMDL
MODEL 2
REMARK VINA RESULT:     -12.2      3.462      8.163
REMARK SMILES Nc1c(Nc2ncc(C(F)(F)F)cc2Cl)ncnc1N1CCC(C(=O)NCCCCNC(=O)c2ccc(-c3c4nc(c(-c5cc(S(=O)(=O)[O-])ccc5F)c5ccc([nH]5)c(-c5cc(S(=O)(=O)[O-])ccc5F)c5nc(c(-c6cc(S(=O)(=O)[O-])ccc6F)c6ccc3[nH]6)C=C5)C=C4)cc2)CC1
REMARK SMILES IDX 28 1 27 2 26 3 24 4 25 5 23 7 20 8 21 9 98 10 22 11 97 12
REMARK SMILES IDX 19 13 2 14 3 15 16 16 18 17 17 18 1 19 4 22 5 24 6 25 14 26
REMARK SMILES IDX 7 27 13 28 15 29 8 30 9 31 10 32 11 33 12 34 29 35 30 36
REMARK SMILES IDX 31 37 32 38 33 40 34 41 35 42 96 43 36 44 95 45 37 46 38 47
REMARK SMILES IDX 39 48 89 49 40 50 94 51 88 52 90 53 41 54 93 55 87 56 86 57
REMARK SMILES IDX 42 59 74 60 54 61 73 62 55 63 58 64 72 65 91 66 56 67 57 68
REMARK SMILES IDX 71 70 92 71 59 72 43 73 44 74 52 75 45 76 51 77 53 78 50 79
REMARK SMILES IDX 46 80 47 81 48 82 49 83 75 84 76 85 84 86 77 87 83 88 85 89
REMARK SMILES IDX 82 90 78 91 79 92 80 93 81 94 60 95 61 96 69 97 62 98 68 99
REMARK SMILES IDX 70 100 67 101 63 102 64 103 65 104 66 105
REMARK H PARENT 26 6 1 20 1 21 4 23 31 39 90 58 58 69
REMARK Flexibility Score: inf
ROOT
ATOM      1  C   UNL A   1      37.401  21.239  24.826  1.00  0.00     0.023 C 
ENDROOT
BRANCH   1   2
ATOM      2  C   UNL A   1      35.922  21.114  25.176  1.00  0.00     0.116 C 
BRANCH   2   3
ATOM      3  N   UNL A   1      35.431  19.757  25.009  1.00  0.00    -0.356 N 
ATOM      4  C   UNL A   1      34.175  19.286  24.782  1.00  0.00     0.223 C 
ATOM      5  O   UNL A   1      34.024  18.068  24.667  1.00  0.00    -0.275 OA
ATOM      6  H   UNL A   1      36.124  19.060  25.070  1.00  0.00     0.163 HD
BRANCH   4   7
ATOM      7  C   UNL A   1      32.980  20.218  24.648  1.00  0.00     0.082 C 
ATOM      8  N   UNL A   1      31.842  22.793  24.216  1.00  0.00    -0.355 N 
ATOM      9  C   UNL A   1      31.832  22.279  25.574  1.00  0.00     0.119 C 
ATOM     10  C   UNL A   1      31.786  21.852  23.110  1.00  0.00     0.119 C 
ATOM     11  C   UNL A   1      32.930  21.250  25.780  1.00  0.00     0.035 C 
ATOM     12  C   UNL A   1      32.880  20.799  23.232  1.00  0.00     0.035 C 
BRANCH   8  13
ATOM     13  C   UNL A   1      32.310  24.084  23.998  1.00  0.00     0.157 A 
ATOM     14  C   UNL A   1      31.511  25.174  24.380  1.00  0.00     0.118 A 
ATOM     15  C   UNL A   1      32.087  26.444  24.239  1.00  0.00     0.160 A 
ATOM     16  N   UNL A   1      33.294  26.628  23.678  1.00  0.00    -0.217 NA
ATOM     17  N   UNL A   1      33.532  24.250  23.464  1.00  0.00    -0.217 NA
ATOM     18  C   UNL A   1      33.948  25.517  23.311  1.00  0.00     0.226 A 
BRANCH  14  19
ATOM     19  N   UNL A   1      30.292  24.998  25.069  1.00  0.00    -0.393 N 
ATOM     20  H   UNL A   1      29.615  24.376  24.719  1.00  0.00     0.156 HD
ATOM     21  H   UNL A   1      30.119  25.499  25.899  1.00  0.00     0.156 HD
ENDBRANCH  14  19
BRANCH  15  22
ATOM     22  N   UNL A   1      31.370  27.536  24.789  1.00  0.00    -0.322 N 
ATOM     23  H   UNL A   1      31.359  27.587  25.772  1.00  0.00     0.170 HD
BRANCH  22  24
ATOM     24  C   UNL A   1      30.680  28.546  24.126  1.00  0.00     0.150 A 
ATOM     25  N   UNL A   1      30.131  28.151  22.947  1.00  0.00    -0.237 NA
ATOM     26  C   UNL A   1      30.563  29.866  24.578  1.00  0.00     0.084 A 
ATOM     27  C   UNL A   1      29.389  29.044  22.253  1.00  0.00     0.126 A 
ATOM     28  C   UNL A   1      29.802  30.770  23.830  1.00  0.00     0.039 A 
ATOM     29  Cl  UNL A   1      31.415  30.485  25.946  1.00  0.00    -0.080 Cl
ATOM     30  C   UNL A   1      29.183  30.354  22.648  1.00  0.00     0.075 A 
BRANCH  30  31
ATOM     31  C   UNL A   1      28.335  31.256  21.811  1.00  0.00     0.417 C 
ATOM     32  F   UNL A   1      29.077  32.103  21.044  1.00  0.00    -0.166 F 
ATOM     33  F   UNL A   1      27.544  30.569  20.942  1.00  0.00    -0.166 F 
ATOM     34  F   UNL A   1      27.498  32.048  22.534  1.00  0.00    -0.166 F 
ENDBRANCH  30  31
ENDBRANCH  22  24
ENDBRANCH  15  22
ENDBRANCH   8  13
ENDBRANCH   4   7
ENDBRANCH   2   3
ENDBRANCH   1   2
BRANCH   1  35
ATOM     35  C   UNL A   1      38.245  20.013  25.171  1.00  0.00     0.023 C 
BRANCH  35  36
ATOM     36  C   UNL A   1      39.468  20.292  26.036  1.00  0.00     0.116 C 
BRANCH  36  37
ATOM     37  N   UNL A   1      40.419  19.192  26.049  1.00  0.00    -0.352 N 
ATOM     38  C   UNL A   1      41.787  19.235  26.174  1.00  0.00     0.251 C 
ATOM     39  H   UNL A   1      40.029  18.292  25.957  1.00  0.00     0.163 HD
ATOM     40  O   UNL A   1      42.449  18.211  26.038  1.00  0.00    -0.269 OA
BRANCH  38  41
ATOM     41  C   UNL A   1      42.446  20.531  26.432  1.00  0.00     0.039 A 
ATOM     42  C   UNL A   1      42.960  21.251  25.353  1.00  0.00     0.014 A 
ATOM     43  C   UNL A   1      42.510  21.050  27.729  1.00  0.00     0.014 A 
ATOM     44  C   UNL A   1      43.474  22.531  25.565  1.00  0.00     0.010 A 
ATOM     45  C   UNL A   1      42.959  22.353  27.926  1.00  0.00     0.010 A 
ATOM     46  C   UNL A   1      43.442  23.105  26.846  1.00  0.00    -0.014 A 
BRANCH  46  47
ATOM     47  C   UNL A   1      43.919  24.492  27.068  1.00  0.00     0.031 A 
ATOM     48  C   UNL A   1      42.971  25.539  27.581  1.00  0.00     0.074 A 
ATOM     49  C   UNL A   1      45.195  24.814  26.775  1.00  0.00     0.049 A 
ATOM     50  N   UNL A   1      43.190  26.807  27.814  1.00  0.00    -0.248 NA
ATOM     51  C   UNL A   1      41.588  25.110  27.841  1.00  0.00     0.031 C 
ATOM     52  C   UNL A   1      46.196  23.893  26.230  1.00  0.00     0.029 A 
ATOM     53  N   UNL A   1      45.871  26.001  26.901  1.00  0.00    -0.354 N 
ATOM     54  C   UNL A   1      41.975  27.326  28.243  1.00  0.00     0.074 A 
ATOM     55  C   UNL A   1      41.009  26.251  28.180  1.00  0.00     0.031 C 
ATOM     56  C   UNL A   1      47.367  24.538  26.110  1.00  0.00     0.029 A 
ATOM     57  C   UNL A   1      47.195  25.924  26.535  1.00  0.00     0.049 A 
ATOM     58  H   UNL A   1      45.449  26.829  27.222  1.00  0.00     0.167 HD
ATOM     59  C   UNL A   1      41.697  28.579  28.679  1.00  0.00     0.034 A 
ATOM     60  C   UNL A   1      48.162  26.863  26.545  1.00  0.00     0.034 A 
ATOM     61  C   UNL A   1      42.672  29.634  28.765  1.00  0.00     0.049 A 
ATOM     62  C   UNL A   1      47.826  28.251  27.021  1.00  0.00     0.074 A 
ATOM     63  C   UNL A   1      42.507  30.922  29.246  1.00  0.00     0.029 A 
ATOM     64  N   UNL A   1      43.995  29.525  28.361  1.00  0.00    -0.354 N 
ATOM     65  N   UNL A   1      46.676  28.719  27.446  1.00  0.00    -0.248 NA
ATOM     66  C   UNL A   1      48.916  29.237  27.017  1.00  0.00     0.031 C 
ATOM     67  C   UNL A   1      43.718  31.604  29.090  1.00  0.00     0.029 A 
ATOM     68  C   UNL A   1      44.652  30.727  28.560  1.00  0.00     0.049 A 
ATOM     69  H   UNL A   1      44.405  28.712  27.988  1.00  0.00     0.167 HD
ATOM     70  C   UNL A   1      46.908  30.050  27.774  1.00  0.00     0.074 A 
ATOM     71  C   UNL A   1      48.306  30.311  27.503  1.00  0.00     0.031 C 
ATOM     72  C   UNL A   1      46.042  30.972  28.263  1.00  0.00     0.034 A 
BRANCH  59  73
ATOM     73  C   UNL A   1      40.277  28.868  29.089  1.00  0.00     0.023 A 
ATOM     74  C   UNL A   1      39.890  28.849  30.439  1.00  0.00     0.031 A 
ATOM     75  C   UNL A   1      39.300  29.154  28.120  1.00  0.00     0.131 A 
ATOM     76  C   UNL A   1      38.545  29.052  30.781  1.00  0.00     0.055 A 
ATOM     77  C   UNL A   1      37.976  29.423  28.474  1.00  0.00     0.041 A 
ATOM     78  F   UNL A   1      39.613  29.166  26.816  1.00  0.00    -0.206 F 
ATOM     79  C   UNL A   1      37.590  29.363  29.810  1.00  0.00     0.022 A 
BRANCH  76  80
ATOM     80  S   UNL A   1      38.044  28.814  32.507  1.00  0.00     0.124 S 
ATOM     81  O   UNL A   1      36.675  29.325  32.486  1.00  0.00    -0.237 OA
ATOM     82  O   UNL A   1      38.185  27.373  32.685  1.00  0.00    -0.237 OA
ATOM     83  O   UNL A   1      38.997  29.630  33.256  1.00  0.00    -0.744 OA
ENDBRANCH  76  80
ENDBRANCH  59  73
BRANCH  60  84
ATOM     84  C   UNL A   1      49.537  26.521  26.098  1.00  0.00     0.023 A 
ATOM     85  C   UNL A   1      50.010  26.940  24.844  1.00  0.00     0.031 A 
ATOM     86  C   UNL A   1      50.400  25.775  26.919  1.00  0.00     0.131 A 
ATOM     87  C   UNL A   1      51.307  26.589  24.436  1.00  0.00     0.055 A 
ATOM     88  C   UNL A   1      51.699  25.456  26.522  1.00  0.00     0.041 A 
ATOM     89  F   UNL A   1      49.994  25.365  28.131  1.00  0.00    -0.206 F 
ATOM     90  C   UNL A   1      52.157  25.859  25.271  1.00  0.00     0.022 A 
BRANCH  87  91
ATOM     91  S   UNL A   1      51.866  27.089  22.785  1.00  0.00     0.124 S 
ATOM     92  O   UNL A   1      50.619  27.065  22.030  1.00  0.00    -0.237 OA
ATOM     93  O   UNL A   1      52.437  28.408  23.042  1.00  0.00    -0.237 OA
ATOM     94  O   UNL A   1      52.835  26.055  22.427  1.00  0.00    -0.744 OA
ENDBRANCH  87  91
ENDBRANCH  60  84
BRANCH  72  95
ATOM     95  C   UNL A   1      46.584  32.343  28.552  1.00  0.00     0.023 A 
ATOM     96  C   UNL A   1      46.534  33.364  27.589  1.00  0.00     0.031 A 
ATOM     97  C   UNL A   1      47.108  32.644  29.821  1.00  0.00     0.131 A 
ATOM     98  C   UNL A   1      47.021  34.641  27.905  1.00  0.00     0.055 A 
ATOM     99  C   UNL A   1      47.555  33.925  30.142  1.00  0.00     0.041 A 
ATOM    100  F   UNL A   1      47.171  31.699  30.773  1.00  0.00    -0.206 F 
ATOM    101  C   UNL A   1      47.515  34.931  29.180  1.00  0.00     0.022 A 
BRANCH  98 102
ATOM    102  S   UNL A   1      47.008  35.923  26.624  1.00  0.00     0.124 S 
ATOM    103  O   UNL A   1      48.430  36.066  26.328  1.00  0.00    -0.237 OA
ATOM    104  O   UNL A   1      46.197  35.317  25.573  1.00  0.00    -0.237 OA
ATOM    105  O   UNL A   1      46.395  37.069  27.292  1.00  0.00    -0.744 OA
ENDBRANCH  98 102
ENDBRANCH  72  95
ENDBRANCH  46  47
ENDBRANCH  38  41
ENDBRANCH  36  37
ENDBRANCH  35  36
ENDBRANCH   1  35
TORSDOF 19
ENDMDL
MODEL 3
REMARK VINA RESULT:     -12.2      2.297      3.299
REMARK SMILES Nc1c(Nc2ncc(C(F)(F)F)cc2Cl)ncnc1N1CCC(C(=O)NCCCCNC(=O)c2ccc(-c3c4nc(c(-c5cc(S(=O)(=O)[O-])ccc5F)c5ccc([nH]5)c(-c5cc(S(=O)(=O)[O-])ccc5F)c5nc(c(-c6cc(S(=O)(=O)[O-])ccc6F)c6ccc3[nH]6)C=C5)C=C4)cc2)CC1
REMARK SMILES IDX 28 1 27 2 26 3 24 4 25 5 23 7 20 8 21 9 98 10 22 11 97 12
REMARK SMILES IDX 19 13 2 14 3 15 16 16 18 17 17 18 1 19 4 22 5 24 6 25 14 26
REMARK SMILES IDX 7 27 13 28 15 29 8 30 9 31 10 32 11 33 12 34 29 35 30 36
REMARK SMILES IDX 31 37 32 38 33 40 34 41 35 42 96 43 36 44 95 45 37 46 38 47
REMARK SMILES IDX 39 48 89 49 40 50 94 51 88 52 90 53 41 54 93 55 87 56 86 57
REMARK SMILES IDX 42 59 74 60 54 61 73 62 55 63 58 64 72 65 91 66 56 67 57 68
REMARK SMILES IDX 71 70 92 71 59 72 43 73 44 74 52 75 45 76 51 77 53 78 50 79
REMARK SMILES IDX 46 80 47 81 48 82 49 83 75 84 76 85 84 86 77 87 83 88 85 89
REMARK SMILES IDX 82 90 78 91 79 92 80 93 81 94 60 95 61 96 69 97 62 98 68 99
REMARK SMILES IDX 70 100 67 101 63 102 64 103 65 104 66 105
REMARK H PARENT 26 6 1 20 1 21 4 23 31 39 90 58 58 69
REMARK Flexibility Score: inf
ROOT
ATOM      1  C   UNL A   1      37.026  20.982  24.503  1.00  0.00     0.023 C 
ENDROOT
BRANCH   1   2
ATOM      2  C   UNL A   1      35.655  21.058  25.168  1.00  0.00     0.116 C 
BRANCH   2   3
ATOM      3  N   UNL A   1      34.940  19.795  25.096  1.00  0.00    -0.356 N 
ATOM      4  C   UNL A   1      33.630  19.528  24.842  1.00  0.00     0.223 C 
ATOM      5  O   UNL A   1      33.272  18.348  24.829  1.00  0.00    -0.275 OA
ATOM      6  H   UNL A   1      35.496  19.000  25.259  1.00  0.00     0.163 HD
BRANCH   4   7
ATOM      7  C   UNL A   1      32.625  20.633  24.558  1.00  0.00     0.082 C 
ATOM      8  N   UNL A   1      31.919  23.382  24.316  1.00  0.00    -0.355 N 
ATOM      9  C   UNL A   1      31.454  22.676  25.497  1.00  0.00     0.119 C 
ATOM     10  C   UNL A   1      32.107  22.638  23.082  1.00  0.00     0.119 C 
ATOM     11  C   UNL A   1      32.337  21.479  25.804  1.00  0.00     0.035 C 
ATOM     12  C   UNL A   1      33.009  21.430  23.305  1.00  0.00     0.035 C 
BRANCH   8  13
ATOM     13  C   UNL A   1      32.553  24.609  24.483  1.00  0.00     0.157 A 
ATOM     14  C   UNL A   1      32.316  25.632  23.549  1.00  0.00     0.118 A 
ATOM     15  C   UNL A   1      32.892  26.877  23.836  1.00  0.00     0.160 A 
ATOM     16  N   UNL A   1      33.708  27.067  24.886  1.00  0.00    -0.217 NA
ATOM     17  N   UNL A   1      33.342  24.792  25.555  1.00  0.00    -0.217 NA
ATOM     18  C   UNL A   1      33.897  26.008  25.684  1.00  0.00     0.226 A 
BRANCH  14  19
ATOM     19  N   UNL A   1      31.378  25.484  22.505  1.00  0.00    -0.393 N 
ATOM     20  H   UNL A   1      30.421  25.634  22.680  1.00  0.00     0.156 HD
ATOM     21  H   UNL A   1      31.680  25.230  21.603  1.00  0.00     0.156 HD
ENDBRANCH  14  19
BRANCH  15  22
ATOM     22  N   UNL A   1      32.513  27.963  23.007  1.00  0.00    -0.322 N 
ATOM     23  H   UNL A   1      33.092  28.129  22.230  1.00  0.00     0.170 HD
BRANCH  22  24
ATOM     24  C   UNL A   1      31.430  28.826  23.146  1.00  0.00     0.150 A 
ATOM     25  N   UNL A   1      30.548  28.768  22.114  1.00  0.00    -0.237 NA
ATOM     26  C   UNL A   1      31.241  29.710  24.215  1.00  0.00     0.084 A 
ATOM     27  C   UNL A   1      29.429  29.526  22.181  1.00  0.00     0.126 A 
ATOM     28  C   UNL A   1      30.083  30.492  24.248  1.00  0.00     0.039 A 
ATOM     29  Cl  UNL A   1      32.426  29.990  25.440  1.00  0.00    -0.080 Cl
ATOM     30  C   UNL A   1      29.142  30.392  23.220  1.00  0.00     0.075 A 
BRANCH  30  31
ATOM     31  C   UNL A   1      27.869  31.177  23.202  1.00  0.00     0.417 C 
ATOM     32  F   UNL A   1      26.977  30.739  24.132  1.00  0.00    -0.166 F 
ATOM     33  F   UNL A   1      28.068  32.496  23.472  1.00  0.00    -0.166 F 
ATOM     34  F   UNL A   1      27.215  31.132  22.010  1.00  0.00    -0.166 F 
ENDBRANCH  30  31
ENDBRANCH  22  24
ENDBRANCH  15  22
ENDBRANCH   8  13
ENDBRANCH   4   7
ENDBRANCH   2   3
ENDBRANCH   1   2
BRANCH   1  35
ATOM     35  C   UNL A   1      37.921  19.855  25.013  1.00  0.00     0.023 C 
BRANCH  35  36
ATOM     36  C   UNL A   1      39.137  20.306  25.814  1.00  0.00     0.116 C 
BRANCH  36  37
ATOM     37  N   UNL A   1      40.181  19.295  25.882  1.00  0.00    -0.352 N 
ATOM     38  C   UNL A   1      41.528  19.460  26.099  1.00  0.00     0.251 C 
ATOM     39  H   UNL A   1      39.881  18.365  25.755  1.00  0.00     0.163 HD
ATOM     40  O   UNL A   1      42.288  18.501  26.000  1.00  0.00    -0.269 OA
BRANCH  38  41
ATOM     41  C   UNL A   1      42.048  20.805  26.413  1.00  0.00     0.039 A 
ATOM     42  C   UNL A   1      42.236  21.713  25.370  1.00  0.00     0.014 A 
ATOM     43  C   UNL A   1      42.301  21.179  27.737  1.00  0.00     0.014 A 
ATOM     44  C   UNL A   1      42.608  23.026  25.663  1.00  0.00     0.010 A 
ATOM     45  C   UNL A   1      42.603  22.506  28.030  1.00  0.00     0.010 A 
ATOM     46  C   UNL A   1      42.757  23.441  26.997  1.00  0.00    -0.014 A 
BRANCH  46  47
ATOM     47  C   UNL A   1      43.081  24.852  27.321  1.00  0.00     0.031 A 
ATOM     48  C   UNL A   1      44.449  25.396  27.015  1.00  0.00     0.074 A 
ATOM     49  C   UNL A   1      42.157  25.630  27.918  1.00  0.00     0.049 A 
ATOM     50  N   UNL A   1      44.932  26.590  27.245  1.00  0.00    -0.248 NA
ATOM     51  C   UNL A   1      45.407  24.468  26.395  1.00  0.00     0.031 C 
ATOM     52  C   UNL A   1      40.810  25.199  28.302  1.00  0.00     0.029 A 
ATOM     53  N   UNL A   1      42.205  26.947  28.300  1.00  0.00    -0.354 N 
ATOM     54  C   UNL A   1      46.248  26.555  26.802  1.00  0.00     0.074 A 
ATOM     55  C   UNL A   1      46.506  25.206  26.348  1.00  0.00     0.031 C 
ATOM     56  C   UNL A   1      40.147  26.244  28.825  1.00  0.00     0.029 A 
ATOM     57  C   UNL A   1      41.030  27.407  28.845  1.00  0.00     0.049 A 
ATOM     58  H   UNL A   1      43.006  27.508  28.194  1.00  0.00     0.167 HD
ATOM     59  C   UNL A   1      47.151  27.564  26.752  1.00  0.00     0.034 A 
ATOM     60  C   UNL A   1      40.698  28.630  29.306  1.00  0.00     0.034 A 
ATOM     61  C   UNL A   1      46.875  28.910  27.180  1.00  0.00     0.049 A 
ATOM     62  C   UNL A   1      41.721  29.732  29.252  1.00  0.00     0.074 A 
ATOM     63  C   UNL A   1      47.699  30.020  27.118  1.00  0.00     0.029 A 
ATOM     64  N   UNL A   1      45.681  29.332  27.750  1.00  0.00    -0.354 N 
ATOM     65  N   UNL A   1      42.955  29.688  28.807  1.00  0.00    -0.248 NA
ATOM     66  C   UNL A   1      41.309  31.047  29.762  1.00  0.00     0.031 C 
ATOM     67  C   UNL A   1      47.022  31.100  27.693  1.00  0.00     0.029 A 
ATOM     68  C   UNL A   1      45.756  30.677  28.065  1.00  0.00     0.049 A 
ATOM     69  H   UNL A   1      44.897  28.756  27.906  1.00  0.00     0.167 HD
ATOM     70  C   UNL A   1      43.462  30.972  28.971  1.00  0.00     0.074 A 
ATOM     71  C   UNL A   1      42.401  31.770  29.549  1.00  0.00     0.031 C 
ATOM     72  C   UNL A   1      44.693  31.449  28.662  1.00  0.00     0.034 A 
BRANCH  59  73
ATOM     73  C   UNL A   1      48.520  27.240  26.217  1.00  0.00     0.023 A 
ATOM     74  C   UNL A   1      49.582  26.918  27.078  1.00  0.00     0.031 A 
ATOM     75  C   UNL A   1      48.769  27.263  24.834  1.00  0.00     0.131 A 
ATOM     76  C   UNL A   1      50.862  26.690  26.552  1.00  0.00     0.055 A 
ATOM     77  C   UNL A   1      50.030  26.968  24.312  1.00  0.00     0.041 A 
ATOM     78  F   UNL A   1      47.794  27.583  23.969  1.00  0.00    -0.206 F 
ATOM     79  C   UNL A   1      51.088  26.689  25.173  1.00  0.00     0.022 A 
BRANCH  76  80
ATOM     80  S   UNL A   1      52.248  26.485  27.701  1.00  0.00     0.124 S 
ATOM     81  O   UNL A   1      52.784  27.842  27.758  1.00  0.00    -0.237 OA
ATOM     82  O   UNL A   1      51.592  26.006  28.913  1.00  0.00    -0.237 OA
ATOM     83  O   UNL A   1      53.106  25.509  27.031  1.00  0.00    -0.744 OA
ENDBRANCH  76  80
ENDBRANCH  59  73
BRANCH  60  84
ATOM     84  C   UNL A   1      39.337  28.876  29.851  1.00  0.00     0.023 A 
ATOM     85  C   UNL A   1      38.333  29.441  29.048  1.00  0.00     0.031 A 
ATOM     86  C   UNL A   1      39.020  28.545  31.178  1.00  0.00     0.131 A 
ATOM     87  C   UNL A   1      37.061  29.680  29.591  1.00  0.00     0.055 A 
ATOM     88  C   UNL A   1      37.744  28.756  31.704  1.00  0.00     0.041 A 
ATOM     89  F   UNL A   1      39.945  27.991  31.978  1.00  0.00    -0.206 F 
ATOM     90  C   UNL A   1      36.757  29.332  30.910  1.00  0.00     0.022 A 
BRANCH  87  91
ATOM     91  S   UNL A   1      35.804  30.471  28.549  1.00  0.00     0.124 S 
ATOM     92  O   UNL A   1      36.627  31.149  27.554  1.00  0.00    -0.237 OA
ATOM     93  O   UNL A   1      35.035  29.325  28.075  1.00  0.00    -0.237 OA
ATOM     94  O   UNL A   1      35.096  31.349  29.478  1.00  0.00    -0.744 OA
ENDBRANCH  87  91
ENDBRANCH  60  84
BRANCH  72  95
ATOM     95  C   UNL A   1      44.956  32.904  28.929  1.00  0.00     0.023 A 
ATOM     96  C   UNL A   1      44.443  33.904  28.088  1.00  0.00     0.031 A 
ATOM     97  C   UNL A   1      45.684  33.294  30.066  1.00  0.00     0.131 A 
ATOM     98  C   UNL A   1      44.683  35.254  28.386  1.00  0.00     0.055 A 
ATOM     99  C   UNL A   1      45.887  34.637  30.380  1.00  0.00     0.041 A 
ATOM    100  F   UNL A   1      46.190  32.370  30.900  1.00  0.00    -0.206 F 
ATOM    101  C   UNL A   1      45.387  35.626  29.536  1.00  0.00     0.022 A 
BRANCH  98 102
ATOM    102  S   UNL A   1      44.070  36.523  27.248  1.00  0.00     0.124 S 
ATOM    103  O   UNL A   1      43.468  35.716  26.191  1.00  0.00    -0.237 OA
ATOM    104  O   UNL A   1      43.138  37.277  28.081  1.00  0.00    -0.237 OA
ATOM    105  O   UNL A   1      45.278  37.250  26.862  1.00  0.00    -0.744 OA
ENDBRANCH  98 102
ENDBRANCH  72  95
ENDBRANCH  46  47
ENDBRANCH  38  41
ENDBRANCH  36  37
ENDBRANCH  35  36
ENDBRANCH   1  35
TORSDOF 19
ENDMDL
