MODEL 1
REMARK VINA RESULT:     -12.3      0.000      0.000
REMARK SMILES Nc1c(N2CCCC2)ncnc1N1CCC(C(=O)NCCCCNC(=O)c2ccc(-c3c4nc(c(-c5cc(S(=O)(=O)[O-])ccc5F)c5ccc([nH]5)c(-c5cc(S(=O)(=O)[O-])ccc5F)c5nc(c(-c6cc(S(=O)(=O)[O-])ccc6F)c6ccc3[nH]6)C=C5)C=C4)cc2)CC1
REMARK SMILES IDX 22 1 21 2 20 3 19 4 17 5 18 6 16 8 13 9 14 10 91 11 15 12
REMARK SMILES IDX 90 13 12 14 2 15 3 16 9 17 11 18 10 19 1 20 4 23 5 24 8 25
REMARK SMILES IDX 6 26 7 27 23 28 24 29 25 30 26 32 27 33 28 34 89 35 29 36
REMARK SMILES IDX 88 37 30 38 31 39 32 40 82 41 33 42 87 43 81 44 83 45 34 46
REMARK SMILES IDX 86 47 80 48 79 49 35 51 67 52 47 53 66 54 48 55 51 56 65 57
REMARK SMILES IDX 84 58 49 59 50 60 64 62 85 63 52 64 36 65 37 66 45 67 38 68
REMARK SMILES IDX 44 69 46 70 43 71 39 72 40 73 41 74 42 75 68 76 69 77 77 78
REMARK SMILES IDX 70 79 76 80 78 81 75 82 71 83 72 84 73 85 74 86 53 87 54 88
REMARK SMILES IDX 62 89 55 90 61 91 63 92 60 93 56 94 57 95 58 96 59 97
REMARK H PARENT 19 7 1 21 1 22 24 31 83 50 51 61
REMARK Flexibility Score: inf
ROOT
ATOM      1  C   UNL A   1      32.034  31.232  26.753  1.00  0.00     0.023 C 
ENDROOT
BRANCH   1   2
ATOM      2  C   UNL A   1      32.083  29.788  27.249  1.00  0.00     0.023 C 
BRANCH   2   3
ATOM      3  C   UNL A   1      32.618  28.784  26.232  1.00  0.00     0.116 C 
BRANCH   3   4
ATOM      4  N   UNL A   1      31.569  28.283  25.359  1.00  0.00    -0.356 N 
ATOM      5  C   UNL A   1      31.145  27.012  25.118  1.00  0.00     0.223 C 
ATOM      6  O   UNL A   1      30.224  26.848  24.315  1.00  0.00    -0.275 OA
ATOM      7  H   UNL A   1      31.085  28.979  24.858  1.00  0.00     0.163 HD
BRANCH   5   8
ATOM      8  C   UNL A   1      31.758  25.818  25.832  1.00  0.00     0.082 C 
ATOM      9  N   UNL A   1      32.548  23.084  25.831  1.00  0.00    -0.355 N 
ATOM     10  C   UNL A   1      31.357  23.420  26.587  1.00  0.00     0.119 C 
ATOM     11  C   UNL A   1      33.601  24.077  25.702  1.00  0.00     0.119 C 
ATOM     12  C   UNL A   1      30.729  24.708  26.081  1.00  0.00     0.035 C 
ATOM     13  C   UNL A   1      33.051  25.375  25.135  1.00  0.00     0.035 C 
BRANCH   9  14
ATOM     14  C   UNL A   1      32.516  21.995  24.966  1.00  0.00     0.157 A 
ATOM     15  C   UNL A   1      33.048  20.764  25.393  1.00  0.00     0.118 A 
ATOM     16  C   UNL A   1      32.979  19.696  24.484  1.00  0.00     0.157 A 
ATOM     17  N   UNL A   1      32.524  19.870  23.233  1.00  0.00    -0.217 NA
ATOM     18  N   UNL A   1      31.985  22.157  23.743  1.00  0.00    -0.217 NA
ATOM     19  C   UNL A   1      32.036  21.084  22.936  1.00  0.00     0.226 A 
BRANCH  15  20
ATOM     20  N   UNL A   1      33.535  20.600  26.705  1.00  0.00    -0.393 N 
ATOM     21  H   UNL A   1      32.995  20.120  27.374  1.00  0.00     0.156 HD
ATOM     22  H   UNL A   1      34.415  20.966  26.953  1.00  0.00     0.156 HD
ENDBRANCH  15  20
BRANCH  16  23
ATOM     23  N   UNL A   1      33.402  18.437  24.829  1.00  0.00    -0.355 N 
ATOM     24  C   UNL A   1      34.672  17.852  24.456  1.00  0.00     0.118 C 
ATOM     25  C   UNL A   1      32.482  17.481  25.414  1.00  0.00     0.118 C 
ATOM     26  C   UNL A   1      34.296  16.389  24.249  1.00  0.00     0.023 C 
ATOM     27  C   UNL A   1      33.248  16.155  25.333  1.00  0.00     0.023 C 
ENDBRANCH  16  23
ENDBRANCH   9  14
ENDBRANCH   5   8
ENDBRANCH   3   4
ENDBRANCH   2   3
ENDBRANCH   1   2
BRANCH   1  28
ATOM     28  C   UNL A   1      33.183  32.115  27.223  1.00  0.00     0.116 C 
BRANCH  28  29
ATOM     29  N   UNL A   1      32.766  33.477  27.524  1.00  0.00    -0.352 N 
ATOM     30  C   UNL A   1      33.232  34.324  28.500  1.00  0.00     0.251 C 
ATOM     31  H   UNL A   1      32.053  33.841  26.950  1.00  0.00     0.163 HD
ATOM     32  O   UNL A   1      32.677  35.401  28.698  1.00  0.00    -0.269 OA
BRANCH  30  33
ATOM     33  C   UNL A   1      34.382  33.907  29.327  1.00  0.00     0.039 A 
ATOM     34  C   UNL A   1      34.157  33.073  30.423  1.00  0.00     0.014 A 
ATOM     35  C   UNL A   1      35.680  34.305  28.991  1.00  0.00     0.014 A 
ATOM     36  C   UNL A   1      35.244  32.577  31.144  1.00  0.00     0.010 A 
ATOM     37  C   UNL A   1      36.764  33.761  29.672  1.00  0.00     0.010 A 
ATOM     38  C   UNL A   1      36.556  32.888  30.750  1.00  0.00    -0.014 A 
BRANCH  38  39
ATOM     39  C   UNL A   1      37.726  32.320  31.464  1.00  0.00     0.031 A 
ATOM     40  C   UNL A   1      38.515  31.207  30.834  1.00  0.00     0.074 A 
ATOM     41  C   UNL A   1      38.047  32.774  32.691  1.00  0.00     0.049 A 
ATOM     42  N   UNL A   1      39.509  30.517  31.330  1.00  0.00    -0.248 NA
ATOM     43  C   UNL A   1      38.118  30.803  29.477  1.00  0.00     0.031 C 
ATOM     44  C   UNL A   1      37.344  33.839  33.411  1.00  0.00     0.029 A 
ATOM     45  N   UNL A   1      39.048  32.398  33.550  1.00  0.00    -0.354 N 
ATOM     46  C   UNL A   1      39.851  29.592  30.350  1.00  0.00     0.074 A 
ATOM     47  C   UNL A   1      38.924  29.776  29.255  1.00  0.00     0.031 C 
ATOM     48  C   UNL A   1      37.959  34.053  34.586  1.00  0.00     0.029 A 
ATOM     49  C   UNL A   1      39.069  33.116  34.723  1.00  0.00     0.049 A 
ATOM     50  H   UNL A   1      39.693  31.681  33.346  1.00  0.00     0.167 HD
ATOM     51  C   UNL A   1      40.861  28.688  30.355  1.00  0.00     0.034 A 
ATOM     52  C   UNL A   1      39.887  33.025  35.790  1.00  0.00     0.034 A 
ATOM     53  C   UNL A   1      41.790  28.526  31.445  1.00  0.00     0.049 A 
ATOM     54  C   UNL A   1      40.980  31.990  35.786  1.00  0.00     0.074 A 
ATOM     55  C   UNL A   1      42.863  27.658  31.539  1.00  0.00     0.029 A 
ATOM     56  N   UNL A   1      41.760  29.252  32.627  1.00  0.00    -0.354 N 
ATOM     57  N   UNL A   1      41.280  31.112  34.859  1.00  0.00    -0.248 NA
ATOM     58  C   UNL A   1      41.841  31.932  36.975  1.00  0.00     0.031 C 
ATOM     59  C   UNL A   1      43.454  27.827  32.795  1.00  0.00     0.029 A 
ATOM     60  C   UNL A   1      42.783  28.840  33.464  1.00  0.00     0.049 A 
ATOM     61  H   UNL A   1      41.106  29.956  32.840  1.00  0.00     0.167 HD
ATOM     62  C   UNL A   1      42.375  30.407  35.345  1.00  0.00     0.074 A 
ATOM     63  C   UNL A   1      42.687  30.964  36.646  1.00  0.00     0.031 C 
ATOM     64  C   UNL A   1      43.065  29.394  34.765  1.00  0.00     0.034 A 
BRANCH  51  65
ATOM     65  C   UNL A   1      40.996  27.801  29.147  1.00  0.00     0.023 A 
ATOM     66  C   UNL A   1      41.977  28.039  28.171  1.00  0.00     0.031 A 
ATOM     67  C   UNL A   1      40.127  26.712  28.962  1.00  0.00     0.131 A 
ATOM     68  C   UNL A   1      42.030  27.237  27.023  1.00  0.00     0.055 A 
ATOM     69  C   UNL A   1      40.227  25.875  27.850  1.00  0.00     0.041 A 
ATOM     70  F   UNL A   1      39.159  26.451  29.855  1.00  0.00    -0.206 F 
ATOM     71  C   UNL A   1      41.177  26.141  26.866  1.00  0.00     0.022 A 
BRANCH  68  72
ATOM     72  S   UNL A   1      43.168  27.700  25.690  1.00  0.00     0.124 S 
ATOM     73  O   UNL A   1      44.051  28.641  26.374  1.00  0.00    -0.237 OA
ATOM     74  O   UNL A   1      43.762  26.421  25.319  1.00  0.00    -0.237 OA
ATOM     75  O   UNL A   1      42.291  28.294  24.683  1.00  0.00    -0.744 OA
ENDBRANCH  68  72
ENDBRANCH  51  65
BRANCH  52  76
ATOM     76  C   UNL A   1      39.703  33.935  36.951  1.00  0.00     0.023 A 
ATOM     77  C   UNL A   1      39.067  33.487  38.118  1.00  0.00     0.031 A 
ATOM     78  C   UNL A   1      40.158  35.264  36.909  1.00  0.00     0.131 A 
ATOM     79  C   UNL A   1      38.880  34.370  39.193  1.00  0.00     0.055 A 
ATOM     80  C   UNL A   1      39.999  36.129  37.993  1.00  0.00     0.041 A 
ATOM     81  F   UNL A   1      40.782  35.733  35.817  1.00  0.00    -0.206 F 
ATOM     82  C   UNL A   1      39.351  35.685  39.142  1.00  0.00     0.022 A 
BRANCH  79  83
ATOM     83  S   UNL A   1      37.989  33.782  40.659  1.00  0.00     0.124 S 
ATOM     84  O   UNL A   1      37.008  32.879  40.069  1.00  0.00    -0.237 OA
ATOM     85  O   UNL A   1      39.054  33.156  41.434  1.00  0.00    -0.237 OA
ATOM     86  O   UNL A   1      37.442  35.007  41.238  1.00  0.00    -0.744 OA
ENDBRANCH  79  83
ENDBRANCH  52  76
BRANCH  64  87
ATOM     87  C   UNL A   1      44.240  28.840  35.524  1.00  0.00     0.023 A 
ATOM     88  C   UNL A   1      44.082  27.814  36.469  1.00  0.00     0.031 A 
ATOM     89  C   UNL A   1      45.534  29.327  35.273  1.00  0.00     0.131 A 
ATOM     90  C   UNL A   1      45.204  27.323  37.154  1.00  0.00     0.055 A 
ATOM     91  C   UNL A   1      46.651  28.805  35.927  1.00  0.00     0.041 A 
ATOM     92  F   UNL A   1      45.734  30.306  34.376  1.00  0.00    -0.206 F 
ATOM     93  C   UNL A   1      46.488  27.801  36.878  1.00  0.00     0.022 A 
BRANCH  90  94
ATOM     94  S   UNL A   1      44.960  26.064  38.437  1.00  0.00     0.124 S 
ATOM     95  O   UNL A   1      46.242  26.091  39.133  1.00  0.00    -0.237 OA
ATOM     96  O   UNL A   1      43.818  26.586  39.180  1.00  0.00    -0.237 OA
ATOM     97  O   UNL A   1      44.694  24.845  37.674  1.00  0.00    -0.744 OA
ENDBRANCH  90  94
ENDBRANCH  64  87
ENDBRANCH  38  39
ENDBRANCH  30  33
ENDBRANCH  28  29
ENDBRANCH   1  28
TORSDOF 17
ENDMDL
MODEL 2
REMARK VINA RESULT:     -12.2      1.384      1.618
REMARK SMILES Nc1c(N2CCCC2)ncnc1N1CCC(C(=O)NCCCCNC(=O)c2ccc(-c3c4nc(c(-c5cc(S(=O)(=O)[O-])ccc5F)c5ccc([nH]5)c(-c5cc(S(=O)(=O)[O-])ccc5F)c5nc(c(-c6cc(S(=O)(=O)[O-])ccc6F)c6ccc3[nH]6)C=C5)C=C4)cc2)CC1
REMARK SMILES IDX 22 1 21 2 20 3 19 4 17 5 18 6 16 8 13 9 14 10 91 11 15 12
REMARK SMILES IDX 90 13 12 14 2 15 3 16 9 17 11 18 10 19 1 20 4 23 5 24 8 25
REMARK SMILES IDX 6 26 7 27 23 28 24 29 25 30 26 32 27 33 28 34 89 35 29 36
REMARK SMILES IDX 88 37 30 38 31 39 32 40 82 41 33 42 87 43 81 44 83 45 34 46
REMARK SMILES IDX 86 47 80 48 79 49 35 51 67 52 47 53 66 54 48 55 51 56 65 57
REMARK SMILES IDX 84 58 49 59 50 60 64 62 85 63 52 64 36 65 37 66 45 67 38 68
REMARK SMILES IDX 44 69 46 70 43 71 39 72 40 73 41 74 42 75 68 76 69 77 77 78
REMARK SMILES IDX 70 79 76 80 78 81 75 82 71 83 72 84 73 85 74 86 53 87 54 88
REMARK SMILES IDX 62 89 55 90 61 91 63 92 60 93 56 94 57 95 58 96 59 97
REMARK H PARENT 19 7 1 21 1 22 24 31 83 50 51 61
REMARK Flexibility Score: inf
ROOT
ATOM      1  C   UNL A   1      31.961  31.027  26.882  1.00  0.00     0.023 C 
ENDROOT
BRANCH   1   2
ATOM      2  C   UNL A   1      32.031  29.540  27.225  1.00  0.00     0.023 C 
BRANCH   2   3
ATOM      3  C   UNL A   1      33.379  28.885  26.939  1.00  0.00     0.116 C 
BRANCH   3   4
ATOM      4  N   UNL A   1      33.520  28.520  25.538  1.00  0.00    -0.356 N 
ATOM      5  C   UNL A   1      33.643  27.301  24.946  1.00  0.00     0.223 C 
ATOM      6  O   UNL A   1      33.755  27.259  23.719  1.00  0.00    -0.275 OA
ATOM      7  H   UNL A   1      33.527  29.282  24.915  1.00  0.00     0.163 HD
BRANCH   5   8
ATOM      8  C   UNL A   1      33.617  26.014  25.755  1.00  0.00     0.082 C 
ATOM      9  N   UNL A   1      33.282  23.192  25.887  1.00  0.00    -0.355 N 
ATOM     10  C   UNL A   1      32.202  24.003  26.413  1.00  0.00     0.119 C 
ATOM     11  C   UNL A   1      34.641  23.699  25.957  1.00  0.00     0.119 C 
ATOM     12  C   UNL A   1      32.214  25.396  25.807  1.00  0.00     0.035 C 
ATOM     13  C   UNL A   1      34.739  25.069  25.305  1.00  0.00     0.035 C 
BRANCH   9  14
ATOM     14  C   UNL A   1      32.982  22.140  25.027  1.00  0.00     0.157 A 
ATOM     15  C   UNL A   1      33.392  20.838  25.365  1.00  0.00     0.118 A 
ATOM     16  C   UNL A   1      33.052  19.814  24.466  1.00  0.00     0.157 A 
ATOM     17  N   UNL A   1      32.457  20.082  23.292  1.00  0.00    -0.217 NA
ATOM     18  N   UNL A   1      32.315  22.406  23.890  1.00  0.00    -0.217 NA
ATOM     19  C   UNL A   1      32.105  21.358  23.076  1.00  0.00     0.226 A 
BRANCH  15  20
ATOM     20  N   UNL A   1      34.027  20.574  26.594  1.00  0.00    -0.393 N 
ATOM     21  H   UNL A   1      33.515  20.182  27.338  1.00  0.00     0.156 HD
ATOM     22  H   UNL A   1      34.983  20.781  26.709  1.00  0.00     0.156 HD
ENDBRANCH  15  20
BRANCH  16  23
ATOM     23  N   UNL A   1      33.340  18.500  24.738  1.00  0.00    -0.355 N 
ATOM     24  C   UNL A   1      34.369  17.719  24.085  1.00  0.00     0.118 C 
ATOM     25  C   UNL A   1      32.453  17.703  25.562  1.00  0.00     0.118 C 
ATOM     26  C   UNL A   1      33.725  16.339  24.024  1.00  0.00     0.023 C 
ATOM     27  C   UNL A   1      32.953  16.270  25.340  1.00  0.00     0.023 C 
ENDBRANCH  16  23
ENDBRANCH   9  14
ENDBRANCH   5   8
ENDBRANCH   3   4
ENDBRANCH   2   3
ENDBRANCH   1   2
BRANCH   1  28
ATOM     28  C   UNL A   1      33.152  31.855  27.348  1.00  0.00     0.116 C 
BRANCH  28  29
ATOM     29  N   UNL A   1      32.813  33.247  27.599  1.00  0.00    -0.352 N 
ATOM     30  C   UNL A   1      33.338  34.106  28.534  1.00  0.00     0.251 C 
ATOM     31  H   UNL A   1      32.112  33.626  27.020  1.00  0.00     0.163 HD
ATOM     32  O   UNL A   1      32.844  35.218  28.696  1.00  0.00    -0.269 OA
BRANCH  30  33
ATOM     33  C   UNL A   1      34.476  33.662  29.361  1.00  0.00     0.039 A 
ATOM     34  C   UNL A   1      34.248  32.737  30.382  1.00  0.00     0.014 A 
ATOM     35  C   UNL A   1      35.770  34.125  29.099  1.00  0.00     0.014 A 
ATOM     36  C   UNL A   1      35.330  32.220  31.095  1.00  0.00     0.010 A 
ATOM     37  C   UNL A   1      36.852  33.562  29.769  1.00  0.00     0.010 A 
ATOM     38  C   UNL A   1      36.642  32.602  30.769  1.00  0.00    -0.014 A 
BRANCH  38  39
ATOM     39  C   UNL A   1      37.808  32.016  31.473  1.00  0.00     0.031 A 
ATOM     40  C   UNL A   1      38.619  30.940  30.806  1.00  0.00     0.074 A 
ATOM     41  C   UNL A   1      38.109  32.419  32.722  1.00  0.00     0.049 A 
ATOM     42  N   UNL A   1      39.614  30.240  31.285  1.00  0.00    -0.248 NA
ATOM     43  C   UNL A   1      38.243  30.592  29.427  1.00  0.00     0.031 C 
ATOM     44  C   UNL A   1      37.384  33.444  33.479  1.00  0.00     0.029 A 
ATOM     45  N   UNL A   1      39.103  32.017  33.577  1.00  0.00    -0.354 N 
ATOM     46  C   UNL A   1      39.979  29.362  30.270  1.00  0.00     0.074 A 
ATOM     47  C   UNL A   1      39.064  29.583  29.171  1.00  0.00     0.031 C 
ATOM     48  C   UNL A   1      37.982  33.613  34.670  1.00  0.00     0.029 A 
ATOM     49  C   UNL A   1      39.100  32.683  34.781  1.00  0.00     0.049 A 
ATOM     50  H   UNL A   1      39.758  31.317  33.351  1.00  0.00     0.167 HD
ATOM     51  C   UNL A   1      40.999  28.470  30.249  1.00  0.00     0.034 A 
ATOM     52  C   UNL A   1      39.906  32.555  35.854  1.00  0.00     0.034 A 
ATOM     53  C   UNL A   1      41.916  28.271  31.342  1.00  0.00     0.049 A 
ATOM     54  C   UNL A   1      41.011  31.532  35.819  1.00  0.00     0.074 A 
ATOM     55  C   UNL A   1      42.997  27.411  31.413  1.00  0.00     0.029 A 
ATOM     56  N   UNL A   1      41.862  28.944  32.555  1.00  0.00    -0.354 N 
ATOM     57  N   UNL A   1      41.333  30.699  34.859  1.00  0.00    -0.248 NA
ATOM     58  C   UNL A   1      41.857  31.432  37.016  1.00  0.00     0.031 C 
ATOM     59  C   UNL A   1      43.571  27.531  32.683  1.00  0.00     0.029 A 
ATOM     60  C   UNL A   1      42.879  28.507  33.386  1.00  0.00     0.049 A 
ATOM     61  H   UNL A   1      41.197  29.631  32.790  1.00  0.00     0.167 HD
ATOM     62  C   UNL A   1      42.430  29.986  35.328  1.00  0.00     0.074 A 
ATOM     63  C   UNL A   1      42.718  30.489  36.657  1.00  0.00     0.031 C 
ATOM     64  C   UNL A   1      43.138  29.006  34.714  1.00  0.00     0.034 A 
BRANCH  51  65
ATOM     65  C   UNL A   1      41.159  27.638  29.005  1.00  0.00     0.023 A 
ATOM     66  C   UNL A   1      42.162  27.919  28.062  1.00  0.00     0.031 A 
ATOM     67  C   UNL A   1      40.295  26.559  28.753  1.00  0.00     0.131 A 
ATOM     68  C   UNL A   1      42.239  27.169  26.880  1.00  0.00     0.055 A 
ATOM     69  C   UNL A   1      40.418  25.773  27.607  1.00  0.00     0.041 A 
ATOM     70  F   UNL A   1      39.308  26.259  29.612  1.00  0.00    -0.206 F 
ATOM     71  C   UNL A   1      41.389  26.082  26.656  1.00  0.00     0.022 A 
BRANCH  68  72
ATOM     72  S   UNL A   1      43.405  27.690  25.595  1.00  0.00     0.124 S 
ATOM     73  O   UNL A   1      43.978  28.894  26.191  1.00  0.00    -0.237 OA
ATOM     74  O   UNL A   1      44.298  26.542  25.490  1.00  0.00    -0.237 OA
ATOM     75  O   UNL A   1      42.550  27.922  24.431  1.00  0.00    -0.744 OA
ENDBRANCH  68  72
ENDBRANCH  51  65
BRANCH  52  76
ATOM     76  C   UNL A   1      39.697  33.411  37.051  1.00  0.00     0.023 A 
ATOM     77  C   UNL A   1      40.501  34.538  37.275  1.00  0.00     0.031 A 
ATOM     78  C   UNL A   1      38.694  33.111  37.989  1.00  0.00     0.131 A 
ATOM     79  C   UNL A   1      40.304  35.317  38.426  1.00  0.00     0.055 A 
ATOM     80  C   UNL A   1      38.481  33.908  39.116  1.00  0.00     0.041 A 
ATOM     81  F   UNL A   1      37.894  32.048  37.811  1.00  0.00    -0.206 F 
ATOM     82  C   UNL A   1      39.292  35.015  39.342  1.00  0.00     0.022 A 
BRANCH  79  83
ATOM     83  S   UNL A   1      41.407  36.725  38.724  1.00  0.00     0.124 S 
ATOM     84  O   UNL A   1      40.461  37.769  39.100  1.00  0.00    -0.237 OA
ATOM     85  O   UNL A   1      42.265  36.221  39.792  1.00  0.00    -0.237 OA
ATOM     86  O   UNL A   1      42.071  36.916  37.437  1.00  0.00    -0.744 OA
ENDBRANCH  79  83
ENDBRANCH  52  76
BRANCH  64  87
ATOM     87  C   UNL A   1      44.310  28.433  35.464  1.00  0.00     0.023 A 
ATOM     88  C   UNL A   1      44.133  27.479  36.479  1.00  0.00     0.031 A 
ATOM     89  C   UNL A   1      45.618  28.826  35.135  1.00  0.00     0.131 A 
ATOM     90  C   UNL A   1      45.251  26.966  37.152  1.00  0.00     0.055 A 
ATOM     91  C   UNL A   1      46.729  28.281  35.780  1.00  0.00     0.041 A 
ATOM     92  F   UNL A   1      45.836  29.733  34.169  1.00  0.00    -0.206 F 
ATOM     93  C   UNL A   1      46.548  27.349  36.799  1.00  0.00     0.022 A 
BRANCH  90  94
ATOM     94  S   UNL A   1      44.989  25.807  38.522  1.00  0.00     0.124 S 
ATOM     95  O   UNL A   1      44.594  24.592  37.818  1.00  0.00    -0.237 OA
ATOM     96  O   UNL A   1      46.297  25.775  39.166  1.00  0.00    -0.237 OA
ATOM     97  O   UNL A   1      43.930  26.440  39.308  1.00  0.00    -0.744 OA
ENDBRANCH  90  94
ENDBRANCH  64  87
ENDBRANCH  38  39
ENDBRANCH  30  33
ENDBRANCH  28  29
ENDBRANCH   1  28
TORSDOF 17
ENDMDL
MODEL 3
REMARK VINA RESULT:     -12.1      1.126      2.058
REMARK SMILES Nc1c(N2CCCC2)ncnc1N1CCC(C(=O)NCCCCNC(=O)c2ccc(-c3c4nc(c(-c5cc(S(=O)(=O)[O-])ccc5F)c5ccc([nH]5)c(-c5cc(S(=O)(=O)[O-])ccc5F)c5nc(c(-c6cc(S(=O)(=O)[O-])ccc6F)c6ccc3[nH]6)C=C5)C=C4)cc2)CC1
REMARK SMILES IDX 22 1 21 2 20 3 19 4 17 5 18 6 16 8 13 9 14 10 91 11 15 12
REMARK SMILES IDX 90 13 12 14 2 15 3 16 9 17 11 18 10 19 1 20 4 23 5 24 8 25
REMARK SMILES IDX 6 26 7 27 23 28 24 29 25 30 26 32 27 33 28 34 89 35 29 36
REMARK SMILES IDX 88 37 30 38 31 39 32 40 82 41 33 42 87 43 81 44 83 45 34 46
REMARK SMILES IDX 86 47 80 48 79 49 35 51 67 52 47 53 66 54 48 55 51 56 65 57
REMARK SMILES IDX 84 58 49 59 50 60 64 62 85 63 52 64 36 65 37 66 45 67 38 68
REMARK SMILES IDX 44 69 46 70 43 71 39 72 40 73 41 74 42 75 68 76 69 77 77 78
REMARK SMILES IDX 70 79 76 80 78 81 75 82 71 83 72 84 73 85 74 86 53 87 54 88
REMARK SMILES IDX 62 89 55 90 61 91 63 92 60 93 56 94 57 95 58 96 59 97
REMARK H PARENT 19 7 1 21 1 22 24 31 83 50 51 61
REMARK Flexibility Score: inf
ROOT
ATOM      1  C   UNL A   1      31.786  31.590  26.757  1.00  0.00     0.023 C 
ENDROOT
BRANCH   1   2
ATOM      2  C   UNL A   1      32.004  30.078  26.730  1.00  0.00     0.023 C 
BRANCH   2   3
ATOM      3  C   UNL A   1      31.830  29.436  25.357  1.00  0.00     0.116 C 
BRANCH   3   4
ATOM      4  N   UNL A   1      30.851  30.141  24.547  1.00  0.00    -0.356 N 
ATOM      5  C   UNL A   1      30.084  29.712  23.507  1.00  0.00     0.223 C 
ATOM      6  O   UNL A   1      29.320  30.522  22.975  1.00  0.00    -0.275 OA
ATOM      7  H   UNL A   1      30.721  31.086  24.791  1.00  0.00     0.163 HD
BRANCH   5   8
ATOM      8  C   UNL A   1      30.131  28.273  23.020  1.00  0.00     0.082 C 
ATOM      9  N   UNL A   1      31.108  25.613  23.278  1.00  0.00    -0.355 N 
ATOM     10  C   UNL A   1      31.654  26.407  22.195  1.00  0.00     0.119 C 
ATOM     11  C   UNL A   1      29.744  25.861  23.714  1.00  0.00     0.119 C 
ATOM     12  C   UNL A   1      31.515  27.894  22.478  1.00  0.00     0.035 C 
ATOM     13  C   UNL A   1      29.553  27.324  24.078  1.00  0.00     0.035 C 
BRANCH   9  14
ATOM     14  C   UNL A   1      31.976  24.900  24.099  1.00  0.00     0.157 A 
ATOM     15  C   UNL A   1      32.132  23.517  23.896  1.00  0.00     0.118 A 
ATOM     16  C   UNL A   1      33.030  22.852  24.747  1.00  0.00     0.157 A 
ATOM     17  N   UNL A   1      33.628  23.486  25.769  1.00  0.00    -0.217 NA
ATOM     18  N   UNL A   1      32.632  25.559  25.070  1.00  0.00    -0.217 NA
ATOM     19  C   UNL A   1      33.410  24.806  25.864  1.00  0.00     0.226 A 
BRANCH  15  20
ATOM     20  N   UNL A   1      31.488  22.863  22.828  1.00  0.00    -0.393 N 
ATOM     21  H   UNL A   1      31.638  23.167  21.904  1.00  0.00     0.156 HD
ATOM     22  H   UNL A   1      30.889  22.103  23.006  1.00  0.00     0.156 HD
ENDBRANCH  15  20
BRANCH  16  23
ATOM     23  N   UNL A   1      33.310  21.518  24.585  1.00  0.00    -0.355 N 
ATOM     24  C   UNL A   1      32.323  20.464  24.484  1.00  0.00     0.118 C 
ATOM     25  C   UNL A   1      34.663  21.021  24.743  1.00  0.00     0.118 C 
ATOM     26  C   UNL A   1      33.016  19.314  25.206  1.00  0.00     0.023 C 
ATOM     27  C   UNL A   1      34.478  19.500  24.809  1.00  0.00     0.023 C 
ENDBRANCH  16  23
ENDBRANCH   9  14
ENDBRANCH   5   8
ENDBRANCH   3   4
ENDBRANCH   2   3
ENDBRANCH   1   2
BRANCH   1  28
ATOM     28  C   UNL A   1      32.944  32.400  27.325  1.00  0.00     0.116 C 
BRANCH  28  29
ATOM     29  N   UNL A   1      32.589  33.784  27.601  1.00  0.00    -0.352 N 
ATOM     30  C   UNL A   1      33.113  34.637  28.542  1.00  0.00     0.251 C 
ATOM     31  H   UNL A   1      31.875  34.162  27.037  1.00  0.00     0.163 HD
ATOM     32  O   UNL A   1      32.606  35.739  28.727  1.00  0.00    -0.269 OA
BRANCH  30  33
ATOM     33  C   UNL A   1      34.268  34.196  29.349  1.00  0.00     0.039 A 
ATOM     34  C   UNL A   1      34.036  33.516  30.546  1.00  0.00     0.014 A 
ATOM     35  C   UNL A   1      35.575  34.417  28.900  1.00  0.00     0.014 A 
ATOM     36  C   UNL A   1      35.114  32.992  31.259  1.00  0.00     0.010 A 
ATOM     37  C   UNL A   1      36.643  33.841  29.580  1.00  0.00     0.010 A 
ATOM     38  C   UNL A   1      36.421  33.119  30.763  1.00  0.00    -0.014 A 
BRANCH  38  39
ATOM     39  C   UNL A   1      37.574  32.514  31.473  1.00  0.00     0.031 A 
ATOM     40  C   UNL A   1      38.318  31.368  30.848  1.00  0.00     0.074 A 
ATOM     41  C   UNL A   1      37.920  32.966  32.694  1.00  0.00     0.049 A 
ATOM     42  N   UNL A   1      39.289  30.647  31.344  1.00  0.00    -0.248 NA
ATOM     43  C   UNL A   1      37.897  30.968  29.497  1.00  0.00     0.031 C 
ATOM     44  C   UNL A   1      37.261  34.062  33.410  1.00  0.00     0.029 A 
ATOM     45  N   UNL A   1      38.912  32.561  33.550  1.00  0.00    -0.354 N 
ATOM     46  C   UNL A   1      39.591  29.702  30.370  1.00  0.00     0.074 A 
ATOM     47  C   UNL A   1      38.664  29.910  29.278  1.00  0.00     0.031 C 
ATOM     48  C   UNL A   1      37.891  34.263  34.579  1.00  0.00     0.029 A 
ATOM     49  C   UNL A   1      38.967  33.288  34.717  1.00  0.00     0.049 A 
ATOM     50  H   UNL A   1      39.529  31.820  33.348  1.00  0.00     0.167 HD
ATOM     51  C   UNL A   1      40.567  28.761  30.376  1.00  0.00     0.034 A 
ATOM     52  C   UNL A   1      39.788  33.175  35.780  1.00  0.00     0.034 A 
ATOM     53  C   UNL A   1      41.497  28.574  31.460  1.00  0.00     0.049 A 
ATOM     54  C   UNL A   1      40.843  32.101  35.778  1.00  0.00     0.074 A 
ATOM     55  C   UNL A   1      42.538  27.668  31.555  1.00  0.00     0.029 A 
ATOM     56  N   UNL A   1      41.501  29.311  32.637  1.00  0.00    -0.354 N 
ATOM     57  N   UNL A   1      41.104  31.205  34.856  1.00  0.00    -0.248 NA
ATOM     58  C   UNL A   1      41.708  32.021  36.962  1.00  0.00     0.031 C 
ATOM     59  C   UNL A   1      43.143  27.826  32.807  1.00  0.00     0.029 A 
ATOM     60  C   UNL A   1      42.514  28.868  33.471  1.00  0.00     0.049 A 
ATOM     61  H   UNL A   1      40.874  30.040  32.848  1.00  0.00     0.167 HD
ATOM     62  C   UNL A   1      42.176  30.465  35.341  1.00  0.00     0.074 A 
ATOM     63  C   UNL A   1      42.516  31.021  36.636  1.00  0.00     0.031 C 
ATOM     64  C   UNL A   1      42.825  29.422  34.766  1.00  0.00     0.034 A 
BRANCH  51  65
ATOM     65  C   UNL A   1      40.661  27.860  29.174  1.00  0.00     0.023 A 
ATOM     66  C   UNL A   1      41.594  28.100  28.152  1.00  0.00     0.031 A 
ATOM     67  C   UNL A   1      39.802  26.756  29.043  1.00  0.00     0.131 A 
ATOM     68  C   UNL A   1      41.608  27.282  27.013  1.00  0.00     0.055 A 
ATOM     69  C   UNL A   1      39.865  25.905  27.938  1.00  0.00     0.041 A 
ATOM     70  F   UNL A   1      38.879  26.492  29.981  1.00  0.00    -0.206 F 
ATOM     71  C   UNL A   1      40.766  26.172  26.909  1.00  0.00     0.022 A 
BRANCH  68  72
ATOM     72  S   UNL A   1      42.678  27.744  25.625  1.00  0.00     0.124 S 
ATOM     73  O   UNL A   1      41.989  28.921  25.104  1.00  0.00    -0.237 OA
ATOM     74  O   UNL A   1      43.959  27.990  26.278  1.00  0.00    -0.237 OA
ATOM     75  O   UNL A   1      42.638  26.568  24.757  1.00  0.00    -0.744 OA
ENDBRANCH  68  72
ENDBRANCH  51  65
BRANCH  52  76
ATOM     76  C   UNL A   1      39.645  34.101  36.935  1.00  0.00     0.023 A 
ATOM     77  C   UNL A   1      39.073  33.661  38.138  1.00  0.00     0.031 A 
ATOM     78  C   UNL A   1      40.076  35.436  36.850  1.00  0.00     0.131 A 
ATOM     79  C   UNL A   1      38.923  34.559  39.206  1.00  0.00     0.055 A 
ATOM     80  C   UNL A   1      39.955  36.316  37.927  1.00  0.00     0.041 A 
ATOM     81  F   UNL A   1      40.639  35.897  35.723  1.00  0.00    -0.206 F 
ATOM     82  C   UNL A   1      39.370  35.880  39.113  1.00  0.00     0.022 A 
BRANCH  79  83
ATOM     83  S   UNL A   1      38.112  33.981  40.722  1.00  0.00     0.124 S 
ATOM     84  O   UNL A   1      37.749  35.240  41.363  1.00  0.00    -0.237 OA
ATOM     85  O   UNL A   1      37.008  33.185  40.195  1.00  0.00    -0.237 OA
ATOM     86  O   UNL A   1      39.158  33.216  41.397  1.00  0.00    -0.744 OA
ENDBRANCH  79  83
ENDBRANCH  52  76
BRANCH  64  87
ATOM     87  C   UNL A   1      43.983  28.832  35.522  1.00  0.00     0.023 A 
ATOM     88  C   UNL A   1      43.809  27.752  36.402  1.00  0.00     0.031 A 
ATOM     89  C   UNL A   1      45.280  29.339  35.333  1.00  0.00     0.131 A 
ATOM     90  C   UNL A   1      44.916  27.228  37.086  1.00  0.00     0.055 A 
ATOM     91  C   UNL A   1      46.384  28.787  35.985  1.00  0.00     0.041 A 
ATOM     92  F   UNL A   1      45.496  30.369  34.499  1.00  0.00    -0.206 F 
ATOM     93  C   UNL A   1      46.203  27.728  36.871  1.00  0.00     0.022 A 
BRANCH  90  94
ATOM     94  S   UNL A   1      44.648  25.896  38.288  1.00  0.00     0.124 S 
ATOM     95  O   UNL A   1      43.901  26.583  39.337  1.00  0.00    -0.237 OA
ATOM     96  O   UNL A   1      43.900  24.913  37.511  1.00  0.00    -0.237 OA
ATOM     97  O   UNL A   1      46.003  25.490  38.656  1.00  0.00    -0.744 OA
ENDBRANCH  90  94
ENDBRANCH  64  87
ENDBRANCH  38  39
ENDBRANCH  30  33
ENDBRANCH  28  29
ENDBRANCH   1  28
TORSDOF 17
ENDMDL
