MODEL 1
REMARK VINA RESULT:     -11.0      0.000      0.000
REMARK SMILES CCC(CC)(NC(=O)c1cc([N+](=O)[O-])c[nH]1)C(=O)NCCCCNC(=O)c1ccc(-c2c3nc(c(-c4cc(S(=O)(=O)[O-])ccc4F)c4ccc([nH]4)c(-c4cc(S(=O)(=O)[O-])ccc4F)c4nc(c(-c5cc(S(=O)(=O)[O-])ccc5F)c5ccc2[nH]5)C=C4)C=C3)cc1
REMARK SMILES IDX 21 1 20 2 19 3 17 4 18 5 3 7 2 8 1 9 4 10 5 11 6 12 7 13
REMARK SMILES IDX 8 15 9 16 10 17 16 18 11 19 15 20 12 22 13 23 14 24 22 25
REMARK SMILES IDX 23 26 24 27 25 28 26 30 27 31 28 32 89 33 29 34 88 35 30 36
REMARK SMILES IDX 31 37 32 38 82 39 33 40 87 41 81 42 83 43 34 44 86 45 80 46
REMARK SMILES IDX 79 47 35 49 67 50 47 51 66 52 48 53 51 54 65 55 84 56 49 57
REMARK SMILES IDX 50 58 64 60 85 61 52 62 36 63 37 64 45 65 38 66 44 67 46 68
REMARK SMILES IDX 43 69 39 70 40 71 41 72 42 73 68 74 69 75 77 76 70 77 76 78
REMARK SMILES IDX 78 79 75 80 71 81 72 82 73 83 74 84 53 85 54 86 62 87 55 88
REMARK SMILES IDX 61 89 63 90 60 91 56 92 57 93 58 94 59 95
REMARK H PARENT 19 6 6 14 16 21 24 29 83 48 51 59
REMARK Flexibility Score: inf
ROOT
ATOM      1  C   UNL A   1      37.204  21.917  25.670  1.00  0.00     0.023 C 
ENDROOT
BRANCH   1   2
ATOM      2  C   UNL A   1      36.421  21.034  24.685  1.00  0.00     0.116 C 
BRANCH   2   3
ATOM      3  N   UNL A   1      35.262  20.284  25.164  1.00  0.00    -0.354 N 
ATOM      4  C   UNL A   1      33.929  20.598  25.353  1.00  0.00     0.245 C 
ATOM      5  O   UNL A   1      33.173  19.669  25.649  1.00  0.00    -0.272 OA
ATOM      6  H   UNL A   1      35.477  19.353  25.404  1.00  0.00     0.163 HD
BRANCH   4   7
ATOM      7  C   UNL A   1      33.386  22.023  25.092  1.00  0.00     0.118 C 
BRANCH   7   8
ATOM      8  C   UNL A   1      33.674  23.093  26.190  1.00  0.00     0.035 C 
ATOM      9  C   UNL A   1      34.047  22.632  27.591  1.00  0.00     0.007 C 
ENDBRANCH   7   8
BRANCH   7  10
ATOM     10  C   UNL A   1      31.841  21.756  25.002  1.00  0.00     0.035 C 
ATOM     11  C   UNL A   1      30.903  22.608  25.835  1.00  0.00     0.007 C 
ENDBRANCH   7  10
BRANCH   7  12
ATOM     12  N   UNL A   1      33.986  22.561  23.842  1.00  0.00    -0.336 N 
ATOM     13  C   UNL A   1      33.439  23.429  22.901  1.00  0.00     0.268 C 
ATOM     14  H   UNL A   1      34.903  22.260  23.653  1.00  0.00     0.165 HD
ATOM     15  O   UNL A   1      33.776  23.218  21.733  1.00  0.00    -0.268 OA
BRANCH  13  16
ATOM     16  C   UNL A   1      32.576  24.572  23.207  1.00  0.00     0.111 A 
ATOM     17  C   UNL A   1      32.766  25.815  23.783  1.00  0.00     0.119 A 
ATOM     18  N   UNL A   1      31.263  24.624  22.740  1.00  0.00    -0.351 N 
ATOM     19  C   UNL A   1      31.621  26.631  23.623  1.00  0.00     0.287 A 
ATOM     20  C   UNL A   1      30.684  25.849  22.989  1.00  0.00     0.169 A 
ATOM     21  H   UNL A   1      30.805  23.878  22.290  1.00  0.00     0.166 HD
BRANCH  19  22
ATOM     22  N   UNL A   1      31.525  28.027  23.980  1.00  0.00     0.064 N 
ATOM     23  O   UNL A   1      31.767  28.856  23.095  1.00  0.00    -0.258 OA
ATOM     24  O   UNL A   1      31.251  28.277  25.162  1.00  0.00    -0.258 OA
ENDBRANCH  19  22
ENDBRANCH  13  16
ENDBRANCH   7  12
ENDBRANCH   4   7
ENDBRANCH   2   3
ENDBRANCH   1   2
BRANCH   1  25
ATOM     25  C   UNL A   1      37.279  23.432  25.453  1.00  0.00     0.023 C 
BRANCH  25  26
ATOM     26  C   UNL A   1      38.091  24.192  26.482  1.00  0.00     0.116 C 
BRANCH  26  27
ATOM     27  N   UNL A   1      39.428  23.638  26.572  1.00  0.00    -0.352 N 
ATOM     28  C   UNL A   1      40.621  24.311  26.624  1.00  0.00     0.251 C 
ATOM     29  H   UNL A   1      39.485  22.655  26.600  1.00  0.00     0.163 HD
ATOM     30  O   UNL A   1      41.627  23.768  26.187  1.00  0.00    -0.269 OA
BRANCH  28  31
ATOM     31  C   UNL A   1      40.699  25.661  27.215  1.00  0.00     0.039 A 
ATOM     32  C   UNL A   1      40.776  25.767  28.609  1.00  0.00     0.014 A 
ATOM     33  C   UNL A   1      40.581  26.807  26.419  1.00  0.00     0.014 A 
ATOM     34  C   UNL A   1      40.761  27.022  29.202  1.00  0.00     0.010 A 
ATOM     35  C   UNL A   1      40.605  28.061  27.002  1.00  0.00     0.010 A 
ATOM     36  C   UNL A   1      40.686  28.161  28.393  1.00  0.00    -0.014 A 
BRANCH  36  37
ATOM     37  C   UNL A   1      40.852  29.493  29.003  1.00  0.00     0.031 A 
ATOM     38  C   UNL A   1      39.446  30.074  29.390  1.00  0.00     0.074 A 
ATOM     39  C   UNL A   1      42.156  29.919  29.087  1.00  0.00     0.049 A 
ATOM     40  N   UNL A   1      38.983  31.290  29.392  1.00  0.00    -0.248 NA
ATOM     41  C   UNL A   1      38.347  29.107  29.715  1.00  0.00     0.031 C 
ATOM     42  C   UNL A   1      43.364  29.169  28.634  1.00  0.00     0.029 A 
ATOM     43  N   UNL A   1      42.756  31.057  29.560  1.00  0.00    -0.354 N 
ATOM     44  C   UNL A   1      37.661  31.253  29.921  1.00  0.00     0.074 A 
ATOM     45  C   UNL A   1      37.283  29.875  29.962  1.00  0.00     0.031 C 
ATOM     46  C   UNL A   1      44.491  29.918  28.737  1.00  0.00     0.029 A 
ATOM     47  C   UNL A   1      44.149  31.219  29.266  1.00  0.00     0.049 A 
ATOM     48  H   UNL A   1      42.255  31.729  30.077  1.00  0.00     0.167 HD
ATOM     49  C   UNL A   1      37.026  32.342  30.457  1.00  0.00     0.034 A 
ATOM     50  C   UNL A   1      44.904  32.368  29.348  1.00  0.00     0.034 A 
ATOM     51  C   UNL A   1      37.903  33.460  30.432  1.00  0.00     0.049 A 
ATOM     52  C   UNL A   1      43.908  33.351  29.805  1.00  0.00     0.074 A 
ATOM     53  C   UNL A   1      38.165  34.525  29.612  1.00  0.00     0.029 A 
ATOM     54  N   UNL A   1      38.745  33.532  31.512  1.00  0.00    -0.354 N 
ATOM     55  N   UNL A   1      43.393  33.420  30.991  1.00  0.00    -0.248 NA
ATOM     56  C   UNL A   1      43.219  34.064  28.731  1.00  0.00     0.031 C 
ATOM     57  C   UNL A   1      39.336  35.120  30.148  1.00  0.00     0.029 A 
ATOM     58  C   UNL A   1      39.835  34.241  31.110  1.00  0.00     0.049 A 
ATOM     59  H   UNL A   1      38.590  33.147  32.405  1.00  0.00     0.167 HD
ATOM     60  C   UNL A   1      42.167  34.008  30.787  1.00  0.00     0.074 A 
ATOM     61  C   UNL A   1      42.125  34.417  29.387  1.00  0.00     0.031 C 
ATOM     62  C   UNL A   1      41.114  33.836  31.623  1.00  0.00     0.034 A 
BRANCH  49  63
ATOM     63  C   UNL A   1      35.803  32.549  31.350  1.00  0.00     0.023 A 
ATOM     64  C   UNL A   1      34.799  33.415  30.826  1.00  0.00     0.031 A 
ATOM     65  C   UNL A   1      35.739  32.320  32.731  1.00  0.00     0.131 A 
ATOM     66  C   UNL A   1      33.941  34.154  31.651  1.00  0.00     0.055 A 
ATOM     67  C   UNL A   1      34.809  32.992  33.552  1.00  0.00     0.041 A 
ATOM     68  F   UNL A   1      36.615  31.517  33.348  1.00  0.00    -0.206 F 
ATOM     69  C   UNL A   1      33.941  33.950  33.022  1.00  0.00     0.022 A 
BRANCH  66  70
ATOM     70  S   UNL A   1      32.995  35.518  30.903  1.00  0.00     0.124 S 
ATOM     71  O   UNL A   1      33.986  36.586  30.837  1.00  0.00    -0.237 OA
ATOM     72  O   UNL A   1      32.594  34.945  29.621  1.00  0.00    -0.237 OA
ATOM     73  O   UNL A   1      31.905  35.737  31.850  1.00  0.00    -0.744 OA
ENDBRANCH  66  70
ENDBRANCH  49  63
BRANCH  50  74
ATOM     74  C   UNL A   1      46.232  32.942  28.858  1.00  0.00     0.023 A 
ATOM     75  C   UNL A   1      46.468  33.689  27.690  1.00  0.00     0.031 A 
ATOM     76  C   UNL A   1      47.390  32.772  29.690  1.00  0.00     0.131 A 
ATOM     77  C   UNL A   1      47.748  34.287  27.465  1.00  0.00     0.055 A 
ATOM     78  C   UNL A   1      48.603  33.440  29.516  1.00  0.00     0.041 A 
ATOM     79  F   UNL A   1      47.396  31.937  30.739  1.00  0.00    -0.206 F 
ATOM     80  C   UNL A   1      48.782  34.225  28.404  1.00  0.00     0.022 A 
BRANCH  77  81
ATOM     81  S   UNL A   1      48.131  35.164  25.914  1.00  0.00     0.124 S 
ATOM     82  O   UNL A   1      47.181  34.561  24.987  1.00  0.00    -0.237 OA
ATOM     83  O   UNL A   1      47.893  36.560  26.264  1.00  0.00    -0.237 OA
ATOM     84  O   UNL A   1      49.534  34.825  25.667  1.00  0.00    -0.744 OA
ENDBRANCH  77  81
ENDBRANCH  50  74
BRANCH  62  85
ATOM     85  C   UNL A   1      41.339  32.862  32.778  1.00  0.00     0.023 A 
ATOM     86  C   UNL A   1      41.043  31.499  32.668  1.00  0.00     0.031 A 
ATOM     87  C   UNL A   1      41.775  33.295  34.053  1.00  0.00     0.131 A 
ATOM     88  C   UNL A   1      41.203  30.640  33.780  1.00  0.00     0.055 A 
ATOM     89  C   UNL A   1      41.944  32.449  35.153  1.00  0.00     0.041 A 
ATOM     90  F   UNL A   1      42.066  34.577  34.270  1.00  0.00    -0.206 F 
ATOM     91  C   UNL A   1      41.658  31.105  35.018  1.00  0.00     0.022 A 
BRANCH  88  92
ATOM     92  S   UNL A   1      40.838  28.874  33.596  1.00  0.00     0.124 S 
ATOM     93  O   UNL A   1      39.419  28.879  33.262  1.00  0.00    -0.237 OA
ATOM     94  O   UNL A   1      41.748  28.472  32.528  1.00  0.00    -0.237 OA
ATOM     95  O   UNL A   1      41.158  28.317  34.912  1.00  0.00    -0.744 OA
ENDBRANCH  88  92
ENDBRANCH  62  85
ENDBRANCH  36  37
ENDBRANCH  28  31
ENDBRANCH  26  27
ENDBRANCH  25  26
ENDBRANCH   1  25
TORSDOF 19
ENDMDL
MODEL 2
REMARK VINA RESULT:     -10.8      4.057      9.621
REMARK SMILES CCC(CC)(NC(=O)c1cc([N+](=O)[O-])c[nH]1)C(=O)NCCCCNC(=O)c1ccc(-c2c3nc(c(-c4cc(S(=O)(=O)[O-])ccc4F)c4ccc([nH]4)c(-c4cc(S(=O)(=O)[O-])ccc4F)c4nc(c(-c5cc(S(=O)(=O)[O-])ccc5F)c5ccc2[nH]5)C=C4)C=C3)cc1
REMARK SMILES IDX 21 1 20 2 19 3 17 4 18 5 3 7 2 8 1 9 4 10 5 11 6 12 7 13
REMARK SMILES IDX 8 15 9 16 10 17 16 18 11 19 15 20 12 22 13 23 14 24 22 25
REMARK SMILES IDX 23 26 24 27 25 28 26 30 27 31 28 32 89 33 29 34 88 35 30 36
REMARK SMILES IDX 31 37 32 38 82 39 33 40 87 41 81 42 83 43 34 44 86 45 80 46
REMARK SMILES IDX 79 47 35 49 67 50 47 51 66 52 48 53 51 54 65 55 84 56 49 57
REMARK SMILES IDX 50 58 64 60 85 61 52 62 36 63 37 64 45 65 38 66 44 67 46 68
REMARK SMILES IDX 43 69 39 70 40 71 41 72 42 73 68 74 69 75 77 76 70 77 76 78
REMARK SMILES IDX 78 79 75 80 71 81 72 82 73 83 74 84 53 85 54 86 62 87 55 88
REMARK SMILES IDX 61 89 63 90 60 91 56 92 57 93 58 94 59 95
REMARK H PARENT 19 6 6 14 16 21 24 29 83 48 51 59
REMARK Flexibility Score: inf
ROOT
ATOM      1  C   UNL A   1      32.252  29.940  27.033  1.00  0.00     0.023 C 
ENDROOT
BRANCH   1   2
ATOM      2  C   UNL A   1      32.009  30.136  25.529  1.00  0.00     0.116 C 
BRANCH   2   3
ATOM      3  N   UNL A   1      33.065  29.785  24.581  1.00  0.00    -0.354 N 
ATOM      4  C   UNL A   1      33.220  28.775  23.651  1.00  0.00     0.245 C 
ATOM      5  O   UNL A   1      34.197  28.851  22.901  1.00  0.00    -0.272 OA
ATOM      6  H   UNL A   1      33.832  30.401  24.613  1.00  0.00     0.163 HD
BRANCH   4   7
ATOM      7  C   UNL A   1      32.158  27.663  23.475  1.00  0.00     0.118 C 
BRANCH   7   8
ATOM      8  C   UNL A   1      30.668  28.083  23.665  1.00  0.00     0.035 C 
ATOM      9  C   UNL A   1      29.751  28.126  22.452  1.00  0.00     0.007 C 
ENDBRANCH   7   8
BRANCH   7  10
ATOM     10  C   UNL A   1      32.574  26.654  24.603  1.00  0.00     0.035 C 
ATOM     11  C   UNL A   1      34.044  26.510  24.949  1.00  0.00     0.007 C 
ENDBRANCH   7  10
BRANCH   7  12
ATOM     12  N   UNL A   1      32.244  27.108  22.097  1.00  0.00    -0.336 N 
ATOM     13  C   UNL A   1      32.558  25.817  21.682  1.00  0.00     0.268 C 
ATOM     14  H   UNL A   1      32.052  27.747  21.374  1.00  0.00     0.165 HD
ATOM     15  O   UNL A   1      33.193  25.744  20.627  1.00  0.00    -0.268 OA
BRANCH  13  16
ATOM     16  C   UNL A   1      32.139  24.587  22.358  1.00  0.00     0.111 A 
ATOM     17  C   UNL A   1      32.775  23.428  22.764  1.00  0.00     0.119 A 
ATOM     18  N   UNL A   1      30.863  24.471  22.909  1.00  0.00    -0.351 N 
ATOM     19  C   UNL A   1      31.933  22.648  23.590  1.00  0.00     0.287 A 
ATOM     20  C   UNL A   1      30.730  23.313  23.642  1.00  0.00     0.169 A 
ATOM     21  H   UNL A   1      30.145  25.133  22.787  1.00  0.00     0.166 HD
BRANCH  19  22
ATOM     22  N   UNL A   1      32.322  21.449  24.298  1.00  0.00     0.064 N 
ATOM     23  O   UNL A   1      31.625  21.110  25.261  1.00  0.00    -0.258 OA
ATOM     24  O   UNL A   1      33.353  20.887  23.904  1.00  0.00    -0.258 OA
ENDBRANCH  19  22
ENDBRANCH  13  16
ENDBRANCH   7  12
ENDBRANCH   4   7
ENDBRANCH   2   3
ENDBRANCH   1   2
BRANCH   1  25
ATOM     25  C   UNL A   1      33.247  28.882  27.520  1.00  0.00     0.023 C 
BRANCH  25  26
ATOM     26  C   UNL A   1      34.707  29.281  27.435  1.00  0.00     0.116 C 
BRANCH  26  27
ATOM     27  N   UNL A   1      34.893  30.611  27.982  1.00  0.00    -0.352 N 
ATOM     28  C   UNL A   1      35.727  30.999  28.999  1.00  0.00     0.251 C 
ATOM     29  H   UNL A   1      34.353  31.325  27.571  1.00  0.00     0.163 HD
ATOM     30  O   UNL A   1      35.422  31.971  29.678  1.00  0.00    -0.269 OA
BRANCH  28  31
ATOM     31  C   UNL A   1      36.984  30.272  29.261  1.00  0.00     0.039 A 
ATOM     32  C   UNL A   1      38.093  30.559  28.456  1.00  0.00     0.014 A 
ATOM     33  C   UNL A   1      37.039  29.240  30.206  1.00  0.00     0.014 A 
ATOM     34  C   UNL A   1      39.263  29.830  28.616  1.00  0.00     0.010 A 
ATOM     35  C   UNL A   1      38.214  28.537  30.398  1.00  0.00     0.010 A 
ATOM     36  C   UNL A   1      39.319  28.831  29.594  1.00  0.00    -0.014 A 
BRANCH  36  37
ATOM     37  C   UNL A   1      40.608  28.182  29.891  1.00  0.00     0.031 A 
ATOM     38  C   UNL A   1      40.772  26.901  28.997  1.00  0.00     0.074 A 
ATOM     39  C   UNL A   1      41.352  28.815  30.858  1.00  0.00     0.049 A 
ATOM     40  N   UNL A   1      41.338  25.753  29.227  1.00  0.00    -0.248 NA
ATOM     41  C   UNL A   1      40.078  26.875  27.668  1.00  0.00     0.031 C 
ATOM     42  C   UNL A   1      40.976  30.058  31.593  1.00  0.00     0.029 A 
ATOM     43  N   UNL A   1      42.571  28.567  31.435  1.00  0.00    -0.354 N 
ATOM     44  C   UNL A   1      41.269  24.985  28.029  1.00  0.00     0.074 A 
ATOM     45  C   UNL A   1      40.362  25.672  27.164  1.00  0.00     0.031 C 
ATOM     46  C   UNL A   1      41.866  30.353  32.574  1.00  0.00     0.029 A 
ATOM     47  C   UNL A   1      42.910  29.353  32.584  1.00  0.00     0.049 A 
ATOM     48  H   UNL A   1      43.182  27.883  31.078  1.00  0.00     0.167 HD
ATOM     49  C   UNL A   1      42.097  23.929  27.755  1.00  0.00     0.034 A 
ATOM     50  C   UNL A   1      43.897  29.113  33.514  1.00  0.00     0.034 A 
ATOM     51  C   UNL A   1      43.027  23.769  28.817  1.00  0.00     0.049 A 
ATOM     52  C   UNL A   1      44.485  27.859  33.012  1.00  0.00     0.074 A 
ATOM     53  C   UNL A   1      43.137  23.033  29.965  1.00  0.00     0.029 A 
ATOM     54  N   UNL A   1      44.144  24.556  28.702  1.00  0.00    -0.354 N 
ATOM     55  N   UNL A   1      45.229  27.734  31.960  1.00  0.00    -0.248 NA
ATOM     56  C   UNL A   1      43.886  26.644  33.561  1.00  0.00     0.031 C 
ATOM     57  C   UNL A   1      44.270  23.565  30.634  1.00  0.00     0.029 A 
ATOM     58  C   UNL A   1      44.625  24.736  29.963  1.00  0.00     0.049 A 
ATOM     59  H   UNL A   1      44.523  24.921  27.870  1.00  0.00     0.167 HD
ATOM     60  C   UNL A   1      45.020  26.435  31.560  1.00  0.00     0.074 A 
ATOM     61  C   UNL A   1      44.216  25.799  32.598  1.00  0.00     0.031 C 
ATOM     62  C   UNL A   1      45.187  26.018  30.281  1.00  0.00     0.034 A 
BRANCH  49  63
ATOM     63  C   UNL A   1      42.472  23.149  26.494  1.00  0.00     0.023 A 
ATOM     64  C   UNL A   1      42.073  21.781  26.477  1.00  0.00     0.031 A 
ATOM     65  C   UNL A   1      43.469  23.497  25.573  1.00  0.00     0.131 A 
ATOM     66  C   UNL A   1      42.768  20.806  25.748  1.00  0.00     0.055 A 
ATOM     67  C   UNL A   1      44.104  22.529  24.767  1.00  0.00     0.041 A 
ATOM     68  F   UNL A   1      43.926  24.752  25.478  1.00  0.00    -0.206 F 
ATOM     69  C   UNL A   1      43.791  21.173  24.887  1.00  0.00     0.022 A 
BRANCH  66  70
ATOM     70  S   UNL A   1      42.433  19.055  26.120  1.00  0.00     0.124 S 
ATOM     71  O   UNL A   1      41.080  18.880  25.607  1.00  0.00    -0.237 OA
ATOM     72  O   UNL A   1      43.488  18.376  25.373  1.00  0.00    -0.237 OA
ATOM     73  O   UNL A   1      42.562  18.985  27.573  1.00  0.00    -0.744 OA
ENDBRANCH  66  70
ENDBRANCH  49  63
BRANCH  50  74
ATOM     74  C   UNL A   1      44.313  29.528  34.924  1.00  0.00     0.023 A 
ATOM     75  C   UNL A   1      44.535  28.696  36.035  1.00  0.00     0.031 A 
ATOM     76  C   UNL A   1      44.578  30.918  35.169  1.00  0.00     0.131 A 
ATOM     77  C   UNL A   1      45.077  29.239  37.243  1.00  0.00     0.055 A 
ATOM     78  C   UNL A   1      45.200  31.423  36.312  1.00  0.00     0.041 A 
ATOM     79  F   UNL A   1      44.244  31.872  34.288  1.00  0.00    -0.206 F 
ATOM     80  C   UNL A   1      45.475  30.574  37.355  1.00  0.00     0.022 A 
BRANCH  77  81
ATOM     81  S   UNL A   1      45.272  28.220  38.742  1.00  0.00     0.124 S 
ATOM     82  O   UNL A   1      45.141  29.216  39.799  1.00  0.00    -0.237 OA
ATOM     83  O   UNL A   1      44.183  27.258  38.624  1.00  0.00    -0.237 OA
ATOM     84  O   UNL A   1      46.612  27.649  38.595  1.00  0.00    -0.744 OA
ENDBRANCH  77  81
ENDBRANCH  50  74
BRANCH  62  85
ATOM     85  C   UNL A   1      45.538  27.109  29.269  1.00  0.00     0.023 A 
ATOM     86  C   UNL A   1      44.584  28.013  28.791  1.00  0.00     0.031 A 
ATOM     87  C   UNL A   1      46.827  27.212  28.693  1.00  0.00     0.131 A 
ATOM     88  C   UNL A   1      44.932  28.967  27.807  1.00  0.00     0.055 A 
ATOM     89  C   UNL A   1      47.179  28.159  27.726  1.00  0.00     0.041 A 
ATOM     90  F   UNL A   1      47.804  26.387  29.065  1.00  0.00    -0.206 F 
ATOM     91  C   UNL A   1      46.223  29.051  27.278  1.00  0.00     0.022 A 
BRANCH  88  92
ATOM     92  S   UNL A   1      43.679  30.143  27.230  1.00  0.00     0.124 S 
ATOM     93  O   UNL A   1      44.371  30.836  26.151  1.00  0.00    -0.237 OA
ATOM     94  O   UNL A   1      42.582  29.266  26.831  1.00  0.00    -0.237 OA
ATOM     95  O   UNL A   1      43.406  30.962  28.412  1.00  0.00    -0.744 OA
ENDBRANCH  88  92
ENDBRANCH  62  85
ENDBRANCH  36  37
ENDBRANCH  28  31
ENDBRANCH  26  27
ENDBRANCH  25  26
ENDBRANCH   1  25
TORSDOF 19
ENDMDL
MODEL 3
REMARK VINA RESULT:     -10.7      3.857      9.479
REMARK SMILES CCC(CC)(NC(=O)c1cc([N+](=O)[O-])c[nH]1)C(=O)NCCCCNC(=O)c1ccc(-c2c3nc(c(-c4cc(S(=O)(=O)[O-])ccc4F)c4ccc([nH]4)c(-c4cc(S(=O)(=O)[O-])ccc4F)c4nc(c(-c5cc(S(=O)(=O)[O-])ccc5F)c5ccc2[nH]5)C=C4)C=C3)cc1
REMARK SMILES IDX 21 1 20 2 19 3 17 4 18 5 3 7 2 8 1 9 4 10 5 11 6 12 7 13
REMARK SMILES IDX 8 15 9 16 10 17 16 18 11 19 15 20 12 22 13 23 14 24 22 25
REMARK SMILES IDX 23 26 24 27 25 28 26 30 27 31 28 32 89 33 29 34 88 35 30 36
REMARK SMILES IDX 31 37 32 38 82 39 33 40 87 41 81 42 83 43 34 44 86 45 80 46
REMARK SMILES IDX 79 47 35 49 67 50 47 51 66 52 48 53 51 54 65 55 84 56 49 57
REMARK SMILES IDX 50 58 64 60 85 61 52 62 36 63 37 64 45 65 38 66 44 67 46 68
REMARK SMILES IDX 43 69 39 70 40 71 41 72 42 73 68 74 69 75 77 76 70 77 76 78
REMARK SMILES IDX 78 79 75 80 71 81 72 82 73 83 74 84 53 85 54 86 62 87 55 88
REMARK SMILES IDX 61 89 63 90 60 91 56 92 57 93 58 94 59 95
REMARK H PARENT 19 6 6 14 16 21 24 29 83 48 51 59
REMARK Flexibility Score: inf
ROOT
ATOM      1  C   UNL A   1      33.209  29.709  27.248  1.00  0.00     0.023 C 
ENDROOT
BRANCH   1   2
ATOM      2  C   UNL A   1      32.177  29.555  26.119  1.00  0.00     0.116 C 
BRANCH   2   3
ATOM      3  N   UNL A   1      32.626  29.602  24.729  1.00  0.00    -0.354 N 
ATOM      4  C   UNL A   1      32.740  28.657  23.727  1.00  0.00     0.245 C 
ATOM      5  O   UNL A   1      33.032  29.068  22.602  1.00  0.00    -0.272 OA
ATOM      6  H   UNL A   1      32.909  30.501  24.444  1.00  0.00     0.163 HD
BRANCH   4   7
ATOM      7  C   UNL A   1      32.402  27.167  23.975  1.00  0.00     0.118 C 
BRANCH   7   8
ATOM      8  C   UNL A   1      31.034  26.864  24.661  1.00  0.00     0.035 C 
ATOM      9  C   UNL A   1      29.890  26.321  23.819  1.00  0.00     0.007 C 
ENDBRANCH   7   8
BRANCH   7  10
ATOM     10  C   UNL A   1      33.579  26.734  24.920  1.00  0.00     0.035 C 
ATOM     11  C   UNL A   1      33.247  26.055  26.235  1.00  0.00     0.007 C 
ENDBRANCH   7  10
BRANCH   7  12
ATOM     12  N   UNL A   1      32.366  26.443  22.675  1.00  0.00    -0.336 N 
ATOM     13  C   UNL A   1      33.041  25.290  22.286  1.00  0.00     0.268 C 
ATOM     14  H   UNL A   1      31.780  26.838  21.991  1.00  0.00     0.165 HD
ATOM     15  O   UNL A   1      33.388  25.257  21.103  1.00  0.00    -0.268 OA
BRANCH  13  16
ATOM     16  C   UNL A   1      33.296  24.130  23.144  1.00  0.00     0.111 A 
ATOM     17  C   UNL A   1      32.559  23.422  24.077  1.00  0.00     0.119 A 
ATOM     18  N   UNL A   1      34.454  23.369  22.995  1.00  0.00    -0.351 N 
ATOM     19  C   UNL A   1      33.221  22.228  24.448  1.00  0.00     0.287 A 
ATOM     20  C   UNL A   1      34.419  22.233  23.774  1.00  0.00     0.169 A 
ATOM     21  H   UNL A   1      35.205  23.613  22.407  1.00  0.00     0.166 HD
BRANCH  19  22
ATOM     22  N   UNL A   1      32.675  21.190  25.292  1.00  0.00     0.064 N 
ATOM     23  O   UNL A   1      31.453  21.006  25.245  1.00  0.00    -0.258 OA
ATOM     24  O   UNL A   1      33.478  20.600  26.029  1.00  0.00    -0.258 OA
ENDBRANCH  19  22
ENDBRANCH  13  16
ENDBRANCH   7  12
ENDBRANCH   4   7
ENDBRANCH   2   3
ENDBRANCH   1   2
BRANCH   1  25
ATOM     25  C   UNL A   1      34.635  29.183  27.064  1.00  0.00     0.023 C 
BRANCH  25  26
ATOM     26  C   UNL A   1      35.733  30.121  27.522  1.00  0.00     0.116 C 
BRANCH  26  27
ATOM     27  N   UNL A   1      35.703  30.258  28.966  1.00  0.00    -0.352 N 
ATOM     28  C   UNL A   1      36.464  29.597  29.895  1.00  0.00     0.251 C 
ATOM     29  H   UNL A   1      35.054  30.907  29.323  1.00  0.00     0.163 HD
ATOM     30  O   UNL A   1      36.007  29.416  31.015  1.00  0.00    -0.269 OA
BRANCH  28  31
ATOM     31  C   UNL A   1      37.822  29.128  29.559  1.00  0.00     0.039 A 
ATOM     32  C   UNL A   1      38.280  29.316  28.249  1.00  0.00     0.014 A 
ATOM     33  C   UNL A   1      38.589  28.410  30.484  1.00  0.00     0.014 A 
ATOM     34  C   UNL A   1      39.516  28.807  27.875  1.00  0.00     0.010 A 
ATOM     35  C   UNL A   1      39.839  27.934  30.129  1.00  0.00     0.010 A 
ATOM     36  C   UNL A   1      40.292  28.129  28.822  1.00  0.00    -0.014 A 
BRANCH  36  37
ATOM     37  C   UNL A   1      41.675  27.748  28.484  1.00  0.00     0.031 A 
ATOM     38  C   UNL A   1      42.572  29.034  28.405  1.00  0.00     0.074 A 
ATOM     39  C   UNL A   1      41.864  26.397  28.311  1.00  0.00     0.049 A 
ATOM     40  N   UNL A   1      43.586  29.336  27.649  1.00  0.00    -0.248 NA
ATOM     41  C   UNL A   1      42.182  30.218  29.238  1.00  0.00     0.031 C 
ATOM     42  C   UNL A   1      40.826  25.334  28.439  1.00  0.00     0.029 A 
ATOM     43  N   UNL A   1      42.949  25.622  27.993  1.00  0.00    -0.354 N 
ATOM     44  C   UNL A   1      44.077  30.607  28.064  1.00  0.00     0.074 A 
ATOM     45  C   UNL A   1      43.088  31.153  28.939  1.00  0.00     0.031 C 
ATOM     46  C   UNL A   1      41.304  24.116  28.079  1.00  0.00     0.029 A 
ATOM     47  C   UNL A   1      42.690  24.247  27.687  1.00  0.00     0.049 A 
ATOM     48  H   UNL A   1      43.862  25.992  27.977  1.00  0.00     0.167 HD
ATOM     49  C   UNL A   1      45.345  31.055  27.804  1.00  0.00     0.034 A 
ATOM     50  C   UNL A   1      43.520  23.347  27.056  1.00  0.00     0.034 A 
ATOM     51  C   UNL A   1      46.069  30.047  27.110  1.00  0.00     0.049 A 
ATOM     52  C   UNL A   1      44.712  24.172  26.792  1.00  0.00     0.074 A 
ATOM     53  C   UNL A   1      46.356  29.716  25.814  1.00  0.00     0.029 A 
ATOM     54  N   UNL A   1      46.661  29.122  27.932  1.00  0.00    -0.354 N 
ATOM     55  N   UNL A   1      45.567  24.580  27.675  1.00  0.00    -0.248 NA
ATOM     56  C   UNL A   1      44.710  24.845  25.495  1.00  0.00     0.031 C 
ATOM     57  C   UNL A   1      46.973  28.440  25.890  1.00  0.00     0.029 A 
ATOM     58  C   UNL A   1      46.804  27.984  27.198  1.00  0.00     0.049 A 
ATOM     59  H   UNL A   1      46.931  29.255  28.869  1.00  0.00     0.167 HD
ATOM     60  C   UNL A   1      46.080  25.733  27.129  1.00  0.00     0.074 A 
ATOM     61  C   UNL A   1      45.548  25.831  25.774  1.00  0.00     0.031 C 
ATOM     62  C   UNL A   1      46.614  26.732  27.874  1.00  0.00     0.034 A 
BRANCH  49  63
ATOM     63  C   UNL A   1      46.234  32.169  28.357  1.00  0.00     0.023 A 
ATOM     64  C   UNL A   1      46.347  33.328  27.536  1.00  0.00     0.031 A 
ATOM     65  C   UNL A   1      47.223  32.027  29.339  1.00  0.00     0.131 A 
ATOM     66  C   UNL A   1      47.479  34.156  27.560  1.00  0.00     0.055 A 
ATOM     67  C   UNL A   1      48.313  32.918  29.427  1.00  0.00     0.041 A 
ATOM     68  F   UNL A   1      47.225  30.989  30.185  1.00  0.00    -0.206 F 
ATOM     69  C   UNL A   1      48.473  33.955  28.506  1.00  0.00     0.022 A 
BRANCH  66  70
ATOM     70  S   UNL A   1      47.700  35.347  26.200  1.00  0.00     0.124 S 
ATOM     71  O   UNL A   1      49.088  35.760  26.369  1.00  0.00    -0.237 OA
ATOM     72  O   UNL A   1      47.420  34.526  25.026  1.00  0.00    -0.237 OA
ATOM     73  O   UNL A   1      46.704  36.377  26.485  1.00  0.00    -0.744 OA
ENDBRANCH  66  70
ENDBRANCH  49  63
BRANCH  50  74
ATOM     74  C   UNL A   1      43.469  21.999  26.341  1.00  0.00     0.023 A 
ATOM     75  C   UNL A   1      44.531  21.308  25.731  1.00  0.00     0.031 A 
ATOM     76  C   UNL A   1      42.220  21.291  26.321  1.00  0.00     0.131 A 
ATOM     77  C   UNL A   1      44.338  19.976  25.244  1.00  0.00     0.055 A 
ATOM     78  C   UNL A   1      42.064  19.958  25.938  1.00  0.00     0.041 A 
ATOM     79  F   UNL A   1      41.068  21.871  26.687  1.00  0.00    -0.206 F 
ATOM     80  C   UNL A   1      43.137  19.282  25.414  1.00  0.00     0.022 A 
BRANCH  77  81
ATOM     81  S   UNL A   1      45.652  19.090  24.345  1.00  0.00     0.124 S 
ATOM     82  O   UNL A   1      46.727  20.075  24.339  1.00  0.00    -0.237 OA
ATOM     83  O   UNL A   1      45.867  17.906  25.169  1.00  0.00    -0.237 OA
ATOM     84  O   UNL A   1      45.051  18.825  23.037  1.00  0.00    -0.744 OA
ENDBRANCH  77  81
ENDBRANCH  50  74
BRANCH  62  85
ATOM     85  C   UNL A   1      46.531  26.545  29.389  1.00  0.00     0.023 A 
ATOM     86  C   UNL A   1      45.483  27.079  30.146  1.00  0.00     0.031 A 
ATOM     87  C   UNL A   1      47.552  25.897  30.123  1.00  0.00     0.131 A 
ATOM     88  C   UNL A   1      45.474  26.940  31.553  1.00  0.00     0.055 A 
ATOM     89  C   UNL A   1      47.545  25.749  31.513  1.00  0.00     0.041 A 
ATOM     90  F   UNL A   1      48.605  25.369  29.500  1.00  0.00    -0.206 F 
ATOM     91  C   UNL A   1      46.493  26.273  32.240  1.00  0.00     0.022 A 
BRANCH  88  92
ATOM     92  S   UNL A   1      44.087  27.619  32.502  1.00  0.00     0.124 S 
ATOM     93  O   UNL A   1      44.488  29.007  32.698  1.00  0.00    -0.237 OA
ATOM     94  O   UNL A   1      42.954  27.398  31.610  1.00  0.00    -0.237 OA
ATOM     95  O   UNL A   1      44.072  26.806  33.720  1.00  0.00    -0.744 OA
ENDBRANCH  88  92
ENDBRANCH  62  85
ENDBRANCH  36  37
ENDBRANCH  28  31
ENDBRANCH  26  27
ENDBRANCH  25  26
ENDBRANCH   1  25
TORSDOF 19
ENDMDL
