MODEL 1
REMARK VINA RESULT:     -10.4      0.000      0.000
REMARK SMILES C[C@]([NH3+])(Cc1ccc(I)cc1)C(=O)NCCCCNC(=O)c1ccc(-c2c3nc(c(-c4cc(S(=O)(=O)[O-])ccc4F)c4ccc([nH]4)c(-c4cc(S(=O)(=O)[O-])ccc4F)c4nc(c(-c5cc(S(=O)(=O)[O-])ccc5F)c5ccc2[nH]5)C=C4)C=C3)cc1
REMARK SMILES IDX 17 1 16 2 15 3 14 4 12 5 13 6 2 8 1 9 4 10 5 11 6 12 11 13
REMARK SMILES IDX 7 14 10 15 8 16 9 17 3 18 18 22 19 23 20 24 21 26 22 27
REMARK SMILES IDX 23 28 84 29 24 30 83 31 25 32 26 33 27 34 77 35 28 36 82 37
REMARK SMILES IDX 76 38 78 39 29 40 81 41 75 42 74 43 30 45 62 46 42 47 61 48
REMARK SMILES IDX 43 49 46 50 60 51 79 52 44 53 45 54 59 56 80 57 47 58 31 59
REMARK SMILES IDX 32 60 40 61 33 62 39 63 41 64 38 65 34 66 35 67 36 68 37 69
REMARK SMILES IDX 63 70 64 71 72 72 65 73 71 74 73 75 70 76 66 77 67 78 68 79
REMARK SMILES IDX 69 80 48 81 49 82 57 83 50 84 56 85 58 86 55 87 51 88 52 89
REMARK SMILES IDX 53 90 54 91
REMARK H PARENT 14 7 3 19 3 20 3 21 19 25 78 44 46 55
REMARK Flexibility Score: inf
ROOT
ATOM      1  C   UNL A   1      34.031  34.282  27.915  1.00  0.00     0.023 C 
ENDROOT
BRANCH   1   2
ATOM      2  C   UNL A   1      33.914  35.445  28.895  1.00  0.00     0.023 C 
BRANCH   2   3
ATOM      3  C   UNL A   1      33.408  35.071  30.285  1.00  0.00     0.116 C 
BRANCH   3   4
ATOM      4  N   UNL A   1      34.065  35.817  31.337  1.00  0.00    -0.351 N 
ATOM      5  C   UNL A   1      34.644  35.431  32.507  1.00  0.00     0.281 C 
ATOM      6  O   UNL A   1      35.099  36.340  33.215  1.00  0.00    -0.268 OA
ATOM      7  H   UNL A   1      34.101  36.787  31.177  1.00  0.00     0.163 HD
BRANCH   5   8
ATOM      8  C   UNL A   1      34.701  33.942  32.984  1.00  0.00     0.175 C 
ATOM      9  C   UNL A   1      35.355  33.802  34.368  1.00  0.00     0.090 C 
BRANCH   8  10
ATOM     10  C   UNL A   1      35.387  33.040  31.916  1.00  0.00     0.114 C 
BRANCH  10  11
ATOM     11  C   UNL A   1      36.731  33.529  31.395  1.00  0.00    -0.041 A 
ATOM     12  C   UNL A   1      37.063  33.400  30.039  1.00  0.00     0.005 A 
ATOM     13  C   UNL A   1      37.675  34.104  32.253  1.00  0.00     0.005 A 
ATOM     14  C   UNL A   1      38.318  33.782  29.560  1.00  0.00     0.015 A 
ATOM     15  C   UNL A   1      38.937  34.483  31.782  1.00  0.00     0.015 A 
ATOM     16  C   UNL A   1      39.257  34.311  30.437  1.00  0.00     0.013 A 
ATOM     17  I   UNL A   1      41.140  34.843  29.742  1.00  0.00    -0.044 I 
ENDBRANCH  10  11
ENDBRANCH   8  10
BRANCH   8  18
ATOM     18  N   UNL A   1      33.298  33.500  33.248  1.00  0.00    -0.345 N 
ATOM     19  H   UNL A   1      33.063  33.681  34.225  1.00  0.00     0.345 HD
ATOM     20  H   UNL A   1      33.214  32.501  33.059  1.00  0.00     0.345 HD
ATOM     21  H   UNL A   1      32.658  34.016  32.645  1.00  0.00     0.345 HD
ENDBRANCH   8  18
ENDBRANCH   5   8
ENDBRANCH   3   4
ENDBRANCH   2   3
ENDBRANCH   1   2
BRANCH   1  22
ATOM     22  C   UNL A   1      34.229  32.926  28.576  1.00  0.00     0.116 C 
BRANCH  22  23
ATOM     23  N   UNL A   1      33.653  31.842  27.796  1.00  0.00    -0.352 N 
ATOM     24  C   UNL A   1      34.216  30.646  27.427  1.00  0.00     0.251 C 
ATOM     25  H   UNL A   1      32.728  31.986  27.490  1.00  0.00     0.163 HD
ATOM     26  O   UNL A   1      33.646  29.934  26.604  1.00  0.00    -0.269 OA
BRANCH  24  27
ATOM     27  C   UNL A   1      35.514  30.244  28.003  1.00  0.00     0.039 A 
ATOM     28  C   UNL A   1      35.544  29.673  29.277  1.00  0.00     0.014 A 
ATOM     29  C   UNL A   1      36.697  30.414  27.280  1.00  0.00     0.014 A 
ATOM     30  C   UNL A   1      36.756  29.226  29.801  1.00  0.00     0.010 A 
ATOM     31  C   UNL A   1      37.886  29.882  27.763  1.00  0.00     0.010 A 
ATOM     32  C   UNL A   1      37.933  29.296  29.035  1.00  0.00    -0.014 A 
BRANCH  32  33
ATOM     33  C   UNL A   1      39.224  28.789  29.567  1.00  0.00     0.031 A 
ATOM     34  C   UNL A   1      39.880  29.483  30.732  1.00  0.00     0.074 A 
ATOM     35  C   UNL A   1      39.821  27.735  28.975  1.00  0.00     0.049 A 
ATOM     36  N   UNL A   1      41.020  29.218  31.316  1.00  0.00    -0.248 NA
ATOM     37  C   UNL A   1      39.177  30.648  31.291  1.00  0.00     0.031 C 
ATOM     38  C   UNL A   1      39.304  27.018  27.806  1.00  0.00     0.029 A 
ATOM     39  N   UNL A   1      40.992  27.084  29.269  1.00  0.00    -0.354 N 
ATOM     40  C   UNL A   1      41.177  30.191  32.299  1.00  0.00     0.074 A 
ATOM     41  C   UNL A   1      40.049  31.088  32.186  1.00  0.00     0.031 C 
ATOM     42  C   UNL A   1      40.137  26.008  27.505  1.00  0.00     0.029 A 
ATOM     43  C   UNL A   1      41.269  26.032  28.426  1.00  0.00     0.049 A 
ATOM     44  H   UNL A   1      41.580  27.345  30.015  1.00  0.00     0.167 HD
ATOM     45  C   UNL A   1      42.159  30.307  33.227  1.00  0.00     0.034 A 
ATOM     46  C   UNL A   1      42.318  25.189  28.393  1.00  0.00     0.034 A 
ATOM     47  C   UNL A   1      43.266  29.389  33.336  1.00  0.00     0.049 A 
ATOM     48  C   UNL A   1      43.397  25.338  29.440  1.00  0.00     0.074 A 
ATOM     49  C   UNL A   1      44.285  29.375  34.272  1.00  0.00     0.029 A 
ATOM     50  N   UNL A   1      43.506  28.325  32.474  1.00  0.00    -0.354 N 
ATOM     51  N   UNL A   1      43.497  26.225  30.404  1.00  0.00    -0.248 NA
ATOM     52  C   UNL A   1      44.490  24.361  29.405  1.00  0.00     0.031 C 
ATOM     53  C   UNL A   1      45.179  28.355  33.933  1.00  0.00     0.029 A 
ATOM     54  C   UNL A   1      44.671  27.669  32.841  1.00  0.00     0.049 A 
ATOM     55  H   UNL A   1      42.932  28.073  31.715  1.00  0.00     0.167 HD
ATOM     56  C   UNL A   1      44.647  25.885  31.114  1.00  0.00     0.074 A 
ATOM     57  C   UNL A   1      45.188  24.702  30.477  1.00  0.00     0.031 C 
ATOM     58  C   UNL A   1      45.204  26.493  32.192  1.00  0.00     0.034 A 
BRANCH  45  59
ATOM     59  C   UNL A   1      42.090  31.481  34.176  1.00  0.00     0.023 A 
ATOM     60  C   UNL A   1      41.234  31.487  35.292  1.00  0.00     0.031 A 
ATOM     61  C   UNL A   1      42.884  32.621  33.953  1.00  0.00     0.131 A 
ATOM     62  C   UNL A   1      41.142  32.630  36.101  1.00  0.00     0.055 A 
ATOM     63  C   UNL A   1      42.851  33.722  34.811  1.00  0.00     0.041 A 
ATOM     64  F   UNL A   1      43.702  32.687  32.891  1.00  0.00    -0.206 F 
ATOM     65  C   UNL A   1      41.966  33.738  35.884  1.00  0.00     0.022 A 
BRANCH  62  66
ATOM     66  S   UNL A   1      39.835  32.704  37.355  1.00  0.00     0.124 S 
ATOM     67  O   UNL A   1      40.611  32.656  38.593  1.00  0.00    -0.237 OA
ATOM     68  O   UNL A   1      39.184  33.974  37.059  1.00  0.00    -0.237 OA
ATOM     69  O   UNL A   1      39.032  31.512  37.086  1.00  0.00    -0.744 OA
ENDBRANCH  62  66
ENDBRANCH  45  59
BRANCH  46  70
ATOM     70  C   UNL A   1      42.418  24.133  27.342  1.00  0.00     0.023 A 
ATOM     71  C   UNL A   1      41.778  22.893  27.493  1.00  0.00     0.031 A 
ATOM     72  C   UNL A   1      43.205  24.331  26.194  1.00  0.00     0.131 A 
ATOM     73  C   UNL A   1      41.985  21.877  26.546  1.00  0.00     0.055 A 
ATOM     74  C   UNL A   1      43.356  23.340  25.222  1.00  0.00     0.041 A 
ATOM     75  F   UNL A   1      43.835  25.499  25.995  1.00  0.00    -0.206 F 
ATOM     76  C   UNL A   1      42.758  22.097  25.405  1.00  0.00     0.022 A 
BRANCH  73  77
ATOM     77  S   UNL A   1      41.316  20.225  26.884  1.00  0.00     0.124 S 
ATOM     78  O   UNL A   1      42.467  19.375  26.598  1.00  0.00    -0.237 OA
ATOM     79  O   UNL A   1      40.931  20.336  28.287  1.00  0.00    -0.237 OA
ATOM     80  O   UNL A   1      40.205  20.110  25.941  1.00  0.00    -0.744 OA
ENDBRANCH  73  77
ENDBRANCH  46  70
BRANCH  58  81
ATOM     81  C   UNL A   1      46.434  25.844  32.784  1.00  0.00     0.023 A 
ATOM     82  C   UNL A   1      47.727  26.138  32.317  1.00  0.00     0.031 A 
ATOM     83  C   UNL A   1      46.305  24.890  33.810  1.00  0.00     0.131 A 
ATOM     84  C   UNL A   1      48.829  25.427  32.818  1.00  0.00     0.055 A 
ATOM     85  C   UNL A   1      47.412  24.244  34.358  1.00  0.00     0.041 A 
ATOM     86  F   UNL A   1      45.094  24.567  34.294  1.00  0.00    -0.206 F 
ATOM     87  C   UNL A   1      48.682  24.496  33.848  1.00  0.00     0.022 A 
BRANCH  84  88
ATOM     88  S   UNL A   1      50.438  25.639  32.008  1.00  0.00     0.124 S 
ATOM     89  O   UNL A   1      50.463  27.076  31.753  1.00  0.00    -0.237 OA
ATOM     90  O   UNL A   1      51.364  25.155  33.026  1.00  0.00    -0.237 OA
ATOM     91  O   UNL A   1      50.333  24.800  30.814  1.00  0.00    -0.744 OA
ENDBRANCH  84  88
ENDBRANCH  58  81
ENDBRANCH  32  33
ENDBRANCH  24  27
ENDBRANCH  22  23
ENDBRANCH   1  22
TORSDOF 17
ENDMDL
MODEL 2
REMARK VINA RESULT:     -10.2      1.918      2.178
REMARK SMILES C[C@]([NH3+])(Cc1ccc(I)cc1)C(=O)NCCCCNC(=O)c1ccc(-c2c3nc(c(-c4cc(S(=O)(=O)[O-])ccc4F)c4ccc([nH]4)c(-c4cc(S(=O)(=O)[O-])ccc4F)c4nc(c(-c5cc(S(=O)(=O)[O-])ccc5F)c5ccc2[nH]5)C=C4)C=C3)cc1
REMARK SMILES IDX 17 1 16 2 15 3 14 4 12 5 13 6 2 8 1 9 4 10 5 11 6 12 11 13
REMARK SMILES IDX 7 14 10 15 8 16 9 17 3 18 18 22 19 23 20 24 21 26 22 27
REMARK SMILES IDX 23 28 84 29 24 30 83 31 25 32 26 33 27 34 77 35 28 36 82 37
REMARK SMILES IDX 76 38 78 39 29 40 81 41 75 42 74 43 30 45 62 46 42 47 61 48
REMARK SMILES IDX 43 49 46 50 60 51 79 52 44 53 45 54 59 56 80 57 47 58 31 59
REMARK SMILES IDX 32 60 40 61 33 62 39 63 41 64 38 65 34 66 35 67 36 68 37 69
REMARK SMILES IDX 63 70 64 71 72 72 65 73 71 74 73 75 70 76 66 77 67 78 68 79
REMARK SMILES IDX 69 80 48 81 49 82 57 83 50 84 56 85 58 86 55 87 51 88 52 89
REMARK SMILES IDX 53 90 54 91
REMARK H PARENT 14 7 3 19 3 20 3 21 19 25 78 44 46 55
REMARK Flexibility Score: inf
ROOT
ATOM      1  C   UNL A   1      34.339  34.144  28.001  1.00  0.00     0.023 C 
ENDROOT
BRANCH   1   2
ATOM      2  C   UNL A   1      33.904  35.332  28.854  1.00  0.00     0.023 C 
BRANCH   2   3
ATOM      3  C   UNL A   1      33.431  34.980  30.261  1.00  0.00     0.116 C 
BRANCH   3   4
ATOM      4  N   UNL A   1      34.112  35.744  31.286  1.00  0.00    -0.351 N 
ATOM      5  C   UNL A   1      34.678  35.383  32.469  1.00  0.00     0.281 C 
ATOM      6  O   UNL A   1      35.162  36.303  33.144  1.00  0.00    -0.268 OA
ATOM      7  H   UNL A   1      34.177  36.706  31.089  1.00  0.00     0.163 HD
BRANCH   5   8
ATOM      8  C   UNL A   1      34.689  33.912  33.001  1.00  0.00     0.175 C 
ATOM      9  C   UNL A   1      35.296  33.810  34.409  1.00  0.00     0.090 C 
BRANCH   8  10
ATOM     10  C   UNL A   1      35.390  32.958  31.989  1.00  0.00     0.114 C 
BRANCH  10  11
ATOM     11  C   UNL A   1      36.756  33.405  31.489  1.00  0.00    -0.041 A 
ATOM     12  C   UNL A   1      37.092  33.296  30.132  1.00  0.00     0.005 A 
ATOM     13  C   UNL A   1      37.717  33.921  32.367  1.00  0.00     0.005 A 
ATOM     14  C   UNL A   1      38.365  33.639  29.670  1.00  0.00     0.015 A 
ATOM     15  C   UNL A   1      38.996  34.259  31.912  1.00  0.00     0.015 A 
ATOM     16  C   UNL A   1      39.319  34.108  30.566  1.00  0.00     0.013 A 
ATOM     17  I   UNL A   1      41.227  34.581  29.896  1.00  0.00    -0.044 I 
ENDBRANCH  10  11
ENDBRANCH   8  10
BRANCH   8  18
ATOM     18  N   UNL A   1      33.270  33.507  33.235  1.00  0.00    -0.345 N 
ATOM     19  H   UNL A   1      32.987  32.831  32.525  1.00  0.00     0.345 HD
ATOM     20  H   UNL A   1      32.668  34.329  33.179  1.00  0.00     0.345 HD
ATOM     21  H   UNL A   1      33.184  33.085  34.159  1.00  0.00     0.345 HD
ENDBRANCH   8  18
ENDBRANCH   5   8
ENDBRANCH   3   4
ENDBRANCH   2   3
ENDBRANCH   1   2
BRANCH   1  22
ATOM     22  C   UNL A   1      34.174  32.794  28.683  1.00  0.00     0.116 C 
BRANCH  22  23
ATOM     23  N   UNL A   1      33.666  31.776  27.776  1.00  0.00    -0.352 N 
ATOM     24  C   UNL A   1      34.275  30.631  27.331  1.00  0.00     0.251 C 
ATOM     25  H   UNL A   1      32.755  31.931  27.435  1.00  0.00     0.163 HD
ATOM     26  O   UNL A   1      33.766  29.987  26.416  1.00  0.00    -0.269 OA
BRANCH  24  27
ATOM     27  C   UNL A   1      35.550  30.201  27.937  1.00  0.00     0.039 A 
ATOM     28  C   UNL A   1      35.545  29.684  29.234  1.00  0.00     0.014 A 
ATOM     29  C   UNL A   1      36.746  30.292  27.220  1.00  0.00     0.014 A 
ATOM     30  C   UNL A   1      36.733  29.211  29.790  1.00  0.00     0.010 A 
ATOM     31  C   UNL A   1      37.908  29.733  27.738  1.00  0.00     0.010 A 
ATOM     32  C   UNL A   1      37.919  29.201  29.035  1.00  0.00    -0.014 A 
BRANCH  32  33
ATOM     33  C   UNL A   1      39.183  28.664  29.602  1.00  0.00     0.031 A 
ATOM     34  C   UNL A   1      39.780  29.295  30.832  1.00  0.00     0.074 A 
ATOM     35  C   UNL A   1      39.809  27.643  28.985  1.00  0.00     0.049 A 
ATOM     36  N   UNL A   1      40.891  29.000  31.457  1.00  0.00    -0.248 NA
ATOM     37  C   UNL A   1      39.050  30.431  31.417  1.00  0.00     0.031 C 
ATOM     38  C   UNL A   1      39.351  26.988  27.756  1.00  0.00     0.029 A 
ATOM     39  N   UNL A   1      40.966  26.976  29.301  1.00  0.00    -0.354 N 
ATOM     40  C   UNL A   1      40.999  29.919  32.496  1.00  0.00     0.074 A 
ATOM     41  C   UNL A   1      39.876  30.822  32.374  1.00  0.00     0.031 C 
ATOM     42  C   UNL A   1      40.199  25.995  27.444  1.00  0.00     0.029 A 
ATOM     43  C   UNL A   1      41.285  25.969  28.419  1.00  0.00     0.049 A 
ATOM     44  H   UNL A   1      41.516  27.196  30.087  1.00  0.00     0.167 HD
ATOM     45  C   UNL A   1      41.934  29.985  33.474  1.00  0.00     0.034 A 
ATOM     46  C   UNL A   1      42.336  25.127  28.393  1.00  0.00     0.034 A 
ATOM     47  C   UNL A   1      43.036  29.061  33.589  1.00  0.00     0.049 A 
ATOM     48  C   UNL A   1      43.362  25.220  29.497  1.00  0.00     0.074 A 
ATOM     49  C   UNL A   1      44.007  28.997  34.572  1.00  0.00     0.029 A 
ATOM     50  N   UNL A   1      43.318  28.044  32.686  1.00  0.00    -0.354 N 
ATOM     51  N   UNL A   1      43.413  26.056  30.510  1.00  0.00    -0.248 NA
ATOM     52  C   UNL A   1      44.457  24.245  29.465  1.00  0.00     0.031 C 
ATOM     53  C   UNL A   1      44.918  27.995  34.224  1.00  0.00     0.029 A 
ATOM     54  C   UNL A   1      44.466  27.367  33.074  1.00  0.00     0.049 A 
ATOM     55  H   UNL A   1      42.783  27.833  31.887  1.00  0.00     0.167 HD
ATOM     56  C   UNL A   1      44.528  25.677  31.256  1.00  0.00     0.074 A 
ATOM     57  C   UNL A   1      45.101  24.528  30.585  1.00  0.00     0.031 C 
ATOM     58  C   UNL A   1      45.031  26.227  32.391  1.00  0.00     0.034 A 
BRANCH  45  59
ATOM     59  C   UNL A   1      41.817  31.107  34.480  1.00  0.00     0.023 A 
ATOM     60  C   UNL A   1      42.470  32.340  34.298  1.00  0.00     0.031 A 
ATOM     61  C   UNL A   1      41.052  30.936  35.648  1.00  0.00     0.131 A 
ATOM     62  C   UNL A   1      42.400  33.325  35.296  1.00  0.00     0.055 A 
ATOM     63  C   UNL A   1      40.918  31.952  36.597  1.00  0.00     0.041 A 
ATOM     64  F   UNL A   1      40.427  29.774  35.891  1.00  0.00    -0.206 F 
ATOM     65  C   UNL A   1      41.606  33.150  36.431  1.00  0.00     0.022 A 
BRANCH  62  66
ATOM     66  S   UNL A   1      43.472  34.781  35.155  1.00  0.00     0.124 S 
ATOM     67  O   UNL A   1      43.739  35.088  36.559  1.00  0.00    -0.237 OA
ATOM     68  O   UNL A   1      44.600  34.270  34.387  1.00  0.00    -0.237 OA
ATOM     69  O   UNL A   1      42.635  35.758  34.460  1.00  0.00    -0.744 OA
ENDBRANCH  62  66
ENDBRANCH  45  59
BRANCH  46  70
ATOM     70  C   UNL A   1      42.488  24.128  27.294  1.00  0.00     0.023 A 
ATOM     71  C   UNL A   1      41.892  22.860  27.375  1.00  0.00     0.031 A 
ATOM     72  C   UNL A   1      43.281  24.410  26.168  1.00  0.00     0.131 A 
ATOM     73  C   UNL A   1      42.149  21.899  26.384  1.00  0.00     0.055 A 
ATOM     74  C   UNL A   1      43.482  23.473  25.152  1.00  0.00     0.041 A 
ATOM     75  F   UNL A   1      43.871  25.609  26.034  1.00  0.00    -0.206 F 
ATOM     76  C   UNL A   1      42.929  22.202  25.266  1.00  0.00     0.022 A 
BRANCH  73  77
ATOM     77  S   UNL A   1      41.538  20.210  26.632  1.00  0.00     0.124 S 
ATOM     78  O   UNL A   1      41.891  19.577  25.366  1.00  0.00    -0.237 OA
ATOM     79  O   UNL A   1      42.301  19.780  27.800  1.00  0.00    -0.237 OA
ATOM     80  O   UNL A   1      40.106  20.397  26.859  1.00  0.00    -0.744 OA
ENDBRANCH  73  77
ENDBRANCH  46  70
BRANCH  58  81
ATOM     81  C   UNL A   1      46.232  25.546  33.008  1.00  0.00     0.023 A 
ATOM     82  C   UNL A   1      46.097  24.501  33.937  1.00  0.00     0.031 A 
ATOM     83  C   UNL A   1      47.531  25.977  32.682  1.00  0.00     0.131 A 
ATOM     84  C   UNL A   1      47.236  23.977  34.569  1.00  0.00     0.055 A 
ATOM     85  C   UNL A   1      48.662  25.398  33.256  1.00  0.00     0.041 A 
ATOM     86  F   UNL A   1      47.721  26.973  31.802  1.00  0.00    -0.206 F 
ATOM     87  C   UNL A   1      48.518  24.406  34.220  1.00  0.00     0.022 A 
BRANCH  84  88
ATOM     88  S   UNL A   1      47.008  22.824  35.951  1.00  0.00     0.124 S 
ATOM     89  O   UNL A   1      46.699  21.578  35.258  1.00  0.00    -0.237 OA
ATOM     90  O   UNL A   1      48.304  22.879  36.618  1.00  0.00    -0.237 OA
ATOM     91  O   UNL A   1      45.898  23.407  36.704  1.00  0.00    -0.744 OA
ENDBRANCH  84  88
ENDBRANCH  58  81
ENDBRANCH  32  33
ENDBRANCH  24  27
ENDBRANCH  22  23
ENDBRANCH   1  22
TORSDOF 17
ENDMDL
MODEL 3
REMARK VINA RESULT:     -10.1      4.175     11.777
REMARK SMILES C[C@]([NH3+])(Cc1ccc(I)cc1)C(=O)NCCCCNC(=O)c1ccc(-c2c3nc(c(-c4cc(S(=O)(=O)[O-])ccc4F)c4ccc([nH]4)c(-c4cc(S(=O)(=O)[O-])ccc4F)c4nc(c(-c5cc(S(=O)(=O)[O-])ccc5F)c5ccc2[nH]5)C=C4)C=C3)cc1
REMARK SMILES IDX 17 1 16 2 15 3 14 4 12 5 13 6 2 8 1 9 4 10 5 11 6 12 11 13
REMARK SMILES IDX 7 14 10 15 8 16 9 17 3 18 18 22 19 23 20 24 21 26 22 27
REMARK SMILES IDX 23 28 84 29 24 30 83 31 25 32 26 33 27 34 77 35 28 36 82 37
REMARK SMILES IDX 76 38 78 39 29 40 81 41 75 42 74 43 30 45 62 46 42 47 61 48
REMARK SMILES IDX 43 49 46 50 60 51 79 52 44 53 45 54 59 56 80 57 47 58 31 59
REMARK SMILES IDX 32 60 40 61 33 62 39 63 41 64 38 65 34 66 35 67 36 68 37 69
REMARK SMILES IDX 63 70 64 71 72 72 65 73 71 74 73 75 70 76 66 77 67 78 68 79
REMARK SMILES IDX 69 80 48 81 49 82 57 83 50 84 56 85 58 86 55 87 51 88 52 89
REMARK SMILES IDX 53 90 54 91
REMARK H PARENT 14 7 3 19 3 20 3 21 19 25 78 44 46 55
REMARK Flexibility Score: inf
ROOT
ATOM      1  C   UNL A   1      40.863  19.944  27.020  1.00  0.00     0.023 C 
ENDROOT
BRANCH   1   2
ATOM      2  C   UNL A   1      42.223  19.357  26.653  1.00  0.00     0.023 C 
BRANCH   2   3
ATOM      3  C   UNL A   1      42.935  20.048  25.495  1.00  0.00     0.116 C 
BRANCH   3   4
ATOM      4  N   UNL A   1      44.371  20.107  25.679  1.00  0.00    -0.351 N 
ATOM      5  C   UNL A   1      45.301  21.031  25.315  1.00  0.00     0.281 C 
ATOM      6  O   UNL A   1      46.476  20.760  25.601  1.00  0.00    -0.268 OA
ATOM      7  H   UNL A   1      44.744  19.332  26.157  1.00  0.00     0.163 HD
BRANCH   5   8
ATOM      8  C   UNL A   1      44.949  22.341  24.537  1.00  0.00     0.175 C 
ATOM      9  C   UNL A   1      46.194  23.194  24.247  1.00  0.00     0.090 C 
BRANCH   8  10
ATOM     10  C   UNL A   1      43.843  23.150  25.277  1.00  0.00     0.114 C 
BRANCH  10  11
ATOM     11  C   UNL A   1      44.089  23.417  26.755  1.00  0.00    -0.041 A 
ATOM     12  C   UNL A   1      43.065  23.235  27.696  1.00  0.00     0.005 A 
ATOM     13  C   UNL A   1      45.334  23.864  27.214  1.00  0.00     0.005 A 
ATOM     14  C   UNL A   1      43.257  23.540  29.045  1.00  0.00     0.015 A 
ATOM     15  C   UNL A   1      45.531  24.179  28.562  1.00  0.00     0.015 A 
ATOM     16  C   UNL A   1      44.488  24.025  29.473  1.00  0.00     0.013 A 
ATOM     17  I   UNL A   1      44.769  24.522  31.469  1.00  0.00    -0.044 I 
ENDBRANCH  10  11
ENDBRANCH   8  10
BRANCH   8  18
ATOM     18  N   UNL A   1      44.507  21.945  23.166  1.00  0.00    -0.345 N 
ATOM     19  H   UNL A   1      43.499  21.783  23.167  1.00  0.00     0.345 HD
ATOM     20  H   UNL A   1      44.987  21.089  22.887  1.00  0.00     0.345 HD
ATOM     21  H   UNL A   1      44.730  22.690  22.507  1.00  0.00     0.345 HD
ENDBRANCH   8  18
ENDBRANCH   5   8
ENDBRANCH   3   4
ENDBRANCH   2   3
ENDBRANCH   1   2
BRANCH   1  22
ATOM     22  C   UNL A   1      40.674  21.392  26.592  1.00  0.00     0.116 C 
BRANCH  22  23
ATOM     23  N   UNL A   1      39.349  21.637  26.044  1.00  0.00    -0.352 N 
ATOM     24  C   UNL A   1      38.570  22.763  26.132  1.00  0.00     0.251 C 
ATOM     25  H   UNL A   1      38.957  20.890  25.536  1.00  0.00     0.163 HD
ATOM     26  O   UNL A   1      37.397  22.720  25.770  1.00  0.00    -0.269 OA
BRANCH  24  27
ATOM     27  C   UNL A   1      39.143  24.004  26.690  1.00  0.00     0.039 A 
ATOM     28  C   UNL A   1      39.876  24.848  25.855  1.00  0.00     0.014 A 
ATOM     29  C   UNL A   1      38.942  24.340  28.032  1.00  0.00     0.014 A 
ATOM     30  C   UNL A   1      40.362  26.056  26.354  1.00  0.00     0.010 A 
ATOM     31  C   UNL A   1      39.343  25.586  28.500  1.00  0.00     0.010 A 
ATOM     32  C   UNL A   1      40.072  26.451  27.672  1.00  0.00    -0.014 A 
BRANCH  32  33
ATOM     33  C   UNL A   1      40.551  27.752  28.204  1.00  0.00     0.031 A 
ATOM     34  C   UNL A   1      42.029  28.018  28.315  1.00  0.00     0.074 A 
ATOM     35  C   UNL A   1      39.658  28.670  28.625  1.00  0.00     0.049 A 
ATOM     36  N   UNL A   1      42.647  29.071  28.786  1.00  0.00    -0.248 NA
ATOM     37  C   UNL A   1      42.932  26.945  27.869  1.00  0.00     0.031 C 
ATOM     38  C   UNL A   1      38.202  28.499  28.616  1.00  0.00     0.029 A 
ATOM     39  N   UNL A   1      39.839  29.926  29.146  1.00  0.00    -0.354 N 
ATOM     40  C   UNL A   1      44.006  28.781  28.706  1.00  0.00     0.074 A 
ATOM     41  C   UNL A   1      44.118  27.429  28.206  1.00  0.00     0.031 C 
ATOM     42  C   UNL A   1      37.625  29.621  29.076  1.00  0.00     0.029 A 
ATOM     43  C   UNL A   1      38.664  30.572  29.456  1.00  0.00     0.049 A 
ATOM     44  H   UNL A   1      40.726  30.329  29.283  1.00  0.00     0.167 HD
ATOM     45  C   UNL A   1      45.061  29.580  29.000  1.00  0.00     0.034 A 
ATOM     46  C   UNL A   1      38.449  31.788  29.994  1.00  0.00     0.034 A 
ATOM     47  C   UNL A   1      44.928  30.934  29.480  1.00  0.00     0.049 A 
ATOM     48  C   UNL A   1      39.642  32.659  30.309  1.00  0.00     0.074 A 
ATOM     49  C   UNL A   1      45.925  31.853  29.752  1.00  0.00     0.029 A 
ATOM     50  N   UNL A   1      43.721  31.561  29.768  1.00  0.00    -0.354 N 
ATOM     51  N   UNL A   1      40.921  32.393  30.166  1.00  0.00    -0.248 NA
ATOM     52  C   UNL A   1      39.360  33.999  30.836  1.00  0.00     0.031 C 
ATOM     53  C   UNL A   1      45.329  33.005  30.276  1.00  0.00     0.029 A 
ATOM     54  C   UNL A   1      43.953  32.843  30.243  1.00  0.00     0.049 A 
ATOM     55  H   UNL A   1      42.832  31.155  29.652  1.00  0.00     0.167 HD
ATOM     56  C   UNL A   1      41.593  33.552  30.551  1.00  0.00     0.074 A 
ATOM     57  C   UNL A   1      40.575  34.518  30.909  1.00  0.00     0.031 C 
ATOM     58  C   UNL A   1      42.928  33.795  30.603  1.00  0.00     0.034 A 
BRANCH  45  59
ATOM     59  C   UNL A   1      46.446  29.000  28.833  1.00  0.00     0.023 A 
ATOM     60  C   UNL A   1      47.089  28.954  27.582  1.00  0.00     0.031 A 
ATOM     61  C   UNL A   1      47.131  28.469  29.941  1.00  0.00     0.131 A 
ATOM     62  C   UNL A   1      48.341  28.333  27.458  1.00  0.00     0.055 A 
ATOM     63  C   UNL A   1      48.414  27.929  29.827  1.00  0.00     0.041 A 
ATOM     64  F   UNL A   1      46.561  28.459  31.157  1.00  0.00    -0.206 F 
ATOM     65  C   UNL A   1      49.020  27.845  28.577  1.00  0.00     0.022 A 
BRANCH  62  66
ATOM     66  S   UNL A   1      49.009  28.048  25.797  1.00  0.00     0.124 S 
ATOM     67  O   UNL A   1      47.852  28.358  24.958  1.00  0.00    -0.237 OA
ATOM     68  O   UNL A   1      50.115  28.996  25.733  1.00  0.00    -0.237 OA
ATOM     69  O   UNL A   1      49.393  26.638  25.818  1.00  0.00    -0.744 OA
ENDBRANCH  62  66
ENDBRANCH  45  59
BRANCH  46  70
ATOM     70  C   UNL A   1      37.063  32.262  30.280  1.00  0.00     0.023 A 
ATOM     71  C   UNL A   1      36.254  32.802  29.267  1.00  0.00     0.031 A 
ATOM     72  C   UNL A   1      36.546  32.235  31.588  1.00  0.00     0.131 A 
ATOM     73  C   UNL A   1      35.001  33.349  29.586  1.00  0.00     0.055 A 
ATOM     74  C   UNL A   1      35.273  32.722  31.889  1.00  0.00     0.041 A 
ATOM     75  F   UNL A   1      37.272  31.725  32.595  1.00  0.00    -0.206 F 
ATOM     76  C   UNL A   1      34.499  33.300  30.888  1.00  0.00     0.022 A 
BRANCH  73  77
ATOM     77  S   UNL A   1      34.081  34.226  28.292  1.00  0.00     0.124 S 
ATOM     78  O   UNL A   1      35.139  34.543  27.339  1.00  0.00    -0.237 OA
ATOM     79  O   UNL A   1      33.116  33.216  27.869  1.00  0.00    -0.237 OA
ATOM     80  O   UNL A   1      33.512  35.372  28.998  1.00  0.00    -0.744 OA
ENDBRANCH  73  77
ENDBRANCH  46  70
BRANCH  58  81
ATOM     81  C   UNL A   1      43.354  35.188  31.008  1.00  0.00     0.023 A 
ATOM     82  C   UNL A   1      43.462  35.569  32.357  1.00  0.00     0.031 A 
ATOM     83  C   UNL A   1      43.624  36.157  30.026  1.00  0.00     0.131 A 
ATOM     84  C   UNL A   1      43.750  36.903  32.685  1.00  0.00     0.055 A 
ATOM     85  C   UNL A   1      43.987  37.462  30.359  1.00  0.00     0.041 A 
ATOM     86  F   UNL A   1      43.535  35.851  28.721  1.00  0.00    -0.206 F 
ATOM     87  C   UNL A   1      44.031  37.846  31.695  1.00  0.00     0.022 A 
BRANCH  84  88
ATOM     88  S   UNL A   1      43.617  37.418  34.419  1.00  0.00     0.124 S 
ATOM     89  O   UNL A   1      42.172  37.524  34.593  1.00  0.00    -0.237 OA
ATOM     90  O   UNL A   1      44.265  36.316  35.122  1.00  0.00    -0.237 OA
ATOM     91  O   UNL A   1      44.340  38.688  34.455  1.00  0.00    -0.744 OA
ENDBRANCH  84  88
ENDBRANCH  58  81
ENDBRANCH  32  33
ENDBRANCH  24  27
ENDBRANCH  22  23
ENDBRANCH   1  22
TORSDOF 17
ENDMDL
