MODEL 1
REMARK VINA RESULT:     -12.0      0.000      0.000
REMARK SMILES Cc1cscc1-c1nc(C)c(C(=O)NCCCCNC(=O)c2ccc(-c3c4nc(c(-c5cc(S(=O)(=O)[O-])ccc5F)c5ccc([nH]5)c(-c5cc(S(=O)(=O)[O-])ccc5F)c5nc(c(-c6cc(S(=O)(=O)[O-])ccc6F)c6ccc3[nH]6)C=C5)C=C4)cc2)c(C)n1
REMARK SMILES IDX 17 1 16 2 15 3 14 4 12 5 13 6 11 8 7 9 8 10 87 11 9 12 85 13
REMARK SMILES IDX 10 14 86 15 6 16 1 17 2 18 3 19 4 20 5 21 18 22 19 23 20 24
REMARK SMILES IDX 21 26 22 27 23 28 84 29 24 30 83 31 25 32 26 33 27 34 77 35
REMARK SMILES IDX 28 36 82 37 76 38 78 39 29 40 81 41 75 42 74 43 30 45 62 46
REMARK SMILES IDX 42 47 61 48 43 49 46 50 60 51 79 52 44 53 45 54 59 56 80 57
REMARK SMILES IDX 47 58 31 59 32 60 40 61 33 62 39 63 41 64 38 65 34 66 35 67
REMARK SMILES IDX 36 68 37 69 63 70 64 71 72 72 65 73 71 74 73 75 70 76 66 77
REMARK SMILES IDX 67 78 68 79 69 80 48 81 49 82 57 83 50 84 56 85 58 86 55 87
REMARK SMILES IDX 51 88 52 89 53 90 54 91
REMARK H PARENT 14 7 19 25 78 44 46 55
REMARK Flexibility Score: inf
ROOT
ATOM      1  C   UNL A   1      31.979  28.086  26.385  1.00  0.00     0.023 C 
ENDROOT
BRANCH   1   2
ATOM      2  C   UNL A   1      32.611  26.702  26.252  1.00  0.00     0.023 C 
BRANCH   2   3
ATOM      3  C   UNL A   1      31.627  25.528  26.314  1.00  0.00     0.116 C 
BRANCH   3   4
ATOM      4  N   UNL A   1      31.341  25.037  24.985  1.00  0.00    -0.352 N 
ATOM      5  C   UNL A   1      30.740  25.451  23.831  1.00  0.00     0.254 C 
ATOM      6  O   UNL A   1      30.685  24.528  23.010  1.00  0.00    -0.269 OA
ATOM      7  H   UNL A   1      31.686  24.121  24.879  1.00  0.00     0.163 HD
BRANCH   5   8
ATOM      8  C   UNL A   1      30.184  26.797  23.438  1.00  0.00     0.082 A 
ATOM      9  C   UNL A   1      29.436  29.301  22.534  1.00  0.00     0.160 A 
ATOM     10  N   UNL A   1      28.524  28.535  23.122  1.00  0.00    -0.232 NA
ATOM     11  N   UNL A   1      30.700  28.947  22.346  1.00  0.00    -0.232 NA
ATOM     12  C   UNL A   1      28.879  27.287  23.531  1.00  0.00     0.054 A 
ATOM     13  C   UNL A   1      31.069  27.718  22.817  1.00  0.00     0.054 A 
ATOM     14  C   UNL A   1      27.663  26.593  24.024  1.00  0.00     0.068 C 
ATOM     15  C   UNL A   1      32.539  27.470  22.592  1.00  0.00     0.068 C 
BRANCH   9  16
ATOM     16  C   UNL A   1      28.981  30.606  22.094  1.00  0.00     0.033 A 
ATOM     17  C   UNL A   1      29.526  31.941  24.255  1.00  0.00     0.046 C 
ATOM     18  C   UNL A   1      28.969  31.822  22.874  1.00  0.00    -0.029 A 
ATOM     19  C   UNL A   1      28.373  32.853  22.174  1.00  0.00     0.069 A 
ATOM     20  S   UNL A   1      27.856  32.384  20.613  1.00  0.00    -0.151 S 
ATOM     21  C   UNL A   1      28.415  30.786  20.847  1.00  0.00     0.077 A 
ENDBRANCH   9  16
ENDBRANCH   5   8
ENDBRANCH   3   4
ENDBRANCH   2   3
ENDBRANCH   1   2
BRANCH   1  22
ATOM     22  C   UNL A   1      32.807  29.219  25.794  1.00  0.00     0.116 C 
BRANCH  22  23
ATOM     23  N   UNL A   1      32.364  30.546  26.196  1.00  0.00    -0.352 N 
ATOM     24  C   UNL A   1      33.015  31.430  27.026  1.00  0.00     0.251 C 
ATOM     25  H   UNL A   1      31.499  30.847  25.832  1.00  0.00     0.163 HD
ATOM     26  O   UNL A   1      32.493  32.493  27.341  1.00  0.00    -0.269 OA
BRANCH  24  27
ATOM     27  C   UNL A   1      34.327  31.030  27.572  1.00  0.00     0.039 A 
ATOM     28  C   UNL A   1      35.308  32.007  27.747  1.00  0.00     0.014 A 
ATOM     29  C   UNL A   1      34.530  29.721  28.018  1.00  0.00     0.014 A 
ATOM     30  C   UNL A   1      36.471  31.687  28.447  1.00  0.00     0.010 A 
ATOM     31  C   UNL A   1      35.653  29.428  28.780  1.00  0.00     0.010 A 
ATOM     32  C   UNL A   1      36.631  30.409  29.008  1.00  0.00    -0.014 A 
BRANCH  32  33
ATOM     33  C   UNL A   1      37.815  30.073  29.837  1.00  0.00     0.031 A 
ATOM     34  C   UNL A   1      38.866  29.147  29.293  1.00  0.00     0.074 A 
ATOM     35  C   UNL A   1      37.903  30.540  31.098  1.00  0.00     0.049 A 
ATOM     36  N   UNL A   1      39.925  28.658  29.882  1.00  0.00    -0.248 NA
ATOM     37  C   UNL A   1      38.674  28.678  27.912  1.00  0.00     0.031 C 
ATOM     38  C   UNL A   1      36.917  31.405  31.752  1.00  0.00     0.029 A 
ATOM     39  N   UNL A   1      38.861  30.346  32.059  1.00  0.00    -0.354 N 
ATOM     40  C   UNL A   1      40.518  27.813  28.951  1.00  0.00     0.074 A 
ATOM     41  C   UNL A   1      39.659  27.804  27.786  1.00  0.00     0.031 C 
ATOM     42  C   UNL A   1      37.336  31.686  32.996  1.00  0.00     0.029 A 
ATOM     43  C   UNL A   1      38.597  30.995  33.244  1.00  0.00     0.049 A 
ATOM     44  H   UNL A   1      39.664  29.796  31.915  1.00  0.00     0.167 HD
ATOM     45  C   UNL A   1      41.686  27.130  29.047  1.00  0.00     0.034 A 
ATOM     46  C   UNL A   1      39.290  31.020  34.399  1.00  0.00     0.034 A 
ATOM     47  C   UNL A   1      42.538  27.166  30.210  1.00  0.00     0.049 A 
ATOM     48  C   UNL A   1      40.582  30.251  34.487  1.00  0.00     0.074 A 
ATOM     49  C   UNL A   1      43.767  26.560  30.400  1.00  0.00     0.029 A 
ATOM     50  N   UNL A   1      42.246  27.846  31.387  1.00  0.00    -0.354 N 
ATOM     51  N   UNL A   1      41.157  29.494  33.579  1.00  0.00    -0.248 NA
ATOM     52  C   UNL A   1      41.324  30.346  35.750  1.00  0.00     0.031 C 
ATOM     53  C   UNL A   1      44.192  26.827  31.706  1.00  0.00     0.029 A 
ATOM     54  C   UNL A   1      43.260  27.656  32.313  1.00  0.00     0.049 A 
ATOM     55  H   UNL A   1      41.437  28.385  31.540  1.00  0.00     0.167 HD
ATOM     56  C   UNL A   1      42.344  29.048  34.154  1.00  0.00     0.074 A 
ATOM     57  C   UNL A   1      42.406  29.631  35.480  1.00  0.00     0.031 C 
ATOM     58  C   UNL A   1      43.298  28.236  33.634  1.00  0.00     0.034 A 
BRANCH  45  59
ATOM     59  C   UNL A   1      42.083  26.277  27.867  1.00  0.00     0.023 A 
ATOM     60  C   UNL A   1      41.591  24.969  27.707  1.00  0.00     0.031 A 
ATOM     61  C   UNL A   1      43.005  26.752  26.918  1.00  0.00     0.131 A 
ATOM     62  C   UNL A   1      42.091  24.152  26.683  1.00  0.00     0.055 A 
ATOM     63  C   UNL A   1      43.432  25.962  25.848  1.00  0.00     0.041 A 
ATOM     64  F   UNL A   1      43.526  27.984  27.028  1.00  0.00    -0.206 F 
ATOM     65  C   UNL A   1      42.989  24.647  25.737  1.00  0.00     0.022 A 
BRANCH  62  66
ATOM     66  S   UNL A   1      41.672  22.387  26.707  1.00  0.00     0.124 S 
ATOM     67  O   UNL A   1      40.214  22.432  26.786  1.00  0.00    -0.237 OA
ATOM     68  O   UNL A   1      42.230  21.914  25.446  1.00  0.00    -0.237 OA
ATOM     69  O   UNL A   1      42.339  21.892  27.910  1.00  0.00    -0.744 OA
ENDBRANCH  62  66
ENDBRANCH  45  59
BRANCH  46  70
ATOM     70  C   UNL A   1      38.787  31.798  35.566  1.00  0.00     0.023 A 
ATOM     71  C   UNL A   1      38.215  31.150  36.671  1.00  0.00     0.031 A 
ATOM     72  C   UNL A   1      38.839  33.203  35.577  1.00  0.00     0.131 A 
ATOM     73  C   UNL A   1      37.675  31.906  37.723  1.00  0.00     0.055 A 
ATOM     74  C   UNL A   1      38.342  33.950  36.648  1.00  0.00     0.041 A 
ATOM     75  F   UNL A   1      39.386  33.871  34.549  1.00  0.00    -0.206 F 
ATOM     76  C   UNL A   1      37.744  33.302  37.723  1.00  0.00     0.022 A 
BRANCH  73  77
ATOM     77  S   UNL A   1      36.813  31.038  39.063  1.00  0.00     0.124 S 
ATOM     78  O   UNL A   1      36.655  29.702  38.498  1.00  0.00    -0.237 OA
ATOM     79  O   UNL A   1      37.763  31.162  40.163  1.00  0.00    -0.237 OA
ATOM     80  O   UNL A   1      35.576  31.799  39.221  1.00  0.00    -0.744 OA
ENDBRANCH  73  77
ENDBRANCH  46  70
BRANCH  58  81
ATOM     81  C   UNL A   1      44.507  27.969  34.494  1.00  0.00     0.023 A 
ATOM     82  C   UNL A   1      44.557  26.881  35.381  1.00  0.00     0.031 A 
ATOM     83  C   UNL A   1      45.618  28.828  34.432  1.00  0.00     0.131 A 
ATOM     84  C   UNL A   1      45.675  26.710  36.211  1.00  0.00     0.055 A 
ATOM     85  C   UNL A   1      46.751  28.621  35.220  1.00  0.00     0.041 A 
ATOM     86  F   UNL A   1      45.621  29.883  33.602  1.00  0.00    -0.206 F 
ATOM     87  C   UNL A   1      46.778  27.563  36.125  1.00  0.00     0.022 A 
BRANCH  84  88
ATOM     88  S   UNL A   1      45.635  25.400  37.466  1.00  0.00     0.124 S 
ATOM     89  O   UNL A   1      47.056  25.183  37.723  1.00  0.00    -0.237 OA
ATOM     90  O   UNL A   1      44.881  26.026  38.547  1.00  0.00    -0.237 OA
ATOM     91  O   UNL A   1      44.952  24.299  36.791  1.00  0.00    -0.744 OA
ENDBRANCH  84  88
ENDBRANCH  58  81
ENDBRANCH  32  33
ENDBRANCH  24  27
ENDBRANCH  22  23
ENDBRANCH   1  22
TORSDOF 15
ENDMDL
MODEL 2
REMARK VINA RESULT:     -12.0      5.389     10.270
REMARK SMILES Cc1cscc1-c1nc(C)c(C(=O)NCCCCNC(=O)c2ccc(-c3c4nc(c(-c5cc(S(=O)(=O)[O-])ccc5F)c5ccc([nH]5)c(-c5cc(S(=O)(=O)[O-])ccc5F)c5nc(c(-c6cc(S(=O)(=O)[O-])ccc6F)c6ccc3[nH]6)C=C5)C=C4)cc2)c(C)n1
REMARK SMILES IDX 17 1 16 2 15 3 14 4 12 5 13 6 11 8 7 9 8 10 87 11 9 12 85 13
REMARK SMILES IDX 10 14 86 15 6 16 1 17 2 18 3 19 4 20 5 21 18 22 19 23 20 24
REMARK SMILES IDX 21 26 22 27 23 28 84 29 24 30 83 31 25 32 26 33 27 34 77 35
REMARK SMILES IDX 28 36 82 37 76 38 78 39 29 40 81 41 75 42 74 43 30 45 62 46
REMARK SMILES IDX 42 47 61 48 43 49 46 50 60 51 79 52 44 53 45 54 59 56 80 57
REMARK SMILES IDX 47 58 31 59 32 60 40 61 33 62 39 63 41 64 38 65 34 66 35 67
REMARK SMILES IDX 36 68 37 69 63 70 64 71 72 72 65 73 71 74 73 75 70 76 66 77
REMARK SMILES IDX 67 78 68 79 69 80 48 81 49 82 57 83 50 84 56 85 58 86 55 87
REMARK SMILES IDX 51 88 52 89 53 90 54 91
REMARK H PARENT 14 7 19 25 78 44 46 55
REMARK Flexibility Score: inf
ROOT
ATOM      1  C   UNL A   1      35.838  21.453  25.248  1.00  0.00     0.023 C 
ENDROOT
BRANCH   1   2
ATOM      2  C   UNL A   1      35.310  22.219  26.459  1.00  0.00     0.023 C 
BRANCH   2   3
ATOM      3  C   UNL A   1      34.175  21.527  27.222  1.00  0.00     0.116 C 
BRANCH   3   4
ATOM      4  N   UNL A   1      33.227  20.942  26.300  1.00  0.00    -0.352 N 
ATOM      5  C   UNL A   1      32.300  21.330  25.377  1.00  0.00     0.254 C 
ATOM      6  O   UNL A   1      31.673  20.355  24.948  1.00  0.00    -0.269 OA
ATOM      7  H   UNL A   1      33.264  19.959  26.353  1.00  0.00     0.163 HD
BRANCH   5   8
ATOM      8  C   UNL A   1      31.964  22.697  24.833  1.00  0.00     0.082 A 
ATOM      9  C   UNL A   1      31.230  25.271  24.137  1.00  0.00     0.160 A 
ATOM     10  N   UNL A   1      32.044  24.597  23.331  1.00  0.00    -0.232 NA
ATOM     11  N   UNL A   1      30.736  24.790  25.270  1.00  0.00    -0.232 NA
ATOM     12  C   UNL A   1      32.438  23.346  23.691  1.00  0.00     0.054 A 
ATOM     13  C   UNL A   1      31.082  23.509  25.596  1.00  0.00     0.054 A 
ATOM     14  C   UNL A   1      33.440  22.869  22.705  1.00  0.00     0.068 C 
ATOM     15  C   UNL A   1      30.405  23.071  26.869  1.00  0.00     0.068 C 
BRANCH   9  16
ATOM     16  C   UNL A   1      30.876  26.610  23.707  1.00  0.00     0.033 A 
ATOM     17  C   UNL A   1      28.301  26.428  23.996  1.00  0.00     0.046 C 
ATOM     18  C   UNL A   1      29.543  27.153  23.590  1.00  0.00    -0.029 A 
ATOM     19  C   UNL A   1      29.572  28.425  23.052  1.00  0.00     0.069 A 
ATOM     20  S   UNL A   1      31.158  28.966  22.712  1.00  0.00    -0.151 S 
ATOM     21  C   UNL A   1      31.837  27.501  23.273  1.00  0.00     0.077 A 
ENDBRANCH   9  16
ENDBRANCH   5   8
ENDBRANCH   3   4
ENDBRANCH   2   3
ENDBRANCH   1   2
BRANCH   1  22
ATOM     22  C   UNL A   1      37.315  21.679  24.952  1.00  0.00     0.116 C 
BRANCH  22  23
ATOM     23  N   UNL A   1      38.166  20.549  25.298  1.00  0.00    -0.352 N 
ATOM     24  C   UNL A   1      39.324  20.572  26.042  1.00  0.00     0.251 C 
ATOM     25  H   UNL A   1      37.881  19.668  24.963  1.00  0.00     0.163 HD
ATOM     26  O   UNL A   1      39.986  19.553  26.198  1.00  0.00    -0.269 OA
BRANCH  24  27
ATOM     27  C   UNL A   1      39.774  21.868  26.587  1.00  0.00     0.039 A 
ATOM     28  C   UNL A   1      40.845  21.885  27.480  1.00  0.00     0.014 A 
ATOM     29  C   UNL A   1      39.212  23.058  26.116  1.00  0.00     0.014 A 
ATOM     30  C   UNL A   1      41.410  23.108  27.842  1.00  0.00     0.010 A 
ATOM     31  C   UNL A   1      39.825  24.266  26.418  1.00  0.00     0.010 A 
ATOM     32  C   UNL A   1      40.934  24.303  27.278  1.00  0.00    -0.014 A 
BRANCH  32  33
ATOM     33  C   UNL A   1      41.578  25.606  27.575  1.00  0.00     0.031 A 
ATOM     34  C   UNL A   1      40.832  26.644  28.366  1.00  0.00     0.074 A 
ATOM     35  C   UNL A   1      42.797  25.880  27.070  1.00  0.00     0.049 A 
ATOM     36  N   UNL A   1      41.175  27.871  28.656  1.00  0.00    -0.248 NA
ATOM     37  C   UNL A   1      39.502  26.257  28.861  1.00  0.00     0.031 C 
ATOM     38  C   UNL A   1      43.596  24.970  26.243  1.00  0.00     0.029 A 
ATOM     39  N   UNL A   1      43.575  27.004  27.168  1.00  0.00    -0.354 N 
ATOM     40  C   UNL A   1      40.100  28.408  29.354  1.00  0.00     0.074 A 
ATOM     41  C   UNL A   1      39.068  27.394  29.379  1.00  0.00     0.031 C 
ATOM     42  C   UNL A   1      44.759  25.564  25.934  1.00  0.00     0.029 A 
ATOM     43  C   UNL A   1      44.777  26.908  26.504  1.00  0.00     0.049 A 
ATOM     44  H   UNL A   1      43.301  27.806  27.668  1.00  0.00     0.167 HD
ATOM     45  C   UNL A   1      39.995  29.624  29.944  1.00  0.00     0.034 A 
ATOM     46  C   UNL A   1      45.772  27.804  26.365  1.00  0.00     0.034 A 
ATOM     47  C   UNL A   1      41.042  30.616  29.923  1.00  0.00     0.049 A 
ATOM     48  C   UNL A   1      45.634  29.151  27.025  1.00  0.00     0.074 A 
ATOM     49  C   UNL A   1      41.068  31.858  30.532  1.00  0.00     0.029 A 
ATOM     50  N   UNL A   1      42.252  30.477  29.254  1.00  0.00    -0.354 N 
ATOM     51  N   UNL A   1      44.630  29.628  27.726  1.00  0.00    -0.248 NA
ATOM     52  C   UNL A   1      46.764  30.077  26.884  1.00  0.00     0.031 C 
ATOM     53  C   UNL A   1      42.267  32.491  30.186  1.00  0.00     0.029 A 
ATOM     54  C   UNL A   1      43.021  31.619  29.415  1.00  0.00     0.049 A 
ATOM     55  H   UNL A   1      42.523  29.682  28.740  1.00  0.00     0.167 HD
ATOM     56  C   UNL A   1      45.023  30.900  28.133  1.00  0.00     0.074 A 
ATOM     57  C   UNL A   1      46.359  31.107  27.611  1.00  0.00     0.031 C 
ATOM     58  C   UNL A   1      44.345  31.812  28.876  1.00  0.00     0.034 A 
BRANCH  45  59
ATOM     59  C   UNL A   1      38.692  29.942  30.638  1.00  0.00     0.023 A 
ATOM     60  C   UNL A   1      37.666  30.652  29.985  1.00  0.00     0.031 A 
ATOM     61  C   UNL A   1      38.488  29.580  31.981  1.00  0.00     0.131 A 
ATOM     62  C   UNL A   1      36.531  31.058  30.700  1.00  0.00     0.055 A 
ATOM     63  C   UNL A   1      37.314  29.911  32.661  1.00  0.00     0.041 A 
ATOM     64  F   UNL A   1      39.437  28.920  32.662  1.00  0.00    -0.206 F 
ATOM     65  C   UNL A   1      36.335  30.671  32.027  1.00  0.00     0.022 A 
BRANCH  62  66
ATOM     66  S   UNL A   1      35.395  32.235  29.917  1.00  0.00     0.124 S 
ATOM     67  O   UNL A   1      34.879  31.447  28.800  1.00  0.00    -0.237 OA
ATOM     68  O   UNL A   1      34.448  32.519  30.988  1.00  0.00    -0.237 OA
ATOM     69  O   UNL A   1      36.262  33.348  29.537  1.00  0.00    -0.744 OA
ENDBRANCH  62  66
ENDBRANCH  45  59
BRANCH  46  70
ATOM     70  C   UNL A   1      46.991  27.465  25.577  1.00  0.00     0.023 A 
ATOM     71  C   UNL A   1      47.098  27.829  24.226  1.00  0.00     0.031 A 
ATOM     72  C   UNL A   1      48.050  26.742  26.152  1.00  0.00     0.131 A 
ATOM     73  C   UNL A   1      48.218  27.430  23.480  1.00  0.00     0.055 A 
ATOM     74  C   UNL A   1      49.184  26.387  25.419  1.00  0.00     0.041 A 
ATOM     75  F   UNL A   1      48.001  26.379  27.444  1.00  0.00    -0.206 F 
ATOM     76  C   UNL A   1      49.267  26.720  24.070  1.00  0.00     0.022 A 
BRANCH  73  77
ATOM     77  S   UNL A   1      48.252  27.792  21.703  1.00  0.00     0.124 S 
ATOM     78  O   UNL A   1      46.917  28.338  21.485  1.00  0.00    -0.237 OA
ATOM     79  O   UNL A   1      49.358  28.740  21.609  1.00  0.00    -0.237 OA
ATOM     80  O   UNL A   1      48.500  26.487  21.094  1.00  0.00    -0.744 OA
ENDBRANCH  73  77
ENDBRANCH  46  70
BRANCH  58  81
ATOM     81  C   UNL A   1      45.065  33.097  29.195  1.00  0.00     0.023 A 
ATOM     82  C   UNL A   1      44.993  34.215  28.347  1.00  0.00     0.031 A 
ATOM     83  C   UNL A   1      45.844  33.197  30.362  1.00  0.00     0.131 A 
ATOM     84  C   UNL A   1      45.732  35.368  28.650  1.00  0.00     0.055 A 
ATOM     85  C   UNL A   1      46.533  34.366  30.686  1.00  0.00     0.041 A 
ATOM     86  F   UNL A   1      45.947  32.158  31.206  1.00  0.00    -0.206 F 
ATOM     87  C   UNL A   1      46.489  35.456  29.821  1.00  0.00     0.022 A 
BRANCH  84  88
ATOM     88  S   UNL A   1      45.756  36.727  27.448  1.00  0.00     0.124 S 
ATOM     89  O   UNL A   1      44.350  37.116  27.403  1.00  0.00    -0.237 OA
ATOM     90  O   UNL A   1      46.662  37.684  28.076  1.00  0.00    -0.237 OA
ATOM     91  O   UNL A   1      46.265  36.099  26.230  1.00  0.00    -0.744 OA
ENDBRANCH  84  88
ENDBRANCH  58  81
ENDBRANCH  32  33
ENDBRANCH  24  27
ENDBRANCH  22  23
ENDBRANCH   1  22
TORSDOF 15
ENDMDL
MODEL 3
REMARK VINA RESULT:     -11.9      5.358      7.626
REMARK SMILES Cc1cscc1-c1nc(C)c(C(=O)NCCCCNC(=O)c2ccc(-c3c4nc(c(-c5cc(S(=O)(=O)[O-])ccc5F)c5ccc([nH]5)c(-c5cc(S(=O)(=O)[O-])ccc5F)c5nc(c(-c6cc(S(=O)(=O)[O-])ccc6F)c6ccc3[nH]6)C=C5)C=C4)cc2)c(C)n1
REMARK SMILES IDX 17 1 16 2 15 3 14 4 12 5 13 6 11 8 7 9 8 10 87 11 9 12 85 13
REMARK SMILES IDX 10 14 86 15 6 16 1 17 2 18 3 19 4 20 5 21 18 22 19 23 20 24
REMARK SMILES IDX 21 26 22 27 23 28 84 29 24 30 83 31 25 32 26 33 27 34 77 35
REMARK SMILES IDX 28 36 82 37 76 38 78 39 29 40 81 41 75 42 74 43 30 45 62 46
REMARK SMILES IDX 42 47 61 48 43 49 46 50 60 51 79 52 44 53 45 54 59 56 80 57
REMARK SMILES IDX 47 58 31 59 32 60 40 61 33 62 39 63 41 64 38 65 34 66 35 67
REMARK SMILES IDX 36 68 37 69 63 70 64 71 72 72 65 73 71 74 73 75 70 76 66 77
REMARK SMILES IDX 67 78 68 79 69 80 48 81 49 82 57 83 50 84 56 85 58 86 55 87
REMARK SMILES IDX 51 88 52 89 53 90 54 91
REMARK H PARENT 14 7 19 25 78 44 46 55
REMARK Flexibility Score: inf
ROOT
ATOM      1  C   UNL A   1      36.194  21.657  24.642  1.00  0.00     0.023 C 
ENDROOT
BRANCH   1   2
ATOM      2  C   UNL A   1      35.356  20.423  24.974  1.00  0.00     0.023 C 
BRANCH   2   3
ATOM      3  C   UNL A   1      33.852  20.681  25.127  1.00  0.00     0.116 C 
BRANCH   3   4
ATOM      4  N   UNL A   1      33.575  21.330  26.388  1.00  0.00    -0.352 N 
ATOM      5  C   UNL A   1      33.186  22.548  26.867  1.00  0.00     0.254 C 
ATOM      6  O   UNL A   1      33.221  22.565  28.102  1.00  0.00    -0.269 OA
ATOM      7  H   UNL A   1      33.708  20.699  27.132  1.00  0.00     0.163 HD
BRANCH   5   8
ATOM      8  C   UNL A   1      32.733  23.792  26.143  1.00  0.00     0.082 A 
ATOM      9  C   UNL A   1      31.615  26.036  24.977  1.00  0.00     0.160 A 
ATOM     10  N   UNL A   1      32.928  25.856  24.888  1.00  0.00    -0.232 NA
ATOM     11  N   UNL A   1      30.788  25.204  25.595  1.00  0.00    -0.232 NA
ATOM     12  C   UNL A   1      33.485  24.774  25.495  1.00  0.00     0.054 A 
ATOM     13  C   UNL A   1      31.342  24.085  26.147  1.00  0.00     0.054 A 
ATOM     14  C   UNL A   1      34.961  24.873  25.367  1.00  0.00     0.068 C 
ATOM     15  C   UNL A   1      30.286  23.201  26.761  1.00  0.00     0.068 C 
BRANCH   9  16
ATOM     16  C   UNL A   1      31.092  27.227  24.334  1.00  0.00     0.033 A 
ATOM     17  C   UNL A   1      31.811  28.967  26.124  1.00  0.00     0.046 C 
ATOM     18  C   UNL A   1      31.128  28.573  24.854  1.00  0.00    -0.029 A 
ATOM     19  C   UNL A   1      30.447  29.443  24.024  1.00  0.00     0.069 A 
ATOM     20  S   UNL A   1      29.795  28.670  22.645  1.00  0.00    -0.151 S 
ATOM     21  C   UNL A   1      30.408  27.153  23.137  1.00  0.00     0.077 A 
ENDBRANCH   9  16
ENDBRANCH   5   8
ENDBRANCH   3   4
ENDBRANCH   2   3
ENDBRANCH   1   2
BRANCH   1  22
ATOM     22  C   UNL A   1      37.230  22.019  25.697  1.00  0.00     0.116 C 
BRANCH  22  23
ATOM     23  N   UNL A   1      38.350  21.090  25.768  1.00  0.00    -0.352 N 
ATOM     24  C   UNL A   1      39.610  21.336  26.263  1.00  0.00     0.251 C 
ATOM     25  H   UNL A   1      38.187  20.182  25.423  1.00  0.00     0.163 HD
ATOM     26  O   UNL A   1      40.486  20.482  26.196  1.00  0.00    -0.269 OA
BRANCH  24  27
ATOM     27  C   UNL A   1      39.890  22.676  26.815  1.00  0.00     0.039 A 
ATOM     28  C   UNL A   1      40.814  22.796  27.854  1.00  0.00     0.014 A 
ATOM     29  C   UNL A   1      39.328  23.809  26.221  1.00  0.00     0.014 A 
ATOM     30  C   UNL A   1      41.239  24.065  28.245  1.00  0.00     0.010 A 
ATOM     31  C   UNL A   1      39.810  25.066  26.560  1.00  0.00     0.010 A 
ATOM     32  C   UNL A   1      40.774  25.207  27.570  1.00  0.00    -0.014 A 
BRANCH  32  33
ATOM     33  C   UNL A   1      41.283  26.560  27.904  1.00  0.00     0.031 A 
ATOM     34  C   UNL A   1      42.701  26.926  27.570  1.00  0.00     0.074 A 
ATOM     35  C   UNL A   1      40.494  27.425  28.572  1.00  0.00     0.049 A 
ATOM     36  N   UNL A   1      43.365  28.015  27.855  1.00  0.00    -0.248 NA
ATOM     37  C   UNL A   1      43.488  25.910  26.854  1.00  0.00     0.031 C 
ATOM     38  C   UNL A   1      39.116  27.160  28.997  1.00  0.00     0.029 A 
ATOM     39  N   UNL A   1      40.739  28.696  29.021  1.00  0.00    -0.354 N 
ATOM     40  C   UNL A   1      44.651  27.811  27.367  1.00  0.00     0.074 A 
ATOM     41  C   UNL A   1      44.688  26.466  26.833  1.00  0.00     0.031 C 
ATOM     42  C   UNL A   1      38.632  28.246  29.620  1.00  0.00     0.029 A 
ATOM     43  C   UNL A   1      39.671  29.269  29.675  1.00  0.00     0.049 A 
ATOM     44  H   UNL A   1      41.597  29.158  28.888  1.00  0.00     0.167 HD
ATOM     45  C   UNL A   1      45.695  28.676  27.340  1.00  0.00     0.034 A 
ATOM     46  C   UNL A   1      39.551  30.477  30.258  1.00  0.00     0.034 A 
ATOM     47  C   UNL A   1      45.633  30.020  27.862  1.00  0.00     0.049 A 
ATOM     48  C   UNL A   1      40.725  31.421  30.222  1.00  0.00     0.074 A 
ATOM     49  C   UNL A   1      46.609  31.001  27.841  1.00  0.00     0.029 A 
ATOM     50  N   UNL A   1      44.530  30.571  28.503  1.00  0.00    -0.354 N 
ATOM     51  N   UNL A   1      41.921  31.233  29.712  1.00  0.00    -0.248 NA
ATOM     52  C   UNL A   1      40.530  32.743  30.830  1.00  0.00     0.031 C 
ATOM     53  C   UNL A   1      46.117  32.124  28.515  1.00  0.00     0.029 A 
ATOM     54  C   UNL A   1      44.810  31.869  28.902  1.00  0.00     0.049 A 
ATOM     55  H   UNL A   1      43.675  30.107  28.652  1.00  0.00     0.167 HD
ATOM     56  C   UNL A   1      42.610  32.425  29.913  1.00  0.00     0.074 A 
ATOM     57  C   UNL A   1      41.691  33.328  30.578  1.00  0.00     0.031 C 
ATOM     58  C   UNL A   1      43.884  32.748  29.575  1.00  0.00     0.034 A 
BRANCH  45  59
ATOM     59  C   UNL A   1      46.989  28.174  26.746  1.00  0.00     0.023 A 
ATOM     60  C   UNL A   1      47.227  28.220  25.359  1.00  0.00     0.031 A 
ATOM     61  C   UNL A   1      47.975  27.594  27.562  1.00  0.00     0.131 A 
ATOM     62  C   UNL A   1      48.372  27.613  24.825  1.00  0.00     0.055 A 
ATOM     63  C   UNL A   1      49.156  27.071  27.030  1.00  0.00     0.041 A 
ATOM     64  F   UNL A   1      47.797  27.503  28.889  1.00  0.00    -0.206 F 
ATOM     65  C   UNL A   1      49.351  27.062  25.652  1.00  0.00     0.022 A 
BRANCH  62  66
ATOM     66  S   UNL A   1      48.481  27.414  23.025  1.00  0.00     0.124 S 
ATOM     67  O   UNL A   1      47.326  28.185  22.573  1.00  0.00    -0.237 OA
ATOM     68  O   UNL A   1      49.788  27.984  22.723  1.00  0.00    -0.237 OA
ATOM     69  O   UNL A   1      48.369  25.969  22.833  1.00  0.00    -0.744 OA
ENDBRANCH  62  66
ENDBRANCH  45  59
BRANCH  46  70
ATOM     70  C   UNL A   1      38.278  30.873  30.923  1.00  0.00     0.023 A 
ATOM     71  C   UNL A   1      37.292  31.586  30.224  1.00  0.00     0.031 A 
ATOM     72  C   UNL A   1      38.044  30.576  32.277  1.00  0.00     0.131 A 
ATOM     73  C   UNL A   1      36.135  32.018  30.892  1.00  0.00     0.055 A 
ATOM     74  C   UNL A   1      36.871  30.969  32.926  1.00  0.00     0.041 A 
ATOM     75  F   UNL A   1      38.951  29.887  32.987  1.00  0.00    -0.206 F 
ATOM     76  C   UNL A   1      35.914  31.706  32.235  1.00  0.00     0.022 A 
BRANCH  73  77
ATOM     77  S   UNL A   1      34.954  33.062  29.994  1.00  0.00     0.124 S 
ATOM     78  O   UNL A   1      34.121  33.568  31.080  1.00  0.00    -0.237 OA
ATOM     79  O   UNL A   1      35.835  34.034  29.354  1.00  0.00    -0.237 OA
ATOM     80  O   UNL A   1      34.295  32.127  29.085  1.00  0.00    -0.744 OA
ENDBRANCH  73  77
ENDBRANCH  46  70
BRANCH  58  81
ATOM     81  C   UNL A   1      44.335  34.153  29.887  1.00  0.00     0.023 A 
ATOM     82  C   UNL A   1      44.177  35.202  28.967  1.00  0.00     0.031 A 
ATOM     83  C   UNL A   1      44.943  34.438  31.123  1.00  0.00     0.131 A 
ATOM     84  C   UNL A   1      44.671  36.479  29.273  1.00  0.00     0.055 A 
ATOM     85  C   UNL A   1      45.382  35.723  31.444  1.00  0.00     0.041 A 
ATOM     86  F   UNL A   1      45.119  33.471  32.038  1.00  0.00    -0.206 F 
ATOM     87  C   UNL A   1      45.258  36.749  30.512  1.00  0.00     0.022 A 
BRANCH  84  88
ATOM     88  S   UNL A   1      44.608  37.766  27.997  1.00  0.00     0.124 S 
ATOM     89  O   UNL A   1      44.462  38.979  28.796  1.00  0.00    -0.237 OA
ATOM     90  O   UNL A   1      45.890  37.599  27.321  1.00  0.00    -0.237 OA
ATOM     91  O   UNL A   1      43.436  37.404  27.202  1.00  0.00    -0.744 OA
ENDBRANCH  84  88
ENDBRANCH  58  81
ENDBRANCH  32  33
ENDBRANCH  24  27
ENDBRANCH  22  23
ENDBRANCH   1  22
TORSDOF 15
ENDMDL
