MODEL 1
REMARK VINA RESULT:     -10.4      0.000      0.000
REMARK SMILES CCCC[C@H](CC)C(=O)N1[C@H](C(=O)NCCCCNC(=O)c2ccc(-c3c4nc(c(-c5cc(S(=O)(=O)[O-])ccc5F)c5ccc([nH]5)c(-c5cc(S(=O)(=O)[O-])ccc5F)c5nc(c(-c6cc(S(=O)(=O)[O-])ccc6F)c6ccc3[nH]6)C=C5)C=C4)cc2)COC12CCCCC2
REMARK SMILES IDX 15 1 14 2 12 3 13 4 11 6 10 7 87 8 85 9 86 10 88 11 92 12
REMARK SMILES IDX 89 13 91 14 90 15 8 16 9 17 5 18 4 19 3 20 2 21 1 22 6 23
REMARK SMILES IDX 7 24 16 25 17 26 18 27 19 28 20 29 21 31 22 32 23 33 84 34
REMARK SMILES IDX 24 35 83 36 25 37 26 38 27 39 77 40 28 41 82 42 76 43 78 44
REMARK SMILES IDX 29 45 81 46 75 47 74 48 30 50 62 51 42 52 61 53 43 54 46 55
REMARK SMILES IDX 60 56 79 57 44 58 45 59 59 61 80 62 47 63 31 64 32 65 40 66
REMARK SMILES IDX 33 67 39 68 41 69 38 70 34 71 35 72 36 73 37 74 63 75 64 76
REMARK SMILES IDX 72 77 65 78 71 79 73 80 70 81 66 82 67 83 68 84 69 85 48 86
REMARK SMILES IDX 49 87 57 88 50 89 56 90 58 91 55 92 51 93 52 94 53 95 54 96
REMARK H PARENT 14 5 19 30 78 49 46 60
REMARK Flexibility Score: inf
ROOT
ATOM      1  C   UNL A   1      33.286  29.589  25.221  1.00  0.00     0.116 C 
ENDROOT
BRANCH   1   2
ATOM      2  N   UNL A   1      33.893  28.328  24.833  1.00  0.00    -0.354 N 
ATOM      3  C   UNL A   1      33.484  27.461  23.849  1.00  0.00     0.245 C 
ATOM      4  O   UNL A   1      34.226  26.530  23.530  1.00  0.00    -0.273 OA
ATOM      5  H   UNL A   1      34.696  28.063  25.337  1.00  0.00     0.163 HD
BRANCH   3   6
ATOM      6  C   UNL A   1      32.115  27.695  23.182  1.00  0.00     0.203 C 
ATOM      7  N   UNL A   1      30.886  27.830  23.975  1.00  0.00    -0.299 N 
ATOM      8  C   UNL A   1      30.082  28.918  23.407  1.00  0.00     0.144 C 
ATOM      9  C   UNL A   1      32.187  29.016  22.442  1.00  0.00     0.198 C 
ATOM     10  O   UNL A   1      30.812  29.344  22.217  1.00  0.00    -0.353 OA
ATOM     11  C   UNL A   1      28.719  28.486  22.869  1.00  0.00     0.059 C 
ATOM     12  C   UNL A   1      30.052  30.161  24.320  1.00  0.00     0.059 C 
ATOM     13  C   UNL A   1      27.887  29.648  22.340  1.00  0.00     0.005 C 
ATOM     14  C   UNL A   1      29.098  31.258  23.838  1.00  0.00     0.005 C 
ATOM     15  C   UNL A   1      27.737  30.726  23.404  1.00  0.00     0.000 C 
BRANCH   7  16
ATOM     16  C   UNL A   1      30.676  26.945  25.007  1.00  0.00     0.228 C 
ATOM     17  O   UNL A   1      30.662  27.391  26.166  1.00  0.00    -0.274 OA
BRANCH  16  18
ATOM     18  C   UNL A   1      30.668  25.399  24.914  1.00  0.00     0.078 C 
BRANCH  18  19
ATOM     19  C   UNL A   1      31.832  24.775  25.723  1.00  0.00     0.013 C 
BRANCH  19  20
ATOM     20  C   UNL A   1      31.440  23.704  26.749  1.00  0.00     0.001 C 
BRANCH  20  21
ATOM     21  C   UNL A   1      32.580  22.891  27.366  1.00  0.00    -0.003 C 
ATOM     22  C   UNL A   1      33.675  22.537  26.373  1.00  0.00     0.004 C 
ENDBRANCH  20  21
ENDBRANCH  19  20
ENDBRANCH  18  19
BRANCH  18  23
ATOM     23  C   UNL A   1      30.423  24.591  23.629  1.00  0.00     0.010 C 
ATOM     24  C   UNL A   1      31.612  23.976  22.929  1.00  0.00     0.005 C 
ENDBRANCH  18  23
ENDBRANCH  16  18
ENDBRANCH   7  16
ENDBRANCH   3   6
ENDBRANCH   1   2
BRANCH   1  25
ATOM     25  C   UNL A   1      32.957  29.663  26.705  1.00  0.00     0.023 C 
BRANCH  25  26
ATOM     26  C   UNL A   1      32.463  31.026  27.177  1.00  0.00     0.023 C 
BRANCH  26  27
ATOM     27  C   UNL A   1      33.415  32.189  26.909  1.00  0.00     0.116 C 
BRANCH  27  28
ATOM     28  N   UNL A   1      32.913  33.467  27.397  1.00  0.00    -0.352 N 
ATOM     29  C   UNL A   1      33.314  34.194  28.493  1.00  0.00     0.251 C 
ATOM     30  H   UNL A   1      32.184  33.865  26.869  1.00  0.00     0.163 HD
ATOM     31  O   UNL A   1      32.681  35.191  28.832  1.00  0.00    -0.269 OA
BRANCH  29  32
ATOM     32  C   UNL A   1      34.482  33.743  29.280  1.00  0.00     0.039 A 
ATOM     33  C   UNL A   1      34.291  32.820  30.311  1.00  0.00     0.014 A 
ATOM     34  C   UNL A   1      35.768  34.191  28.967  1.00  0.00     0.014 A 
ATOM     35  C   UNL A   1      35.399  32.278  30.966  1.00  0.00     0.010 A 
ATOM     36  C   UNL A   1      36.872  33.589  29.563  1.00  0.00     0.010 A 
ATOM     37  C   UNL A   1      36.700  32.619  30.562  1.00  0.00    -0.014 A 
BRANCH  37  38
ATOM     38  C   UNL A   1      37.891  31.948  31.150  1.00  0.00     0.031 A 
ATOM     39  C   UNL A   1      38.629  30.893  30.375  1.00  0.00     0.074 A 
ATOM     40  C   UNL A   1      38.254  32.233  32.416  1.00  0.00     0.049 A 
ATOM     41  N   UNL A   1      39.639  30.147  30.744  1.00  0.00    -0.248 NA
ATOM     42  C   UNL A   1      38.143  30.619  29.016  1.00  0.00     0.031 C 
ATOM     43  C   UNL A   1      37.579  33.192  33.293  1.00  0.00     0.029 A 
ATOM     44  N   UNL A   1      39.269  31.732  33.193  1.00  0.00    -0.354 N 
ATOM     45  C   UNL A   1      39.902  29.307  29.669  1.00  0.00     0.074 A 
ATOM     46  C   UNL A   1      38.897  29.590  28.665  1.00  0.00     0.031 C 
ATOM     47  C   UNL A   1      38.208  33.223  34.478  1.00  0.00     0.029 A 
ATOM     48  C   UNL A   1      39.300  32.256  34.464  1.00  0.00     0.049 A 
ATOM     49  H   UNL A   1      39.912  31.061  32.871  1.00  0.00     0.167 HD
ATOM     50  C   UNL A   1      40.904  28.403  29.521  1.00  0.00     0.034 A 
ATOM     51  C   UNL A   1      40.105  31.978  35.510  1.00  0.00     0.034 A 
ATOM     52  C   UNL A   1      41.895  28.133  30.536  1.00  0.00     0.049 A 
ATOM     53  C   UNL A   1      41.194  30.953  35.339  1.00  0.00     0.074 A 
ATOM     54  C   UNL A   1      42.993  27.293  30.470  1.00  0.00     0.029 A 
ATOM     55  N   UNL A   1      41.896  28.681  31.814  1.00  0.00    -0.354 N 
ATOM     56  N   UNL A   1      41.479  30.218  34.289  1.00  0.00    -0.248 NA
ATOM     57  C   UNL A   1      42.073  30.726  36.493  1.00  0.00     0.031 C 
ATOM     58  C   UNL A   1      43.611  27.276  31.726  1.00  0.00     0.029 A 
ATOM     59  C   UNL A   1      42.948  28.166  32.557  1.00  0.00     0.049 A 
ATOM     60  H   UNL A   1      41.244  29.341  32.144  1.00  0.00     0.167 HD
ATOM     61  C   UNL A   1      42.584  29.453  34.650  1.00  0.00     0.074 A 
ATOM     62  C   UNL A   1      42.923  29.831  36.009  1.00  0.00     0.031 C 
ATOM     63  C   UNL A   1      43.258  28.524  33.924  1.00  0.00     0.034 A 
BRANCH  50  64
ATOM     64  C   UNL A   1      40.944  27.626  28.223  1.00  0.00     0.023 A 
ATOM     65  C   UNL A   1      40.546  26.278  28.158  1.00  0.00     0.031 A 
ATOM     66  C   UNL A   1      41.442  28.217  27.049  1.00  0.00     0.131 A 
ATOM     67  C   UNL A   1      40.752  25.540  26.983  1.00  0.00     0.055 A 
ATOM     68  C   UNL A   1      41.555  27.502  25.854  1.00  0.00     0.041 A 
ATOM     69  F   UNL A   1      41.855  29.494  27.047  1.00  0.00    -0.206 F 
ATOM     70  C   UNL A   1      41.230  26.149  25.821  1.00  0.00     0.022 A 
BRANCH  67  71
ATOM     71  S   UNL A   1      40.565  23.736  27.054  1.00  0.00     0.124 S 
ATOM     72  O   UNL A   1      40.948  23.453  28.435  1.00  0.00    -0.237 OA
ATOM     73  O   UNL A   1      39.156  23.552  26.731  1.00  0.00    -0.237 OA
ATOM     74  O   UNL A   1      41.506  23.254  26.045  1.00  0.00    -0.744 OA
ENDBRANCH  67  71
ENDBRANCH  50  64
BRANCH  51  75
ATOM     75  C   UNL A   1      39.893  32.669  36.813  1.00  0.00     0.023 A 
ATOM     76  C   UNL A   1      38.873  32.270  37.692  1.00  0.00     0.031 A 
ATOM     77  C   UNL A   1      40.716  33.742  37.198  1.00  0.00     0.131 A 
ATOM     78  C   UNL A   1      38.687  32.957  38.901  1.00  0.00     0.055 A 
ATOM     79  C   UNL A   1      40.554  34.393  38.422  1.00  0.00     0.041 A 
ATOM     80  F   UNL A   1      41.711  34.156  36.397  1.00  0.00    -0.206 F 
ATOM     81  C   UNL A   1      39.529  34.006  39.279  1.00  0.00     0.022 A 
BRANCH  78  82
ATOM     82  S   UNL A   1      37.294  32.487  39.963  1.00  0.00     0.124 S 
ATOM     83  O   UNL A   1      37.230  33.613  40.887  1.00  0.00    -0.237 OA
ATOM     84  O   UNL A   1      36.200  32.382  39.002  1.00  0.00    -0.237 OA
ATOM     85  O   UNL A   1      37.726  31.220  40.551  1.00  0.00    -0.744 OA
ENDBRANCH  78  82
ENDBRANCH  51  75
BRANCH  63  86
ATOM     86  C   UNL A   1      44.446  27.868  34.587  1.00  0.00     0.023 A 
ATOM     87  C   UNL A   1      44.328  26.645  35.271  1.00  0.00     0.031 A 
ATOM     88  C   UNL A   1      45.711  28.481  34.545  1.00  0.00     0.131 A 
ATOM     89  C   UNL A   1      45.441  26.103  35.933  1.00  0.00     0.055 A 
ATOM     90  C   UNL A   1      46.828  27.906  35.151  1.00  0.00     0.041 A 
ATOM     91  F   UNL A   1      45.882  29.652  33.911  1.00  0.00    -0.206 F 
ATOM     92  C   UNL A   1      46.694  26.716  35.862  1.00  0.00     0.022 A 
BRANCH  89  93
ATOM     93  S   UNL A   1      45.209  24.633  36.969  1.00  0.00     0.124 S 
ATOM     94  O   UNL A   1      44.417  23.770  36.099  1.00  0.00    -0.237 OA
ATOM     95  O   UNL A   1      46.582  24.203  37.216  1.00  0.00    -0.237 OA
ATOM     96  O   UNL A   1      44.502  25.147  38.141  1.00  0.00    -0.744 OA
ENDBRANCH  89  93
ENDBRANCH  63  86
ENDBRANCH  37  38
ENDBRANCH  29  32
ENDBRANCH  27  28
ENDBRANCH  26  27
ENDBRANCH  25  26
ENDBRANCH   1  25
TORSDOF 20
ENDMDL
MODEL 2
REMARK VINA RESULT:     -10.4      1.981      7.608
REMARK SMILES CCCC[C@H](CC)C(=O)N1[C@H](C(=O)NCCCCNC(=O)c2ccc(-c3c4nc(c(-c5cc(S(=O)(=O)[O-])ccc5F)c5ccc([nH]5)c(-c5cc(S(=O)(=O)[O-])ccc5F)c5nc(c(-c6cc(S(=O)(=O)[O-])ccc6F)c6ccc3[nH]6)C=C5)C=C4)cc2)COC12CCCCC2
REMARK SMILES IDX 15 1 14 2 12 3 13 4 11 6 10 7 87 8 85 9 86 10 88 11 92 12
REMARK SMILES IDX 89 13 91 14 90 15 8 16 9 17 5 18 4 19 3 20 2 21 1 22 6 23
REMARK SMILES IDX 7 24 16 25 17 26 18 27 19 28 20 29 21 31 22 32 23 33 84 34
REMARK SMILES IDX 24 35 83 36 25 37 26 38 27 39 77 40 28 41 82 42 76 43 78 44
REMARK SMILES IDX 29 45 81 46 75 47 74 48 30 50 62 51 42 52 61 53 43 54 46 55
REMARK SMILES IDX 60 56 79 57 44 58 45 59 59 61 80 62 47 63 31 64 32 65 40 66
REMARK SMILES IDX 33 67 39 68 41 69 38 70 34 71 35 72 36 73 37 74 63 75 64 76
REMARK SMILES IDX 72 77 65 78 71 79 73 80 70 81 66 82 67 83 68 84 69 85 48 86
REMARK SMILES IDX 49 87 57 88 50 89 56 90 58 91 55 92 51 93 52 94 53 95 54 96
REMARK H PARENT 14 5 19 30 78 49 46 60
REMARK Flexibility Score: inf
ROOT
ATOM      1  C   UNL A   1      33.285  29.700  25.429  1.00  0.00     0.116 C 
ENDROOT
BRANCH   1   2
ATOM      2  N   UNL A   1      33.906  28.408  25.204  1.00  0.00    -0.354 N 
ATOM      3  C   UNL A   1      33.563  27.455  24.276  1.00  0.00     0.245 C 
ATOM      4  O   UNL A   1      34.317  26.496  24.100  1.00  0.00    -0.273 OA
ATOM      5  H   UNL A   1      34.668  28.188  25.788  1.00  0.00     0.163 HD
BRANCH   3   6
ATOM      6  C   UNL A   1      32.248  27.631  23.492  1.00  0.00     0.203 C 
ATOM      7  N   UNL A   1      30.957  27.778  24.177  1.00  0.00    -0.299 N 
ATOM      8  C   UNL A   1      30.184  28.822  23.496  1.00  0.00     0.144 C 
ATOM      9  C   UNL A   1      32.358  28.917  22.698  1.00  0.00     0.198 C 
ATOM     10  O   UNL A   1      31.001  29.208  22.349  1.00  0.00    -0.353 OA
ATOM     11  C   UNL A   1      28.875  28.339  22.872  1.00  0.00     0.059 C 
ATOM     12  C   UNL A   1      30.060  30.104  24.343  1.00  0.00     0.059 C 
ATOM     13  C   UNL A   1      28.070  29.458  22.224  1.00  0.00     0.005 C 
ATOM     14  C   UNL A   1      29.130  31.159  23.735  1.00  0.00     0.005 C 
ATOM     15  C   UNL A   1      27.818  30.581  23.219  1.00  0.00     0.000 C 
BRANCH   7  16
ATOM     16  C   UNL A   1      30.679  26.937  25.230  1.00  0.00     0.228 C 
ATOM     17  O   UNL A   1      30.638  27.423  26.372  1.00  0.00    -0.274 OA
BRANCH  16  18
ATOM     18  C   UNL A   1      30.620  25.390  25.190  1.00  0.00     0.078 C 
BRANCH  18  19
ATOM     19  C   UNL A   1      31.654  24.756  26.153  1.00  0.00     0.013 C 
BRANCH  19  20
ATOM     20  C   UNL A   1      31.265  23.403  26.761  1.00  0.00     0.001 C 
BRANCH  20  21
ATOM     21  C   UNL A   1      32.394  22.390  26.969  1.00  0.00    -0.003 C 
ATOM     22  C   UNL A   1      33.775  23.026  26.999  1.00  0.00     0.004 C 
ENDBRANCH  20  21
ENDBRANCH  19  20
ENDBRANCH  18  19
BRANCH  18  23
ATOM     23  C   UNL A   1      30.497  24.542  23.912  1.00  0.00     0.010 C 
ATOM     24  C   UNL A   1      31.759  23.994  23.290  1.00  0.00     0.005 C 
ENDBRANCH  18  23
ENDBRANCH  16  18
ENDBRANCH   7  16
ENDBRANCH   3   6
ENDBRANCH   1   2
BRANCH   1  25
ATOM     25  C   UNL A   1      32.751  29.869  26.845  1.00  0.00     0.023 C 
BRANCH  25  26
ATOM     26  C   UNL A   1      32.298  31.285  27.187  1.00  0.00     0.023 C 
BRANCH  26  27
ATOM     27  C   UNL A   1      33.412  32.326  27.241  1.00  0.00     0.116 C 
BRANCH  27  28
ATOM     28  N   UNL A   1      32.962  33.625  27.723  1.00  0.00    -0.352 N 
ATOM     29  C   UNL A   1      33.377  34.332  28.826  1.00  0.00     0.251 C 
ATOM     30  H   UNL A   1      32.261  34.057  27.182  1.00  0.00     0.163 HD
ATOM     31  O   UNL A   1      32.785  35.357  29.155  1.00  0.00    -0.269 OA
BRANCH  29  32
ATOM     32  C   UNL A   1      34.510  33.828  29.632  1.00  0.00     0.039 A 
ATOM     33  C   UNL A   1      34.255  32.939  30.679  1.00  0.00     0.014 A 
ATOM     34  C   UNL A   1      35.823  34.191  29.322  1.00  0.00     0.014 A 
ATOM     35  C   UNL A   1      35.323  32.344  31.355  1.00  0.00     0.010 A 
ATOM     36  C   UNL A   1      36.884  33.535  29.939  1.00  0.00     0.010 A 
ATOM     37  C   UNL A   1      36.646  32.597  30.955  1.00  0.00    -0.014 A 
BRANCH  37  38
ATOM     38  C   UNL A   1      37.789  31.869  31.567  1.00  0.00     0.031 A 
ATOM     39  C   UNL A   1      38.312  32.272  32.917  1.00  0.00     0.074 A 
ATOM     40  C   UNL A   1      38.408  30.898  30.867  1.00  0.00     0.049 A 
ATOM     41  N   UNL A   1      39.342  31.809  33.580  1.00  0.00    -0.248 NA
ATOM     42  C   UNL A   1      37.602  33.365  33.594  1.00  0.00     0.031 C 
ATOM     43  C   UNL A   1      38.034  30.458  29.520  1.00  0.00     0.029 A 
ATOM     44  N   UNL A   1      39.492  30.117  31.181  1.00  0.00    -0.354 N 
ATOM     45  C   UNL A   1      39.410  32.562  34.747  1.00  0.00     0.074 A 
ATOM     46  C   UNL A   1      38.361  33.556  34.661  1.00  0.00     0.031 C 
ATOM     47  C   UNL A   1      38.861  29.475  29.133  1.00  0.00     0.029 A 
ATOM     48  C   UNL A   1      39.853  29.245  30.179  1.00  0.00     0.049 A 
ATOM     49  H   UNL A   1      39.967  30.175  32.040  1.00  0.00     0.167 HD
ATOM     50  C   UNL A   1      40.251  32.419  35.802  1.00  0.00     0.034 A 
ATOM     51  C   UNL A   1      40.876  28.371  30.101  1.00  0.00     0.034 A 
ATOM     52  C   UNL A   1      41.294  31.422  35.866  1.00  0.00     0.049 A 
ATOM     53  C   UNL A   1      41.817  28.244  31.268  1.00  0.00     0.074 A 
ATOM     54  C   UNL A   1      42.157  31.140  36.910  1.00  0.00     0.029 A 
ATOM     55  N   UNL A   1      41.632  30.556  34.832  1.00  0.00    -0.354 N 
ATOM     56  N   UNL A   1      41.824  28.911  32.400  1.00  0.00    -0.248 NA
ATOM     57  C   UNL A   1      42.883  27.241  31.151  1.00  0.00     0.031 C 
ATOM     58  C   UNL A   1      43.061  30.161  36.483  1.00  0.00     0.029 A 
ATOM     59  C   UNL A   1      42.717  29.771  35.199  1.00  0.00     0.049 A 
ATOM     60  H   UNL A   1      41.169  30.506  33.965  1.00  0.00     0.167 HD
ATOM     61  C   UNL A   1      42.886  28.396  33.137  1.00  0.00     0.074 A 
ATOM     62  C   UNL A   1      43.482  27.349  32.328  1.00  0.00     0.031 C 
ATOM     63  C   UNL A   1      43.326  28.753  34.371  1.00  0.00     0.034 A 
BRANCH  50  64
ATOM     64  C   UNL A   1      40.087  33.391  36.950  1.00  0.00     0.023 A 
ATOM     65  C   UNL A   1      40.926  34.513  37.093  1.00  0.00     0.031 A 
ATOM     66  C   UNL A   1      39.122  33.167  37.947  1.00  0.00     0.131 A 
ATOM     67  C   UNL A   1      40.857  35.298  38.253  1.00  0.00     0.055 A 
ATOM     68  C   UNL A   1      38.994  34.011  39.053  1.00  0.00     0.041 A 
ATOM     69  F   UNL A   1      38.301  32.107  37.879  1.00  0.00    -0.206 F 
ATOM     70  C   UNL A   1      39.879  35.071  39.222  1.00  0.00     0.022 A 
BRANCH  67  71
ATOM     71  S   UNL A   1      42.184  36.499  38.561  1.00  0.00     0.124 S 
ATOM     72  O   UNL A   1      42.835  36.562  37.254  1.00  0.00    -0.237 OA
ATOM     73  O   UNL A   1      41.444  37.688  38.965  1.00  0.00    -0.237 OA
ATOM     74  O   UNL A   1      42.979  35.868  39.612  1.00  0.00    -0.744 OA
ENDBRANCH  67  71
ENDBRANCH  50  64
BRANCH  51  75
ATOM     75  C   UNL A   1      41.070  27.564  28.862  1.00  0.00     0.023 A 
ATOM     76  C   UNL A   1      42.057  27.901  27.922  1.00  0.00     0.031 A 
ATOM     77  C   UNL A   1      40.267  26.440  28.605  1.00  0.00     0.131 A 
ATOM     78  C   UNL A   1      42.198  27.133  26.755  1.00  0.00     0.055 A 
ATOM     79  C   UNL A   1      40.441  25.654  27.465  1.00  0.00     0.041 A 
ATOM     80  F   UNL A   1      39.314  26.072  29.478  1.00  0.00    -0.206 F 
ATOM     81  C   UNL A   1      41.407  26.005  26.527  1.00  0.00     0.022 A 
BRANCH  78  82
ATOM     82  S   UNL A   1      43.408  27.657  25.510  1.00  0.00     0.124 S 
ATOM     83  O   UNL A   1      42.552  27.960  24.370  1.00  0.00    -0.237 OA
ATOM     84  O   UNL A   1      44.039  28.801  26.161  1.00  0.00    -0.237 OA
ATOM     85  O   UNL A   1      44.265  26.483  25.354  1.00  0.00    -0.744 OA
ENDBRANCH  78  82
ENDBRANCH  51  75
BRANCH  63  86
ATOM     86  C   UNL A   1      44.502  27.985  34.927  1.00  0.00     0.023 A 
ATOM     87  C   UNL A   1      44.332  26.771  35.617  1.00  0.00     0.031 A 
ATOM     88  C   UNL A   1      45.809  28.481  34.777  1.00  0.00     0.131 A 
ATOM     89  C   UNL A   1      45.444  26.123  36.178  1.00  0.00     0.055 A 
ATOM     90  C   UNL A   1      46.917  27.801  35.282  1.00  0.00     0.041 A 
ATOM     91  F   UNL A   1      46.031  29.638  34.133  1.00  0.00    -0.206 F 
ATOM     92  C   UNL A   1      46.737  26.621  36.000  1.00  0.00     0.022 A 
BRANCH  89  93
ATOM     93  S   UNL A   1      45.169  24.670  37.227  1.00  0.00     0.124 S 
ATOM     94  O   UNL A   1      44.045  25.099  38.051  1.00  0.00    -0.237 OA
ATOM     95  O   UNL A   1      44.882  23.627  36.248  1.00  0.00    -0.237 OA
ATOM     96  O   UNL A   1      46.437  24.516  37.939  1.00  0.00    -0.744 OA
ENDBRANCH  89  93
ENDBRANCH  63  86
ENDBRANCH  37  38
ENDBRANCH  29  32
ENDBRANCH  27  28
ENDBRANCH  26  27
ENDBRANCH  25  26
ENDBRANCH   1  25
TORSDOF 20
ENDMDL
MODEL 3
REMARK VINA RESULT:     -10.0      1.529      2.875
REMARK SMILES CCCC[C@H](CC)C(=O)N1[C@H](C(=O)NCCCCNC(=O)c2ccc(-c3c4nc(c(-c5cc(S(=O)(=O)[O-])ccc5F)c5ccc([nH]5)c(-c5cc(S(=O)(=O)[O-])ccc5F)c5nc(c(-c6cc(S(=O)(=O)[O-])ccc6F)c6ccc3[nH]6)C=C5)C=C4)cc2)COC12CCCCC2
REMARK SMILES IDX 15 1 14 2 12 3 13 4 11 6 10 7 87 8 85 9 86 10 88 11 92 12
REMARK SMILES IDX 89 13 91 14 90 15 8 16 9 17 5 18 4 19 3 20 2 21 1 22 6 23
REMARK SMILES IDX 7 24 16 25 17 26 18 27 19 28 20 29 21 31 22 32 23 33 84 34
REMARK SMILES IDX 24 35 83 36 25 37 26 38 27 39 77 40 28 41 82 42 76 43 78 44
REMARK SMILES IDX 29 45 81 46 75 47 74 48 30 50 62 51 42 52 61 53 43 54 46 55
REMARK SMILES IDX 60 56 79 57 44 58 45 59 59 61 80 62 47 63 31 64 32 65 40 66
REMARK SMILES IDX 33 67 39 68 41 69 38 70 34 71 35 72 36 73 37 74 63 75 64 76
REMARK SMILES IDX 72 77 65 78 71 79 73 80 70 81 66 82 67 83 68 84 69 85 48 86
REMARK SMILES IDX 49 87 57 88 50 89 56 90 58 91 55 92 51 93 52 94 53 95 54 96
REMARK H PARENT 14 5 19 30 78 49 46 60
REMARK Flexibility Score: inf
ROOT
ATOM      1  C   UNL A   1      32.770  29.174  26.015  1.00  0.00     0.116 C 
ENDROOT
BRANCH   1   2
ATOM      2  N   UNL A   1      31.724  28.344  26.583  1.00  0.00    -0.354 N 
ATOM      3  C   UNL A   1      31.326  27.092  26.183  1.00  0.00     0.245 C 
ATOM      4  O   UNL A   1      30.549  26.456  26.897  1.00  0.00    -0.273 OA
ATOM      5  H   UNL A   1      31.241  28.726  27.351  1.00  0.00     0.163 HD
BRANCH   3   6
ATOM      6  C   UNL A   1      31.876  26.534  24.856  1.00  0.00     0.203 C 
ATOM      7  N   UNL A   1      32.765  25.365  24.821  1.00  0.00    -0.299 N 
ATOM      8  C   UNL A   1      32.357  24.501  23.709  1.00  0.00     0.144 C 
ATOM      9  C   UNL A   1      30.692  26.083  24.024  1.00  0.00     0.198 C 
ATOM     10  O   UNL A   1      31.286  25.232  23.038  1.00  0.00    -0.353 OA
ATOM     11  C   UNL A   1      33.417  24.320  22.623  1.00  0.00     0.059 C 
ATOM     12  C   UNL A   1      31.701  23.192  24.195  1.00  0.00     0.059 C 
ATOM     13  C   UNL A   1      32.983  23.372  21.512  1.00  0.00     0.005 C 
ATOM     14  C   UNL A   1      31.403  22.196  23.070  1.00  0.00     0.005 C 
ATOM     15  C   UNL A   1      32.559  22.029  22.091  1.00  0.00     0.000 C 
BRANCH   7  16
ATOM     16  C   UNL A   1      33.794  25.303  25.732  1.00  0.00     0.228 C 
ATOM     17  O   UNL A   1      34.174  26.361  26.260  1.00  0.00    -0.274 OA
BRANCH  16  18
ATOM     18  C   UNL A   1      34.698  24.079  26.026  1.00  0.00     0.078 C 
BRANCH  18  19
ATOM     19  C   UNL A   1      35.828  23.942  24.976  1.00  0.00     0.013 C 
BRANCH  19  20
ATOM     20  C   UNL A   1      36.887  22.870  25.265  1.00  0.00     0.001 C 
BRANCH  20  21
ATOM     21  C   UNL A   1      36.464  21.412  25.067  1.00  0.00    -0.003 C 
ATOM     22  C   UNL A   1      37.638  20.467  24.864  1.00  0.00     0.004 C 
ENDBRANCH  20  21
ENDBRANCH  19  20
ENDBRANCH  18  19
BRANCH  18  23
ATOM     23  C   UNL A   1      34.195  22.688  26.448  1.00  0.00     0.010 C 
ATOM     24  C   UNL A   1      33.424  22.564  27.741  1.00  0.00     0.005 C 
ENDBRANCH  18  23
ENDBRANCH  16  18
ENDBRANCH   7  16
ENDBRANCH   3   6
ENDBRANCH   1   2
BRANCH   1  25
ATOM     25  C   UNL A   1      33.397  30.123  27.026  1.00  0.00     0.023 C 
BRANCH  25  26
ATOM     26  C   UNL A   1      33.258  31.602  26.679  1.00  0.00     0.023 C 
BRANCH  26  27
ATOM     27  C   UNL A   1      32.107  32.324  27.374  1.00  0.00     0.116 C 
BRANCH  27  28
ATOM     28  N   UNL A   1      32.362  33.744  27.581  1.00  0.00    -0.352 N 
ATOM     29  C   UNL A   1      33.408  34.351  28.236  1.00  0.00     0.251 C 
ATOM     30  H   UNL A   1      31.692  34.355  27.198  1.00  0.00     0.163 HD
ATOM     31  O   UNL A   1      33.387  35.564  28.431  1.00  0.00    -0.269 OA
BRANCH  29  32
ATOM     32  C   UNL A   1      34.530  33.528  28.739  1.00  0.00     0.039 A 
ATOM     33  C   UNL A   1      35.798  33.695  28.177  1.00  0.00     0.014 A 
ATOM     34  C   UNL A   1      34.340  32.633  29.795  1.00  0.00     0.014 A 
ATOM     35  C   UNL A   1      36.892  33.032  28.737  1.00  0.00     0.010 A 
ATOM     36  C   UNL A   1      35.442  32.039  30.401  1.00  0.00     0.010 A 
ATOM     37  C   UNL A   1      36.732  32.240  29.886  1.00  0.00    -0.014 A 
BRANCH  37  38
ATOM     38  C   UNL A   1      37.903  31.639  30.579  1.00  0.00     0.031 A 
ATOM     39  C   UNL A   1      38.710  30.561  29.911  1.00  0.00     0.074 A 
ATOM     40  C   UNL A   1      38.187  32.009  31.843  1.00  0.00     0.049 A 
ATOM     41  N   UNL A   1      39.715  29.867  30.380  1.00  0.00    -0.248 NA
ATOM     42  C   UNL A   1      38.308  30.193  28.547  1.00  0.00     0.031 C 
ATOM     43  C   UNL A   1      37.440  33.000  32.622  1.00  0.00     0.029 A 
ATOM     44  N   UNL A   1      39.169  31.584  32.703  1.00  0.00    -0.354 N 
ATOM     45  C   UNL A   1      40.060  28.971  29.374  1.00  0.00     0.074 A 
ATOM     46  C   UNL A   1      39.106  29.166  28.302  1.00  0.00     0.031 C 
ATOM     47  C   UNL A   1      38.000  33.119  33.835  1.00  0.00     0.029 A 
ATOM     48  C   UNL A   1      39.115  32.183  33.940  1.00  0.00     0.049 A 
ATOM     49  H   UNL A   1      39.845  30.913  32.459  1.00  0.00     0.167 HD
ATOM     50  C   UNL A   1      41.090  28.089  29.337  1.00  0.00     0.034 A 
ATOM     51  C   UNL A   1      39.866  31.991  35.044  1.00  0.00     0.034 A 
ATOM     52  C   UNL A   1      42.028  27.907  30.420  1.00  0.00     0.049 A 
ATOM     53  C   UNL A   1      40.988  30.988  34.996  1.00  0.00     0.074 A 
ATOM     54  C   UNL A   1      43.149  27.096  30.466  1.00  0.00     0.029 A 
ATOM     55  N   UNL A   1      41.943  28.531  31.660  1.00  0.00    -0.354 N 
ATOM     56  N   UNL A   1      41.350  30.201  34.010  1.00  0.00    -0.248 NA
ATOM     57  C   UNL A   1      41.805  30.855  36.208  1.00  0.00     0.031 C 
ATOM     58  C   UNL A   1      43.695  27.171  31.752  1.00  0.00     0.029 A 
ATOM     59  C   UNL A   1      42.965  28.090  32.490  1.00  0.00     0.049 A 
ATOM     60  H   UNL A   1      41.258  29.190  31.913  1.00  0.00     0.167 HD
ATOM     61  C   UNL A   1      42.451  29.489  34.478  1.00  0.00     0.074 A 
ATOM     62  C   UNL A   1      42.703  29.957  35.827  1.00  0.00     0.031 C 
ATOM     63  C   UNL A   1      43.188  28.538  33.847  1.00  0.00     0.034 A 
BRANCH  50  64
ATOM     64  C   UNL A   1      41.223  27.237  28.093  1.00  0.00     0.023 A 
ATOM     65  C   UNL A   1      40.891  25.869  28.097  1.00  0.00     0.031 A 
ATOM     66  C   UNL A   1      41.743  27.780  26.906  1.00  0.00     0.131 A 
ATOM     67  C   UNL A   1      41.183  25.073  26.980  1.00  0.00     0.055 A 
ATOM     68  C   UNL A   1      41.940  27.000  25.763  1.00  0.00     0.041 A 
ATOM     69  F   UNL A   1      42.094  29.073  26.840  1.00  0.00    -0.206 F 
ATOM     70  C   UNL A   1      41.681  25.633  25.803  1.00  0.00     0.022 A 
BRANCH  67  71
ATOM     71  S   UNL A   1      41.078  23.269  27.156  1.00  0.00     0.124 S 
ATOM     72  O   UNL A   1      41.758  22.814  25.946  1.00  0.00    -0.237 OA
ATOM     73  O   UNL A   1      41.781  23.034  28.412  1.00  0.00    -0.237 OA
ATOM     74  O   UNL A   1      39.640  23.011  27.186  1.00  0.00    -0.744 OA
ENDBRANCH  67  71
ENDBRANCH  50  64
BRANCH  51  75
ATOM     75  C   UNL A   1      39.564  32.752  36.289  1.00  0.00     0.023 A 
ATOM     76  C   UNL A   1      38.665  32.255  37.246  1.00  0.00     0.031 A 
ATOM     77  C   UNL A   1      40.177  33.993  36.538  1.00  0.00     0.131 A 
ATOM     78  C   UNL A   1      38.386  33.008  38.397  1.00  0.00     0.055 A 
ATOM     79  C   UNL A   1      39.930  34.717  37.705  1.00  0.00     0.041 A 
ATOM     80  F   UNL A   1      41.051  34.507  35.657  1.00  0.00    -0.206 F 
ATOM     81  C   UNL A   1      39.023  34.228  38.640  1.00  0.00     0.022 A 
BRANCH  78  82
ATOM     82  S   UNL A   1      37.140  32.389  39.561  1.00  0.00     0.124 S 
ATOM     83  O   UNL A   1      35.913  32.527  38.786  1.00  0.00    -0.237 OA
ATOM     84  O   UNL A   1      37.599  31.025  39.801  1.00  0.00    -0.237 OA
ATOM     85  O   UNL A   1      37.263  33.294  40.703  1.00  0.00    -0.744 OA
ENDBRANCH  78  82
ENDBRANCH  51  75
BRANCH  63  86
ATOM     86  C   UNL A   1      44.352  27.956  34.613  1.00  0.00     0.023 A 
ATOM     87  C   UNL A   1      44.205  26.822  35.431  1.00  0.00     0.031 A 
ATOM     88  C   UNL A   1      45.623  28.553  34.535  1.00  0.00     0.131 A 
ATOM     89  C   UNL A   1      45.296  26.353  36.181  1.00  0.00     0.055 A 
ATOM     90  C   UNL A   1      46.719  28.045  35.233  1.00  0.00     0.041 A 
ATOM     91  F   UNL A   1      45.821  29.641  33.774  1.00  0.00    -0.206 F 
ATOM     92  C   UNL A   1      46.556  26.946  36.073  1.00  0.00     0.022 A 
BRANCH  89  93
ATOM     93  S   UNL A   1      45.024  25.014  37.374  1.00  0.00     0.124 S 
ATOM     94  O   UNL A   1      46.337  24.890  37.996  1.00  0.00    -0.237 OA
ATOM     95  O   UNL A   1      43.965  25.558  38.219  1.00  0.00    -0.237 OA
ATOM     96  O   UNL A   1      44.625  23.884  36.536  1.00  0.00    -0.744 OA
ENDBRANCH  89  93
ENDBRANCH  63  86
ENDBRANCH  37  38
ENDBRANCH  29  32
ENDBRANCH  27  28
ENDBRANCH  26  27
ENDBRANCH  25  26
ENDBRANCH   1  25
TORSDOF 20
ENDMDL
