MODEL 1
REMARK VINA RESULT:     -11.3      0.000      0.000
REMARK SMILES NC(=O)[C@@H]1CCCCN1c1cncc(C(=O)NCCCCNC(=O)c2ccc(-c3c4nc(c(-c5cc(S(=O)(=O)[O-])ccc5F)c5ccc([nH]5)c(-c5cc(S(=O)(=O)[O-])ccc5F)c5nc(c(-c6cc(S(=O)(=O)[O-])ccc6F)c6ccc3[nH]6)C=C5)C=C4)cc2)n1
REMARK SMILES IDX 20 1 19 2 18 3 17 4 15 5 16 6 14 8 10 9 11 10 88 11 12 12
REMARK SMILES IDX 13 13 9 14 4 15 5 16 6 17 8 18 7 19 2 20 1 21 3 24 21 25
REMARK SMILES IDX 22 26 23 27 24 29 25 30 26 31 87 32 27 33 86 34 28 35 29 36
REMARK SMILES IDX 30 37 80 38 31 39 85 40 79 41 81 42 32 43 84 44 78 45 77 46
REMARK SMILES IDX 33 48 65 49 45 50 64 51 46 52 49 53 63 54 82 55 47 56 48 57
REMARK SMILES IDX 62 59 83 60 50 61 34 62 35 63 43 64 36 65 42 66 44 67 41 68
REMARK SMILES IDX 37 69 38 70 39 71 40 72 66 73 67 74 75 75 68 76 74 77 76 78
REMARK SMILES IDX 73 79 69 80 70 81 71 82 72 83 51 84 52 85 60 86 53 87 59 88
REMARK SMILES IDX 61 89 58 90 54 91 55 92 56 93 57 94
REMARK H PARENT 17 7 1 22 1 23 22 28 81 47 49 58
REMARK Flexibility Score: inf
ROOT
ATOM      1  C   UNL A   1      33.495  27.893  26.809  1.00  0.00     0.023 C 
ENDROOT
BRANCH   1   2
ATOM      2  C   UNL A   1      31.988  28.017  26.591  1.00  0.00     0.023 C 
BRANCH   2   3
ATOM      3  C   UNL A   1      31.367  26.836  25.852  1.00  0.00     0.116 C 
BRANCH   3   4
ATOM      4  N   UNL A   1      31.122  25.716  26.740  1.00  0.00    -0.351 N 
ATOM      5  C   UNL A   1      31.297  24.364  26.551  1.00  0.00     0.271 C 
ATOM      6  O   UNL A   1      30.989  23.617  27.485  1.00  0.00    -0.267 OA
ATOM      7  H   UNL A   1      30.774  25.964  27.626  1.00  0.00     0.163 HD
BRANCH   5   8
ATOM      8  C   UNL A   1      31.828  23.759  25.292  1.00  0.00     0.148 A 
ATOM      9  C   UNL A   1      33.522  22.761  24.070  1.00  0.00     0.148 A 
ATOM     10  C   UNL A   1      32.622  22.659  23.000  1.00  0.00     0.157 A 
ATOM     11  N   UNL A   1      33.120  23.342  25.213  1.00  0.00    -0.222 NA
ATOM     12  N   UNL A   1      31.334  23.082  23.035  1.00  0.00    -0.258 NA
ATOM     13  C   UNL A   1      30.956  23.623  24.218  1.00  0.00     0.145 A 
BRANCH   9  14
ATOM     14  N   UNL A   1      34.817  22.278  23.950  1.00  0.00    -0.343 N 
ATOM     15  C   UNL A   1      35.300  21.102  24.716  1.00  0.00     0.172 C 
ATOM     16  C   UNL A   1      36.121  21.518  25.938  1.00  0.00     0.035 C 
ATOM     17  C   UNL A   1      37.237  22.476  25.535  1.00  0.00     0.004 C 
ATOM     18  C   UNL A   1      35.830  23.278  23.596  1.00  0.00     0.119 C 
ATOM     19  C   UNL A   1      36.649  23.691  24.824  1.00  0.00     0.022 C 
BRANCH  15  20
ATOM     20  C   UNL A   1      34.238  20.049  25.108  1.00  0.00     0.240 C 
ATOM     21  N   UNL A   1      33.531  20.318  26.249  1.00  0.00    -0.368 N 
ATOM     22  H   UNL A   1      32.839  19.692  26.560  1.00  0.00     0.159 HD
ATOM     23  H   UNL A   1      33.716  21.140  26.761  1.00  0.00     0.159 HD
ATOM     24  O   UNL A   1      33.938  19.055  24.454  1.00  0.00    -0.273 OA
ENDBRANCH  15  20
ENDBRANCH   9  14
ENDBRANCH   5   8
ENDBRANCH   3   4
ENDBRANCH   2   3
ENDBRANCH   1   2
BRANCH   1  25
ATOM     25  C   UNL A   1      34.328  29.052  26.267  1.00  0.00     0.116 C 
BRANCH  25  26
ATOM     26  N   UNL A   1      33.897  30.352  26.763  1.00  0.00    -0.352 N 
ATOM     27  C   UNL A   1      34.472  31.131  27.738  1.00  0.00     0.251 C 
ATOM     28  H   UNL A   1      33.087  30.722  26.344  1.00  0.00     0.163 HD
ATOM     29  O   UNL A   1      33.911  32.154  28.123  1.00  0.00    -0.269 OA
BRANCH  27  30
ATOM     30  C   UNL A   1      35.751  30.702  28.346  1.00  0.00     0.039 A 
ATOM     31  C   UNL A   1      35.730  29.745  29.363  1.00  0.00     0.014 A 
ATOM     32  C   UNL A   1      36.965  31.214  27.882  1.00  0.00     0.014 A 
ATOM     33  C   UNL A   1      36.935  29.247  29.866  1.00  0.00     0.010 A 
ATOM     34  C   UNL A   1      38.162  30.666  28.333  1.00  0.00     0.010 A 
ATOM     35  C   UNL A   1      38.159  29.674  29.327  1.00  0.00    -0.014 A 
BRANCH  35  36
ATOM     36  C   UNL A   1      39.450  29.105  29.794  1.00  0.00     0.031 A 
ATOM     37  C   UNL A   1      40.197  29.767  30.920  1.00  0.00     0.074 A 
ATOM     38  C   UNL A   1      39.979  28.037  29.166  1.00  0.00     0.049 A 
ATOM     39  N   UNL A   1      41.377  29.487  31.411  1.00  0.00    -0.248 NA
ATOM     40  C   UNL A   1      39.536  30.915  31.558  1.00  0.00     0.031 C 
ATOM     41  C   UNL A   1      39.367  27.329  28.039  1.00  0.00     0.029 A 
ATOM     42  N   UNL A   1      41.157  27.364  29.377  1.00  0.00    -0.354 N 
ATOM     43  C   UNL A   1      41.604  30.429  32.410  1.00  0.00     0.074 A 
ATOM     44  C   UNL A   1      40.469  31.326  32.403  1.00  0.00     0.031 C 
ATOM     45  C   UNL A   1      40.162  26.309  27.675  1.00  0.00     0.029 A 
ATOM     46  C   UNL A   1      41.360  26.316  28.509  1.00  0.00     0.049 A 
ATOM     47  H   UNL A   1      41.797  27.609  30.084  1.00  0.00     0.167 HD
ATOM     48  C   UNL A   1      42.650  30.521  33.268  1.00  0.00     0.034 A 
ATOM     49  C   UNL A   1      42.399  25.465  28.391  1.00  0.00     0.034 A 
ATOM     50  C   UNL A   1      43.773  29.615  33.265  1.00  0.00     0.049 A 
ATOM     51  C   UNL A   1      43.567  25.608  29.336  1.00  0.00     0.074 A 
ATOM     52  C   UNL A   1      44.873  29.600  34.106  1.00  0.00     0.029 A 
ATOM     53  N   UNL A   1      43.940  28.561  32.376  1.00  0.00    -0.354 N 
ATOM     54  N   UNL A   1      43.752  26.484  30.296  1.00  0.00    -0.248 NA
ATOM     55  C   UNL A   1      44.660  24.639  29.188  1.00  0.00     0.031 C 
ATOM     56  C   UNL A   1      45.728  28.573  33.691  1.00  0.00     0.029 A 
ATOM     57  C   UNL A   1      45.131  27.902  32.636  1.00  0.00     0.049 A 
ATOM     58  H   UNL A   1      43.304  28.317  31.665  1.00  0.00     0.167 HD
ATOM     59  C   UNL A   1      44.964  26.145  30.890  1.00  0.00     0.074 A 
ATOM     60  C   UNL A   1      45.459  24.980  30.188  1.00  0.00     0.031 C 
ATOM     61  C   UNL A   1      45.609  26.739  31.926  1.00  0.00     0.034 A 
BRANCH  48  62
ATOM     62  C   UNL A   1      42.625  31.655  34.266  1.00  0.00     0.023 A 
ATOM     63  C   UNL A   1      41.867  31.574  35.449  1.00  0.00     0.031 A 
ATOM     64  C   UNL A   1      43.333  32.844  34.019  1.00  0.00     0.131 A 
ATOM     65  C   UNL A   1      41.770  32.687  36.297  1.00  0.00     0.055 A 
ATOM     66  C   UNL A   1      43.299  33.918  34.911  1.00  0.00     0.041 A 
ATOM     67  F   UNL A   1      44.057  32.988  32.898  1.00  0.00    -0.206 F 
ATOM     68  C   UNL A   1      42.501  33.850  36.049  1.00  0.00     0.022 A 
BRANCH  65  69
ATOM     69  S   UNL A   1      40.560  32.641  37.647  1.00  0.00     0.124 S 
ATOM     70  O   UNL A   1      39.550  31.734  37.107  1.00  0.00    -0.237 OA
ATOM     71  O   UNL A   1      41.348  32.130  38.762  1.00  0.00    -0.237 OA
ATOM     72  O   UNL A   1      40.133  34.033  37.771  1.00  0.00    -0.744 OA
ENDBRANCH  65  69
ENDBRANCH  48  62
BRANCH  49  73
ATOM     73  C   UNL A   1      42.400  24.403  27.345  1.00  0.00     0.023 A 
ATOM     74  C   UNL A   1      41.739  23.183  27.557  1.00  0.00     0.031 A 
ATOM     75  C   UNL A   1      43.113  24.565  26.144  1.00  0.00     0.131 A 
ATOM     76  C   UNL A   1      41.852  22.151  26.613  1.00  0.00     0.055 A 
ATOM     77  C   UNL A   1      43.175  23.556  25.180  1.00  0.00     0.041 A 
ATOM     78  F   UNL A   1      43.758  25.714  25.886  1.00  0.00    -0.206 F 
ATOM     79  C   UNL A   1      42.555  22.333  25.420  1.00  0.00     0.022 A 
BRANCH  76  80
ATOM     80  S   UNL A   1      41.148  20.528  27.013  1.00  0.00     0.124 S 
ATOM     81  O   UNL A   1      42.287  19.645  26.785  1.00  0.00    -0.237 OA
ATOM     82  O   UNL A   1      40.745  20.709  28.404  1.00  0.00    -0.237 OA
ATOM     83  O   UNL A   1      40.049  20.388  26.061  1.00  0.00    -0.744 OA
ENDBRANCH  76  80
ENDBRANCH  49  73
BRANCH  61  84
ATOM     84  C   UNL A   1      46.889  26.092  32.396  1.00  0.00     0.023 A 
ATOM     85  C   UNL A   1      46.898  25.108  33.400  1.00  0.00     0.031 A 
ATOM     86  C   UNL A   1      48.119  26.484  31.840  1.00  0.00     0.131 A 
ATOM     87  C   UNL A   1      48.119  24.588  33.855  1.00  0.00     0.055 A 
ATOM     88  C   UNL A   1      49.326  25.922  32.258  1.00  0.00     0.041 A 
ATOM     89  F   UNL A   1      48.168  27.420  30.880  1.00  0.00    -0.206 F 
ATOM     90  C   UNL A   1      49.332  24.977  33.280  1.00  0.00     0.022 A 
BRANCH  87  91
ATOM     91  S   UNL A   1      48.109  23.457  35.274  1.00  0.00     0.124 S 
ATOM     92  O   UNL A   1      48.528  22.200  34.664  1.00  0.00    -0.237 OA
ATOM     93  O   UNL A   1      49.072  24.079  36.176  1.00  0.00    -0.237 OA
ATOM     94  O   UNL A   1      46.721  23.493  35.731  1.00  0.00    -0.744 OA
ENDBRANCH  87  91
ENDBRANCH  61  84
ENDBRANCH  35  36
ENDBRANCH  27  30
ENDBRANCH  25  26
ENDBRANCH   1  25
TORSDOF 16
ENDMDL
MODEL 2
REMARK VINA RESULT:     -11.2      3.413      8.690
REMARK SMILES NC(=O)[C@@H]1CCCCN1c1cncc(C(=O)NCCCCNC(=O)c2ccc(-c3c4nc(c(-c5cc(S(=O)(=O)[O-])ccc5F)c5ccc([nH]5)c(-c5cc(S(=O)(=O)[O-])ccc5F)c5nc(c(-c6cc(S(=O)(=O)[O-])ccc6F)c6ccc3[nH]6)C=C5)C=C4)cc2)n1
REMARK SMILES IDX 20 1 19 2 18 3 17 4 15 5 16 6 14 8 10 9 11 10 88 11 12 12
REMARK SMILES IDX 13 13 9 14 4 15 5 16 6 17 8 18 7 19 2 20 1 21 3 24 21 25
REMARK SMILES IDX 22 26 23 27 24 29 25 30 26 31 87 32 27 33 86 34 28 35 29 36
REMARK SMILES IDX 30 37 80 38 31 39 85 40 79 41 81 42 32 43 84 44 78 45 77 46
REMARK SMILES IDX 33 48 65 49 45 50 64 51 46 52 49 53 63 54 82 55 47 56 48 57
REMARK SMILES IDX 62 59 83 60 50 61 34 62 35 63 43 64 36 65 42 66 44 67 41 68
REMARK SMILES IDX 37 69 38 70 39 71 40 72 66 73 67 74 75 75 68 76 74 77 76 78
REMARK SMILES IDX 73 79 69 80 70 81 71 82 72 83 51 84 52 85 60 86 53 87 59 88
REMARK SMILES IDX 61 89 58 90 54 91 55 92 56 93 57 94
REMARK H PARENT 17 7 1 22 1 23 22 28 81 47 49 58
REMARK Flexibility Score: inf
ROOT
ATOM      1  C   UNL A   1      31.794  31.293  27.034  1.00  0.00     0.023 C 
ENDROOT
BRANCH   1   2
ATOM      2  C   UNL A   1      31.873  30.405  25.794  1.00  0.00     0.023 C 
BRANCH   2   3
ATOM      3  C   UNL A   1      33.034  29.415  25.809  1.00  0.00     0.116 C 
BRANCH   3   4
ATOM      4  N   UNL A   1      33.658  29.301  24.505  1.00  0.00    -0.351 N 
ATOM      5  C   UNL A   1      33.388  28.460  23.450  1.00  0.00     0.271 C 
ATOM      6  O   UNL A   1      34.097  28.566  22.445  1.00  0.00    -0.267 OA
ATOM      7  H   UNL A   1      34.398  29.930  24.348  1.00  0.00     0.163 HD
BRANCH   5   8
ATOM      8  C   UNL A   1      32.301  27.434  23.457  1.00  0.00     0.148 A 
ATOM      9  C   UNL A   1      31.559  25.258  23.723  1.00  0.00     0.148 A 
ATOM     10  C   UNL A   1      30.258  25.726  23.486  1.00  0.00     0.157 A 
ATOM     11  N   UNL A   1      32.585  26.123  23.679  1.00  0.00    -0.222 NA
ATOM     12  N   UNL A   1      29.939  27.021  23.242  1.00  0.00    -0.258 NA
ATOM     13  C   UNL A   1      30.997  27.867  23.248  1.00  0.00     0.145 A 
BRANCH   9  14
ATOM     14  N   UNL A   1      31.787  23.916  23.989  1.00  0.00    -0.343 N 
ATOM     15  C   UNL A   1      31.965  23.399  25.369  1.00  0.00     0.172 C 
ATOM     16  C   UNL A   1      33.441  23.184  25.709  1.00  0.00     0.035 C 
ATOM     17  C   UNL A   1      34.117  22.321  24.648  1.00  0.00     0.004 C 
ATOM     18  C   UNL A   1      32.475  23.173  22.928  1.00  0.00     0.119 C 
ATOM     19  C   UNL A   1      33.953  22.961  23.273  1.00  0.00     0.022 C 
BRANCH  15  20
ATOM     20  C   UNL A   1      31.257  24.183  26.498  1.00  0.00     0.240 C 
ATOM     21  N   UNL A   1      29.946  23.853  26.715  1.00  0.00    -0.368 N 
ATOM     22  H   UNL A   1      29.433  24.312  27.418  1.00  0.00     0.159 HD
ATOM     23  H   UNL A   1      29.516  23.157  26.167  1.00  0.00     0.159 HD
ATOM     24  O   UNL A   1      31.786  25.003  27.242  1.00  0.00    -0.273 OA
ENDBRANCH  15  20
ENDBRANCH   9  14
ENDBRANCH   5   8
ENDBRANCH   3   4
ENDBRANCH   2   3
ENDBRANCH   1   2
BRANCH   1  25
ATOM     25  C   UNL A   1      32.994  32.213  27.252  1.00  0.00     0.116 C 
BRANCH  25  26
ATOM     26  N   UNL A   1      32.619  33.591  27.536  1.00  0.00    -0.352 N 
ATOM     27  C   UNL A   1      33.124  34.438  28.492  1.00  0.00     0.251 C 
ATOM     28  H   UNL A   1      31.908  33.966  26.967  1.00  0.00     0.163 HD
ATOM     29  O   UNL A   1      32.610  35.538  28.677  1.00  0.00    -0.269 OA
BRANCH  27  30
ATOM     30  C   UNL A   1      34.267  33.994  29.320  1.00  0.00     0.039 A 
ATOM     31  C   UNL A   1      34.026  33.162  30.416  1.00  0.00     0.014 A 
ATOM     32  C   UNL A   1      35.573  34.366  28.988  1.00  0.00     0.014 A 
ATOM     33  C   UNL A   1      35.104  32.643  31.136  1.00  0.00     0.010 A 
ATOM     34  C   UNL A   1      36.645  33.792  29.662  1.00  0.00     0.010 A 
ATOM     35  C   UNL A   1      36.423  32.921  30.741  1.00  0.00    -0.014 A 
BRANCH  35  36
ATOM     36  C   UNL A   1      37.585  32.322  31.447  1.00  0.00     0.031 A 
ATOM     37  C   UNL A   1      38.341  31.185  30.814  1.00  0.00     0.074 A 
ATOM     38  C   UNL A   1      37.918  32.754  32.679  1.00  0.00     0.049 A 
ATOM     39  N   UNL A   1      39.318  30.465  31.302  1.00  0.00    -0.248 NA
ATOM     40  C   UNL A   1      37.919  30.792  29.461  1.00  0.00     0.031 C 
ATOM     41  C   UNL A   1      37.239  33.825  33.412  1.00  0.00     0.029 A 
ATOM     42  N   UNL A   1      38.905  32.340  33.539  1.00  0.00    -0.354 N 
ATOM     43  C   UNL A   1      39.622  29.527  30.320  1.00  0.00     0.074 A 
ATOM     44  C   UNL A   1      38.679  29.730  29.241  1.00  0.00     0.031 C 
ATOM     45  C   UNL A   1      37.844  33.999  34.599  1.00  0.00     0.029 A 
ATOM     46  C   UNL A   1      38.922  33.024  34.733  1.00  0.00     0.049 A 
ATOM     47  H   UNL A   1      39.540  31.620  33.322  1.00  0.00     0.167 HD
ATOM     48  C   UNL A   1      40.613  28.600  30.309  1.00  0.00     0.034 A 
ATOM     49  C   UNL A   1      39.711  32.874  35.817  1.00  0.00     0.034 A 
ATOM     50  C   UNL A   1      41.549  28.413  31.391  1.00  0.00     0.049 A 
ATOM     51  C   UNL A   1      40.784  31.813  35.794  1.00  0.00     0.074 A 
ATOM     52  C   UNL A   1      42.606  27.523  31.474  1.00  0.00     0.029 A 
ATOM     53  N   UNL A   1      41.540  29.129  32.581  1.00  0.00    -0.354 N 
ATOM     54  N   UNL A   1      41.080  30.956  34.845  1.00  0.00    -0.248 NA
ATOM     55  C   UNL A   1      41.636  31.709  36.985  1.00  0.00     0.031 C 
ATOM     56  C   UNL A   1      43.201  27.664  32.733  1.00  0.00     0.029 A 
ATOM     57  C   UNL A   1      42.561  28.690  33.410  1.00  0.00     0.049 A 
ATOM     58  H   UNL A   1      40.902  29.846  32.803  1.00  0.00     0.167 HD
ATOM     59  C   UNL A   1      42.178  30.239  35.312  1.00  0.00     0.074 A 
ATOM     60  C   UNL A   1      42.497  30.772  36.619  1.00  0.00     0.031 C 
ATOM     61  C   UNL A   1      42.865  29.234  34.712  1.00  0.00     0.034 A 
BRANCH  48  62
ATOM     62  C   UNL A   1      40.712  27.713  29.091  1.00  0.00     0.023 A 
ATOM     63  C   UNL A   1      41.642  27.974  28.067  1.00  0.00     0.031 A 
ATOM     64  C   UNL A   1      39.848  26.616  28.928  1.00  0.00     0.131 A 
ATOM     65  C   UNL A   1      41.631  27.203  26.896  1.00  0.00     0.055 A 
ATOM     66  C   UNL A   1      39.899  25.801  27.796  1.00  0.00     0.041 A 
ATOM     67  F   UNL A   1      38.927  26.328  29.862  1.00  0.00    -0.206 F 
ATOM     68  C   UNL A   1      40.783  26.102  26.764  1.00  0.00     0.022 A 
BRANCH  65  69
ATOM     69  S   UNL A   1      42.637  27.752  25.490  1.00  0.00     0.124 S 
ATOM     70  O   UNL A   1      42.607  26.572  24.628  1.00  0.00    -0.237 OA
ATOM     71  O   UNL A   1      41.901  28.915  25.008  1.00  0.00    -0.237 OA
ATOM     72  O   UNL A   1      43.936  28.042  26.092  1.00  0.00    -0.744 OA
ENDBRANCH  65  69
ENDBRANCH  48  62
BRANCH  49  73
ATOM     73  C   UNL A   1      39.526  33.736  37.019  1.00  0.00     0.023 A 
ATOM     74  C   UNL A   1      38.894  33.239  38.170  1.00  0.00     0.031 A 
ATOM     75  C   UNL A   1      39.921  35.085  37.015  1.00  0.00     0.131 A 
ATOM     76  C   UNL A   1      38.622  34.099  39.246  1.00  0.00     0.055 A 
ATOM     77  C   UNL A   1      39.699  35.922  38.110  1.00  0.00     0.041 A 
ATOM     78  F   UNL A   1      40.535  35.610  35.943  1.00  0.00    -0.206 F 
ATOM     79  C   UNL A   1      39.030  35.434  39.229  1.00  0.00     0.022 A 
BRANCH  76  80
ATOM     80  S   UNL A   1      37.632  33.469  40.629  1.00  0.00     0.124 S 
ATOM     81  O   UNL A   1      38.508  32.440  41.177  1.00  0.00    -0.237 OA
ATOM     82  O   UNL A   1      37.458  34.666  41.446  1.00  0.00    -0.237 OA
ATOM     83  O   UNL A   1      36.418  32.976  39.983  1.00  0.00    -0.744 OA
ENDBRANCH  76  80
ENDBRANCH  49  73
BRANCH  61  84
ATOM     84  C   UNL A   1      44.068  28.694  35.446  1.00  0.00     0.023 A 
ATOM     85  C   UNL A   1      43.964  27.636  36.366  1.00  0.00     0.031 A 
ATOM     86  C   UNL A   1      45.335  29.264  35.232  1.00  0.00     0.131 A 
ATOM     87  C   UNL A   1      45.097  27.217  37.079  1.00  0.00     0.055 A 
ATOM     88  C   UNL A   1      46.470  28.805  35.903  1.00  0.00     0.041 A 
ATOM     89  F   UNL A   1      45.491  30.278  34.366  1.00  0.00    -0.206 F 
ATOM     90  C   UNL A   1      46.353  27.785  36.842  1.00  0.00     0.022 A 
BRANCH  87  91
ATOM     91  S   UNL A   1      44.895  25.977  38.387  1.00  0.00     0.124 S 
ATOM     92  O   UNL A   1      44.160  24.923  37.696  1.00  0.00    -0.237 OA
ATOM     93  O   UNL A   1      46.276  25.665  38.739  1.00  0.00    -0.237 OA
ATOM     94  O   UNL A   1      44.139  26.686  39.418  1.00  0.00    -0.744 OA
ENDBRANCH  87  91
ENDBRANCH  61  84
ENDBRANCH  35  36
ENDBRANCH  27  30
ENDBRANCH  25  26
ENDBRANCH   1  25
TORSDOF 16
ENDMDL
MODEL 3
REMARK VINA RESULT:     -11.1      4.991      8.036
REMARK SMILES NC(=O)[C@@H]1CCCCN1c1cncc(C(=O)NCCCCNC(=O)c2ccc(-c3c4nc(c(-c5cc(S(=O)(=O)[O-])ccc5F)c5ccc([nH]5)c(-c5cc(S(=O)(=O)[O-])ccc5F)c5nc(c(-c6cc(S(=O)(=O)[O-])ccc6F)c6ccc3[nH]6)C=C5)C=C4)cc2)n1
REMARK SMILES IDX 20 1 19 2 18 3 17 4 15 5 16 6 14 8 10 9 11 10 88 11 12 12
REMARK SMILES IDX 13 13 9 14 4 15 5 16 6 17 8 18 7 19 2 20 1 21 3 24 21 25
REMARK SMILES IDX 22 26 23 27 24 29 25 30 26 31 87 32 27 33 86 34 28 35 29 36
REMARK SMILES IDX 30 37 80 38 31 39 85 40 79 41 81 42 32 43 84 44 78 45 77 46
REMARK SMILES IDX 33 48 65 49 45 50 64 51 46 52 49 53 63 54 82 55 47 56 48 57
REMARK SMILES IDX 62 59 83 60 50 61 34 62 35 63 43 64 36 65 42 66 44 67 41 68
REMARK SMILES IDX 37 69 38 70 39 71 40 72 66 73 67 74 75 75 68 76 74 77 76 78
REMARK SMILES IDX 73 79 69 80 70 81 71 82 72 83 51 84 52 85 60 86 53 87 59 88
REMARK SMILES IDX 61 89 58 90 54 91 55 92 56 93 57 94
REMARK H PARENT 17 7 1 22 1 23 22 28 81 47 49 58
REMARK Flexibility Score: inf
ROOT
ATOM      1  C   UNL A   1      35.217  21.324  25.748  1.00  0.00     0.023 C 
ENDROOT
BRANCH   1   2
ATOM      2  C   UNL A   1      34.358  20.710  24.643  1.00  0.00     0.023 C 
BRANCH   2   3
ATOM      3  C   UNL A   1      33.082  21.490  24.342  1.00  0.00     0.116 C 
BRANCH   3   4
ATOM      4  N   UNL A   1      33.150  22.151  23.053  1.00  0.00    -0.351 N 
ATOM      5  C   UNL A   1      33.338  23.475  22.730  1.00  0.00     0.271 C 
ATOM      6  O   UNL A   1      33.336  23.772  21.531  1.00  0.00    -0.267 OA
ATOM      7  H   UNL A   1      33.044  21.552  22.279  1.00  0.00     0.163 HD
BRANCH   5   8
ATOM      8  C   UNL A   1      33.535  24.560  23.739  1.00  0.00     0.148 A 
ATOM      9  C   UNL A   1      32.804  26.439  24.875  1.00  0.00     0.148 A 
ATOM     10  C   UNL A   1      34.002  26.403  25.603  1.00  0.00     0.157 A 
ATOM     11  N   UNL A   1      32.590  25.521  23.918  1.00  0.00    -0.222 NA
ATOM     12  N   UNL A   1      34.975  25.473  25.439  1.00  0.00    -0.258 NA
ATOM     13  C   UNL A   1      34.702  24.541  24.493  1.00  0.00     0.145 A 
BRANCH   9  14
ATOM     14  N   UNL A   1      31.854  27.417  25.130  1.00  0.00    -0.343 N 
ATOM     15  C   UNL A   1      31.967  28.794  24.587  1.00  0.00     0.172 C 
ATOM     16  C   UNL A   1      32.503  29.775  25.632  1.00  0.00     0.035 C 
ATOM     17  C   UNL A   1      31.682  29.696  26.915  1.00  0.00     0.004 C 
ATOM     18  C   UNL A   1      31.140  27.282  26.404  1.00  0.00     0.119 C 
ATOM     19  C   UNL A   1      31.681  28.266  27.447  1.00  0.00     0.022 C 
BRANCH  15  20
ATOM     20  C   UNL A   1      32.731  28.951  23.253  1.00  0.00     0.240 C 
ATOM     21  N   UNL A   1      31.953  29.161  22.146  1.00  0.00    -0.368 N 
ATOM     22  H   UNL A   1      32.373  29.270  21.263  1.00  0.00     0.159 HD
ATOM     23  H   UNL A   1      30.973  29.204  22.234  1.00  0.00     0.159 HD
ATOM     24  O   UNL A   1      33.951  28.974  23.124  1.00  0.00    -0.273 OA
ENDBRANCH  15  20
ENDBRANCH   9  14
ENDBRANCH   5   8
ENDBRANCH   3   4
ENDBRANCH   2   3
ENDBRANCH   1   2
BRANCH   1  25
ATOM     25  C   UNL A   1      36.631  21.718  25.329  1.00  0.00     0.116 C 
BRANCH  25  26
ATOM     26  N   UNL A   1      37.591  20.629  25.445  1.00  0.00    -0.352 N 
ATOM     27  C   UNL A   1      38.902  20.681  25.855  1.00  0.00     0.251 C 
ATOM     28  H   UNL A   1      37.257  19.737  25.197  1.00  0.00     0.163 HD
ATOM     29  O   UNL A   1      39.612  19.682  25.781  1.00  0.00    -0.269 OA
BRANCH  27  30
ATOM     30  C   UNL A   1      39.456  21.962  26.346  1.00  0.00     0.039 A 
ATOM     31  C   UNL A   1      40.486  21.937  27.288  1.00  0.00     0.014 A 
ATOM     32  C   UNL A   1      38.986  23.179  25.843  1.00  0.00     0.014 A 
ATOM     33  C   UNL A   1      41.096  23.133  27.674  1.00  0.00     0.010 A 
ATOM     34  C   UNL A   1      39.642  24.360  26.175  1.00  0.00     0.010 A 
ATOM     35  C   UNL A   1      40.706  24.349  27.091  1.00  0.00    -0.014 A 
BRANCH  35  36
ATOM     36  C   UNL A   1      41.390  25.625  27.431  1.00  0.00     0.031 A 
ATOM     37  C   UNL A   1      40.662  26.677  28.222  1.00  0.00     0.074 A 
ATOM     38  C   UNL A   1      42.636  25.860  26.974  1.00  0.00     0.049 A 
ATOM     39  N   UNL A   1      41.043  27.888  28.539  1.00  0.00    -0.248 NA
ATOM     40  C   UNL A   1      39.314  26.326  28.693  1.00  0.00     0.031 C 
ATOM     41  C   UNL A   1      43.431  24.932  26.169  1.00  0.00     0.029 A 
ATOM     42  N   UNL A   1      43.450  26.957  27.114  1.00  0.00    -0.354 N 
ATOM     43  C   UNL A   1      39.979  28.447  29.240  1.00  0.00     0.074 A 
ATOM     44  C   UNL A   1      38.915  27.465  29.239  1.00  0.00     0.031 C 
ATOM     45  C   UNL A   1      44.625  25.488  25.906  1.00  0.00     0.029 A 
ATOM     46  C   UNL A   1      44.666  26.828  26.483  1.00  0.00     0.049 A 
ATOM     47  H   UNL A   1      43.187  27.760  27.618  1.00  0.00     0.167 HD
ATOM     48  C   UNL A   1      39.905  29.657  29.850  1.00  0.00     0.034 A 
ATOM     49  C   UNL A   1      45.692  27.697  26.373  1.00  0.00     0.034 A 
ATOM     50  C   UNL A   1      40.976  30.623  29.847  1.00  0.00     0.049 A 
ATOM     51  C   UNL A   1      45.573  29.049  27.032  1.00  0.00     0.074 A 
ATOM     52  C   UNL A   1      41.019  31.867  30.454  1.00  0.00     0.029 A 
ATOM     53  N   UNL A   1      42.196  30.454  29.204  1.00  0.00    -0.354 N 
ATOM     54  N   UNL A   1      44.573  29.550  27.718  1.00  0.00    -0.248 NA
ATOM     55  C   UNL A   1      46.728  29.948  26.909  1.00  0.00     0.031 C 
ATOM     56  C   UNL A   1      42.241  32.470  30.133  1.00  0.00     0.029 A 
ATOM     57  C   UNL A   1      42.990  31.577  29.385  1.00  0.00     0.049 A 
ATOM     58  H   UNL A   1      42.459  29.653  28.695  1.00  0.00     0.167 HD
ATOM     59  C   UNL A   1      44.996  30.807  28.142  1.00  0.00     0.074 A 
ATOM     60  C   UNL A   1      46.344  30.981  27.643  1.00  0.00     0.031 C 
ATOM     61  C   UNL A   1      44.334  31.733  28.881  1.00  0.00     0.034 A 
BRANCH  48  62
ATOM     62  C   UNL A   1      38.612  29.996  30.553  1.00  0.00     0.023 A 
ATOM     63  C   UNL A   1      37.587  30.706  29.900  1.00  0.00     0.031 A 
ATOM     64  C   UNL A   1      38.412  29.644  31.898  1.00  0.00     0.131 A 
ATOM     65  C   UNL A   1      36.449  31.109  30.613  1.00  0.00     0.055 A 
ATOM     66  C   UNL A   1      37.239  29.975  32.579  1.00  0.00     0.041 A 
ATOM     67  F   UNL A   1      39.362  28.984  32.580  1.00  0.00    -0.206 F 
ATOM     68  C   UNL A   1      36.256  30.726  31.941  1.00  0.00     0.022 A 
BRANCH  65  69
ATOM     69  S   UNL A   1      35.296  32.264  29.821  1.00  0.00     0.124 S 
ATOM     70  O   UNL A   1      34.455  32.660  30.948  1.00  0.00    -0.237 OA
ATOM     71  O   UNL A   1      36.188  33.291  29.296  1.00  0.00    -0.237 OA
ATOM     72  O   UNL A   1      34.629  31.444  28.812  1.00  0.00    -0.744 OA
ENDBRANCH  65  69
ENDBRANCH  48  62
BRANCH  49  73
ATOM     73  C   UNL A   1      46.921  27.332  25.612  1.00  0.00     0.023 A 
ATOM     74  C   UNL A   1      47.102  27.764  24.289  1.00  0.00     0.031 A 
ATOM     75  C   UNL A   1      47.903  26.497  26.172  1.00  0.00     0.131 A 
ATOM     76  C   UNL A   1      48.206  27.312  23.549  1.00  0.00     0.055 A 
ATOM     77  C   UNL A   1      49.029  26.095  25.451  1.00  0.00     0.041 A 
ATOM     78  F   UNL A   1      47.783  26.059  27.436  1.00  0.00    -0.206 F 
ATOM     79  C   UNL A   1      49.177  26.490  24.125  1.00  0.00     0.022 A 
BRANCH  76  80
ATOM     80  S   UNL A   1      48.300  27.734  21.787  1.00  0.00     0.124 S 
ATOM     81  O   UNL A   1      49.418  28.670  21.765  1.00  0.00    -0.237 OA
ATOM     82  O   UNL A   1      48.542  26.430  21.177  1.00  0.00    -0.237 OA
ATOM     83  O   UNL A   1      46.991  28.317  21.506  1.00  0.00    -0.744 OA
ENDBRANCH  76  80
ENDBRANCH  49  73
BRANCH  61  84
ATOM     84  C   UNL A   1      45.090  32.987  29.243  1.00  0.00     0.023 A 
ATOM     85  C   UNL A   1      45.064  34.132  28.427  1.00  0.00     0.031 A 
ATOM     86  C   UNL A   1      45.862  33.027  30.417  1.00  0.00     0.131 A 
ATOM     87  C   UNL A   1      45.841  35.249  28.768  1.00  0.00     0.055 A 
ATOM     88  C   UNL A   1      46.588  34.163  30.780  1.00  0.00     0.041 A 
ATOM     89  F   UNL A   1      45.923  31.962  31.231  1.00  0.00    -0.206 F 
ATOM     90  C   UNL A   1      46.590  35.277  29.947  1.00  0.00     0.022 A 
BRANCH  87  91
ATOM     91  S   UNL A   1      45.928  36.637  27.603  1.00  0.00     0.124 S 
ATOM     92  O   UNL A   1      47.108  37.356  28.074  1.00  0.00    -0.237 OA
ATOM     93  O   UNL A   1      46.066  35.960  26.319  1.00  0.00    -0.237 OA
ATOM     94  O   UNL A   1      44.658  37.333  27.802  1.00  0.00    -0.744 OA
ENDBRANCH  87  91
ENDBRANCH  61  84
ENDBRANCH  35  36
ENDBRANCH  27  30
ENDBRANCH  25  26
ENDBRANCH   1  25
TORSDOF 16
ENDMDL
