MODEL 1
REMARK VINA RESULT:     -12.4      0.000      0.000
REMARK SMILES Cc1noc(C[N@H+]2CCC[C@@H](c3ccc(C(=O)NCCCCNC(=O)c4ccc(-c5c6nc(c(-c7cc(S(=O)(=O)[O-])ccc7F)c7ccc([nH]7)c(-c7cc(S(=O)(=O)[O-])ccc7F)c7nc(c(-c8cc(S(=O)(=O)[O-])ccc8F)c8ccc5[nH]8)C=C7)C=C6)cc4)cc3)C2)n1
REMARK SMILES IDX 20 1 19 2 18 3 16 4 17 5 15 7 12 8 13 9 90 10 14 11 89 12
REMARK SMILES IDX 11 13 7 14 8 15 91 16 9 18 10 19 6 20 5 21 1 22 2 23 3 24
REMARK SMILES IDX 92 25 4 26 21 27 22 28 23 29 24 30 25 32 26 33 27 34 88 35
REMARK SMILES IDX 28 36 87 37 29 38 30 39 31 40 81 41 32 42 86 43 80 44 82 45
REMARK SMILES IDX 33 46 85 47 79 48 78 49 34 51 66 52 46 53 65 54 47 55 50 56
REMARK SMILES IDX 64 57 83 58 48 59 49 60 63 62 84 63 51 64 35 65 36 66 44 67
REMARK SMILES IDX 37 68 43 69 45 70 42 71 38 72 39 73 40 74 41 75 67 76 68 77
REMARK SMILES IDX 76 78 69 79 75 80 77 81 74 82 70 83 71 84 72 85 73 86 52 87
REMARK SMILES IDX 53 88 61 89 54 90 60 91 62 92 59 93 55 94 56 95 57 96 58 97
REMARK H PARENT 18 6 7 17 23 31 82 50 50 61
REMARK Flexibility Score: inf
ROOT
ATOM      1  C   UNL A   1      31.438  30.150  25.989  1.00  0.00     0.023 C 
ENDROOT
BRANCH   1   2
ATOM      2  C   UNL A   1      30.910  29.834  24.588  1.00  0.00     0.116 C 
BRANCH   2   3
ATOM      3  N   UNL A   1      32.008  29.669  23.658  1.00  0.00    -0.352 N 
ATOM      4  C   UNL A   1      32.798  28.586  23.373  1.00  0.00     0.251 C 
ATOM      5  O   UNL A   1      33.655  28.712  22.497  1.00  0.00    -0.269 OA
ATOM      6  H   UNL A   1      32.223  30.476  23.138  1.00  0.00     0.163 HD
BRANCH   4   7
ATOM      7  C   UNL A   1      32.629  27.259  24.028  1.00  0.00     0.039 A 
ATOM      8  C   UNL A   1      32.504  24.759  25.350  1.00  0.00    -0.039 A 
ATOM      9  C   UNL A   1      33.425  25.741  25.747  1.00  0.00     0.005 A 
ATOM     10  C   UNL A   1      31.604  25.072  24.330  1.00  0.00     0.005 A 
ATOM     11  C   UNL A   1      33.496  26.968  25.085  1.00  0.00     0.014 A 
ATOM     12  C   UNL A   1      31.652  26.317  23.693  1.00  0.00     0.014 A 
BRANCH   8  13
ATOM     13  C   UNL A   1      32.452  23.389  26.010  1.00  0.00     0.074 C 
ATOM     14  N   UNL A   1      32.501  20.898  25.528  1.00  0.00    -0.327 N 
ATOM     15  C   UNL A   1      33.676  20.759  26.397  1.00  0.00     0.262 C 
ATOM     16  C   UNL A   1      32.405  22.257  24.959  1.00  0.00     0.270 C 
ATOM     17  H   UNL A   1      31.678  20.743  26.109  1.00  0.00     0.348 HD
ATOM     18  C   UNL A   1      33.660  21.792  27.525  1.00  0.00     0.062 C 
ATOM     19  C   UNL A   1      33.635  23.210  26.966  1.00  0.00     0.020 C 
BRANCH  14  20
ATOM     20  C   UNL A   1      32.499  19.874  24.443  1.00  0.00     0.364 C 
BRANCH  20  21
ATOM     21  C   UNL A   1      32.891  18.490  24.865  1.00  0.00     0.281 A 
ATOM     22  C   UNL A   1      32.472  15.125  25.749  1.00  0.00     0.093 C 
ATOM     23  C   UNL A   1      32.957  16.461  25.356  1.00  0.00     0.169 A 
ATOM     24  N   UNL A   1      34.138  16.665  24.756  1.00  0.00    -0.063 NA
ATOM     25  N   UNL A   1      32.178  17.577  25.489  1.00  0.00    -0.191 NA
ATOM     26  O   UNL A   1      34.098  18.024  24.427  1.00  0.00    -0.333 OA
ENDBRANCH  20  21
ENDBRANCH  14  20
ENDBRANCH   8  13
ENDBRANCH   4   7
ENDBRANCH   2   3
ENDBRANCH   1   2
BRANCH   1  27
ATOM     27  C   UNL A   1      31.358  31.628  26.374  1.00  0.00     0.023 C 
BRANCH  27  28
ATOM     28  C   UNL A   1      32.673  32.238  26.840  1.00  0.00     0.116 C 
BRANCH  28  29
ATOM     29  N   UNL A   1      32.521  33.580  27.378  1.00  0.00    -0.352 N 
ATOM     30  C   UNL A   1      33.294  34.210  28.326  1.00  0.00     0.251 C 
ATOM     31  H   UNL A   1      31.771  34.106  27.016  1.00  0.00     0.163 HD
ATOM     32  O   UNL A   1      32.966  35.305  28.758  1.00  0.00    -0.269 OA
BRANCH  30  33
ATOM     33  C   UNL A   1      34.492  33.515  28.844  1.00  0.00     0.039 A 
ATOM     34  C   UNL A   1      35.714  34.191  28.840  1.00  0.00     0.014 A 
ATOM     35  C   UNL A   1      34.395  32.227  29.374  1.00  0.00     0.014 A 
ATOM     36  C   UNL A   1      36.828  33.598  29.436  1.00  0.00     0.010 A 
ATOM     37  C   UNL A   1      35.489  31.665  30.025  1.00  0.00     0.010 A 
ATOM     38  C   UNL A   1      36.715  32.346  30.065  1.00  0.00    -0.014 A 
BRANCH  38  39
ATOM     39  C   UNL A   1      37.871  31.730  30.765  1.00  0.00     0.031 A 
ATOM     40  C   UNL A   1      38.687  30.676  30.069  1.00  0.00     0.074 A 
ATOM     41  C   UNL A   1      38.146  32.078  32.036  1.00  0.00     0.049 A 
ATOM     42  N   UNL A   1      39.674  29.954  30.533  1.00  0.00    -0.248 NA
ATOM     43  C   UNL A   1      38.328  30.379  28.673  1.00  0.00     0.031 C 
ATOM     44  C   UNL A   1      37.404  33.068  32.823  1.00  0.00     0.029 A 
ATOM     45  N   UNL A   1      39.119  31.635  32.898  1.00  0.00    -0.354 N 
ATOM     46  C   UNL A   1      40.053  29.116  29.490  1.00  0.00     0.074 A 
ATOM     47  C   UNL A   1      39.145  29.375  28.394  1.00  0.00     0.031 C 
ATOM     48  C   UNL A   1      37.965  33.173  34.039  1.00  0.00     0.029 A 
ATOM     49  C   UNL A   1      39.072  32.229  34.139  1.00  0.00     0.049 A 
ATOM     50  H   UNL A   1      39.786  30.956  32.651  1.00  0.00     0.167 HD
ATOM     51  C   UNL A   1      41.081  28.233  29.442  1.00  0.00     0.034 A 
ATOM     52  C   UNL A   1      39.832  32.025  35.234  1.00  0.00     0.034 A 
ATOM     53  C   UNL A   1      41.982  27.991  30.541  1.00  0.00     0.049 A 
ATOM     54  C   UNL A   1      40.944  31.006  35.166  1.00  0.00     0.074 A 
ATOM     55  C   UNL A   1      43.066  27.131  30.595  1.00  0.00     0.029 A 
ATOM     56  N   UNL A   1      41.908  28.612  31.781  1.00  0.00    -0.354 N 
ATOM     57  N   UNL A   1      41.305  30.241  34.161  1.00  0.00    -0.248 NA
ATOM     58  C   UNL A   1      41.756  30.831  36.376  1.00  0.00     0.031 C 
ATOM     59  C   UNL A   1      43.614  27.196  31.881  1.00  0.00     0.029 A 
ATOM     60  C   UNL A   1      42.914  28.144  32.609  1.00  0.00     0.049 A 
ATOM     61  H   UNL A   1      41.237  29.288  32.034  1.00  0.00     0.167 HD
ATOM     62  C   UNL A   1      42.412  29.527  34.608  1.00  0.00     0.074 A 
ATOM     63  C   UNL A   1      42.667  29.960  35.965  1.00  0.00     0.031 C 
ATOM     64  C   UNL A   1      43.155  28.595  33.959  1.00  0.00     0.034 A 
BRANCH  51  65
ATOM     65  C   UNL A   1      41.269  27.462  28.160  1.00  0.00     0.023 A 
ATOM     66  C   UNL A   1      40.922  26.102  28.067  1.00  0.00     0.031 A 
ATOM     67  C   UNL A   1      41.815  28.082  27.022  1.00  0.00     0.131 A 
ATOM     68  C   UNL A   1      41.187  25.391  26.887  1.00  0.00     0.055 A 
ATOM     69  C   UNL A   1      42.004  27.387  25.826  1.00  0.00     0.041 A 
ATOM     70  F   UNL A   1      42.184  29.372  27.059  1.00  0.00    -0.206 F 
ATOM     71  C   UNL A   1      41.701  26.031  25.757  1.00  0.00     0.022 A 
BRANCH  68  72
ATOM     72  S   UNL A   1      40.962  23.592  26.892  1.00  0.00     0.124 S 
ATOM     73  O   UNL A   1      41.292  23.259  28.276  1.00  0.00    -0.237 OA
ATOM     74  O   UNL A   1      39.560  23.447  26.517  1.00  0.00    -0.237 OA
ATOM     75  O   UNL A   1      41.926  23.123  25.899  1.00  0.00    -0.744 OA
ENDBRANCH  68  72
ENDBRANCH  51  65
BRANCH  52  76
ATOM     76  C   UNL A   1      39.581  32.782  36.494  1.00  0.00     0.023 A 
ATOM     77  C   UNL A   1      38.694  32.288  37.464  1.00  0.00     0.031 A 
ATOM     78  C   UNL A   1      40.156  34.046  36.711  1.00  0.00     0.131 A 
ATOM     79  C   UNL A   1      38.356  33.081  38.573  1.00  0.00     0.055 A 
ATOM     80  C   UNL A   1      39.863  34.805  37.847  1.00  0.00     0.041 A 
ATOM     81  F   UNL A   1      41.014  34.566  35.819  1.00  0.00    -0.206 F 
ATOM     82  C   UNL A   1      38.943  34.331  38.776  1.00  0.00     0.022 A 
BRANCH  79  83
ATOM     83  S   UNL A   1      37.040  32.502  39.680  1.00  0.00     0.124 S 
ATOM     84  O   UNL A   1      37.447  31.125  39.931  1.00  0.00    -0.237 OA
ATOM     85  O   UNL A   1      37.165  33.425  40.804  1.00  0.00    -0.237 OA
ATOM     86  O   UNL A   1      35.829  32.659  38.878  1.00  0.00    -0.744 OA
ENDBRANCH  79  83
ENDBRANCH  52  76
BRANCH  64  87
ATOM     87  C   UNL A   1      44.348  28.038  34.694  1.00  0.00     0.023 A 
ATOM     88  C   UNL A   1      44.251  26.889  35.498  1.00  0.00     0.031 A 
ATOM     89  C   UNL A   1      45.596  28.678  34.599  1.00  0.00     0.131 A 
ATOM     90  C   UNL A   1      45.370  26.449  36.222  1.00  0.00     0.055 A 
ATOM     91  C   UNL A   1      46.719  28.202  35.275  1.00  0.00     0.041 A 
ATOM     92  F   UNL A   1      45.743  29.779  33.843  1.00  0.00    -0.206 F 
ATOM     93  C   UNL A   1      46.606  27.089  36.104  1.00  0.00     0.022 A 
BRANCH  90  94
ATOM     94  S   UNL A   1      45.165  25.076  37.390  1.00  0.00     0.124 S 
ATOM     95  O   UNL A   1      44.709  24.000  36.517  1.00  0.00    -0.237 OA
ATOM     96  O   UNL A   1      46.510  24.928  37.936  1.00  0.00    -0.237 OA
ATOM     97  O   UNL A   1      44.166  25.575  38.334  1.00  0.00    -0.744 OA
ENDBRANCH  90  94
ENDBRANCH  64  87
ENDBRANCH  38  39
ENDBRANCH  30  33
ENDBRANCH  28  29
ENDBRANCH  27  28
ENDBRANCH   1  27
TORSDOF 17
ENDMDL
MODEL 2
REMARK VINA RESULT:     -12.3      4.783     10.933
REMARK SMILES Cc1noc(C[N@H+]2CCC[C@@H](c3ccc(C(=O)NCCCCNC(=O)c4ccc(-c5c6nc(c(-c7cc(S(=O)(=O)[O-])ccc7F)c7ccc([nH]7)c(-c7cc(S(=O)(=O)[O-])ccc7F)c7nc(c(-c8cc(S(=O)(=O)[O-])ccc8F)c8ccc5[nH]8)C=C7)C=C6)cc4)cc3)C2)n1
REMARK SMILES IDX 20 1 19 2 18 3 16 4 17 5 15 7 12 8 13 9 90 10 14 11 89 12
REMARK SMILES IDX 11 13 7 14 8 15 91 16 9 18 10 19 6 20 5 21 1 22 2 23 3 24
REMARK SMILES IDX 92 25 4 26 21 27 22 28 23 29 24 30 25 32 26 33 27 34 88 35
REMARK SMILES IDX 28 36 87 37 29 38 30 39 31 40 81 41 32 42 86 43 80 44 82 45
REMARK SMILES IDX 33 46 85 47 79 48 78 49 34 51 66 52 46 53 65 54 47 55 50 56
REMARK SMILES IDX 64 57 83 58 48 59 49 60 63 62 84 63 51 64 35 65 36 66 44 67
REMARK SMILES IDX 37 68 43 69 45 70 42 71 38 72 39 73 40 74 41 75 67 76 68 77
REMARK SMILES IDX 76 78 69 79 75 80 77 81 74 82 70 83 71 84 72 85 73 86 52 87
REMARK SMILES IDX 53 88 61 89 54 90 60 91 62 92 59 93 55 94 56 95 57 96 58 97
REMARK H PARENT 18 6 7 17 23 31 82 50 50 61
REMARK Flexibility Score: inf
ROOT
ATOM      1  C   UNL A   1      35.039  32.675  31.103  1.00  0.00     0.023 C 
ENDROOT
BRANCH   1   2
ATOM      2  C   UNL A   1      36.503  32.538  31.527  1.00  0.00     0.116 C 
BRANCH   2   3
ATOM      3  N   UNL A   1      36.812  33.470  32.593  1.00  0.00    -0.352 N 
ATOM      4  C   UNL A   1      37.878  34.311  32.779  1.00  0.00     0.251 C 
ATOM      5  O   UNL A   1      37.874  35.034  33.776  1.00  0.00    -0.269 OA
ATOM      6  H   UNL A   1      36.137  33.506  33.308  1.00  0.00     0.163 HD
BRANCH   4   7
ATOM      7  C   UNL A   1      39.001  34.430  31.808  1.00  0.00     0.039 A 
ATOM      8  C   UNL A   1      41.262  34.704  30.127  1.00  0.00    -0.039 A 
ATOM      9  C   UNL A   1      41.409  34.462  31.502  1.00  0.00     0.005 A 
ATOM     10  C   UNL A   1      39.971  34.738  29.597  1.00  0.00     0.005 A 
ATOM     11  C   UNL A   1      40.294  34.342  32.332  1.00  0.00     0.014 A 
ATOM     12  C   UNL A   1      38.855  34.580  30.426  1.00  0.00     0.014 A 
BRANCH   8  13
ATOM     13  C   UNL A   1      42.460  34.906  29.211  1.00  0.00     0.074 C 
ATOM     14  N   UNL A   1      44.302  33.677  27.972  1.00  0.00    -0.327 N 
ATOM     15  C   UNL A   1      43.824  34.250  26.706  1.00  0.00     0.262 C 
ATOM     16  C   UNL A   1      43.215  33.581  28.967  1.00  0.00     0.270 C 
ATOM     17  H   UNL A   1      45.009  34.311  28.340  1.00  0.00     0.348 HD
ATOM     18  C   UNL A   1      43.195  35.627  26.921  1.00  0.00     0.062 C 
ATOM     19  C   UNL A   1      42.022  35.547  27.890  1.00  0.00     0.020 C 
BRANCH  14  20
ATOM     20  C   UNL A   1      44.941  32.346  27.762  1.00  0.00     0.364 C 
BRANCH  20  21
ATOM     21  C   UNL A   1      43.994  31.200  27.571  1.00  0.00     0.281 A 
ATOM     22  C   UNL A   1      42.325  28.613  25.897  1.00  0.00     0.093 C 
ATOM     23  C   UNL A   1      42.905  29.564  26.863  1.00  0.00     0.169 A 
ATOM     24  N   UNL A   1      43.053  29.287  28.165  1.00  0.00    -0.063 NA
ATOM     25  N   UNL A   1      43.429  30.763  26.465  1.00  0.00    -0.191 NA
ATOM     26  O   UNL A   1      43.779  30.383  28.644  1.00  0.00    -0.333 OA
ENDBRANCH  20  21
ENDBRANCH  14  20
ENDBRANCH   8  13
ENDBRANCH   4   7
ENDBRANCH   2   3
ENDBRANCH   1   2
BRANCH   1  27
ATOM     27  C   UNL A   1      34.801  33.676  29.972  1.00  0.00     0.023 C 
BRANCH  27  28
ATOM     28  C   UNL A   1      35.251  33.203  28.597  1.00  0.00     0.116 C 
BRANCH  28  29
ATOM     29  N   UNL A   1      34.295  32.313  27.958  1.00  0.00    -0.352 N 
ATOM     30  C   UNL A   1      34.444  30.979  27.653  1.00  0.00     0.251 C 
ATOM     31  H   UNL A   1      33.431  32.715  27.712  1.00  0.00     0.163 HD
ATOM     32  O   UNL A   1      33.587  30.396  27.008  1.00  0.00    -0.269 OA
BRANCH  30  33
ATOM     33  C   UNL A   1      35.681  30.287  28.077  1.00  0.00     0.039 A 
ATOM     34  C   UNL A   1      36.804  30.354  27.251  1.00  0.00     0.014 A 
ATOM     35  C   UNL A   1      35.741  29.624  29.304  1.00  0.00     0.014 A 
ATOM     36  C   UNL A   1      38.013  29.813  27.691  1.00  0.00     0.010 A 
ATOM     37  C   UNL A   1      36.961  29.143  29.769  1.00  0.00     0.010 A 
ATOM     38  C   UNL A   1      38.109  29.236  28.969  1.00  0.00    -0.014 A 
BRANCH  38  39
ATOM     39  C   UNL A   1      39.402  28.717  29.483  1.00  0.00     0.031 A 
ATOM     40  C   UNL A   1      40.074  29.403  30.640  1.00  0.00     0.074 A 
ATOM     41  C   UNL A   1      39.992  27.669  28.875  1.00  0.00     0.049 A 
ATOM     42  N   UNL A   1      41.241  29.165  31.179  1.00  0.00    -0.248 NA
ATOM     43  C   UNL A   1      39.343  30.522  31.256  1.00  0.00     0.031 C 
ATOM     44  C   UNL A   1      39.448  26.942  27.724  1.00  0.00     0.029 A 
ATOM     45  N   UNL A   1      41.183  27.037  29.131  1.00  0.00    -0.354 N 
ATOM     46  C   UNL A   1      41.388  30.103  32.195  1.00  0.00     0.074 A 
ATOM     47  C   UNL A   1      40.218  30.955  32.150  1.00  0.00     0.031 C 
ATOM     48  C   UNL A   1      40.291  25.950  27.393  1.00  0.00     0.029 A 
ATOM     49  C   UNL A   1      41.454  25.996  28.272  1.00  0.00     0.049 A 
ATOM     50  H   UNL A   1      41.786  27.303  29.862  1.00  0.00     0.167 HD
ATOM     51  C   UNL A   1      42.391  30.226  33.098  1.00  0.00     0.034 A 
ATOM     52  C   UNL A   1      42.527  25.182  28.197  1.00  0.00     0.034 A 
ATOM     53  C   UNL A   1      43.547  29.365  33.134  1.00  0.00     0.049 A 
ATOM     54  C   UNL A   1      43.649  25.367  29.190  1.00  0.00     0.074 A 
ATOM     55  C   UNL A   1      44.614  29.390  34.016  1.00  0.00     0.029 A 
ATOM     56  N   UNL A   1      43.787  28.321  32.251  1.00  0.00    -0.354 N 
ATOM     57  N   UNL A   1      43.758  26.245  30.161  1.00  0.00    -0.248 NA
ATOM     58  C   UNL A   1      44.787  24.446  29.081  1.00  0.00     0.031 C 
ATOM     59  C   UNL A   1      45.521  28.395  33.635  1.00  0.00     0.029 A 
ATOM     60  C   UNL A   1      44.990  27.706  32.557  1.00  0.00     0.049 A 
ATOM     61  H   UNL A   1      43.189  28.056  31.515  1.00  0.00     0.167 HD
ATOM     62  C   UNL A   1      44.957  25.950  30.804  1.00  0.00     0.074 A 
ATOM     63  C   UNL A   1      45.526  24.809  30.119  1.00  0.00     0.031 C 
ATOM     64  C   UNL A   1      45.538  26.564  31.865  1.00  0.00     0.034 A 
BRANCH  51  65
ATOM     65  C   UNL A   1      42.278  31.339  34.109  1.00  0.00     0.023 A 
ATOM     66  C   UNL A   1      41.297  31.317  35.116  1.00  0.00     0.031 A 
ATOM     67  C   UNL A   1      43.148  32.443  34.061  1.00  0.00     0.131 A 
ATOM     68  C   UNL A   1      41.164  32.407  35.989  1.00  0.00     0.055 A 
ATOM     69  C   UNL A   1      43.060  33.488  34.983  1.00  0.00     0.041 A 
ATOM     70  F   UNL A   1      44.091  32.529  33.109  1.00  0.00    -0.206 F 
ATOM     71  C   UNL A   1      42.056  33.480  35.946  1.00  0.00     0.022 A 
BRANCH  68  72
ATOM     72  S   UNL A   1      39.733  32.454  37.102  1.00  0.00     0.124 S 
ATOM     73  O   UNL A   1      40.380  32.571  38.407  1.00  0.00    -0.237 OA
ATOM     74  O   UNL A   1      39.011  33.633  36.639  1.00  0.00    -0.237 OA
ATOM     75  O   UNL A   1      39.066  31.177  36.857  1.00  0.00    -0.744 OA
ENDBRANCH  68  72
ENDBRANCH  51  65
BRANCH  52  76
ATOM     76  C   UNL A   1      42.613  24.122  27.152  1.00  0.00     0.023 A 
ATOM     77  C   UNL A   1      41.951  22.895  27.317  1.00  0.00     0.031 A 
ATOM     78  C   UNL A   1      43.422  24.285  26.014  1.00  0.00     0.131 A 
ATOM     79  C   UNL A   1      42.162  21.855  26.397  1.00  0.00     0.055 A 
ATOM     80  C   UNL A   1      43.580  23.268  25.069  1.00  0.00     0.041 A 
ATOM     81  F   UNL A   1      44.075  25.439  25.803  1.00  0.00    -0.206 F 
ATOM     82  C   UNL A   1      42.963  22.038  25.268  1.00  0.00     0.022 A 
BRANCH  79  83
ATOM     83  S   UNL A   1      41.470  20.220  26.767  1.00  0.00     0.124 S 
ATOM     84  O   UNL A   1      42.357  19.754  27.827  1.00  0.00    -0.237 OA
ATOM     85  O   UNL A   1      40.107  20.554  27.171  1.00  0.00    -0.237 OA
ATOM     86  O   UNL A   1      41.585  19.506  25.498  1.00  0.00    -0.744 OA
ENDBRANCH  79  83
ENDBRANCH  52  76
BRANCH  64  87
ATOM     87  C   UNL A   1      46.823  25.967  32.381  1.00  0.00     0.023 A 
ATOM     88  C   UNL A   1      46.834  25.016  33.415  1.00  0.00     0.031 A 
ATOM     89  C   UNL A   1      48.056  26.372  31.838  1.00  0.00     0.131 A 
ATOM     90  C   UNL A   1      48.057  24.543  33.914  1.00  0.00     0.055 A 
ATOM     91  C   UNL A   1      49.266  25.854  32.298  1.00  0.00     0.041 A 
ATOM     92  F   UNL A   1      48.101  27.278  30.847  1.00  0.00    -0.206 F 
ATOM     93  C   UNL A   1      49.272  24.944  33.352  1.00  0.00     0.022 A 
BRANCH  90  94
ATOM     94  S   UNL A   1      48.042  23.457  35.368  1.00  0.00     0.124 S 
ATOM     95  O   UNL A   1      49.435  23.032  35.443  1.00  0.00    -0.237 OA
ATOM     96  O   UNL A   1      47.593  24.358  36.424  1.00  0.00    -0.237 OA
ATOM     97  O   UNL A   1      47.092  22.409  35.004  1.00  0.00    -0.744 OA
ENDBRANCH  90  94
ENDBRANCH  64  87
ENDBRANCH  38  39
ENDBRANCH  30  33
ENDBRANCH  28  29
ENDBRANCH  27  28
ENDBRANCH   1  27
TORSDOF 17
ENDMDL
MODEL 3
REMARK VINA RESULT:     -12.2      5.244     10.529
REMARK SMILES Cc1noc(C[N@H+]2CCC[C@@H](c3ccc(C(=O)NCCCCNC(=O)c4ccc(-c5c6nc(c(-c7cc(S(=O)(=O)[O-])ccc7F)c7ccc([nH]7)c(-c7cc(S(=O)(=O)[O-])ccc7F)c7nc(c(-c8cc(S(=O)(=O)[O-])ccc8F)c8ccc5[nH]8)C=C7)C=C6)cc4)cc3)C2)n1
REMARK SMILES IDX 20 1 19 2 18 3 16 4 17 5 15 7 12 8 13 9 90 10 14 11 89 12
REMARK SMILES IDX 11 13 7 14 8 15 91 16 9 18 10 19 6 20 5 21 1 22 2 23 3 24
REMARK SMILES IDX 92 25 4 26 21 27 22 28 23 29 24 30 25 32 26 33 27 34 88 35
REMARK SMILES IDX 28 36 87 37 29 38 30 39 31 40 81 41 32 42 86 43 80 44 82 45
REMARK SMILES IDX 33 46 85 47 79 48 78 49 34 51 66 52 46 53 65 54 47 55 50 56
REMARK SMILES IDX 64 57 83 58 48 59 49 60 63 62 84 63 51 64 35 65 36 66 44 67
REMARK SMILES IDX 37 68 43 69 45 70 42 71 38 72 39 73 40 74 41 75 67 76 68 77
REMARK SMILES IDX 76 78 69 79 75 80 77 81 74 82 70 83 71 84 72 85 73 86 52 87
REMARK SMILES IDX 53 88 61 89 54 90 60 91 62 92 59 93 55 94 56 95 57 96 58 97
REMARK H PARENT 18 6 7 17 23 31 82 50 50 61
REMARK Flexibility Score: inf
ROOT
ATOM      1  C   UNL A   1      42.700  20.000  26.772  1.00  0.00     0.023 C 
ENDROOT
BRANCH   1   2
ATOM      2  C   UNL A   1      43.780  20.392  25.760  1.00  0.00     0.116 C 
BRANCH   2   3
ATOM      3  N   UNL A   1      43.399  21.598  25.054  1.00  0.00    -0.352 N 
ATOM      4  C   UNL A   1      43.374  22.910  25.451  1.00  0.00     0.251 C 
ATOM      5  O   UNL A   1      43.033  23.756  24.624  1.00  0.00    -0.269 OA
ATOM      6  H   UNL A   1      43.109  21.450  24.126  1.00  0.00     0.163 HD
BRANCH   4   7
ATOM      7  C   UNL A   1      43.795  23.359  26.808  1.00  0.00     0.039 A 
ATOM      8  C   UNL A   1      44.392  24.272  29.420  1.00  0.00    -0.039 A 
ATOM      9  C   UNL A   1      43.076  23.953  29.049  1.00  0.00     0.005 A 
ATOM     10  C   UNL A   1      45.410  24.062  28.487  1.00  0.00     0.005 A 
ATOM     11  C   UNL A   1      42.781  23.517  27.757  1.00  0.00     0.014 A 
ATOM     12  C   UNL A   1      45.115  23.590  27.204  1.00  0.00     0.014 A 
BRANCH   8  13
ATOM     13  C   UNL A   1      44.732  24.814  30.800  1.00  0.00     0.074 C 
ATOM     14  N   UNL A   1      44.416  26.809  32.335  1.00  0.00    -0.327 N 
ATOM     15  C   UNL A   1      43.802  25.932  33.340  1.00  0.00     0.262 C 
ATOM     16  C   UNL A   1      44.249  26.271  30.971  1.00  0.00     0.270 C 
ATOM     17  H   UNL A   1      45.415  26.845  32.538  1.00  0.00     0.348 HD
ATOM     18  C   UNL A   1      44.376  24.516  33.268  1.00  0.00     0.062 C 
ATOM     19  C   UNL A   1      44.152  23.905  31.890  1.00  0.00     0.020 C 
BRANCH  14  20
ATOM     20  C   UNL A   1      43.880  28.198  32.420  1.00  0.00     0.364 C 
BRANCH  20  21
ATOM     21  C   UNL A   1      42.410  28.304  32.697  1.00  0.00     0.281 A 
ATOM     22  C   UNL A   1      38.974  27.817  32.216  1.00  0.00     0.093 C 
ATOM     23  C   UNL A   1      40.330  28.121  32.708  1.00  0.00     0.169 A 
ATOM     24  N   UNL A   1      40.631  28.224  34.010  1.00  0.00    -0.063 NA
ATOM     25  N   UNL A   1      41.398  28.218  31.860  1.00  0.00    -0.191 NA
ATOM     26  O   UNL A   1      42.024  28.350  34.006  1.00  0.00    -0.333 OA
ENDBRANCH  20  21
ENDBRANCH  14  20
ENDBRANCH   8  13
ENDBRANCH   4   7
ENDBRANCH   2   3
ENDBRANCH   1   2
BRANCH   1  27
ATOM     27  C   UNL A   1      41.269  20.138  26.251  1.00  0.00     0.023 C 
BRANCH  27  28
ATOM     28  C   UNL A   1      40.461  21.256  26.895  1.00  0.00     0.116 C 
BRANCH  28  29
ATOM     29  N   UNL A   1      39.208  21.525  26.206  1.00  0.00    -0.352 N 
ATOM     30  C   UNL A   1      38.545  22.724  26.081  1.00  0.00     0.251 C 
ATOM     31  H   UNL A   1      38.781  20.750  25.774  1.00  0.00     0.163 HD
ATOM     32  O   UNL A   1      37.438  22.764  25.567  1.00  0.00    -0.269 OA
BRANCH  30  33
ATOM     33  C   UNL A   1      39.176  23.946  26.626  1.00  0.00     0.039 A 
ATOM     34  C   UNL A   1      39.847  24.802  25.750  1.00  0.00     0.014 A 
ATOM     35  C   UNL A   1      39.060  24.265  27.980  1.00  0.00     0.014 A 
ATOM     36  C   UNL A   1      40.341  26.018  26.223  1.00  0.00     0.010 A 
ATOM     37  C   UNL A   1      39.495  25.505  28.436  1.00  0.00     0.010 A 
ATOM     38  C   UNL A   1      40.137  26.395  27.562  1.00  0.00    -0.014 A 
BRANCH  38  39
ATOM     39  C   UNL A   1      40.594  27.715  28.068  1.00  0.00     0.031 A 
ATOM     40  C   UNL A   1      42.060  28.050  28.058  1.00  0.00     0.074 A 
ATOM     41  C   UNL A   1      39.699  28.580  28.583  1.00  0.00     0.049 A 
ATOM     42  N   UNL A   1      42.670  29.103  28.534  1.00  0.00    -0.248 NA
ATOM     43  C   UNL A   1      42.959  27.054  27.453  1.00  0.00     0.031 C 
ATOM     44  C   UNL A   1      38.254  28.351  28.673  1.00  0.00     0.029 A 
ATOM     45  N   UNL A   1      39.870  29.824  29.138  1.00  0.00    -0.354 N 
ATOM     46  C   UNL A   1      44.024  28.899  28.290  1.00  0.00     0.074 A 
ATOM     47  C   UNL A   1      44.147  27.590  27.684  1.00  0.00     0.031 C 
ATOM     48  C   UNL A   1      37.671  29.428  29.224  1.00  0.00     0.029 A 
ATOM     49  C   UNL A   1      38.699  30.404  29.570  1.00  0.00     0.049 A 
ATOM     50  H   UNL A   1      40.748  30.260  29.218  1.00  0.00     0.167 HD
ATOM     51  C   UNL A   1      45.065  29.735  28.523  1.00  0.00     0.034 A 
ATOM     52  C   UNL A   1      38.484  31.584  30.187  1.00  0.00     0.034 A 
ATOM     53  C   UNL A   1      44.925  31.040  29.122  1.00  0.00     0.049 A 
ATOM     54  C   UNL A   1      39.666  32.478  30.472  1.00  0.00     0.074 A 
ATOM     55  C   UNL A   1      45.909  31.976  29.389  1.00  0.00     0.029 A 
ATOM     56  N   UNL A   1      43.725  31.596  29.545  1.00  0.00    -0.354 N 
ATOM     57  N   UNL A   1      40.937  32.279  30.209  1.00  0.00    -0.248 NA
ATOM     58  C   UNL A   1      39.381  33.761  31.128  1.00  0.00     0.031 C 
ATOM     59  C   UNL A   1      45.311  33.074  30.018  1.00  0.00     0.029 A 
ATOM     60  C   UNL A   1      43.945  32.852  30.083  1.00  0.00     0.049 A 
ATOM     61  H   UNL A   1      42.845  31.160  29.471  1.00  0.00     0.167 HD
ATOM     62  C   UNL A   1      41.595  33.431  30.630  1.00  0.00     0.074 A 
ATOM     63  C   UNL A   1      40.581  34.323  31.151  1.00  0.00     0.031 C 
ATOM     64  C   UNL A   1      42.919  33.730  30.592  1.00  0.00     0.034 A 
BRANCH  51  65
ATOM     65  C   UNL A   1      46.440  29.253  28.138  1.00  0.00     0.023 A 
ATOM     66  C   UNL A   1      47.159  28.363  28.955  1.00  0.00     0.031 A 
ATOM     67  C   UNL A   1      47.050  29.695  26.950  1.00  0.00     0.131 A 
ATOM     68  C   UNL A   1      48.469  27.998  28.611  1.00  0.00     0.055 A 
ATOM     69  C   UNL A   1      48.324  29.266  26.575  1.00  0.00     0.041 A 
ATOM     70  F   UNL A   1      46.419  30.561  26.141  1.00  0.00    -0.206 F 
ATOM     71  C   UNL A   1      49.046  28.422  27.413  1.00  0.00     0.022 A 
BRANCH  68  72
ATOM     72  S   UNL A   1      49.449  27.058  29.813  1.00  0.00     0.124 S 
ATOM     73  O   UNL A   1      50.616  26.689  29.015  1.00  0.00    -0.237 OA
ATOM     74  O   UNL A   1      49.680  28.037  30.868  1.00  0.00    -0.237 OA
ATOM     75  O   UNL A   1      48.573  25.945  30.174  1.00  0.00    -0.744 OA
ENDBRANCH  68  72
ENDBRANCH  51  65
BRANCH  52  76
ATOM     76  C   UNL A   1      37.109  32.000  30.588  1.00  0.00     0.023 A 
ATOM     77  C   UNL A   1      36.250  32.622  29.669  1.00  0.00     0.031 A 
ATOM     78  C   UNL A   1      36.663  31.858  31.914  1.00  0.00     0.131 A 
ATOM     79  C   UNL A   1      35.018  33.140  30.101  1.00  0.00     0.055 A 
ATOM     80  C   UNL A   1      35.411  32.321  32.325  1.00  0.00     0.041 A 
ATOM     81  F   UNL A   1      37.442  31.267  32.835  1.00  0.00    -0.206 F 
ATOM     82  C   UNL A   1      34.588  32.983  31.420  1.00  0.00     0.022 A 
BRANCH  79  83
ATOM     83  S   UNL A   1      34.042  34.132  28.938  1.00  0.00     0.124 S 
ATOM     84  O   UNL A   1      35.045  35.057  28.421  1.00  0.00    -0.237 OA
ATOM     85  O   UNL A   1      33.563  33.117  28.004  1.00  0.00    -0.237 OA
ATOM     86  O   UNL A   1      33.014  34.734  29.783  1.00  0.00    -0.744 OA
ENDBRANCH  79  83
ENDBRANCH  52  76
BRANCH  64  87
ATOM     87  C   UNL A   1      43.325  35.101  31.069  1.00  0.00     0.023 A 
ATOM     88  C   UNL A   1      43.425  36.191  30.188  1.00  0.00     0.031 A 
ATOM     89  C   UNL A   1      43.632  35.313  32.425  1.00  0.00     0.131 A 
ATOM     90  C   UNL A   1      43.878  37.431  30.663  1.00  0.00     0.055 A 
ATOM     91  C   UNL A   1      44.025  36.563  32.902  1.00  0.00     0.041 A 
ATOM     92  F   UNL A   1      43.551  34.304  33.309  1.00  0.00    -0.206 F 
ATOM     93  C   UNL A   1      44.164  37.628  32.017  1.00  0.00     0.022 A 
BRANCH  90  94
ATOM     94  S   UNL A   1      44.170  38.766  29.469  1.00  0.00     0.124 S 
ATOM     95  O   UNL A   1      44.779  38.048  28.355  1.00  0.00    -0.237 OA
ATOM     96  O   UNL A   1      42.824  39.278  29.238  1.00  0.00    -0.237 OA
ATOM     97  O   UNL A   1      45.063  39.676  30.184  1.00  0.00    -0.744 OA
ENDBRANCH  90  94
ENDBRANCH  64  87
ENDBRANCH  38  39
ENDBRANCH  30  33
ENDBRANCH  28  29
ENDBRANCH  27  28
ENDBRANCH   1  27
TORSDOF 17
ENDMDL
