MODEL 1
REMARK VINA RESULT:     -13.2      0.000      0.000
REMARK SMILES O=C(NCCCCNC(=O)c1ccc2nc(-n3cccc3)sc2c1)c1ccc(-c2c3nc(c(-c4cc(S(=O)(=O)[O-])ccc4F)c4ccc([nH]4)c(-c4cc(S(=O)(=O)[O-])ccc4F)c4nc(c(-c5cc(S(=O)(=O)[O-])ccc5F)c5ccc2[nH]5)C=C4)C=C3)cc1
REMARK SMILES IDX 4 1 3 2 1 3 2 4 25 6 26 7 87 8 27 9 86 10 28 11 29 12 30 13
REMARK SMILES IDX 80 14 31 15 85 16 79 17 81 18 32 19 84 20 78 21 77 22 33 24
REMARK SMILES IDX 65 25 45 26 64 27 46 28 49 29 63 30 82 31 47 32 48 33 62 35
REMARK SMILES IDX 83 36 50 37 34 38 35 39 43 40 36 41 42 42 44 43 41 44 37 45
REMARK SMILES IDX 38 46 39 47 40 48 66 49 67 50 75 51 68 52 74 53 76 54 73 55
REMARK SMILES IDX 69 56 70 57 71 58 72 59 51 60 52 61 60 62 53 63 59 64 61 65
REMARK SMILES IDX 58 66 54 67 55 68 56 69 57 70 5 71 6 72 7 73 8 74 9 75 10 77
REMARK SMILES IDX 11 78 12 79 24 80 13 81 23 82 14 83 22 84 15 85 16 86 17 87
REMARK SMILES IDX 18 88 21 89 19 90 20 91
REMARK H PARENT 3 5 81 23 49 34 8 76
REMARK Flexibility Score: inf
ROOT
ATOM      1  C   UNL A   1      34.650  28.603  26.983  1.00  0.00     0.116 C 
ENDROOT
BRANCH   1   2
ATOM      2  N   UNL A   1      34.975  29.945  27.432  1.00  0.00    -0.352 N 
ATOM      3  O   UNL A   1      36.111  31.754  28.061  1.00  0.00    -0.269 OA
ATOM      4  C   UNL A   1      36.136  30.538  27.865  1.00  0.00     0.251 C 
ATOM      5  H   UNL A   1      34.203  30.557  27.425  1.00  0.00     0.163 HD
BRANCH   4   6
ATOM      6  C   UNL A   1      37.376  29.778  28.170  1.00  0.00     0.039 A 
ATOM      7  C   UNL A   1      38.538  29.859  27.403  1.00  0.00     0.014 A 
ATOM      8  C   UNL A   1      37.367  28.943  29.301  1.00  0.00     0.014 A 
ATOM      9  C   UNL A   1      39.621  29.036  27.676  1.00  0.00     0.010 A 
ATOM     10  C   UNL A   1      38.475  28.150  29.615  1.00  0.00     0.010 A 
ATOM     11  C   UNL A   1      39.599  28.187  28.786  1.00  0.00    -0.014 A 
BRANCH  11  12
ATOM     12  C   UNL A   1      40.891  27.553  29.143  1.00  0.00     0.031 A 
ATOM     13  C   UNL A   1      41.203  26.377  28.197  1.00  0.00     0.074 A 
ATOM     14  C   UNL A   1      41.522  27.979  30.279  1.00  0.00     0.049 A 
ATOM     15  N   UNL A   1      41.714  25.209  28.445  1.00  0.00    -0.248 NA
ATOM     16  C   UNL A   1      40.729  26.462  26.786  1.00  0.00     0.031 C 
ATOM     17  C   UNL A   1      41.096  29.131  31.106  1.00  0.00     0.029 A 
ATOM     18  N   UNL A   1      42.627  27.537  30.979  1.00  0.00    -0.354 N 
ATOM     19  C   UNL A   1      41.860  24.541  27.204  1.00  0.00     0.074 A 
ATOM     20  C   UNL A   1      41.072  25.281  26.267  1.00  0.00     0.031 C 
ATOM     21  C   UNL A   1      41.873  29.253  32.207  1.00  0.00     0.029 A 
ATOM     22  C   UNL A   1      42.884  28.211  32.208  1.00  0.00     0.049 A 
ATOM     23  H   UNL A   1      43.200  26.806  30.652  1.00  0.00     0.167 HD
ATOM     24  C   UNL A   1      42.759  23.531  26.989  1.00  0.00     0.034 A 
ATOM     25  C   UNL A   1      43.819  27.933  33.172  1.00  0.00     0.034 A 
ATOM     26  C   UNL A   1      43.463  23.255  28.199  1.00  0.00     0.049 A 
ATOM     27  C   UNL A   1      44.616  26.826  32.624  1.00  0.00     0.074 A 
ATOM     28  C   UNL A   1      43.126  22.671  29.390  1.00  0.00     0.029 A 
ATOM     29  N   UNL A   1      44.700  23.845  28.333  1.00  0.00    -0.354 N 
ATOM     30  N   UNL A   1      45.503  26.946  31.684  1.00  0.00    -0.248 NA
ATOM     31  C   UNL A   1      44.397  25.470  33.145  1.00  0.00     0.031 C 
ATOM     32  C   UNL A   1      43.964  23.314  30.327  1.00  0.00     0.029 A 
ATOM     33  C   UNL A   1      44.847  24.170  29.654  1.00  0.00     0.049 A 
ATOM     34  H   UNL A   1      45.354  24.002  27.614  1.00  0.00     0.167 HD
ATOM     35  C   UNL A   1      45.711  25.647  31.299  1.00  0.00     0.074 A 
ATOM     36  C   UNL A   1      45.289  24.815  32.405  1.00  0.00     0.031 C 
ATOM     37  C   UNL A   1      45.651  25.332  29.981  1.00  0.00     0.034 A 
BRANCH  24  38
ATOM     38  C   UNL A   1      43.329  22.899  25.731  1.00  0.00     0.023 A 
ATOM     39  C   UNL A   1      43.418  21.481  25.734  1.00  0.00     0.031 A 
ATOM     40  C   UNL A   1      44.037  23.547  24.711  1.00  0.00     0.131 A 
ATOM     41  C   UNL A   1      44.296  20.788  24.891  1.00  0.00     0.055 A 
ATOM     42  C   UNL A   1      44.854  22.844  23.810  1.00  0.00     0.041 A 
ATOM     43  F   UNL A   1      44.037  24.878  24.581  1.00  0.00    -0.206 F 
ATOM     44  C   UNL A   1      45.025  21.466  23.924  1.00  0.00     0.022 A 
BRANCH  41  45
ATOM     45  S   UNL A   1      44.614  19.033  25.239  1.00  0.00     0.124 S 
ATOM     46  O   UNL A   1      45.960  19.069  25.800  1.00  0.00    -0.237 OA
ATOM     47  O   UNL A   1      43.539  18.711  26.173  1.00  0.00    -0.237 OA
ATOM     48  O   UNL A   1      44.504  18.403  23.925  1.00  0.00    -0.744 OA
ENDBRANCH  41  45
ENDBRANCH  24  38
BRANCH  25  49
ATOM     49  C   UNL A   1      44.211  28.371  34.577  1.00  0.00     0.023 A 
ATOM     50  C   UNL A   1      44.268  27.559  35.722  1.00  0.00     0.031 A 
ATOM     51  C   UNL A   1      44.619  29.729  34.797  1.00  0.00     0.131 A 
ATOM     52  C   UNL A   1      44.766  28.083  36.952  1.00  0.00     0.055 A 
ATOM     53  C   UNL A   1      45.182  30.213  35.978  1.00  0.00     0.041 A 
ATOM     54  F   UNL A   1      44.495  30.677  33.859  1.00  0.00    -0.206 F 
ATOM     55  C   UNL A   1      45.269  29.382  37.065  1.00  0.00     0.022 A 
BRANCH  52  56
ATOM     56  S   UNL A   1      44.796  27.089  38.473  1.00  0.00     0.124 S 
ATOM     57  O   UNL A   1      43.503  26.415  38.417  1.00  0.00    -0.237 OA
ATOM     58  O   UNL A   1      45.969  26.242  38.294  1.00  0.00    -0.237 OA
ATOM     59  O   UNL A   1      44.924  28.102  39.521  1.00  0.00    -0.744 OA
ENDBRANCH  52  56
ENDBRANCH  25  49
BRANCH  37  60
ATOM     60  C   UNL A   1      45.994  26.494  29.047  1.00  0.00     0.023 A 
ATOM     61  C   UNL A   1      44.983  27.335  28.540  1.00  0.00     0.031 A 
ATOM     62  C   UNL A   1      47.285  26.715  28.534  1.00  0.00     0.131 A 
ATOM     63  C   UNL A   1      45.274  28.308  27.561  1.00  0.00     0.055 A 
ATOM     64  C   UNL A   1      47.581  27.688  27.573  1.00  0.00     0.041 A 
ATOM     65  F   UNL A   1      48.313  25.973  28.935  1.00  0.00    -0.206 F 
ATOM     66  C   UNL A   1      46.570  28.489  27.075  1.00  0.00     0.022 A 
BRANCH  63  67
ATOM     67  S   UNL A   1      43.942  29.362  26.923  1.00  0.00     0.124 S 
ATOM     68  O   UNL A   1      43.237  28.470  26.009  1.00  0.00    -0.237 OA
ATOM     69  O   UNL A   1      43.220  29.733  28.137  1.00  0.00    -0.237 OA
ATOM     70  O   UNL A   1      44.656  30.464  26.277  1.00  0.00    -0.744 OA
ENDBRANCH  63  67
ENDBRANCH  37  60
ENDBRANCH  11  12
ENDBRANCH   4   6
ENDBRANCH   1   2
BRANCH   1  71
ATOM     71  C   UNL A   1      33.160  28.276  26.880  1.00  0.00     0.023 C 
BRANCH  71  72
ATOM     72  C   UNL A   1      32.498  28.655  25.556  1.00  0.00     0.023 C 
BRANCH  72  73
ATOM     73  C   UNL A   1      32.120  27.479  24.664  1.00  0.00     0.116 C 
BRANCH  73  74
ATOM     74  N   UNL A   1      30.694  27.433  24.384  1.00  0.00    -0.352 N 
ATOM     75  C   UNL A   1      29.868  26.339  24.301  1.00  0.00     0.251 C 
ATOM     76  H   UNL A   1      30.262  28.304  24.232  1.00  0.00     0.163 HD
ATOM     77  O   UNL A   1      28.702  26.442  23.980  1.00  0.00    -0.269 OA
BRANCH  75  78
ATOM     78  C   UNL A   1      30.431  25.013  24.613  1.00  0.00     0.041 A 
ATOM     79  C   UNL A   1      30.543  24.604  25.942  1.00  0.00     0.016 A 
ATOM     80  C   UNL A   1      30.842  24.205  23.549  1.00  0.00     0.035 A 
ATOM     81  C   UNL A   1      31.074  23.347  26.238  1.00  0.00     0.031 A 
ATOM     82  C   UNL A   1      31.407  22.963  23.870  1.00  0.00     0.057 A 
ATOM     83  C   UNL A   1      31.499  22.504  25.189  1.00  0.00     0.084 A 
ATOM     84  S   UNL A   1      32.105  21.788  22.821  1.00  0.00    -0.096 S 
ATOM     85  N   UNL A   1      32.005  21.225  25.337  1.00  0.00    -0.219 NA
ATOM     86  C   UNL A   1      32.382  20.779  24.160  1.00  0.00     0.194 A 
BRANCH  86  87
ATOM     87  N   UNL A   1      32.944  19.510  23.972  1.00  0.00    -0.300 N 
ATOM     88  C   UNL A   1      32.511  18.481  23.150  1.00  0.00     0.093 A 
ATOM     89  C   UNL A   1      34.091  19.056  24.607  1.00  0.00     0.093 A 
ATOM     90  C   UNL A   1      33.360  17.404  23.281  1.00  0.00     0.020 A 
ATOM     91  C   UNL A   1      34.344  17.757  24.225  1.00  0.00     0.020 A 
ENDBRANCH  86  87
ENDBRANCH  75  78
ENDBRANCH  73  74
ENDBRANCH  72  73
ENDBRANCH  71  72
ENDBRANCH   1  71
TORSDOF 15
ENDMDL
MODEL 2
REMARK VINA RESULT:     -13.1      4.696     10.445
REMARK SMILES O=C(NCCCCNC(=O)c1ccc2nc(-n3cccc3)sc2c1)c1ccc(-c2c3nc(c(-c4cc(S(=O)(=O)[O-])ccc4F)c4ccc([nH]4)c(-c4cc(S(=O)(=O)[O-])ccc4F)c4nc(c(-c5cc(S(=O)(=O)[O-])ccc5F)c5ccc2[nH]5)C=C4)C=C3)cc1
REMARK SMILES IDX 4 1 3 2 1 3 2 4 25 6 26 7 87 8 27 9 86 10 28 11 29 12 30 13
REMARK SMILES IDX 80 14 31 15 85 16 79 17 81 18 32 19 84 20 78 21 77 22 33 24
REMARK SMILES IDX 65 25 45 26 64 27 46 28 49 29 63 30 82 31 47 32 48 33 62 35
REMARK SMILES IDX 83 36 50 37 34 38 35 39 43 40 36 41 42 42 44 43 41 44 37 45
REMARK SMILES IDX 38 46 39 47 40 48 66 49 67 50 75 51 68 52 74 53 76 54 73 55
REMARK SMILES IDX 69 56 70 57 71 58 72 59 51 60 52 61 60 62 53 63 59 64 61 65
REMARK SMILES IDX 58 66 54 67 55 68 56 69 57 70 5 71 6 72 7 73 8 74 9 75 10 77
REMARK SMILES IDX 11 78 12 79 24 80 13 81 23 82 14 83 22 84 15 85 16 86 17 87
REMARK SMILES IDX 18 88 21 89 19 90 20 91
REMARK H PARENT 3 5 81 23 49 34 8 76
REMARK Flexibility Score: inf
ROOT
ATOM      1  C   UNL A   1      37.429  24.057  26.119  1.00  0.00     0.116 C 
ENDROOT
BRANCH   1   2
ATOM      2  N   UNL A   1      38.788  23.552  26.187  1.00  0.00    -0.352 N 
ATOM      3  O   UNL A   1      40.922  23.279  26.758  1.00  0.00    -0.269 OA
ATOM      4  C   UNL A   1      39.937  24.018  26.778  1.00  0.00     0.251 C 
ATOM      5  H   UNL A   1      38.912  22.699  25.711  1.00  0.00     0.163 HD
BRANCH   4   6
ATOM      6  C   UNL A   1      40.060  25.378  27.365  1.00  0.00     0.039 A 
ATOM      7  C   UNL A   1      39.929  25.644  28.727  1.00  0.00     0.014 A 
ATOM      8  C   UNL A   1      40.333  26.443  26.488  1.00  0.00     0.014 A 
ATOM      9  C   UNL A   1      39.939  26.951  29.193  1.00  0.00     0.010 A 
ATOM     10  C   UNL A   1      40.400  27.758  26.959  1.00  0.00     0.010 A 
ATOM     11  C   UNL A   1      40.185  28.012  28.316  1.00  0.00    -0.014 A 
BRANCH  11  12
ATOM     12  C   UNL A   1      40.441  29.329  28.945  1.00  0.00     0.031 A 
ATOM     13  C   UNL A   1      39.121  29.982  29.401  1.00  0.00     0.074 A 
ATOM     14  C   UNL A   1      41.717  29.819  28.911  1.00  0.00     0.049 A 
ATOM     15  N   UNL A   1      38.728  31.218  29.338  1.00  0.00    -0.248 NA
ATOM     16  C   UNL A   1      38.013  29.094  29.853  1.00  0.00     0.031 C 
ATOM     17  C   UNL A   1      42.900  29.073  28.427  1.00  0.00     0.029 A 
ATOM     18  N   UNL A   1      42.283  31.031  29.254  1.00  0.00    -0.354 N 
ATOM     19  C   UNL A   1      37.462  31.290  29.971  1.00  0.00     0.074 A 
ATOM     20  C   UNL A   1      37.008  29.939  30.090  1.00  0.00     0.031 C 
ATOM     21  C   UNL A   1      44.007  29.852  28.444  1.00  0.00     0.029 A 
ATOM     22  C   UNL A   1      43.666  31.172  28.944  1.00  0.00     0.049 A 
ATOM     23  H   UNL A   1      41.766  31.750  29.684  1.00  0.00     0.167 HD
ATOM     24  C   UNL A   1      36.952  32.438  30.515  1.00  0.00     0.034 A 
ATOM     25  C   UNL A   1      44.472  32.276  29.050  1.00  0.00     0.034 A 
ATOM     26  C   UNL A   1      37.866  33.513  30.303  1.00  0.00     0.049 A 
ATOM     27  C   UNL A   1      43.630  33.305  29.678  1.00  0.00     0.074 A 
ATOM     28  C   UNL A   1      38.258  34.233  29.208  1.00  0.00     0.029 A 
ATOM     29  N   UNL A   1      38.706  33.814  31.351  1.00  0.00    -0.354 N 
ATOM     30  N   UNL A   1      43.297  33.328  30.931  1.00  0.00    -0.248 NA
ATOM     31  C   UNL A   1      43.095  34.388  28.841  1.00  0.00     0.031 C 
ATOM     32  C   UNL A   1      39.589  34.599  29.506  1.00  0.00     0.029 A 
ATOM     33  C   UNL A   1      39.905  34.187  30.809  1.00  0.00     0.049 A 
ATOM     34  H   UNL A   1      38.486  33.770  32.310  1.00  0.00     0.167 HD
ATOM     35  C   UNL A   1      42.274  34.240  30.955  1.00  0.00     0.074 A 
ATOM     36  C   UNL A   1      42.425  35.061  29.774  1.00  0.00     0.031 C 
ATOM     37  C   UNL A   1      41.110  33.908  31.568  1.00  0.00     0.034 A 
BRANCH  24  38
ATOM     38  C   UNL A   1      35.825  32.710  31.496  1.00  0.00     0.023 A 
ATOM     39  C   UNL A   1      34.778  33.547  31.025  1.00  0.00     0.031 A 
ATOM     40  C   UNL A   1      35.840  32.481  32.878  1.00  0.00     0.131 A 
ATOM     41  C   UNL A   1      33.931  34.244  31.897  1.00  0.00     0.055 A 
ATOM     42  C   UNL A   1      34.936  33.115  33.747  1.00  0.00     0.041 A 
ATOM     43  F   UNL A   1      36.762  31.707  33.461  1.00  0.00    -0.206 F 
ATOM     44  C   UNL A   1      34.007  34.035  33.266  1.00  0.00     0.022 A 
BRANCH  41  45
ATOM     45  S   UNL A   1      32.896  35.570  31.210  1.00  0.00     0.124 S 
ATOM     46  O   UNL A   1      31.746  35.559  32.108  1.00  0.00    -0.237 OA
ATOM     47  O   UNL A   1      33.779  36.728  31.315  1.00  0.00    -0.237 OA
ATOM     48  O   UNL A   1      32.627  35.117  29.847  1.00  0.00    -0.744 OA
ENDBRANCH  41  45
ENDBRANCH  24  38
BRANCH  25  49
ATOM     49  C   UNL A   1      45.878  32.734  28.682  1.00  0.00     0.023 A 
ATOM     50  C   UNL A   1      46.248  33.458  27.536  1.00  0.00     0.031 A 
ATOM     51  C   UNL A   1      46.959  32.467  29.586  1.00  0.00     0.131 A 
ATOM     52  C   UNL A   1      47.588  33.919  27.379  1.00  0.00     0.055 A 
ATOM     53  C   UNL A   1      48.246  32.990  29.468  1.00  0.00     0.041 A 
ATOM     54  F   UNL A   1      46.822  31.671  30.654  1.00  0.00    -0.206 F 
ATOM     55  C   UNL A   1      48.566  33.735  28.361  1.00  0.00     0.022 A 
BRANCH  52  56
ATOM     56  S   UNL A   1      48.128  34.801  25.885  1.00  0.00     0.124 S 
ATOM     57  O   UNL A   1      48.272  36.167  26.377  1.00  0.00    -0.237 OA
ATOM     58  O   UNL A   1      49.363  34.117  25.521  1.00  0.00    -0.237 OA
ATOM     59  O   UNL A   1      47.013  34.589  24.961  1.00  0.00    -0.744 OA
ENDBRANCH  52  56
ENDBRANCH  25  49
BRANCH  37  60
ATOM     60  C   UNL A   1      41.265  32.870  32.681  1.00  0.00     0.023 A 
ATOM     61  C   UNL A   1      40.853  31.537  32.486  1.00  0.00     0.031 A 
ATOM     62  C   UNL A   1      41.688  33.194  33.983  1.00  0.00     0.131 A 
ATOM     63  C   UNL A   1      40.850  30.616  33.555  1.00  0.00     0.055 A 
ATOM     64  C   UNL A   1      41.701  32.281  35.043  1.00  0.00     0.041 A 
ATOM     65  F   UNL A   1      42.090  34.426  34.281  1.00  0.00    -0.206 F 
ATOM     66  C   UNL A   1      41.274  30.982  34.834  1.00  0.00     0.022 A 
BRANCH  63  67
ATOM     67  S   UNL A   1      40.299  28.911  33.268  1.00  0.00     0.124 S 
ATOM     68  O   UNL A   1      38.856  29.062  33.114  1.00  0.00    -0.237 OA
ATOM     69  O   UNL A   1      41.034  28.538  32.062  1.00  0.00    -0.237 OA
ATOM     70  O   UNL A   1      40.718  28.207  34.480  1.00  0.00    -0.744 OA
ENDBRANCH  63  67
ENDBRANCH  37  60
ENDBRANCH  11  12
ENDBRANCH   4   6
ENDBRANCH   1   2
BRANCH   1  71
ATOM     71  C   UNL A   1      36.363  23.050  25.686  1.00  0.00     0.023 C 
BRANCH  71  72
ATOM     72  C   UNL A   1      35.421  23.530  24.583  1.00  0.00     0.023 C 
BRANCH  72  73
ATOM     73  C   UNL A   1      34.396  24.571  25.018  1.00  0.00     0.116 C 
BRANCH  73  74
ATOM     74  N   UNL A   1      33.404  24.022  25.929  1.00  0.00    -0.352 N 
ATOM     75  C   UNL A   1      32.271  24.616  26.429  1.00  0.00     0.251 C 
ATOM     76  H   UNL A   1      33.567  23.098  26.230  1.00  0.00     0.163 HD
ATOM     77  O   UNL A   1      31.568  24.064  27.248  1.00  0.00    -0.269 OA
BRANCH  75  78
ATOM     78  C   UNL A   1      31.917  25.962  25.943  1.00  0.00     0.041 A 
ATOM     79  C   UNL A   1      32.546  27.082  26.486  1.00  0.00     0.016 A 
ATOM     80  C   UNL A   1      30.945  26.068  24.944  1.00  0.00     0.035 A 
ATOM     81  C   UNL A   1      32.213  28.357  26.024  1.00  0.00     0.031 A 
ATOM     82  C   UNL A   1      30.598  27.358  24.522  1.00  0.00     0.057 A 
ATOM     83  C   UNL A   1      31.236  28.501  25.016  1.00  0.00     0.084 A 
ATOM     84  S   UNL A   1      29.379  27.840  23.403  1.00  0.00    -0.096 S 
ATOM     85  N   UNL A   1      30.841  29.696  24.442  1.00  0.00    -0.219 NA
ATOM     86  C   UNL A   1      29.850  29.459  23.611  1.00  0.00     0.194 A 
BRANCH  86  87
ATOM     87  N   UNL A   1      29.221  30.469  22.872  1.00  0.00    -0.300 N 
ATOM     88  C   UNL A   1      28.618  31.632  23.328  1.00  0.00     0.093 A 
ATOM     89  C   UNL A   1      29.099  30.473  21.490  1.00  0.00     0.093 A 
ATOM     90  C   UNL A   1      28.118  32.337  22.255  1.00  0.00     0.020 A 
ATOM     91  C   UNL A   1      28.398  31.590  21.093  1.00  0.00     0.020 A 
ENDBRANCH  86  87
ENDBRANCH  75  78
ENDBRANCH  73  74
ENDBRANCH  72  73
ENDBRANCH  71  72
ENDBRANCH   1  71
TORSDOF 15
ENDMDL
MODEL 3
REMARK VINA RESULT:     -13.0      4.524     10.244
REMARK SMILES O=C(NCCCCNC(=O)c1ccc2nc(-n3cccc3)sc2c1)c1ccc(-c2c3nc(c(-c4cc(S(=O)(=O)[O-])ccc4F)c4ccc([nH]4)c(-c4cc(S(=O)(=O)[O-])ccc4F)c4nc(c(-c5cc(S(=O)(=O)[O-])ccc5F)c5ccc2[nH]5)C=C4)C=C3)cc1
REMARK SMILES IDX 4 1 3 2 1 3 2 4 25 6 26 7 87 8 27 9 86 10 28 11 29 12 30 13
REMARK SMILES IDX 80 14 31 15 85 16 79 17 81 18 32 19 84 20 78 21 77 22 33 24
REMARK SMILES IDX 65 25 45 26 64 27 46 28 49 29 63 30 82 31 47 32 48 33 62 35
REMARK SMILES IDX 83 36 50 37 34 38 35 39 43 40 36 41 42 42 44 43 41 44 37 45
REMARK SMILES IDX 38 46 39 47 40 48 66 49 67 50 75 51 68 52 74 53 76 54 73 55
REMARK SMILES IDX 69 56 70 57 71 58 72 59 51 60 52 61 60 62 53 63 59 64 61 65
REMARK SMILES IDX 58 66 54 67 55 68 56 69 57 70 5 71 6 72 7 73 8 74 9 75 10 77
REMARK SMILES IDX 11 78 12 79 24 80 13 81 23 82 14 83 22 84 15 85 16 86 17 87
REMARK SMILES IDX 18 88 21 89 19 90 20 91
REMARK H PARENT 3 5 81 23 49 34 8 76
REMARK Flexibility Score: inf
ROOT
ATOM      1  C   UNL A   1      37.222  24.021  26.053  1.00  0.00     0.116 C 
ENDROOT
BRANCH   1   2
ATOM      2  N   UNL A   1      38.555  23.470  26.216  1.00  0.00    -0.352 N 
ATOM      3  O   UNL A   1      40.639  23.135  26.926  1.00  0.00    -0.269 OA
ATOM      4  C   UNL A   1      39.682  23.908  26.868  1.00  0.00     0.251 C 
ATOM      5  H   UNL A   1      38.677  22.603  25.766  1.00  0.00     0.163 HD
BRANCH   4   6
ATOM      6  C   UNL A   1      39.818  25.276  27.434  1.00  0.00     0.039 A 
ATOM      7  C   UNL A   1      39.666  25.569  28.787  1.00  0.00     0.014 A 
ATOM      8  C   UNL A   1      40.127  26.321  26.544  1.00  0.00     0.014 A 
ATOM      9  C   UNL A   1      39.692  26.884  29.231  1.00  0.00     0.010 A 
ATOM     10  C   UNL A   1      40.209  27.642  26.992  1.00  0.00     0.010 A 
ATOM     11  C   UNL A   1      39.973  27.924  28.340  1.00  0.00    -0.014 A 
BRANCH  11  12
ATOM     12  C   UNL A   1      40.241  29.247  28.951  1.00  0.00     0.031 A 
ATOM     13  C   UNL A   1      38.926  29.924  29.385  1.00  0.00     0.074 A 
ATOM     14  C   UNL A   1      41.523  29.720  28.921  1.00  0.00     0.049 A 
ATOM     15  N   UNL A   1      38.550  31.165  29.300  1.00  0.00    -0.248 NA
ATOM     16  C   UNL A   1      37.802  29.058  29.841  1.00  0.00     0.031 C 
ATOM     17  C   UNL A   1      42.701  28.951  28.459  1.00  0.00     0.029 A 
ATOM     18  N   UNL A   1      42.102  30.930  29.250  1.00  0.00    -0.354 N 
ATOM     19  C   UNL A   1      37.280  31.263  29.920  1.00  0.00     0.074 A 
ATOM     20  C   UNL A   1      36.807  29.920  30.056  1.00  0.00     0.031 C 
ATOM     21  C   UNL A   1      43.817  29.716  28.473  1.00  0.00     0.029 A 
ATOM     22  C   UNL A   1      43.490  31.048  28.950  1.00  0.00     0.049 A 
ATOM     23  H   UNL A   1      41.591  31.663  29.664  1.00  0.00     0.167 HD
ATOM     24  C   UNL A   1      36.780  32.426  30.441  1.00  0.00     0.034 A 
ATOM     25  C   UNL A   1      44.309  32.143  29.046  1.00  0.00     0.034 A 
ATOM     26  C   UNL A   1      37.709  33.485  30.221  1.00  0.00     0.049 A 
ATOM     27  C   UNL A   1      43.476  33.193  29.650  1.00  0.00     0.074 A 
ATOM     28  C   UNL A   1      38.120  34.183  29.118  1.00  0.00     0.029 A 
ATOM     29  N   UNL A   1      38.545  33.792  31.272  1.00  0.00    -0.354 N 
ATOM     30  N   UNL A   1      43.133  33.239  30.900  1.00  0.00    -0.248 NA
ATOM     31  C   UNL A   1      42.962  34.269  28.792  1.00  0.00     0.031 C 
ATOM     32  C   UNL A   1      39.454  34.536  29.422  1.00  0.00     0.029 A 
ATOM     33  C   UNL A   1      39.753  34.140  30.734  1.00  0.00     0.049 A 
ATOM     34  H   UNL A   1      38.315  33.765  32.229  1.00  0.00     0.167 HD
ATOM     35  C   UNL A   1      42.121  34.165  30.900  1.00  0.00     0.074 A 
ATOM     36  C   UNL A   1      42.293  34.965  29.708  1.00  0.00     0.031 C 
ATOM     37  C   UNL A   1      40.947  33.858  31.508  1.00  0.00     0.034 A 
BRANCH  24  38
ATOM     38  C   UNL A   1      35.648  32.728  31.409  1.00  0.00     0.023 A 
ATOM     39  C   UNL A   1      34.666  33.647  30.950  1.00  0.00     0.031 A 
ATOM     40  C   UNL A   1      35.616  32.443  32.780  1.00  0.00     0.131 A 
ATOM     41  C   UNL A   1      33.843  34.359  31.831  1.00  0.00     0.055 A 
ATOM     42  C   UNL A   1      34.731  33.097  33.655  1.00  0.00     0.041 A 
ATOM     43  F   UNL A   1      36.474  31.591  33.350  1.00  0.00    -0.206 F 
ATOM     44  C   UNL A   1      33.873  34.092  33.192  1.00  0.00     0.022 A 
BRANCH  41  45
ATOM     45  S   UNL A   1      32.908  35.773  31.178  1.00  0.00     0.124 S 
ATOM     46  O   UNL A   1      33.783  36.896  31.498  1.00  0.00    -0.237 OA
ATOM     47  O   UNL A   1      32.796  35.434  29.762  1.00  0.00    -0.237 OA
ATOM     48  O   UNL A   1      31.655  35.726  31.928  1.00  0.00    -0.744 OA
ENDBRANCH  41  45
ENDBRANCH  24  38
BRANCH  25  49
ATOM     49  C   UNL A   1      45.724  32.577  28.682  1.00  0.00     0.023 A 
ATOM     50  C   UNL A   1      46.106  33.325  27.556  1.00  0.00     0.031 A 
ATOM     51  C   UNL A   1      46.803  32.256  29.571  1.00  0.00     0.131 A 
ATOM     52  C   UNL A   1      47.457  33.758  27.405  1.00  0.00     0.055 A 
ATOM     53  C   UNL A   1      48.102  32.751  29.462  1.00  0.00     0.041 A 
ATOM     54  F   UNL A   1      46.652  31.433  30.616  1.00  0.00    -0.206 F 
ATOM     55  C   UNL A   1      48.434  33.520  28.376  1.00  0.00     0.022 A 
BRANCH  52  56
ATOM     56  S   UNL A   1      48.010  34.670  25.934  1.00  0.00     0.124 S 
ATOM     57  O   UNL A   1      46.851  34.555  25.056  1.00  0.00    -0.237 OA
ATOM     58  O   UNL A   1      48.290  36.003  26.455  1.00  0.00    -0.237 OA
ATOM     59  O   UNL A   1      49.190  33.917  25.508  1.00  0.00    -0.744 OA
ENDBRANCH  52  56
ENDBRANCH  25  49
BRANCH  37  60
ATOM     60  C   UNL A   1      41.079  32.836  32.639  1.00  0.00     0.023 A 
ATOM     61  C   UNL A   1      40.728  31.486  32.435  1.00  0.00     0.031 A 
ATOM     62  C   UNL A   1      41.419  33.186  33.958  1.00  0.00     0.131 A 
ATOM     63  C   UNL A   1      40.700  30.575  33.512  1.00  0.00     0.055 A 
ATOM     64  C   UNL A   1      41.407  32.283  35.026  1.00  0.00     0.041 A 
ATOM     65  F   UNL A   1      41.759  34.434  34.265  1.00  0.00    -0.206 F 
ATOM     66  C   UNL A   1      41.040  30.967  34.808  1.00  0.00     0.022 A 
BRANCH  63  67
ATOM     67  S   UNL A   1      40.228  28.849  33.213  1.00  0.00     0.124 S 
ATOM     68  O   UNL A   1      38.776  28.928  33.100  1.00  0.00    -0.237 OA
ATOM     69  O   UNL A   1      40.947  28.531  31.982  1.00  0.00    -0.237 OA
ATOM     70  O   UNL A   1      40.716  28.149  34.402  1.00  0.00    -0.744 OA
ENDBRANCH  63  67
ENDBRANCH  37  60
ENDBRANCH  11  12
ENDBRANCH   4   6
ENDBRANCH   1   2
BRANCH   1  71
ATOM     71  C   UNL A   1      36.277  23.228  25.149  1.00  0.00     0.023 C 
BRANCH  71  72
ATOM     72  C   UNL A   1      35.987  21.799  25.602  1.00  0.00     0.023 C 
BRANCH  72  73
ATOM     73  C   UNL A   1      34.811  21.653  26.561  1.00  0.00     0.116 C 
BRANCH  73  74
ATOM     74  N   UNL A   1      33.918  20.571  26.179  1.00  0.00    -0.352 N 
ATOM     75  C   UNL A   1      32.812  20.614  25.365  1.00  0.00     0.251 C 
ATOM     76  H   UNL A   1      34.134  19.687  26.555  1.00  0.00     0.163 HD
ATOM     77  O   UNL A   1      32.107  19.641  25.193  1.00  0.00    -0.269 OA
BRANCH  75  78
ATOM     78  C   UNL A   1      32.490  21.884  24.692  1.00  0.00     0.041 A 
ATOM     79  C   UNL A   1      32.957  22.122  23.399  1.00  0.00     0.016 A 
ATOM     80  C   UNL A   1      31.719  22.822  25.387  1.00  0.00     0.035 A 
ATOM     81  C   UNL A   1      32.649  23.324  22.760  1.00  0.00     0.031 A 
ATOM     82  C   UNL A   1      31.455  24.038  24.743  1.00  0.00     0.057 A 
ATOM     83  C   UNL A   1      31.874  24.293  23.432  1.00  0.00     0.084 A 
ATOM     84  S   UNL A   1      30.641  25.430  25.350  1.00  0.00    -0.096 S 
ATOM     85  N   UNL A   1      31.465  25.505  22.905  1.00  0.00    -0.219 NA
ATOM     86  C   UNL A   1      30.843  26.186  23.841  1.00  0.00     0.194 A 
BRANCH  86  87
ATOM     87  N   UNL A   1      30.310  27.463  23.625  1.00  0.00    -0.300 N 
ATOM     88  C   UNL A   1      30.913  28.698  23.805  1.00  0.00     0.093 A 
ATOM     89  C   UNL A   1      29.025  27.712  23.162  1.00  0.00     0.093 A 
ATOM     90  C   UNL A   1      30.020  29.695  23.478  1.00  0.00     0.020 A 
ATOM     91  C   UNL A   1      28.815  29.071  23.098  1.00  0.00     0.020 A 
ENDBRANCH  86  87
ENDBRANCH  75  78
ENDBRANCH  73  74
ENDBRANCH  72  73
ENDBRANCH  71  72
ENDBRANCH   1  71
TORSDOF 15
ENDMDL
