MODEL 1
REMARK VINA RESULT:     -12.3      0.000      0.000
REMARK SMILES O=C(NCCCCNC(=O)c1cccnc1C(=O)Nc1ccc([N+](=O)[O-])cc1)c1ccc(-c2c3nc(c(-c4cc(S(=O)(=O)[O-])ccc4F)c4ccc([nH]4)c(-c4cc(S(=O)(=O)[O-])ccc4F)c4nc(c(-c5cc(S(=O)(=O)[O-])ccc5F)c5ccc2[nH]5)C=C4)C=C3)cc1
REMARK SMILES IDX 5 1 4 2 3 3 1 4 2 5 29 7 30 8 91 9 31 10 90 11 32 12 33 13
REMARK SMILES IDX 34 14 84 15 35 16 89 17 83 18 85 19 36 20 88 21 82 22 81 23
REMARK SMILES IDX 37 25 69 26 49 27 68 28 50 29 53 30 67 31 86 32 51 33 52 34
REMARK SMILES IDX 66 36 87 37 54 38 38 39 39 40 47 41 40 42 46 43 48 44 45 45
REMARK SMILES IDX 41 46 42 47 43 48 44 49 70 50 71 51 79 52 72 53 78 54 80 55
REMARK SMILES IDX 77 56 73 57 74 58 75 59 76 60 55 61 56 62 64 63 57 64 63 65
REMARK SMILES IDX 65 66 62 67 58 68 59 69 60 70 61 71 6 72 7 73 8 74 9 75
REMARK SMILES IDX 10 77 11 78 12 79 16 80 13 81 15 82 14 83 17 84 18 85 19 86
REMARK SMILES IDX 20 88 21 89 28 90 22 91 27 92 23 93 24 94 25 95 26 96
REMARK H PARENT 3 6 85 24 53 35 8 76 19 87
REMARK Flexibility Score: inf
ROOT
ATOM      1  C   UNL A   1      31.351  31.762  26.465  1.00  0.00     0.023 C 
ENDROOT
BRANCH   1   2
ATOM      2  C   UNL A   1      32.654  32.351  27.000  1.00  0.00     0.116 C 
BRANCH   2   3
ATOM      3  N   UNL A   1      32.504  33.707  27.491  1.00  0.00    -0.352 N 
ATOM      4  O   UNL A   1      32.843  35.470  28.839  1.00  0.00    -0.269 OA
ATOM      5  C   UNL A   1      33.217  34.355  28.473  1.00  0.00     0.251 C 
ATOM      6  H   UNL A   1      31.793  34.237  27.062  1.00  0.00     0.163 HD
BRANCH   5   7
ATOM      7  C   UNL A   1      34.404  33.728  29.113  1.00  0.00     0.039 A 
ATOM      8  C   UNL A   1      35.705  34.174  28.860  1.00  0.00     0.014 A 
ATOM      9  C   UNL A   1      34.197  32.707  30.049  1.00  0.00     0.014 A 
ATOM     10  C   UNL A   1      36.794  33.550  29.481  1.00  0.00     0.010 A 
ATOM     11  C   UNL A   1      35.284  32.115  30.704  1.00  0.00     0.010 A 
ATOM     12  C   UNL A   1      36.596  32.523  30.418  1.00  0.00    -0.014 A 
BRANCH  12  13
ATOM     13  C   UNL A   1      37.754  31.927  31.141  1.00  0.00     0.031 A 
ATOM     14  C   UNL A   1      38.580  30.833  30.518  1.00  0.00     0.074 A 
ATOM     15  C   UNL A   1      38.055  32.366  32.378  1.00  0.00     0.049 A 
ATOM     16  N   UNL A   1      39.606  30.186  31.011  1.00  0.00    -0.248 NA
ATOM     17  C   UNL A   1      38.196  30.406  29.165  1.00  0.00     0.031 C 
ATOM     18  C   UNL A   1      37.327  33.411  33.099  1.00  0.00     0.029 A 
ATOM     19  N   UNL A   1      39.049  31.993  33.250  1.00  0.00    -0.354 N 
ATOM     20  C   UNL A   1      39.993  29.275  30.035  1.00  0.00     0.074 A 
ATOM     21  C   UNL A   1      39.062  29.428  28.935  1.00  0.00     0.031 C 
ATOM     22  C   UNL A   1      37.911  33.611  34.292  1.00  0.00     0.029 A 
ATOM     23  C   UNL A   1      39.023  32.677  34.443  1.00  0.00     0.049 A 
ATOM     24  H   UNL A   1      39.716  31.299  33.041  1.00  0.00     0.167 HD
ATOM     25  C   UNL A   1      41.035  28.402  30.049  1.00  0.00     0.034 A 
ATOM     26  C   UNL A   1      39.793  32.559  35.542  1.00  0.00     0.034 A 
ATOM     27  C   UNL A   1      41.951  28.249  31.155  1.00  0.00     0.049 A 
ATOM     28  C   UNL A   1      40.906  31.546  35.554  1.00  0.00     0.074 A 
ATOM     29  C   UNL A   1      43.052  27.413  31.254  1.00  0.00     0.029 A 
ATOM     30  N   UNL A   1      41.870  28.934  32.361  1.00  0.00    -0.354 N 
ATOM     31  N   UNL A   1      41.269  30.706  34.614  1.00  0.00    -0.248 NA
ATOM     32  C   UNL A   1      41.714  31.466  36.779  1.00  0.00     0.031 C 
ATOM     33  C   UNL A   1      43.597  27.548  32.538  1.00  0.00     0.029 A 
ATOM     34  C   UNL A   1      42.879  28.518  33.217  1.00  0.00     0.049 A 
ATOM     35  H   UNL A   1      41.193  29.616  32.576  1.00  0.00     0.167 HD
ATOM     36  C   UNL A   1      42.364  30.016  35.126  1.00  0.00     0.074 A 
ATOM     37  C   UNL A   1      42.609  30.546  36.451  1.00  0.00     0.031 C 
ATOM     38  C   UNL A   1      43.103  29.035  34.547  1.00  0.00     0.034 A 
BRANCH  25  39
ATOM     39  C   UNL A   1      41.213  27.519  28.837  1.00  0.00     0.023 A 
ATOM     40  C   UNL A   1      42.228  27.756  27.893  1.00  0.00     0.031 A 
ATOM     41  C   UNL A   1      40.350  26.431  28.615  1.00  0.00     0.131 A 
ATOM     42  C   UNL A   1      42.314  26.961  26.741  1.00  0.00     0.055 A 
ATOM     43  C   UNL A   1      40.487  25.597  27.502  1.00  0.00     0.041 A 
ATOM     44  F   UNL A   1      39.352  26.164  29.472  1.00  0.00    -0.206 F 
ATOM     45  C   UNL A   1      41.464  25.868  26.550  1.00  0.00     0.022 A 
BRANCH  42  46
ATOM     46  S   UNL A   1      43.468  27.454  25.430  1.00  0.00     0.124 S 
ATOM     47  O   UNL A   1      42.551  27.841  24.359  1.00  0.00    -0.237 OA
ATOM     48  O   UNL A   1      44.212  28.539  26.057  1.00  0.00    -0.237 OA
ATOM     49  O   UNL A   1      44.235  26.236  25.173  1.00  0.00    -0.744 OA
ENDBRANCH  42  46
ENDBRANCH  25  39
BRANCH  26  50
ATOM     50  C   UNL A   1      39.525  33.406  36.737  1.00  0.00     0.023 A 
ATOM     51  C   UNL A   1      38.847  32.891  37.853  1.00  0.00     0.031 A 
ATOM     52  C   UNL A   1      39.917  34.757  36.765  1.00  0.00     0.131 A 
ATOM     53  C   UNL A   1      38.550  33.731  38.937  1.00  0.00     0.055 A 
ATOM     54  C   UNL A   1      39.662  35.574  37.866  1.00  0.00     0.041 A 
ATOM     55  F   UNL A   1      40.570  35.295  35.723  1.00  0.00    -0.206 F 
ATOM     56  C   UNL A   1      38.964  35.065  38.956  1.00  0.00     0.022 A 
BRANCH  53  57
ATOM     57  S   UNL A   1      37.552  33.071  40.299  1.00  0.00     0.124 S 
ATOM     58  O   UNL A   1      38.328  31.903  40.701  1.00  0.00    -0.237 OA
ATOM     59  O   UNL A   1      37.541  34.189  41.237  1.00  0.00    -0.237 OA
ATOM     60  O   UNL A   1      36.265  32.778  39.668  1.00  0.00    -0.744 OA
ENDBRANCH  53  57
ENDBRANCH  26  50
BRANCH  38  61
ATOM     61  C   UNL A   1      44.270  28.504  35.343  1.00  0.00     0.023 A 
ATOM     62  C   UNL A   1      44.111  27.484  36.299  1.00  0.00     0.031 A 
ATOM     63  C   UNL A   1      45.554  29.047  35.161  1.00  0.00     0.131 A 
ATOM     64  C   UNL A   1      45.207  27.076  37.075  1.00  0.00     0.055 A 
ATOM     65  C   UNL A   1      46.652  28.600  35.898  1.00  0.00     0.041 A 
ATOM     66  F   UNL A   1      45.762  30.023  34.264  1.00  0.00    -0.206 F 
ATOM     67  C   UNL A   1      46.479  27.618  36.871  1.00  0.00     0.022 A 
BRANCH  64  68
ATOM     68  S   UNL A   1      44.934  25.885  38.414  1.00  0.00     0.124 S 
ATOM     69  O   UNL A   1      44.393  24.736  37.695  1.00  0.00    -0.237 OA
ATOM     70  O   UNL A   1      46.275  25.718  38.964  1.00  0.00    -0.237 OA
ATOM     71  O   UNL A   1      43.986  26.567  39.293  1.00  0.00    -0.744 OA
ENDBRANCH  64  68
ENDBRANCH  38  61
ENDBRANCH  12  13
ENDBRANCH   5   7
ENDBRANCH   2   3
ENDBRANCH   1   2
BRANCH   1  72
ATOM     72  C   UNL A   1      31.397  30.395  25.772  1.00  0.00     0.023 C 
BRANCH  72  73
ATOM     73  C   UNL A   1      32.647  29.532  25.926  1.00  0.00     0.116 C 
BRANCH  73  74
ATOM     74  N   UNL A   1      33.564  29.517  24.793  1.00  0.00    -0.352 N 
ATOM     75  C   UNL A   1      33.918  28.489  23.946  1.00  0.00     0.253 C 
ATOM     76  H   UNL A   1      33.999  30.378  24.602  1.00  0.00     0.163 HD
ATOM     77  O   UNL A   1      34.448  28.727  22.858  1.00  0.00    -0.269 OA
BRANCH  75  78
ATOM     78  C   UNL A   1      33.521  27.118  24.241  1.00  0.00     0.071 A 
ATOM     79  C   UNL A   1      33.926  26.691  25.525  1.00  0.00     0.018 A 
ATOM     80  C   UNL A   1      32.755  26.260  23.454  1.00  0.00     0.141 A 
ATOM     81  C   UNL A   1      33.639  25.414  25.976  1.00  0.00     0.021 A 
ATOM     82  N   UNL A   1      32.510  24.982  23.909  1.00  0.00    -0.250 NA
ATOM     83  C   UNL A   1      32.941  24.592  25.125  1.00  0.00     0.112 A 
BRANCH  80  84
ATOM     84  C   UNL A   1      31.979  26.481  22.150  1.00  0.00     0.275 C 
ATOM     85  O   UNL A   1      32.449  26.021  21.100  1.00  0.00    -0.267 OA
ATOM     86  N   UNL A   1      30.665  26.882  22.085  1.00  0.00    -0.321 N 
ATOM     87  H   UNL A   1      30.063  26.240  21.643  1.00  0.00     0.170 HD
BRANCH  86  88
ATOM     88  C   UNL A   1      30.039  28.042  22.538  1.00  0.00     0.042 A 
ATOM     89  C   UNL A   1      30.636  29.264  22.203  1.00  0.00     0.033 A 
ATOM     90  C   UNL A   1      28.861  28.014  23.281  1.00  0.00     0.033 A 
ATOM     91  C   UNL A   1      29.938  30.456  22.397  1.00  0.00     0.088 A 
ATOM     92  C   UNL A   1      28.183  29.209  23.526  1.00  0.00     0.088 A 
ATOM     93  C   UNL A   1      28.681  30.406  23.003  1.00  0.00     0.269 A 
BRANCH  93  94
ATOM     94  N   UNL A   1      27.806  31.577  22.959  1.00  0.00     0.062 N 
ATOM     95  O   UNL A   1      26.842  31.609  23.732  1.00  0.00    -0.258 OA
ATOM     96  O   UNL A   1      28.134  32.492  22.183  1.00  0.00    -0.258 OA
ENDBRANCH  93  94
ENDBRANCH  86  88
ENDBRANCH  80  84
ENDBRANCH  75  78
ENDBRANCH  73  74
ENDBRANCH  72  73
ENDBRANCH   1  72
TORSDOF 17
ENDMDL
MODEL 2
REMARK VINA RESULT:     -12.3      4.191      9.625
REMARK SMILES O=C(NCCCCNC(=O)c1cccnc1C(=O)Nc1ccc([N+](=O)[O-])cc1)c1ccc(-c2c3nc(c(-c4cc(S(=O)(=O)[O-])ccc4F)c4ccc([nH]4)c(-c4cc(S(=O)(=O)[O-])ccc4F)c4nc(c(-c5cc(S(=O)(=O)[O-])ccc5F)c5ccc2[nH]5)C=C4)C=C3)cc1
REMARK SMILES IDX 5 1 4 2 3 3 1 4 2 5 29 7 30 8 91 9 31 10 90 11 32 12 33 13
REMARK SMILES IDX 34 14 84 15 35 16 89 17 83 18 85 19 36 20 88 21 82 22 81 23
REMARK SMILES IDX 37 25 69 26 49 27 68 28 50 29 53 30 67 31 86 32 51 33 52 34
REMARK SMILES IDX 66 36 87 37 54 38 38 39 39 40 47 41 40 42 46 43 48 44 45 45
REMARK SMILES IDX 41 46 42 47 43 48 44 49 70 50 71 51 79 52 72 53 78 54 80 55
REMARK SMILES IDX 77 56 73 57 74 58 75 59 76 60 55 61 56 62 64 63 57 64 63 65
REMARK SMILES IDX 65 66 62 67 58 68 59 69 60 70 61 71 6 72 7 73 8 74 9 75
REMARK SMILES IDX 10 77 11 78 12 79 16 80 13 81 15 82 14 83 17 84 18 85 19 86
REMARK SMILES IDX 20 88 21 89 28 90 22 91 27 92 23 93 24 94 25 95 26 96
REMARK H PARENT 3 6 85 24 53 35 8 76 19 87
REMARK Flexibility Score: inf
ROOT
ATOM      1  C   UNL A   1      33.468  27.623  26.518  1.00  0.00     0.023 C 
ENDROOT
BRANCH   1   2
ATOM      2  C   UNL A   1      34.017  28.798  25.714  1.00  0.00     0.116 C 
BRANCH   2   3
ATOM      3  N   UNL A   1      33.638  30.086  26.260  1.00  0.00    -0.352 N 
ATOM      4  O   UNL A   1      33.656  31.811  27.697  1.00  0.00    -0.269 OA
ATOM      5  C   UNL A   1      34.214  30.791  27.292  1.00  0.00     0.251 C 
ATOM      6  H   UNL A   1      32.861  30.516  25.833  1.00  0.00     0.163 HD
BRANCH   5   7
ATOM      7  C   UNL A   1      35.471  30.332  27.940  1.00  0.00     0.039 A 
ATOM      8  C   UNL A   1      35.473  29.694  29.185  1.00  0.00     0.014 A 
ATOM      9  C   UNL A   1      36.676  30.485  27.244  1.00  0.00     0.014 A 
ATOM     10  C   UNL A   1      36.681  29.282  29.761  1.00  0.00     0.010 A 
ATOM     11  C   UNL A   1      37.878  30.032  27.801  1.00  0.00     0.010 A 
ATOM     12  C   UNL A   1      37.895  29.435  29.071  1.00  0.00    -0.014 A 
BRANCH  12  13
ATOM     13  C   UNL A   1      39.164  28.913  29.652  1.00  0.00     0.031 A 
ATOM     14  C   UNL A   1      39.743  29.502  30.911  1.00  0.00     0.074 A 
ATOM     15  C   UNL A   1      39.809  27.909  29.028  1.00  0.00     0.049 A 
ATOM     16  N   UNL A   1      40.846  29.186  31.541  1.00  0.00    -0.248 NA
ATOM     17  C   UNL A   1      38.984  30.592  31.538  1.00  0.00     0.031 C 
ATOM     18  C   UNL A   1      39.361  27.259  27.795  1.00  0.00     0.029 A 
ATOM     19  N   UNL A   1      40.976  27.255  29.342  1.00  0.00    -0.354 N 
ATOM     20  C   UNL A   1      40.920  30.037  32.639  1.00  0.00     0.074 A 
ATOM     21  C   UNL A   1      39.765  30.909  32.563  1.00  0.00     0.031 C 
ATOM     22  C   UNL A   1      40.229  26.287  27.470  1.00  0.00     0.029 A 
ATOM     23  C   UNL A   1      41.319  26.274  28.441  1.00  0.00     0.049 A 
ATOM     24  H   UNL A   1      41.516  27.470  30.137  1.00  0.00     0.167 HD
ATOM     25  C   UNL A   1      41.854  30.078  33.625  1.00  0.00     0.034 A 
ATOM     26  C   UNL A   1      42.396  25.466  28.387  1.00  0.00     0.034 A 
ATOM     27  C   UNL A   1      43.008  29.211  33.686  1.00  0.00     0.049 A 
ATOM     28  C   UNL A   1      43.446  25.569  29.460  1.00  0.00     0.074 A 
ATOM     29  C   UNL A   1      43.996  29.156  34.657  1.00  0.00     0.029 A 
ATOM     30  N   UNL A   1      43.341  28.255  32.735  1.00  0.00    -0.354 N 
ATOM     31  N   UNL A   1      43.488  26.366  30.501  1.00  0.00    -0.248 NA
ATOM     32  C   UNL A   1      44.594  24.659  29.350  1.00  0.00     0.031 C 
ATOM     33  C   UNL A   1      44.954  28.214  34.261  1.00  0.00     0.029 A 
ATOM     34  C   UNL A   1      44.531  27.630  33.079  1.00  0.00     0.049 A 
ATOM     35  H   UNL A   1      42.810  28.051  31.932  1.00  0.00     0.167 HD
ATOM     36  C   UNL A   1      44.656  26.036  31.183  1.00  0.00     0.074 A 
ATOM     37  C   UNL A   1      45.281  24.960  30.442  1.00  0.00     0.031 C 
ATOM     38  C   UNL A   1      45.161  26.573  32.323  1.00  0.00     0.034 A 
BRANCH  25  39
ATOM     39  C   UNL A   1      41.680  31.124  34.700  1.00  0.00     0.023 A 
ATOM     40  C   UNL A   1      40.569  31.119  35.562  1.00  0.00     0.031 A 
ATOM     41  C   UNL A   1      42.631  32.148  34.859  1.00  0.00     0.131 A 
ATOM     42  C   UNL A   1      40.403  32.151  36.498  1.00  0.00     0.055 A 
ATOM     43  C   UNL A   1      42.498  33.132  35.842  1.00  0.00     0.041 A 
ATOM     44  F   UNL A   1      43.704  32.215  34.055  1.00  0.00    -0.206 F 
ATOM     45  C   UNL A   1      41.371  33.145  36.659  1.00  0.00     0.022 A 
BRANCH  42  46
ATOM     46  S   UNL A   1      38.839  32.250  37.412  1.00  0.00     0.124 S 
ATOM     47  O   UNL A   1      38.151  33.330  36.707  1.00  0.00    -0.237 OA
ATOM     48  O   UNL A   1      38.283  30.914  37.231  1.00  0.00    -0.237 OA
ATOM     49  O   UNL A   1      39.258  32.573  38.774  1.00  0.00    -0.744 OA
ENDBRANCH  42  46
ENDBRANCH  25  39
BRANCH  26  50
ATOM     50  C   UNL A   1      42.552  24.503  27.262  1.00  0.00     0.023 A 
ATOM     51  C   UNL A   1      42.002  23.214  27.330  1.00  0.00     0.031 A 
ATOM     52  C   UNL A   1      43.283  24.852  26.112  1.00  0.00     0.131 A 
ATOM     53  C   UNL A   1      42.222  22.306  26.283  1.00  0.00     0.055 A 
ATOM     54  C   UNL A   1      43.458  23.962  25.053  1.00  0.00     0.041 A 
ATOM     55  F   UNL A   1      43.827  26.074  25.999  1.00  0.00    -0.206 F 
ATOM     56  C   UNL A   1      42.935  22.675  25.140  1.00  0.00     0.022 A 
BRANCH  53  57
ATOM     57  S   UNL A   1      41.618  20.606  26.466  1.00  0.00     0.124 S 
ATOM     58  O   UNL A   1      40.187  20.771  26.238  1.00  0.00    -0.237 OA
ATOM     59  O   UNL A   1      42.359  19.906  25.421  1.00  0.00    -0.237 OA
ATOM     60  O   UNL A   1      41.997  20.255  27.834  1.00  0.00    -0.744 OA
ENDBRANCH  53  57
ENDBRANCH  26  50
BRANCH  38  61
ATOM     61  C   UNL A   1      46.439  25.969  32.851  1.00  0.00     0.023 A 
ATOM     62  C   UNL A   1      46.430  24.863  33.721  1.00  0.00     0.031 A 
ATOM     63  C   UNL A   1      47.681  26.525  32.499  1.00  0.00     0.131 A 
ATOM     64  C   UNL A   1      47.637  24.383  34.253  1.00  0.00     0.055 A 
ATOM     65  C   UNL A   1      48.882  26.009  32.990  1.00  0.00     0.041 A 
ATOM     66  F   UNL A   1      47.747  27.581  31.674  1.00  0.00    -0.206 F 
ATOM     67  C   UNL A   1      48.863  24.940  33.882  1.00  0.00     0.022 A 
BRANCH  64  68
ATOM     68  S   UNL A   1      47.579  23.070  35.503  1.00  0.00     0.124 S 
ATOM     69  O   UNL A   1      48.980  22.960  35.895  1.00  0.00    -0.237 OA
ATOM     70  O   UNL A   1      46.679  23.633  36.505  1.00  0.00    -0.237 OA
ATOM     71  O   UNL A   1      47.048  21.922  34.771  1.00  0.00    -0.744 OA
ENDBRANCH  64  68
ENDBRANCH  38  61
ENDBRANCH  12  13
ENDBRANCH   5   7
ENDBRANCH   2   3
ENDBRANCH   1   2
BRANCH   1  72
ATOM     72  C   UNL A   1      32.858  26.438  25.759  1.00  0.00     0.023 C 
BRANCH  72  73
ATOM     73  C   UNL A   1      33.771  25.299  25.315  1.00  0.00     0.116 C 
BRANCH  73  74
ATOM     74  N   UNL A   1      33.909  25.107  23.876  1.00  0.00    -0.352 N 
ATOM     75  C   UNL A   1      34.352  24.016  23.161  1.00  0.00     0.253 C 
ATOM     76  H   UNL A   1      33.644  25.880  23.329  1.00  0.00     0.163 HD
ATOM     77  O   UNL A   1      34.100  23.910  21.958  1.00  0.00    -0.269 OA
BRANCH  75  78
ATOM     78  C   UNL A   1      34.977  22.889  23.841  1.00  0.00     0.071 A 
ATOM     79  C   UNL A   1      36.370  23.049  24.008  1.00  0.00     0.018 A 
ATOM     80  C   UNL A   1      34.356  21.766  24.386  1.00  0.00     0.141 A 
ATOM     81  C   UNL A   1      37.131  22.075  24.631  1.00  0.00     0.021 A 
ATOM     82  N   UNL A   1      35.137  20.794  24.972  1.00  0.00    -0.250 NA
ATOM     83  C   UNL A   1      36.471  20.959  25.083  1.00  0.00     0.112 A 
BRANCH  80  84
ATOM     84  C   UNL A   1      32.879  21.404  24.584  1.00  0.00     0.275 C 
ATOM     85  O   UNL A   1      32.102  22.290  24.964  1.00  0.00    -0.267 OA
ATOM     86  N   UNL A   1      32.284  20.265  24.092  1.00  0.00    -0.321 N 
ATOM     87  H   UNL A   1      31.548  20.430  23.458  1.00  0.00     0.170 HD
BRANCH  86  88
ATOM     88  C   UNL A   1      32.545  18.919  24.338  1.00  0.00     0.042 A 
ATOM     89  C   UNL A   1      33.107  18.174  23.293  1.00  0.00     0.033 A 
ATOM     90  C   UNL A   1      32.281  18.319  25.567  1.00  0.00     0.033 A 
ATOM     91  C   UNL A   1      33.626  16.903  23.544  1.00  0.00     0.088 A 
ATOM     92  C   UNL A   1      32.752  17.027  25.809  1.00  0.00     0.088 A 
ATOM     93  C   UNL A   1      33.499  16.369  24.828  1.00  0.00     0.269 A 
BRANCH  93  94
ATOM     94  N   UNL A   1      34.274  15.187  25.203  1.00  0.00     0.062 N 
ATOM     95  O   UNL A   1      33.655  14.158  25.498  1.00  0.00    -0.258 OA
ATOM     96  O   UNL A   1      35.512  15.286  25.138  1.00  0.00    -0.258 OA
ENDBRANCH  93  94
ENDBRANCH  86  88
ENDBRANCH  80  84
ENDBRANCH  75  78
ENDBRANCH  73  74
ENDBRANCH  72  73
ENDBRANCH   1  72
TORSDOF 17
ENDMDL
MODEL 3
REMARK VINA RESULT:     -12.2      2.576      7.836
REMARK SMILES O=C(NCCCCNC(=O)c1cccnc1C(=O)Nc1ccc([N+](=O)[O-])cc1)c1ccc(-c2c3nc(c(-c4cc(S(=O)(=O)[O-])ccc4F)c4ccc([nH]4)c(-c4cc(S(=O)(=O)[O-])ccc4F)c4nc(c(-c5cc(S(=O)(=O)[O-])ccc5F)c5ccc2[nH]5)C=C4)C=C3)cc1
REMARK SMILES IDX 5 1 4 2 3 3 1 4 2 5 29 7 30 8 91 9 31 10 90 11 32 12 33 13
REMARK SMILES IDX 34 14 84 15 35 16 89 17 83 18 85 19 36 20 88 21 82 22 81 23
REMARK SMILES IDX 37 25 69 26 49 27 68 28 50 29 53 30 67 31 86 32 51 33 52 34
REMARK SMILES IDX 66 36 87 37 54 38 38 39 39 40 47 41 40 42 46 43 48 44 45 45
REMARK SMILES IDX 41 46 42 47 43 48 44 49 70 50 71 51 79 52 72 53 78 54 80 55
REMARK SMILES IDX 77 56 73 57 74 58 75 59 76 60 55 61 56 62 64 63 57 64 63 65
REMARK SMILES IDX 65 66 62 67 58 68 59 69 60 70 61 71 6 72 7 73 8 74 9 75
REMARK SMILES IDX 10 77 11 78 12 79 16 80 13 81 15 82 14 83 17 84 18 85 19 86
REMARK SMILES IDX 20 88 21 89 28 90 22 91 27 92 23 93 24 94 25 95 26 96
REMARK H PARENT 3 6 85 24 53 35 8 76 19 87
REMARK Flexibility Score: inf
ROOT
ATOM      1  C   UNL A   1      31.596  29.078  26.470  1.00  0.00     0.023 C 
ENDROOT
BRANCH   1   2
ATOM      2  C   UNL A   1      32.706  29.996  25.966  1.00  0.00     0.116 C 
BRANCH   2   3
ATOM      3  N   UNL A   1      32.490  31.388  26.309  1.00  0.00    -0.352 N 
ATOM      4  O   UNL A   1      32.758  33.304  27.448  1.00  0.00    -0.269 OA
ATOM      5  C   UNL A   1      33.187  32.178  27.195  1.00  0.00     0.251 C 
ATOM      6  H   UNL A   1      31.742  31.829  25.844  1.00  0.00     0.163 HD
BRANCH   5   7
ATOM      7  C   UNL A   1      34.419  31.690  27.868  1.00  0.00     0.039 A 
ATOM      8  C   UNL A   1      35.534  32.513  28.062  1.00  0.00     0.014 A 
ATOM      9  C   UNL A   1      34.430  30.387  28.380  1.00  0.00     0.014 A 
ATOM     10  C   UNL A   1      36.676  32.010  28.696  1.00  0.00     0.010 A 
ATOM     11  C   UNL A   1      35.557  29.900  29.055  1.00  0.00     0.010 A 
ATOM     12  C   UNL A   1      36.697  30.703  29.209  1.00  0.00    -0.014 A 
BRANCH  12  13
ATOM     13  C   UNL A   1      37.883  30.206  29.962  1.00  0.00     0.031 A 
ATOM     14  C   UNL A   1      38.174  30.686  31.358  1.00  0.00     0.074 A 
ATOM     15  C   UNL A   1      38.714  29.325  29.373  1.00  0.00     0.049 A 
ATOM     16  N   UNL A   1      39.171  30.376  32.149  1.00  0.00    -0.248 NA
ATOM     17  C   UNL A   1      37.224  31.644  31.939  1.00  0.00     0.031 C 
ATOM     18  C   UNL A   1      38.552  28.791  28.019  1.00  0.00     0.029 A 
ATOM     19  N   UNL A   1      39.859  28.721  29.832  1.00  0.00    -0.354 N 
ATOM     20  C   UNL A   1      38.973  31.099  33.320  1.00  0.00     0.074 A 
ATOM     21  C   UNL A   1      37.779  31.894  33.117  1.00  0.00     0.031 C 
ATOM     22  C   UNL A   1      39.545  27.924  27.767  1.00  0.00     0.029 A 
ATOM     23  C   UNL A   1      40.442  27.874  28.917  1.00  0.00     0.049 A 
ATOM     24  H   UNL A   1      40.228  28.879  30.731  1.00  0.00     0.167 HD
ATOM     25  C   UNL A   1      39.710  31.091  34.462  1.00  0.00     0.034 A 
ATOM     26  C   UNL A   1      41.577  27.152  28.985  1.00  0.00     0.034 A 
ATOM     27  C   UNL A   1      40.905  30.302  34.651  1.00  0.00     0.049 A 
ATOM     28  C   UNL A   1      42.407  27.203  30.240  1.00  0.00     0.074 A 
ATOM     29  C   UNL A   1      41.706  30.204  35.779  1.00  0.00     0.029 A 
ATOM     30  N   UNL A   1      41.485  29.486  33.688  1.00  0.00    -0.354 N 
ATOM     31  N   UNL A   1      42.193  27.878  31.345  1.00  0.00    -0.248 NA
ATOM     32  C   UNL A   1      43.631  26.392  30.256  1.00  0.00     0.031 C 
ATOM     33  C   UNL A   1      42.797  29.380  35.477  1.00  0.00     0.029 A 
ATOM     34  C   UNL A   1      42.645  28.908  34.185  1.00  0.00     0.049 A 
ATOM     35  H   UNL A   1      41.125  29.339  32.784  1.00  0.00     0.167 HD
ATOM     36  C   UNL A   1      43.245  27.553  32.196  1.00  0.00     0.074 A 
ATOM     37  C   UNL A   1      44.084  26.612  31.482  1.00  0.00     0.031 C 
ATOM     38  C   UNL A   1      43.490  27.989  33.459  1.00  0.00     0.034 A 
BRANCH  25  39
ATOM     39  C   UNL A   1      39.256  31.993  35.584  1.00  0.00     0.023 A 
ATOM     40  C   UNL A   1      39.706  33.321  35.692  1.00  0.00     0.031 A 
ATOM     41  C   UNL A   1      38.369  31.518  36.567  1.00  0.00     0.131 A 
ATOM     42  C   UNL A   1      39.323  34.104  36.791  1.00  0.00     0.055 A 
ATOM     43  C   UNL A   1      37.932  32.327  37.619  1.00  0.00     0.041 A 
ATOM     44  F   UNL A   1      37.917  30.255  36.527  1.00  0.00    -0.206 F 
ATOM     45  C   UNL A   1      38.420  33.624  37.743  1.00  0.00     0.022 A 
BRANCH  42  46
ATOM     46  S   UNL A   1      40.122  35.716  37.029  1.00  0.00     0.124 S 
ATOM     47  O   UNL A   1      41.538  35.348  37.021  1.00  0.00    -0.237 OA
ATOM     48  O   UNL A   1      39.653  36.474  35.875  1.00  0.00    -0.237 OA
ATOM     49  O   UNL A   1      39.611  36.165  38.323  1.00  0.00    -0.744 OA
ENDBRANCH  42  46
ENDBRANCH  25  39
BRANCH  26  50
ATOM     50  C   UNL A   1      42.015  26.336  27.819  1.00  0.00     0.023 A 
ATOM     51  C   UNL A   1      41.646  24.988  27.699  1.00  0.00     0.031 A 
ATOM     52  C   UNL A   1      42.838  26.890  26.821  1.00  0.00     0.131 A 
ATOM     53  C   UNL A   1      42.128  24.226  26.623  1.00  0.00     0.055 A 
ATOM     54  C   UNL A   1      43.275  26.141  25.729  1.00  0.00     0.041 A 
ATOM     55  F   UNL A   1      43.216  28.176  26.891  1.00  0.00    -0.206 F 
ATOM     56  C   UNL A   1      42.929  24.797  25.631  1.00  0.00     0.022 A 
BRANCH  53  57
ATOM     57  S   UNL A   1      41.748  22.454  26.574  1.00  0.00     0.124 S 
ATOM     58  O   UNL A   1      40.293  22.463  26.479  1.00  0.00    -0.237 OA
ATOM     59  O   UNL A   1      42.468  22.022  25.380  1.00  0.00    -0.237 OA
ATOM     60  O   UNL A   1      42.289  21.955  27.838  1.00  0.00    -0.744 OA
ENDBRANCH  53  57
ENDBRANCH  26  50
BRANCH  38  61
ATOM     61  C   UNL A   1      44.701  27.416  34.152  1.00  0.00     0.023 A 
ATOM     62  C   UNL A   1      44.631  26.227  34.901  1.00  0.00     0.031 A 
ATOM     63  C   UNL A   1      45.935  28.086  34.086  1.00  0.00     0.131 A 
ATOM     64  C   UNL A   1      45.762  25.773  35.598  1.00  0.00     0.055 A 
ATOM     65  C   UNL A   1      47.070  27.601  34.738  1.00  0.00     0.041 A 
ATOM     66  F   UNL A   1      46.057  29.225  33.388  1.00  0.00    -0.206 F 
ATOM     67  C   UNL A   1      46.984  26.445  35.509  1.00  0.00     0.022 A 
BRANCH  64  68
ATOM     68  S   UNL A   1      45.595  24.335  36.690  1.00  0.00     0.124 S 
ATOM     69  O   UNL A   1      44.727  23.459  35.910  1.00  0.00    -0.237 OA
ATOM     70  O   UNL A   1      46.978  23.894  36.840  1.00  0.00    -0.237 OA
ATOM     71  O   UNL A   1      44.988  24.890  37.899  1.00  0.00    -0.744 OA
ENDBRANCH  64  68
ENDBRANCH  38  61
ENDBRANCH  12  13
ENDBRANCH   5   7
ENDBRANCH   2   3
ENDBRANCH   1   2
BRANCH   1  72
ATOM     72  C   UNL A   1      31.988  27.813  27.244  1.00  0.00     0.023 C 
BRANCH  72  73
ATOM     73  C   UNL A   1      32.229  26.520  26.470  1.00  0.00     0.116 C 
BRANCH  73  74
ATOM     74  N   UNL A   1      31.423  25.371  26.868  1.00  0.00    -0.352 N 
ATOM     75  C   UNL A   1      31.683  24.022  26.767  1.00  0.00     0.253 C 
ATOM     76  H   UNL A   1      30.555  25.596  27.273  1.00  0.00     0.163 HD
ATOM     77  O   UNL A   1      31.045  23.208  27.439  1.00  0.00    -0.269 OA
BRANCH  75  78
ATOM     78  C   UNL A   1      32.824  23.544  25.997  1.00  0.00     0.071 A 
ATOM     79  C   UNL A   1      33.972  23.327  26.790  1.00  0.00     0.018 A 
ATOM     80  C   UNL A   1      32.868  23.222  24.641  1.00  0.00     0.141 A 
ATOM     81  C   UNL A   1      35.154  22.876  26.227  1.00  0.00     0.021 A 
ATOM     82  N   UNL A   1      34.064  22.806  24.096  1.00  0.00    -0.250 NA
ATOM     83  C   UNL A   1      35.154  22.643  24.873  1.00  0.00     0.112 A 
BRANCH  80  84
ATOM     84  C   UNL A   1      31.771  23.118  23.574  1.00  0.00     0.275 C 
ATOM     85  O   UNL A   1      31.779  22.138  22.816  1.00  0.00    -0.267 OA
ATOM     86  N   UNL A   1      30.611  23.857  23.577  1.00  0.00    -0.321 N 
ATOM     87  H   UNL A   1      29.786  23.322  23.631  1.00  0.00     0.170 HD
BRANCH  86  88
ATOM     88  C   UNL A   1      30.404  25.233  23.514  1.00  0.00     0.042 A 
ATOM     89  C   UNL A   1      31.326  25.987  22.776  1.00  0.00     0.033 A 
ATOM     90  C   UNL A   1      29.325  25.855  24.137  1.00  0.00     0.033 A 
ATOM     91  C   UNL A   1      31.043  27.316  22.459  1.00  0.00     0.088 A 
ATOM     92  C   UNL A   1      29.065  27.200  23.867  1.00  0.00     0.088 A 
ATOM     93  C   UNL A   1      29.874  27.891  22.959  1.00  0.00     0.269 A 
BRANCH  93  94
ATOM     94  N   UNL A   1      29.401  29.165  22.418  1.00  0.00     0.062 N 
ATOM     95  O   UNL A   1      30.115  29.741  21.588  1.00  0.00    -0.258 OA
ATOM     96  O   UNL A   1      28.278  29.549  22.788  1.00  0.00    -0.258 OA
ENDBRANCH  93  94
ENDBRANCH  86  88
ENDBRANCH  80  84
ENDBRANCH  75  78
ENDBRANCH  73  74
ENDBRANCH  72  73
ENDBRANCH   1  72
TORSDOF 17
ENDMDL
