MODEL 1
REMARK VINA RESULT:      -9.8      0.000      0.000
REMARK SMILES CC[C@@](C)(NC(=O)N(C)CCO)C(=O)NCCCCNC(=O)c1ccc(-c2c3nc(c(-c4cc(S(=O)(=O)[O-])ccc4F)c4ccc([nH]4)c(-c4cc(S(=O)(=O)[O-])ccc4F)c4nc(c(-c5cc(S(=O)(=O)[O-])ccc5F)c5ccc2[nH]5)C=C4)C=C3)cc1
REMARK SMILES IDX 16 1 15 2 13 3 14 4 3 6 4 7 2 8 1 9 5 10 6 11 7 13 8 14 9 15
REMARK SMILES IDX 10 16 11 17 12 18 17 20 18 21 19 22 20 23 21 24 22 26 23 27
REMARK SMILES IDX 24 28 85 29 25 30 84 31 26 32 27 33 28 34 78 35 29 36 83 37
REMARK SMILES IDX 77 38 79 39 30 40 82 41 76 42 75 43 31 45 63 46 43 47 62 48
REMARK SMILES IDX 44 49 47 50 61 51 80 52 45 53 46 54 60 56 81 57 48 58 32 59
REMARK SMILES IDX 33 60 41 61 34 62 40 63 42 64 39 65 35 66 36 67 37 68 38 69
REMARK SMILES IDX 64 70 65 71 73 72 66 73 72 74 74 75 71 76 67 77 68 78 69 79
REMARK SMILES IDX 70 80 49 81 50 82 58 83 51 84 57 85 59 86 56 87 52 88 53 89
REMARK SMILES IDX 54 90 55 91
REMARK H PARENT 15 5 5 12 12 19 20 25 79 44 47 55
REMARK Flexibility Score: inf
ROOT
ATOM      1  C   UNL A   1      32.071  27.208  25.753  1.00  0.00     0.116 C 
ENDROOT
BRANCH   1   2
ATOM      2  N   UNL A   1      31.629  26.107  26.590  1.00  0.00    -0.354 N 
ATOM      3  C   UNL A   1      31.466  24.773  26.348  1.00  0.00     0.245 C 
ATOM      4  O   UNL A   1      31.180  24.080  27.329  1.00  0.00    -0.272 OA
ATOM      5  H   UNL A   1      31.404  26.373  27.512  1.00  0.00     0.163 HD
BRANCH   3   6
ATOM      6  C   UNL A   1      31.739  24.139  24.951  1.00  0.00     0.117 C 
ATOM      7  C   UNL A   1      30.968  22.784  24.942  1.00  0.00     0.045 C 
BRANCH   6   8
ATOM      8  C   UNL A   1      31.202  24.932  23.719  1.00  0.00     0.035 C 
ATOM      9  C   UNL A   1      32.176  25.185  22.570  1.00  0.00     0.007 C 
ENDBRANCH   6   8
BRANCH   6  10
ATOM     10  N   UNL A   1      33.185  23.859  24.736  1.00  0.00    -0.324 N 
ATOM     11  C   UNL A   1      34.168  23.088  25.247  1.00  0.00     0.318 C 
ATOM     12  H   UNL A   1      33.532  24.404  23.993  1.00  0.00     0.166 HD
ATOM     13  O   UNL A   1      35.295  23.394  24.840  1.00  0.00    -0.249 OA
BRANCH  11  14
ATOM     14  N   UNL A   1      33.973  21.982  26.024  1.00  0.00    -0.326 N 
ATOM     15  C   UNL A   1      33.912  21.941  27.475  1.00  0.00     0.148 C 
BRANCH  14  16
ATOM     16  C   UNL A   1      34.044  20.624  25.417  1.00  0.00     0.149 C 
BRANCH  16  17
ATOM     17  C   UNL A   1      32.820  19.692  25.496  1.00  0.00     0.177 C 
BRANCH  17  18
ATOM     18  O   UNL A   1      32.894  18.768  26.574  1.00  0.00    -0.395 OA
ATOM     19  H   UNL A   1      32.400  19.115  27.333  1.00  0.00     0.210 HD
ENDBRANCH  17  18
ENDBRANCH  16  17
ENDBRANCH  14  16
ENDBRANCH  11  14
ENDBRANCH   6  10
ENDBRANCH   3   6
ENDBRANCH   1   2
BRANCH   1  20
ATOM     20  C   UNL A   1      33.576  27.267  25.545  1.00  0.00     0.023 C 
BRANCH  20  21
ATOM     21  C   UNL A   1      34.295  28.374  26.304  1.00  0.00     0.023 C 
BRANCH  21  22
ATOM     22  C   UNL A   1      33.436  29.033  27.366  1.00  0.00     0.116 C 
BRANCH  22  23
ATOM     23  N   UNL A   1      33.505  30.487  27.289  1.00  0.00    -0.352 N 
ATOM     24  C   UNL A   1      34.397  31.353  27.865  1.00  0.00     0.251 C 
ATOM     25  H   UNL A   1      32.804  30.910  26.741  1.00  0.00     0.163 HD
ATOM     26  O   UNL A   1      34.141  32.557  27.895  1.00  0.00    -0.269 OA
BRANCH  24  27
ATOM     27  C   UNL A   1      35.646  30.834  28.456  1.00  0.00     0.039 A 
ATOM     28  C   UNL A   1      35.583  29.828  29.422  1.00  0.00     0.014 A 
ATOM     29  C   UNL A   1      36.881  31.337  28.045  1.00  0.00     0.014 A 
ATOM     30  C   UNL A   1      36.767  29.289  29.928  1.00  0.00     0.010 A 
ATOM     31  C   UNL A   1      38.051  30.714  28.453  1.00  0.00     0.010 A 
ATOM     32  C   UNL A   1      38.009  29.700  29.418  1.00  0.00    -0.014 A 
BRANCH  32  33
ATOM     33  C   UNL A   1      39.286  29.118  29.903  1.00  0.00     0.031 A 
ATOM     34  C   UNL A   1      39.993  29.753  31.073  1.00  0.00     0.074 A 
ATOM     35  C   UNL A   1      39.838  28.079  29.250  1.00  0.00     0.049 A 
ATOM     36  N   UNL A   1      41.165  29.476  31.583  1.00  0.00    -0.248 NA
ATOM     37  C   UNL A   1      39.307  30.880  31.727  1.00  0.00     0.031 C 
ATOM     38  C   UNL A   1      39.266  27.415  28.075  1.00  0.00     0.029 A 
ATOM     39  N   UNL A   1      41.008  27.398  29.474  1.00  0.00    -0.354 N 
ATOM     40  C   UNL A   1      41.364  30.405  32.598  1.00  0.00     0.074 A 
ATOM     41  C   UNL A   1      40.230  31.303  32.576  1.00  0.00     0.031 C 
ATOM     42  C   UNL A   1      40.068  26.402  27.707  1.00  0.00     0.029 A 
ATOM     43  C   UNL A   1      41.237  26.378  28.580  1.00  0.00     0.049 A 
ATOM     44  H   UNL A   1      41.628  27.621  30.207  1.00  0.00     0.167 HD
ATOM     45  C   UNL A   1      42.383  30.484  33.487  1.00  0.00     0.034 A 
ATOM     46  C   UNL A   1      42.277  25.529  28.470  1.00  0.00     0.034 A 
ATOM     47  C   UNL A   1      43.490  29.561  33.506  1.00  0.00     0.049 A 
ATOM     48  C   UNL A   1      43.408  25.644  29.460  1.00  0.00     0.074 A 
ATOM     49  C   UNL A   1      44.550  29.504  34.394  1.00  0.00     0.029 A 
ATOM     50  N   UNL A   1      43.683  28.534  32.590  1.00  0.00    -0.354 N 
ATOM     51  N   UNL A   1      43.559  26.497  30.448  1.00  0.00    -0.248 NA
ATOM     52  C   UNL A   1      44.504  24.677  29.328  1.00  0.00     0.031 C 
ATOM     53  C   UNL A   1      45.418  28.492  33.971  1.00  0.00     0.029 A 
ATOM     54  C   UNL A   1      44.860  27.859  32.872  1.00  0.00     0.049 A 
ATOM     55  H   UNL A   1      43.073  28.317  31.848  1.00  0.00     0.167 HD
ATOM     56  C   UNL A   1      44.750  26.145  31.076  1.00  0.00     0.074 A 
ATOM     57  C   UNL A   1      45.266  24.993  30.364  1.00  0.00     0.031 C 
ATOM     58  C   UNL A   1      45.363  26.718  32.144  1.00  0.00     0.034 A 
BRANCH  45  59
ATOM     59  C   UNL A   1      42.347  31.612  34.492  1.00  0.00     0.023 A 
ATOM     60  C   UNL A   1      41.475  31.595  35.596  1.00  0.00     0.031 A 
ATOM     61  C   UNL A   1      43.172  32.739  34.328  1.00  0.00     0.131 A 
ATOM     62  C   UNL A   1      41.386  32.712  36.439  1.00  0.00     0.055 A 
ATOM     63  C   UNL A   1      43.145  33.809  35.225  1.00  0.00     0.041 A 
ATOM     64  F   UNL A   1      44.008  32.828  33.283  1.00  0.00    -0.206 F 
ATOM     65  C   UNL A   1      42.236  33.808  36.279  1.00  0.00     0.022 A 
BRANCH  62  66
ATOM     66  S   UNL A   1      40.036  32.778  37.648  1.00  0.00     0.124 S 
ATOM     67  O   UNL A   1      39.530  34.135  37.452  1.00  0.00    -0.237 OA
ATOM     68  O   UNL A   1      39.161  31.700  37.204  1.00  0.00    -0.237 OA
ATOM     69  O   UNL A   1      40.709  32.551  38.926  1.00  0.00    -0.744 OA
ENDBRANCH  62  66
ENDBRANCH  45  59
BRANCH  46  70
ATOM     70  C   UNL A   1      42.305  24.501  27.390  1.00  0.00     0.023 A 
ATOM     71  C   UNL A   1      41.647  23.271  27.545  1.00  0.00     0.031 A 
ATOM     72  C   UNL A   1      43.025  24.715  26.200  1.00  0.00     0.131 A 
ATOM     73  C   UNL A   1      41.764  22.282  26.555  1.00  0.00     0.055 A 
ATOM     74  C   UNL A   1      43.090  23.752  25.191  1.00  0.00     0.041 A 
ATOM     75  F   UNL A   1      43.671  25.875  25.996  1.00  0.00    -0.206 F 
ATOM     76  C   UNL A   1      42.469  22.520  25.373  1.00  0.00     0.022 A 
BRANCH  73  77
ATOM     77  S   UNL A   1      41.063  20.641  26.880  1.00  0.00     0.124 S 
ATOM     78  O   UNL A   1      39.876  20.655  26.032  1.00  0.00    -0.237 OA
ATOM     79  O   UNL A   1      42.145  19.760  26.455  1.00  0.00    -0.237 OA
ATOM     80  O   UNL A   1      40.805  20.661  28.318  1.00  0.00    -0.744 OA
ENDBRANCH  73  77
ENDBRANCH  46  70
BRANCH  58  81
ATOM     81  C   UNL A   1      46.634  26.068  32.634  1.00  0.00     0.023 A 
ATOM     82  C   UNL A   1      46.616  25.011  33.561  1.00  0.00     0.031 A 
ATOM     83  C   UNL A   1      47.881  26.518  32.167  1.00  0.00     0.131 A 
ATOM     84  C   UNL A   1      47.825  24.482  34.036  1.00  0.00     0.055 A 
ATOM     85  C   UNL A   1      49.078  25.941  32.592  1.00  0.00     0.041 A 
ATOM     86  F   UNL A   1      47.957  27.527  31.283  1.00  0.00    -0.206 F 
ATOM     87  C   UNL A   1      49.054  24.926  33.543  1.00  0.00     0.022 A 
BRANCH  84  88
ATOM     88  S   UNL A   1      47.772  23.272  35.387  1.00  0.00     0.124 S 
ATOM     89  O   UNL A   1      49.118  23.378  35.941  1.00  0.00    -0.237 OA
ATOM     90  O   UNL A   1      46.696  23.788  36.226  1.00  0.00    -0.237 OA
ATOM     91  O   UNL A   1      47.478  22.012  34.707  1.00  0.00    -0.744 OA
ENDBRANCH  84  88
ENDBRANCH  58  81
ENDBRANCH  32  33
ENDBRANCH  24  27
ENDBRANCH  22  23
ENDBRANCH  21  22
ENDBRANCH  20  21
ENDBRANCH   1  20
TORSDOF 20
ENDMDL
MODEL 2
REMARK VINA RESULT:      -9.8      2.289      8.074
REMARK SMILES CC[C@@](C)(NC(=O)N(C)CCO)C(=O)NCCCCNC(=O)c1ccc(-c2c3nc(c(-c4cc(S(=O)(=O)[O-])ccc4F)c4ccc([nH]4)c(-c4cc(S(=O)(=O)[O-])ccc4F)c4nc(c(-c5cc(S(=O)(=O)[O-])ccc5F)c5ccc2[nH]5)C=C4)C=C3)cc1
REMARK SMILES IDX 16 1 15 2 13 3 14 4 3 6 4 7 2 8 1 9 5 10 6 11 7 13 8 14 9 15
REMARK SMILES IDX 10 16 11 17 12 18 17 20 18 21 19 22 20 23 21 24 22 26 23 27
REMARK SMILES IDX 24 28 85 29 25 30 84 31 26 32 27 33 28 34 78 35 29 36 83 37
REMARK SMILES IDX 77 38 79 39 30 40 82 41 76 42 75 43 31 45 63 46 43 47 62 48
REMARK SMILES IDX 44 49 47 50 61 51 80 52 45 53 46 54 60 56 81 57 48 58 32 59
REMARK SMILES IDX 33 60 41 61 34 62 40 63 42 64 39 65 35 66 36 67 37 68 38 69
REMARK SMILES IDX 64 70 65 71 73 72 66 73 72 74 74 75 71 76 67 77 68 78 69 79
REMARK SMILES IDX 70 80 49 81 50 82 58 83 51 84 57 85 59 86 56 87 52 88 53 89
REMARK SMILES IDX 54 90 55 91
REMARK H PARENT 15 5 5 12 12 19 20 25 79 44 47 55
REMARK Flexibility Score: inf
ROOT
ATOM      1  C   UNL A   1      33.633  26.564  23.705  1.00  0.00     0.116 C 
ENDROOT
BRANCH   1   2
ATOM      2  N   UNL A   1      33.749  25.440  22.793  1.00  0.00    -0.354 N 
ATOM      3  C   UNL A   1      33.478  24.108  22.932  1.00  0.00     0.245 C 
ATOM      4  O   UNL A   1      33.579  23.430  21.905  1.00  0.00    -0.272 OA
ATOM      5  H   UNL A   1      34.088  25.685  21.901  1.00  0.00     0.163 HD
BRANCH   3   6
ATOM      6  C   UNL A   1      32.957  23.498  24.267  1.00  0.00     0.117 C 
ATOM      7  C   UNL A   1      33.399  24.487  25.388  1.00  0.00     0.045 C 
BRANCH   6   8
ATOM      8  C   UNL A   1      31.408  23.373  24.409  1.00  0.00     0.035 C 
ATOM      9  C   UNL A   1      30.548  24.230  23.483  1.00  0.00     0.007 C 
ENDBRANCH   6   8
BRANCH   6  10
ATOM     10  N   UNL A   1      33.564  22.168  24.548  1.00  0.00    -0.324 N 
ATOM     11  C   UNL A   1      34.762  21.552  24.482  1.00  0.00     0.318 C 
ATOM     12  H   UNL A   1      32.880  21.546  24.887  1.00  0.00     0.166 HD
ATOM     13  O   UNL A   1      34.695  20.326  24.632  1.00  0.00    -0.249 OA
BRANCH  11  14
ATOM     14  N   UNL A   1      35.967  22.189  24.402  1.00  0.00    -0.326 N 
ATOM     15  C   UNL A   1      36.653  22.599  23.188  1.00  0.00     0.148 C 
BRANCH  14  16
ATOM     16  C   UNL A   1      36.827  22.310  25.611  1.00  0.00     0.149 C 
BRANCH  16  17
ATOM     17  C   UNL A   1      37.221  23.708  26.126  1.00  0.00     0.177 C 
BRANCH  17  18
ATOM     18  O   UNL A   1      38.544  24.081  25.766  1.00  0.00    -0.395 OA
ATOM     19  H   UNL A   1      39.167  23.408  26.081  1.00  0.00     0.210 HD
ENDBRANCH  17  18
ENDBRANCH  16  17
ENDBRANCH  14  16
ENDBRANCH  11  14
ENDBRANCH   6  10
ENDBRANCH   3   6
ENDBRANCH   1   2
BRANCH   1  20
ATOM     20  C   UNL A   1      32.566  27.574  23.315  1.00  0.00     0.023 C 
BRANCH  20  21
ATOM     21  C   UNL A   1      32.844  29.011  23.736  1.00  0.00     0.023 C 
BRANCH  21  22
ATOM     22  C   UNL A   1      33.105  29.164  25.222  1.00  0.00     0.116 C 
BRANCH  22  23
ATOM     23  N   UNL A   1      32.571  30.418  25.737  1.00  0.00    -0.352 N 
ATOM     24  C   UNL A   1      32.957  31.151  26.828  1.00  0.00     0.251 C 
ATOM     25  H   UNL A   1      31.820  30.795  25.223  1.00  0.00     0.163 HD
ATOM     26  O   UNL A   1      32.223  32.045  27.249  1.00  0.00    -0.269 OA
BRANCH  24  27
ATOM     27  C   UNL A   1      34.239  30.853  27.496  1.00  0.00     0.039 A 
ATOM     28  C   UNL A   1      35.183  31.869  27.656  1.00  0.00     0.014 A 
ATOM     29  C   UNL A   1      34.501  29.569  27.974  1.00  0.00     0.014 A 
ATOM     30  C   UNL A   1      36.365  31.604  28.351  1.00  0.00     0.010 A 
ATOM     31  C   UNL A   1      35.613  29.342  28.772  1.00  0.00     0.010 A 
ATOM     32  C   UNL A   1      36.570  30.350  28.949  1.00  0.00    -0.014 A 
BRANCH  32  33
ATOM     33  C   UNL A   1      37.795  30.046  29.730  1.00  0.00     0.031 A 
ATOM     34  C   UNL A   1      38.819  29.095  29.164  1.00  0.00     0.074 A 
ATOM     35  C   UNL A   1      37.946  30.560  30.965  1.00  0.00     0.049 A 
ATOM     36  N   UNL A   1      39.897  28.610  29.722  1.00  0.00    -0.248 NA
ATOM     37  C   UNL A   1      38.571  28.591  27.803  1.00  0.00     0.031 C 
ATOM     38  C   UNL A   1      36.995  31.454  31.633  1.00  0.00     0.029 A 
ATOM     39  N   UNL A   1      38.951  30.404  31.885  1.00  0.00    -0.354 N 
ATOM     40  C   UNL A   1      40.439  27.729  28.793  1.00  0.00     0.074 A 
ATOM     41  C   UNL A   1      39.528  27.686  27.671  1.00  0.00     0.031 C 
ATOM     42  C   UNL A   1      37.482  31.794  32.837  1.00  0.00     0.029 A 
ATOM     43  C   UNL A   1      38.748  31.101  33.053  1.00  0.00     0.049 A 
ATOM     44  H   UNL A   1      39.746  29.844  31.723  1.00  0.00     0.167 HD
ATOM     45  C   UNL A   1      41.606  27.043  28.856  1.00  0.00     0.034 A 
ATOM     46  C   UNL A   1      39.491  31.163  34.175  1.00  0.00     0.034 A 
ATOM     47  C   UNL A   1      42.511  27.122  29.975  1.00  0.00     0.049 A 
ATOM     48  C   UNL A   1      40.778  30.379  34.229  1.00  0.00     0.074 A 
ATOM     49  C   UNL A   1      43.748  26.521  30.127  1.00  0.00     0.029 A 
ATOM     50  N   UNL A   1      42.276  27.845  31.137  1.00  0.00    -0.354 N 
ATOM     51  N   UNL A   1      41.304  29.588  33.321  1.00  0.00    -0.248 NA
ATOM     52  C   UNL A   1      41.577  30.502  35.455  1.00  0.00     0.031 C 
ATOM     53  C   UNL A   1      44.224  26.820  31.407  1.00  0.00     0.029 A 
ATOM     54  C   UNL A   1      43.328  27.679  32.024  1.00  0.00     0.049 A 
ATOM     55  H   UNL A   1      41.477  28.396  31.308  1.00  0.00     0.167 HD
ATOM     56  C   UNL A   1      42.513  29.149  33.854  1.00  0.00     0.074 A 
ATOM     57  C   UNL A   1      42.642  29.776  35.154  1.00  0.00     0.031 C 
ATOM     58  C   UNL A   1      43.435  28.307  33.320  1.00  0.00     0.034 A 
BRANCH  45  59
ATOM     59  C   UNL A   1      41.951  26.143  27.692  1.00  0.00     0.023 A 
ATOM     60  C   UNL A   1      41.554  24.794  27.655  1.00  0.00     0.031 A 
ATOM     61  C   UNL A   1      42.718  26.628  26.618  1.00  0.00     0.131 A 
ATOM     62  C   UNL A   1      41.994  23.959  26.617  1.00  0.00     0.055 A 
ATOM     63  C   UNL A   1      43.075  25.814  25.540  1.00  0.00     0.041 A 
ATOM     64  F   UNL A   1      43.149  27.898  26.604  1.00  0.00    -0.206 F 
ATOM     65  C   UNL A   1      42.727  24.467  25.543  1.00  0.00     0.022 A 
BRANCH  62  66
ATOM     66  S   UNL A   1      41.727  22.172  26.772  1.00  0.00     0.124 S 
ATOM     67  O   UNL A   1      40.270  22.098  26.851  1.00  0.00    -0.237 OA
ATOM     68  O   UNL A   1      42.328  21.655  25.549  1.00  0.00    -0.237 OA
ATOM     69  O   UNL A   1      42.428  21.827  28.008  1.00  0.00    -0.744 OA
ENDBRANCH  62  66
ENDBRANCH  45  59
BRANCH  46  70
ATOM     70  C   UNL A   1      39.046  31.988  35.334  1.00  0.00     0.023 A 
ATOM     71  C   UNL A   1      38.456  31.392  36.461  1.00  0.00     0.031 A 
ATOM     72  C   UNL A   1      39.165  33.390  35.318  1.00  0.00     0.131 A 
ATOM     73  C   UNL A   1      37.959  32.196  37.499  1.00  0.00     0.055 A 
ATOM     74  C   UNL A   1      38.723  34.181  36.381  1.00  0.00     0.041 A 
ATOM     75  F   UNL A   1      39.724  34.012  34.269  1.00  0.00    -0.206 F 
ATOM     76  C   UNL A   1      38.102  33.584  37.474  1.00  0.00     0.022 A 
BRANCH  73  77
ATOM     77  S   UNL A   1      37.032  31.403  38.842  1.00  0.00     0.124 S 
ATOM     78  O   UNL A   1      37.941  31.577  39.970  1.00  0.00    -0.237 OA
ATOM     79  O   UNL A   1      35.808  32.197  38.875  1.00  0.00    -0.237 OA
ATOM     80  O   UNL A   1      36.869  30.028  38.376  1.00  0.00    -0.744 OA
ENDBRANCH  73  77
ENDBRANCH  46  70
BRANCH  58  81
ATOM     81  C   UNL A   1      44.687  28.061  34.126  1.00  0.00     0.023 A 
ATOM     82  C   UNL A   1      44.789  26.988  35.028  1.00  0.00     0.031 A 
ATOM     83  C   UNL A   1      45.793  28.919  33.990  1.00  0.00     0.131 A 
ATOM     84  C   UNL A   1      45.948  26.837  35.802  1.00  0.00     0.055 A 
ATOM     85  C   UNL A   1      46.969  28.723  34.713  1.00  0.00     0.041 A 
ATOM     86  F   UNL A   1      45.749  29.962  33.145  1.00  0.00    -0.206 F 
ATOM     87  C   UNL A   1      47.046  27.685  35.637  1.00  0.00     0.022 A 
BRANCH  84  88
ATOM     88  S   UNL A   1      45.964  25.575  37.106  1.00  0.00     0.124 S 
ATOM     89  O   UNL A   1      45.707  26.372  38.301  1.00  0.00    -0.237 OA
ATOM     90  O   UNL A   1      44.885  24.684  36.691  1.00  0.00    -0.237 OA
ATOM     91  O   UNL A   1      47.307  25.005  37.016  1.00  0.00    -0.744 OA
ENDBRANCH  84  88
ENDBRANCH  58  81
ENDBRANCH  32  33
ENDBRANCH  24  27
ENDBRANCH  22  23
ENDBRANCH  21  22
ENDBRANCH  20  21
ENDBRANCH   1  20
TORSDOF 20
ENDMDL
MODEL 3
REMARK VINA RESULT:      -9.8      1.809      2.943
REMARK SMILES CC[C@@](C)(NC(=O)N(C)CCO)C(=O)NCCCCNC(=O)c1ccc(-c2c3nc(c(-c4cc(S(=O)(=O)[O-])ccc4F)c4ccc([nH]4)c(-c4cc(S(=O)(=O)[O-])ccc4F)c4nc(c(-c5cc(S(=O)(=O)[O-])ccc5F)c5ccc2[nH]5)C=C4)C=C3)cc1
REMARK SMILES IDX 16 1 15 2 13 3 14 4 3 6 4 7 2 8 1 9 5 10 6 11 7 13 8 14 9 15
REMARK SMILES IDX 10 16 11 17 12 18 17 20 18 21 19 22 20 23 21 24 22 26 23 27
REMARK SMILES IDX 24 28 85 29 25 30 84 31 26 32 27 33 28 34 78 35 29 36 83 37
REMARK SMILES IDX 77 38 79 39 30 40 82 41 76 42 75 43 31 45 63 46 43 47 62 48
REMARK SMILES IDX 44 49 47 50 61 51 80 52 45 53 46 54 60 56 81 57 48 58 32 59
REMARK SMILES IDX 33 60 41 61 34 62 40 63 42 64 39 65 35 66 36 67 37 68 38 69
REMARK SMILES IDX 64 70 65 71 73 72 66 73 72 74 74 75 71 76 67 77 68 78 69 79
REMARK SMILES IDX 70 80 49 81 50 82 58 83 51 84 57 85 59 86 56 87 52 88 53 89
REMARK SMILES IDX 54 90 55 91
REMARK H PARENT 15 5 5 12 12 19 20 25 79 44 47 55
REMARK Flexibility Score: inf
ROOT
ATOM      1  C   UNL A   1      31.738  26.333  26.654  1.00  0.00     0.116 C 
ENDROOT
BRANCH   1   2
ATOM      2  N   UNL A   1      33.065  25.978  26.183  1.00  0.00    -0.354 N 
ATOM      3  C   UNL A   1      33.557  24.865  25.564  1.00  0.00     0.245 C 
ATOM      4  O   UNL A   1      34.730  24.935  25.186  1.00  0.00    -0.272 OA
ATOM      5  H   UNL A   1      33.742  26.677  26.341  1.00  0.00     0.163 HD
BRANCH   3   6
ATOM      6  C   UNL A   1      32.666  23.628  25.243  1.00  0.00     0.117 C 
ATOM      7  C   UNL A   1      33.551  22.682  24.374  1.00  0.00     0.045 C 
BRANCH   6   8
ATOM      8  C   UNL A   1      32.214  22.770  26.465  1.00  0.00     0.035 C 
ATOM      9  C   UNL A   1      33.209  22.604  27.612  1.00  0.00     0.007 C 
ENDBRANCH   6   8
BRANCH   6  10
ATOM     10  N   UNL A   1      31.459  23.997  24.454  1.00  0.00    -0.324 N 
ATOM     11  C   UNL A   1      31.097  24.842  23.467  1.00  0.00     0.318 C 
ATOM     12  H   UNL A   1      30.686  23.459  24.742  1.00  0.00     0.166 HD
ATOM     13  O   UNL A   1      29.873  24.917  23.307  1.00  0.00    -0.249 OA
BRANCH  11  14
ATOM     14  N   UNL A   1      31.961  25.461  22.610  1.00  0.00    -0.326 N 
ATOM     15  C   UNL A   1      32.821  24.819  21.630  1.00  0.00     0.148 C 
BRANCH  14  16
ATOM     16  C   UNL A   1      32.276  26.906  22.786  1.00  0.00     0.149 C 
BRANCH  16  17
ATOM     17  C   UNL A   1      31.242  27.965  22.360  1.00  0.00     0.177 C 
BRANCH  17  18
ATOM     18  O   UNL A   1      31.786  29.276  22.285  1.00  0.00    -0.395 OA
ATOM     19  H   UNL A   1      31.163  29.909  22.674  1.00  0.00     0.210 HD
ENDBRANCH  17  18
ENDBRANCH  16  17
ENDBRANCH  14  16
ENDBRANCH  11  14
ENDBRANCH   6  10
ENDBRANCH   3   6
ENDBRANCH   1   2
BRANCH   1  20
ATOM     20  C   UNL A   1      31.605  27.775  27.117  1.00  0.00     0.023 C 
BRANCH  20  21
ATOM     21  C   UNL A   1      31.745  28.825  26.024  1.00  0.00     0.023 C 
BRANCH  21  22
ATOM     22  C   UNL A   1      33.075  29.554  26.055  1.00  0.00     0.116 C 
BRANCH  22  23
ATOM     23  N   UNL A   1      32.915  30.948  26.447  1.00  0.00    -0.352 N 
ATOM     24  C   UNL A   1      33.615  31.684  27.368  1.00  0.00     0.251 C 
ATOM     25  H   UNL A   1      32.197  31.435  25.982  1.00  0.00     0.163 HD
ATOM     26  O   UNL A   1      33.169  32.768  27.744  1.00  0.00    -0.269 OA
BRANCH  24  27
ATOM     27  C   UNL A   1      34.885  31.164  27.910  1.00  0.00     0.039 A 
ATOM     28  C   UNL A   1      35.996  32.006  27.987  1.00  0.00     0.014 A 
ATOM     29  C   UNL A   1      34.973  29.843  28.352  1.00  0.00     0.014 A 
ATOM     30  C   UNL A   1      37.175  31.535  28.565  1.00  0.00     0.010 A 
ATOM     31  C   UNL A   1      36.100  29.419  29.040  1.00  0.00     0.010 A 
ATOM     32  C   UNL A   1      37.224  30.251  29.132  1.00  0.00    -0.014 A 
BRANCH  32  33
ATOM     33  C   UNL A   1      38.448  29.731  29.793  1.00  0.00     0.031 A 
ATOM     34  C   UNL A   1      38.841  30.261  31.148  1.00  0.00     0.074 A 
ATOM     35  C   UNL A   1      39.235  28.850  29.146  1.00  0.00     0.049 A 
ATOM     36  N   UNL A   1      39.921  30.029  31.847  1.00  0.00    -0.248 NA
ATOM     37  C   UNL A   1      37.913  31.215  31.779  1.00  0.00     0.031 C 
ATOM     38  C   UNL A   1      38.977  28.306  27.810  1.00  0.00     0.029 A 
ATOM     39  N   UNL A   1      40.415  28.260  29.520  1.00  0.00    -0.354 N 
ATOM     40  C   UNL A   1      39.812  30.822  32.984  1.00  0.00     0.074 A 
ATOM     41  C   UNL A   1      38.603  31.601  32.840  1.00  0.00     0.031 C 
ATOM     42  C   UNL A   1      39.950  27.435  27.495  1.00  0.00     0.029 A 
ATOM     43  C   UNL A   1      40.929  27.401  28.576  1.00  0.00     0.049 A 
ATOM     44  H   UNL A   1      40.854  28.436  30.384  1.00  0.00     0.167 HD
ATOM     45  C   UNL A   1      40.629  30.872  34.064  1.00  0.00     0.034 A 
ATOM     46  C   UNL A   1      42.066  26.678  28.579  1.00  0.00     0.034 A 
ATOM     47  C   UNL A   1      41.817  30.066  34.196  1.00  0.00     0.049 A 
ATOM     48  C   UNL A   1      42.968  26.762  29.784  1.00  0.00     0.074 A 
ATOM     49  C   UNL A   1      42.690  29.986  35.267  1.00  0.00     0.029 A 
ATOM     50  N   UNL A   1      42.301  29.200  33.224  1.00  0.00    -0.354 N 
ATOM     51  N   UNL A   1      42.827  27.479  30.875  1.00  0.00    -0.248 NA
ATOM     52  C   UNL A   1      44.179  25.931  29.762  1.00  0.00     0.031 C 
ATOM     53  C   UNL A   1      43.738  29.132  34.912  1.00  0.00     0.029 A 
ATOM     54  C   UNL A   1      43.477  28.608  33.655  1.00  0.00     0.049 A 
ATOM     55  H   UNL A   1      41.871  29.031  32.353  1.00  0.00     0.167 HD
ATOM     56  C   UNL A   1      43.914  27.158  31.684  1.00  0.00     0.074 A 
ATOM     57  C   UNL A   1      44.689  26.172  30.960  1.00  0.00     0.031 C 
ATOM     58  C   UNL A   1      44.241  27.632  32.914  1.00  0.00     0.034 A 
BRANCH  45  59
ATOM     59  C   UNL A   1      40.270  31.840  35.167  1.00  0.00     0.023 A 
ATOM     60  C   UNL A   1      39.410  31.480  36.220  1.00  0.00     0.031 A 
ATOM     61  C   UNL A   1      40.766  33.156  35.150  1.00  0.00     0.131 A 
ATOM     62  C   UNL A   1      39.005  32.440  37.159  1.00  0.00     0.055 A 
ATOM     63  C   UNL A   1      40.432  34.083  36.141  1.00  0.00     0.041 A 
ATOM     64  F   UNL A   1      41.571  33.571  34.160  1.00  0.00    -0.206 F 
ATOM     65  C   UNL A   1      39.533  33.732  37.144  1.00  0.00     0.022 A 
BRANCH  62  66
ATOM     66  S   UNL A   1      37.660  32.020  38.301  1.00  0.00     0.124 S 
ATOM     67  O   UNL A   1      36.673  33.050  37.984  1.00  0.00    -0.237 OA
ATOM     68  O   UNL A   1      37.317  30.662  37.899  1.00  0.00    -0.237 OA
ATOM     69  O   UNL A   1      38.278  32.146  39.620  1.00  0.00    -0.744 OA
ENDBRANCH  62  66
ENDBRANCH  45  59
BRANCH  46  70
ATOM     70  C   UNL A   1      42.420  25.819  27.413  1.00  0.00     0.023 A 
ATOM     71  C   UNL A   1      42.009  24.478  27.352  1.00  0.00     0.031 A 
ATOM     72  C   UNL A   1      43.211  26.312  26.359  1.00  0.00     0.131 A 
ATOM     73  C   UNL A   1      42.432  23.662  26.291  1.00  0.00     0.055 A 
ATOM     74  C   UNL A   1      43.579  25.513  25.275  1.00  0.00     0.041 A 
ATOM     75  F   UNL A   1      43.629  27.588  26.363  1.00  0.00    -0.206 F 
ATOM     76  C   UNL A   1      43.202  24.174  25.245  1.00  0.00     0.022 A 
BRANCH  73  77
ATOM     77  S   UNL A   1      42.043  21.891  26.349  1.00  0.00     0.124 S 
ATOM     78  O   UNL A   1      42.417  21.552  27.718  1.00  0.00    -0.237 OA
ATOM     79  O   UNL A   1      40.614  21.886  26.055  1.00  0.00    -0.237 OA
ATOM     80  O   UNL A   1      42.895  21.322  25.309  1.00  0.00    -0.744 OA
ENDBRANCH  73  77
ENDBRANCH  46  70
BRANCH  58  81
ATOM     81  C   UNL A   1      45.467  27.044  33.570  1.00  0.00     0.023 A 
ATOM     82  C   UNL A   1      45.401  25.881  34.357  1.00  0.00     0.031 A 
ATOM     83  C   UNL A   1      46.719  27.663  33.406  1.00  0.00     0.131 A 
ATOM     84  C   UNL A   1      46.554  25.409  34.999  1.00  0.00     0.055 A 
ATOM     85  C   UNL A   1      47.875  27.148  33.993  1.00  0.00     0.041 A 
ATOM     86  F   UNL A   1      46.839  28.778  32.668  1.00  0.00    -0.206 F 
ATOM     87  C   UNL A   1      47.794  26.023  34.806  1.00  0.00     0.022 A 
BRANCH  84  88
ATOM     88  S   UNL A   1      46.394  24.037  36.176  1.00  0.00     0.124 S 
ATOM     89  O   UNL A   1      46.724  24.684  37.441  1.00  0.00    -0.237 OA
ATOM     90  O   UNL A   1      44.999  23.643  36.007  1.00  0.00    -0.237 OA
ATOM     91  O   UNL A   1      47.375  23.062  35.702  1.00  0.00    -0.744 OA
ENDBRANCH  84  88
ENDBRANCH  58  81
ENDBRANCH  32  33
ENDBRANCH  24  27
ENDBRANCH  22  23
ENDBRANCH  21  22
ENDBRANCH  20  21
ENDBRANCH   1  20
TORSDOF 20
ENDMDL
