MODEL 1
REMARK VINA RESULT:     -11.4      0.000      0.000
REMARK SMILES N#Cc1ccccc1NC(=O)C[N@H+]1CCCC[C@H]1C(=O)NCCCCNC(=O)c1ccc(-c2c3nc(c(-c4cc(S(=O)(=O)[O-])ccc4F)c4ccc([nH]4)c(-c4cc(S(=O)(=O)[O-])ccc4F)c4nc(c(-c5cc(S(=O)(=O)[O-])ccc5F)c5ccc2[nH]5)C=C4)C=C3)cc1
REMARK SMILES IDX 23 1 22 2 21 3 19 4 20 5 18 7 13 8 14 9 15 11 17 12 16 13
REMARK SMILES IDX 12 14 10 15 9 16 11 18 8 19 3 20 4 21 5 22 7 23 6 24 2 25
REMARK SMILES IDX 1 26 24 27 25 28 26 29 27 30 28 32 29 33 30 34 91 35 31 36
REMARK SMILES IDX 90 37 32 38 33 39 34 40 84 41 35 42 89 43 83 44 85 45 36 46
REMARK SMILES IDX 88 47 82 48 81 49 37 51 69 52 49 53 68 54 50 55 53 56 67 57
REMARK SMILES IDX 86 58 51 59 52 60 66 62 87 63 54 64 38 65 39 66 47 67 40 68
REMARK SMILES IDX 46 69 48 70 45 71 41 72 42 73 43 74 44 75 70 76 71 77 79 78
REMARK SMILES IDX 72 79 78 80 80 81 77 82 73 83 74 84 75 85 76 86 55 87 56 88
REMARK SMILES IDX 64 89 57 90 63 91 65 92 62 93 58 94 59 95 60 96 61 97
REMARK H PARENT 21 6 13 10 9 17 26 31 85 50 53 61
REMARK Flexibility Score: inf
ROOT
ATOM      1  C   UNL A   1      33.690  27.635  23.628  1.00  0.00     0.023 C 
ENDROOT
BRANCH   1   2
ATOM      2  C   UNL A   1      34.078  26.475  24.539  1.00  0.00     0.116 C 
BRANCH   2   3
ATOM      3  N   UNL A   1      34.032  25.259  23.769  1.00  0.00    -0.351 N 
ATOM      4  C   UNL A   1      34.635  24.067  24.006  1.00  0.00     0.278 C 
ATOM      5  O   UNL A   1      34.790  23.352  23.016  1.00  0.00    -0.268 OA
ATOM      6  H   UNL A   1      33.482  25.298  22.952  1.00  0.00     0.163 HD
BRANCH   4   7
ATOM      7  C   UNL A   1      34.997  23.640  25.456  1.00  0.00     0.274 C 
ATOM      8  N   UNL A   1      34.505  22.286  25.790  1.00  0.00    -0.317 N 
ATOM      9  C   UNL A   1      35.141  21.225  25.000  1.00  0.00     0.263 C 
ATOM     10  H   UNL A   1      34.841  22.171  26.746  1.00  0.00     0.349 HD
ATOM     11  C   UNL A   1      36.681  21.303  25.037  1.00  0.00     0.062 C 
ATOM     12  C   UNL A   1      36.501  23.671  25.748  1.00  0.00     0.076 C 
ATOM     13  C   UNL A   1      37.238  22.708  24.842  1.00  0.00     0.012 C 
BRANCH   8  14
ATOM     14  C   UNL A   1      33.051  22.110  26.016  1.00  0.00     0.364 C 
BRANCH  14  15
ATOM     15  C   UNL A   1      32.352  22.930  27.108  1.00  0.00     0.279 C 
ATOM     16  N   UNL A   1      31.532  24.006  26.864  1.00  0.00    -0.320 N 
ATOM     17  H   UNL A   1      31.143  24.392  27.683  1.00  0.00     0.170 HD
ATOM     18  O   UNL A   1      32.531  22.633  28.298  1.00  0.00    -0.268 OA
BRANCH  16  19
ATOM     19  C   UNL A   1      31.130  24.677  25.684  1.00  0.00     0.059 A 
ATOM     20  C   UNL A   1      30.899  26.070  25.714  1.00  0.00     0.076 A 
ATOM     21  C   UNL A   1      30.266  26.705  24.629  1.00  0.00     0.021 A 
ATOM     22  C   UNL A   1      29.882  25.974  23.509  1.00  0.00     0.002 A 
ATOM     23  C   UNL A   1      30.877  24.000  24.488  1.00  0.00     0.027 A 
ATOM     24  C   UNL A   1      30.222  24.631  23.425  1.00  0.00     0.002 A 
BRANCH  20  25
ATOM     25  C   UNL A   1      31.148  26.864  26.879  1.00  0.00     0.101 C 
ATOM     26  N   UNL A   1      31.347  27.557  27.793  1.00  0.00    -0.192 NA
ENDBRANCH  20  25
ENDBRANCH  16  19
ENDBRANCH  14  15
ENDBRANCH   8  14
ENDBRANCH   4   7
ENDBRANCH   2   3
ENDBRANCH   1   2
BRANCH   1  27
ATOM     27  C   UNL A   1      33.249  28.877  24.417  1.00  0.00     0.023 C 
BRANCH  27  28
ATOM     28  C   UNL A   1      33.945  29.031  25.764  1.00  0.00     0.116 C 
BRANCH  28  29
ATOM     29  N   UNL A   1      33.674  30.336  26.347  1.00  0.00    -0.352 N 
ATOM     30  C   UNL A   1      34.269  30.916  27.436  1.00  0.00     0.251 C 
ATOM     31  H   UNL A   1      32.976  30.870  25.904  1.00  0.00     0.163 HD
ATOM     32  O   UNL A   1      33.749  31.888  27.974  1.00  0.00    -0.269 OA
BRANCH  30  33
ATOM     33  C   UNL A   1      35.528  30.341  27.944  1.00  0.00     0.039 A 
ATOM     34  C   UNL A   1      36.700  30.522  27.214  1.00  0.00     0.014 A 
ATOM     35  C   UNL A   1      35.540  29.645  29.158  1.00  0.00     0.014 A 
ATOM     36  C   UNL A   1      37.898  30.020  27.719  1.00  0.00     0.010 A 
ATOM     37  C   UNL A   1      36.748  29.234  29.703  1.00  0.00     0.010 A 
ATOM     38  C   UNL A   1      37.936  29.391  28.976  1.00  0.00    -0.014 A 
BRANCH  38  39
ATOM     39  C   UNL A   1      39.209  28.854  29.517  1.00  0.00     0.031 A 
ATOM     40  C   UNL A   1      39.816  29.465  30.751  1.00  0.00     0.074 A 
ATOM     41  C   UNL A   1      39.822  27.832  28.888  1.00  0.00     0.049 A 
ATOM     42  N   UNL A   1      40.908  29.130  31.388  1.00  0.00    -0.248 NA
ATOM     43  C   UNL A   1      39.116  30.622  31.331  1.00  0.00     0.031 C 
ATOM     44  C   UNL A   1      39.342  27.186  27.665  1.00  0.00     0.029 A 
ATOM     45  N   UNL A   1      40.968  27.148  29.197  1.00  0.00    -0.354 N 
ATOM     46  C   UNL A   1      41.032  30.040  32.432  1.00  0.00     0.074 A 
ATOM     47  C   UNL A   1      39.945  30.984  32.297  1.00  0.00     0.031 C 
ATOM     48  C   UNL A   1      40.156  26.164  27.361  1.00  0.00     0.029 A 
ATOM     49  C   UNL A   1      41.245  26.116  28.331  1.00  0.00     0.049 A 
ATOM     50  H   UNL A   1      41.541  27.374  29.965  1.00  0.00     0.167 HD
ATOM     51  C   UNL A   1      41.952  30.069  33.428  1.00  0.00     0.034 A 
ATOM     52  C   UNL A   1      42.263  25.233  28.320  1.00  0.00     0.034 A 
ATOM     53  C   UNL A   1      43.029  29.116  33.542  1.00  0.00     0.049 A 
ATOM     54  C   UNL A   1      43.304  25.318  29.410  1.00  0.00     0.074 A 
ATOM     55  C   UNL A   1      43.988  29.017  34.534  1.00  0.00     0.029 A 
ATOM     56  N   UNL A   1      43.304  28.112  32.622  1.00  0.00    -0.354 N 
ATOM     57  N   UNL A   1      43.373  26.145  30.428  1.00  0.00    -0.248 NA
ATOM     58  C   UNL A   1      44.396  24.340  29.352  1.00  0.00     0.031 C 
ATOM     59  C   UNL A   1      44.898  28.021  34.164  1.00  0.00     0.029 A 
ATOM     60  C   UNL A   1      44.445  27.419  33.001  1.00  0.00     0.049 A 
ATOM     61  H   UNL A   1      42.769  27.919  31.820  1.00  0.00     0.167 HD
ATOM     62  C   UNL A   1      44.494  25.756  31.158  1.00  0.00     0.074 A 
ATOM     63  C   UNL A   1      45.057  24.613  30.467  1.00  0.00     0.031 C 
ATOM     64  C   UNL A   1      45.006  26.287  32.298  1.00  0.00     0.034 A 
BRANCH  51  65
ATOM     65  C   UNL A   1      41.851  31.190  34.438  1.00  0.00     0.023 A 
ATOM     66  C   UNL A   1      40.853  31.212  35.430  1.00  0.00     0.031 A 
ATOM     67  C   UNL A   1      42.742  32.276  34.383  1.00  0.00     0.131 A 
ATOM     68  C   UNL A   1      40.714  32.335  36.260  1.00  0.00     0.055 A 
ATOM     69  C   UNL A   1      42.661  33.344  35.279  1.00  0.00     0.041 A 
ATOM     70  F   UNL A   1      43.700  32.329  33.444  1.00  0.00    -0.206 F 
ATOM     71  C   UNL A   1      41.631  33.387  36.213  1.00  0.00     0.022 A 
BRANCH  68  72
ATOM     72  S   UNL A   1      39.215  32.483  37.272  1.00  0.00     0.124 S 
ATOM     73  O   UNL A   1      38.530  31.227  36.970  1.00  0.00    -0.237 OA
ATOM     74  O   UNL A   1      39.756  32.606  38.621  1.00  0.00    -0.237 OA
ATOM     75  O   UNL A   1      38.563  33.680  36.747  1.00  0.00    -0.744 OA
ENDBRANCH  68  72
ENDBRANCH  51  65
BRANCH  52  76
ATOM     76  C   UNL A   1      42.354  24.189  27.259  1.00  0.00     0.023 A 
ATOM     77  C   UNL A   1      41.684  22.963  27.394  1.00  0.00     0.031 A 
ATOM     78  C   UNL A   1      43.154  24.379  26.118  1.00  0.00     0.131 A 
ATOM     79  C   UNL A   1      41.870  21.954  26.437  1.00  0.00     0.055 A 
ATOM     80  C   UNL A   1      43.282  23.397  25.134  1.00  0.00     0.041 A 
ATOM     81  F   UNL A   1      43.819  25.531  25.937  1.00  0.00    -0.206 F 
ATOM     82  C   UNL A   1      42.651  22.168  25.299  1.00  0.00     0.022 A 
BRANCH  79  83
ATOM     83  S   UNL A   1      41.166  20.314  26.759  1.00  0.00     0.124 S 
ATOM     84  O   UNL A   1      40.027  20.297  25.847  1.00  0.00    -0.237 OA
ATOM     85  O   UNL A   1      42.278  19.434  26.414  1.00  0.00    -0.237 OA
ATOM     86  O   UNL A   1      40.828  20.361  28.179  1.00  0.00    -0.744 OA
ENDBRANCH  79  83
ENDBRANCH  52  76
BRANCH  64  87
ATOM     87  C   UNL A   1      46.206  25.595  32.903  1.00  0.00     0.023 A 
ATOM     88  C   UNL A   1      46.077  24.573  33.860  1.00  0.00     0.031 A 
ATOM     89  C   UNL A   1      47.506  25.988  32.532  1.00  0.00     0.131 A 
ATOM     90  C   UNL A   1      47.222  24.037  34.469  1.00  0.00     0.055 A 
ATOM     91  C   UNL A   1      48.642  25.390  33.078  1.00  0.00     0.041 A 
ATOM     92  F   UNL A   1      47.695  26.964  31.628  1.00  0.00    -0.206 F 
ATOM     93  C   UNL A   1      48.503  24.422  34.068  1.00  0.00     0.022 A 
BRANCH  90  94
ATOM     94  S   UNL A   1      47.011  22.934  35.894  1.00  0.00     0.124 S 
ATOM     95  O   UNL A   1      45.877  22.115  35.476  1.00  0.00    -0.237 OA
ATOM     96  O   UNL A   1      48.301  22.253  35.954  1.00  0.00    -0.237 OA
ATOM     97  O   UNL A   1      46.741  23.850  37.000  1.00  0.00    -0.744 OA
ENDBRANCH  90  94
ENDBRANCH  64  87
ENDBRANCH  38  39
ENDBRANCH  30  33
ENDBRANCH  28  29
ENDBRANCH  27  28
ENDBRANCH   1  27
TORSDOF 18
ENDMDL
MODEL 2
REMARK VINA RESULT:     -11.3      1.697      3.112
REMARK SMILES N#Cc1ccccc1NC(=O)C[N@H+]1CCCC[C@H]1C(=O)NCCCCNC(=O)c1ccc(-c2c3nc(c(-c4cc(S(=O)(=O)[O-])ccc4F)c4ccc([nH]4)c(-c4cc(S(=O)(=O)[O-])ccc4F)c4nc(c(-c5cc(S(=O)(=O)[O-])ccc5F)c5ccc2[nH]5)C=C4)C=C3)cc1
REMARK SMILES IDX 23 1 22 2 21 3 19 4 20 5 18 7 13 8 14 9 15 11 17 12 16 13
REMARK SMILES IDX 12 14 10 15 9 16 11 18 8 19 3 20 4 21 5 22 7 23 6 24 2 25
REMARK SMILES IDX 1 26 24 27 25 28 26 29 27 30 28 32 29 33 30 34 91 35 31 36
REMARK SMILES IDX 90 37 32 38 33 39 34 40 84 41 35 42 89 43 83 44 85 45 36 46
REMARK SMILES IDX 88 47 82 48 81 49 37 51 69 52 49 53 68 54 50 55 53 56 67 57
REMARK SMILES IDX 86 58 51 59 52 60 66 62 87 63 54 64 38 65 39 66 47 67 40 68
REMARK SMILES IDX 46 69 48 70 45 71 41 72 42 73 43 74 44 75 70 76 71 77 79 78
REMARK SMILES IDX 72 79 78 80 80 81 77 82 73 83 74 84 75 85 76 86 55 87 56 88
REMARK SMILES IDX 64 89 57 90 63 91 65 92 62 93 58 94 59 95 60 96 61 97
REMARK H PARENT 21 6 13 10 9 17 26 31 85 50 53 61
REMARK Flexibility Score: inf
ROOT
ATOM      1  C   UNL A   1      31.786  28.516  27.287  1.00  0.00     0.023 C 
ENDROOT
BRANCH   1   2
ATOM      2  C   UNL A   1      31.136  27.186  26.923  1.00  0.00     0.116 C 
BRANCH   2   3
ATOM      3  N   UNL A   1      30.698  27.256  25.552  1.00  0.00    -0.351 N 
ATOM      4  C   UNL A   1      31.408  27.060  24.413  1.00  0.00     0.278 C 
ATOM      5  O   UNL A   1      30.935  27.586  23.404  1.00  0.00    -0.268 OA
ATOM      6  H   UNL A   1      29.747  27.478  25.424  1.00  0.00     0.163 HD
BRANCH   4   7
ATOM      7  C   UNL A   1      32.667  26.148  24.413  1.00  0.00     0.274 C 
ATOM      8  N   UNL A   1      32.359  24.754  24.029  1.00  0.00    -0.317 N 
ATOM      9  C   UNL A   1      31.895  24.621  22.642  1.00  0.00     0.263 C 
ATOM     10  H   UNL A   1      33.280  24.318  24.065  1.00  0.00     0.349 HD
ATOM     11  C   UNL A   1      32.845  25.299  21.634  1.00  0.00     0.062 C 
ATOM     12  C   UNL A   1      33.786  26.646  23.491  1.00  0.00     0.076 C 
ATOM     13  C   UNL A   1      33.310  26.688  22.054  1.00  0.00     0.012 C 
BRANCH   8  14
ATOM     14  C   UNL A   1      31.644  23.904  25.010  1.00  0.00     0.364 C 
BRANCH  14  15
ATOM     15  C   UNL A   1      32.253  23.680  26.400  1.00  0.00     0.279 C 
ATOM     16  N   UNL A   1      33.566  23.344  26.628  1.00  0.00    -0.320 N 
ATOM     17  H   UNL A   1      33.790  23.272  27.584  1.00  0.00     0.170 HD
ATOM     18  O   UNL A   1      31.532  23.789  27.403  1.00  0.00    -0.268 OA
BRANCH  16  19
ATOM     19  C   UNL A   1      34.665  23.078  25.775  1.00  0.00     0.059 A 
ATOM     20  C   UNL A   1      34.831  21.787  25.228  1.00  0.00     0.076 A 
ATOM     21  C   UNL A   1      36.035  21.440  24.588  1.00  0.00     0.021 A 
ATOM     22  C   UNL A   1      37.065  22.368  24.469  1.00  0.00     0.002 A 
ATOM     23  C   UNL A   1      35.649  24.032  25.503  1.00  0.00     0.027 A 
ATOM     24  C   UNL A   1      36.856  23.673  24.893  1.00  0.00     0.002 A 
BRANCH  20  25
ATOM     25  C   UNL A   1      33.872  20.742  25.422  1.00  0.00     0.101 C 
ATOM     26  N   UNL A   1      33.061  19.928  25.611  1.00  0.00    -0.192 NA
ENDBRANCH  20  25
ENDBRANCH  16  19
ENDBRANCH  14  15
ENDBRANCH   8  14
ENDBRANCH   4   7
ENDBRANCH   2   3
ENDBRANCH   1   2
BRANCH   1  27
ATOM     27  C   UNL A   1      33.320  28.432  27.307  1.00  0.00     0.023 C 
BRANCH  27  28
ATOM     28  C   UNL A   1      34.006  29.481  26.441  1.00  0.00     0.116 C 
BRANCH  28  29
ATOM     29  N   UNL A   1      33.827  30.815  26.992  1.00  0.00    -0.352 N 
ATOM     30  C   UNL A   1      34.518  31.410  28.014  1.00  0.00     0.251 C 
ATOM     31  H   UNL A   1      33.119  31.361  26.578  1.00  0.00     0.163 HD
ATOM     32  O   UNL A   1      34.074  32.419  28.550  1.00  0.00    -0.269 OA
BRANCH  30  33
ATOM     33  C   UNL A   1      35.787  30.803  28.456  1.00  0.00     0.039 A 
ATOM     34  C   UNL A   1      36.987  31.282  27.934  1.00  0.00     0.014 A 
ATOM     35  C   UNL A   1      35.780  29.775  29.406  1.00  0.00     0.014 A 
ATOM     36  C   UNL A   1      38.188  30.741  28.388  1.00  0.00     0.010 A 
ATOM     37  C   UNL A   1      36.979  29.309  29.925  1.00  0.00     0.010 A 
ATOM     38  C   UNL A   1      38.196  29.766  29.401  1.00  0.00    -0.014 A 
BRANCH  38  39
ATOM     39  C   UNL A   1      39.473  29.187  29.886  1.00  0.00     0.031 A 
ATOM     40  C   UNL A   1      40.136  29.755  31.111  1.00  0.00     0.074 A 
ATOM     41  C   UNL A   1      40.038  28.165  29.214  1.00  0.00     0.049 A 
ATOM     42  N   UNL A   1      41.240  29.380  31.703  1.00  0.00    -0.248 NA
ATOM     43  C   UNL A   1      39.485  30.915  31.740  1.00  0.00     0.031 C 
ATOM     44  C   UNL A   1      39.501  27.558  27.995  1.00  0.00     0.029 A 
ATOM     45  N   UNL A   1      41.177  27.446  29.469  1.00  0.00    -0.354 N 
ATOM     46  C   UNL A   1      41.422  30.263  32.762  1.00  0.00     0.074 A 
ATOM     47  C   UNL A   1      40.355  31.235  32.684  1.00  0.00     0.031 C 
ATOM     48  C   UNL A   1      40.279  26.523  27.641  1.00  0.00     0.029 A 
ATOM     49  C   UNL A   1      41.398  26.427  28.572  1.00  0.00     0.049 A 
ATOM     50  H   UNL A   1      41.780  27.641  30.222  1.00  0.00     0.167 HD
ATOM     51  C   UNL A   1      42.375  30.247  33.726  1.00  0.00     0.034 A 
ATOM     52  C   UNL A   1      42.393  25.521  28.507  1.00  0.00     0.034 A 
ATOM     53  C   UNL A   1      43.432  29.267  33.782  1.00  0.00     0.049 A 
ATOM     54  C   UNL A   1      43.472  25.557  29.562  1.00  0.00     0.074 A 
ATOM     55  C   UNL A   1      44.421  29.122  34.738  1.00  0.00     0.029 A 
ATOM     56  N   UNL A   1      43.651  28.277  32.831  1.00  0.00    -0.354 N 
ATOM     57  N   UNL A   1      43.596  26.359  30.595  1.00  0.00    -0.248 NA
ATOM     58  C   UNL A   1      44.537  24.554  29.446  1.00  0.00     0.031 C 
ATOM     59  C   UNL A   1      45.293  28.113  34.316  1.00  0.00     0.029 A 
ATOM     60  C   UNL A   1      44.786  27.549  33.156  1.00  0.00     0.049 A 
ATOM     61  H   UNL A   1      43.084  28.115  32.044  1.00  0.00     0.167 HD
ATOM     62  C   UNL A   1      44.731  25.926  31.276  1.00  0.00     0.074 A 
ATOM     63  C   UNL A   1      45.242  24.786  30.543  1.00  0.00     0.031 C 
ATOM     64  C   UNL A   1      45.295  26.420  32.410  1.00  0.00     0.034 A 
BRANCH  51  65
ATOM     65  C   UNL A   1      42.337  31.348  34.762  1.00  0.00     0.023 A 
ATOM     66  C   UNL A   1      41.344  31.399  35.758  1.00  0.00     0.031 A 
ATOM     67  C   UNL A   1      43.285  32.386  34.730  1.00  0.00     0.131 A 
ATOM     68  C   UNL A   1      41.266  32.508  36.615  1.00  0.00     0.055 A 
ATOM     69  C   UNL A   1      43.262  33.434  35.651  1.00  0.00     0.041 A 
ATOM     70  F   UNL A   1      44.242  32.410  33.789  1.00  0.00    -0.206 F 
ATOM     71  C   UNL A   1      42.238  33.510  36.590  1.00  0.00     0.022 A 
BRANCH  68  72
ATOM     72  S   UNL A   1      39.780  32.711  37.636  1.00  0.00     0.124 S 
ATOM     73  O   UNL A   1      38.985  31.551  37.234  1.00  0.00    -0.237 OA
ATOM     74  O   UNL A   1      40.320  32.677  38.990  1.00  0.00    -0.237 OA
ATOM     75  O   UNL A   1      39.243  34.001  37.208  1.00  0.00    -0.744 OA
ENDBRANCH  68  72
ENDBRANCH  51  65
BRANCH  52  76
ATOM     76  C   UNL A   1      42.422  24.499  27.421  1.00  0.00     0.023 A 
ATOM     77  C   UNL A   1      41.715  23.293  27.546  1.00  0.00     0.031 A 
ATOM     78  C   UNL A   1      43.199  24.689  26.264  1.00  0.00     0.131 A 
ATOM     79  C   UNL A   1      41.842  22.300  26.563  1.00  0.00     0.055 A 
ATOM     80  C   UNL A   1      43.269  23.725  25.256  1.00  0.00     0.041 A 
ATOM     81  F   UNL A   1      43.897  25.822  26.092  1.00  0.00    -0.206 F 
ATOM     82  C   UNL A   1      42.601  22.515  25.410  1.00  0.00     0.022 A 
BRANCH  79  83
ATOM     83  S   UNL A   1      41.091  20.678  26.867  1.00  0.00     0.124 S 
ATOM     84  O   UNL A   1      42.174  19.776  26.489  1.00  0.00    -0.237 OA
ATOM     85  O   UNL A   1      40.783  20.749  28.292  1.00  0.00    -0.237 OA
ATOM     86  O   UNL A   1      39.931  20.669  25.980  1.00  0.00    -0.744 OA
ENDBRANCH  79  83
ENDBRANCH  52  76
BRANCH  64  87
ATOM     87  C   UNL A   1      46.497  25.685  32.958  1.00  0.00     0.023 A 
ATOM     88  C   UNL A   1      47.805  25.956  32.516  1.00  0.00     0.031 A 
ATOM     89  C   UNL A   1      46.325  24.673  33.921  1.00  0.00     0.131 A 
ATOM     90  C   UNL A   1      48.873  25.172  32.976  1.00  0.00     0.055 A 
ATOM     91  C   UNL A   1      47.404  23.957  34.439  1.00  0.00     0.041 A 
ATOM     92  F   UNL A   1      45.100  24.363  34.377  1.00  0.00    -0.206 F 
ATOM     93  C   UNL A   1      48.685  24.191  33.952  1.00  0.00     0.022 A 
BRANCH  90  94
ATOM     94  S   UNL A   1      50.492  25.357  32.178  1.00  0.00     0.124 S 
ATOM     95  O   UNL A   1      51.324  24.457  32.971  1.00  0.00    -0.237 OA
ATOM     96  O   UNL A   1      50.215  24.931  30.810  1.00  0.00    -0.237 OA
ATOM     97  O   UNL A   1      50.792  26.779  32.336  1.00  0.00    -0.744 OA
ENDBRANCH  90  94
ENDBRANCH  64  87
ENDBRANCH  38  39
ENDBRANCH  30  33
ENDBRANCH  28  29
ENDBRANCH  27  28
ENDBRANCH   1  27
TORSDOF 18
ENDMDL
MODEL 3
REMARK VINA RESULT:     -11.2      1.688      2.761
REMARK SMILES N#Cc1ccccc1NC(=O)C[N@H+]1CCCC[C@H]1C(=O)NCCCCNC(=O)c1ccc(-c2c3nc(c(-c4cc(S(=O)(=O)[O-])ccc4F)c4ccc([nH]4)c(-c4cc(S(=O)(=O)[O-])ccc4F)c4nc(c(-c5cc(S(=O)(=O)[O-])ccc5F)c5ccc2[nH]5)C=C4)C=C3)cc1
REMARK SMILES IDX 23 1 22 2 21 3 19 4 20 5 18 7 13 8 14 9 15 11 17 12 16 13
REMARK SMILES IDX 12 14 10 15 9 16 11 18 8 19 3 20 4 21 5 22 7 23 6 24 2 25
REMARK SMILES IDX 1 26 24 27 25 28 26 29 27 30 28 32 29 33 30 34 91 35 31 36
REMARK SMILES IDX 90 37 32 38 33 39 34 40 84 41 35 42 89 43 83 44 85 45 36 46
REMARK SMILES IDX 88 47 82 48 81 49 37 51 69 52 49 53 68 54 50 55 53 56 67 57
REMARK SMILES IDX 86 58 51 59 52 60 66 62 87 63 54 64 38 65 39 66 47 67 40 68
REMARK SMILES IDX 46 69 48 70 45 71 41 72 42 73 43 74 44 75 70 76 71 77 79 78
REMARK SMILES IDX 72 79 78 80 80 81 77 82 73 83 74 84 75 85 76 86 55 87 56 88
REMARK SMILES IDX 64 89 57 90 63 91 65 92 62 93 58 94 59 95 60 96 61 97
REMARK H PARENT 21 6 13 10 9 17 26 31 85 50 53 61
REMARK Flexibility Score: inf
ROOT
ATOM      1  C   UNL A   1      33.018  26.971  24.988  1.00  0.00     0.023 C 
ENDROOT
BRANCH   1   2
ATOM      2  C   UNL A   1      33.325  25.742  25.837  1.00  0.00     0.116 C 
BRANCH   2   3
ATOM      3  N   UNL A   1      33.397  24.597  24.966  1.00  0.00    -0.351 N 
ATOM      4  C   UNL A   1      34.378  23.667  24.848  1.00  0.00     0.278 C 
ATOM      5  O   UNL A   1      34.403  23.066  23.773  1.00  0.00    -0.268 OA
ATOM      6  H   UNL A   1      32.622  24.470  24.371  1.00  0.00     0.163 HD
BRANCH   4   7
ATOM      7  C   UNL A   1      35.315  23.350  26.047  1.00  0.00     0.274 C 
ATOM      8  N   UNL A   1      35.249  21.933  26.461  1.00  0.00    -0.317 N 
ATOM      9  C   UNL A   1      35.749  21.004  25.440  1.00  0.00     0.263 C 
ATOM     10  H   UNL A   1      35.923  21.906  27.226  1.00  0.00     0.349 HD
ATOM     11  C   UNL A   1      37.151  21.389  24.928  1.00  0.00     0.062 C 
ATOM     12  C   UNL A   1      36.786  23.688  25.782  1.00  0.00     0.076 C 
ATOM     13  C   UNL A   1      37.317  22.873  24.621  1.00  0.00     0.012 C 
BRANCH   8  14
ATOM     14  C   UNL A   1      34.039  21.474  27.183  1.00  0.00     0.364 C 
BRANCH  14  15
ATOM     15  C   UNL A   1      32.662  21.633  26.526  1.00  0.00     0.279 C 
ATOM     16  N   UNL A   1      32.106  20.721  25.660  1.00  0.00    -0.320 N 
ATOM     17  H   UNL A   1      31.202  20.970  25.360  1.00  0.00     0.170 HD
ATOM     18  O   UNL A   1      31.990  22.648  26.761  1.00  0.00    -0.268 OA
BRANCH  16  19
ATOM     19  C   UNL A   1      32.561  19.500  25.108  1.00  0.00     0.059 A 
ATOM     20  C   UNL A   1      32.578  19.327  23.707  1.00  0.00     0.076 A 
ATOM     21  C   UNL A   1      32.788  18.049  23.154  1.00  0.00     0.021 A 
ATOM     22  C   UNL A   1      33.001  16.949  23.979  1.00  0.00     0.002 A 
ATOM     23  C   UNL A   1      32.933  18.412  25.903  1.00  0.00     0.027 A 
ATOM     24  C   UNL A   1      33.110  17.139  25.350  1.00  0.00     0.002 A 
BRANCH  20  25
ATOM     25  C   UNL A   1      32.240  20.381  22.799  1.00  0.00     0.101 C 
ATOM     26  N   UNL A   1      31.977  21.276  22.103  1.00  0.00    -0.192 NA
ENDBRANCH  20  25
ENDBRANCH  16  19
ENDBRANCH  14  15
ENDBRANCH   8  14
ENDBRANCH   4   7
ENDBRANCH   2   3
ENDBRANCH   1   2
BRANCH   1  27
ATOM     27  C   UNL A   1      32.799  28.231  25.840  1.00  0.00     0.023 C 
BRANCH  27  28
ATOM     28  C   UNL A   1      33.796  29.347  25.556  1.00  0.00     0.116 C 
BRANCH  28  29
ATOM     29  N   UNL A   1      33.360  30.603  26.148  1.00  0.00    -0.352 N 
ATOM     30  C   UNL A   1      33.833  31.216  27.278  1.00  0.00     0.251 C 
ATOM     31  H   UNL A   1      32.634  31.072  25.677  1.00  0.00     0.163 HD
ATOM     32  O   UNL A   1      33.188  32.115  27.804  1.00  0.00    -0.269 OA
BRANCH  30  33
ATOM     33  C   UNL A   1      35.118  30.763  27.843  1.00  0.00     0.039 A 
ATOM     34  C   UNL A   1      36.210  31.627  27.825  1.00  0.00     0.014 A 
ATOM     35  C   UNL A   1      35.223  29.488  28.410  1.00  0.00     0.014 A 
ATOM     36  C   UNL A   1      37.410  31.217  28.402  1.00  0.00     0.010 A 
ATOM     37  C   UNL A   1      36.388  29.123  29.070  1.00  0.00     0.010 A 
ATOM     38  C   UNL A   1      37.503  29.971  29.048  1.00  0.00    -0.014 A 
BRANCH  38  39
ATOM     39  C   UNL A   1      38.779  29.529  29.663  1.00  0.00     0.031 A 
ATOM     40  C   UNL A   1      39.187  30.065  31.008  1.00  0.00     0.074 A 
ATOM     41  C   UNL A   1      39.572  28.663  29.003  1.00  0.00     0.049 A 
ATOM     42  N   UNL A   1      40.250  29.791  31.719  1.00  0.00    -0.248 NA
ATOM     43  C   UNL A   1      38.296  31.061  31.624  1.00  0.00     0.031 C 
ATOM     44  C   UNL A   1      39.293  28.106  27.678  1.00  0.00     0.029 A 
ATOM     45  N   UNL A   1      40.763  28.087  29.361  1.00  0.00    -0.354 N 
ATOM     46  C   UNL A   1      40.160  30.587  32.857  1.00  0.00     0.074 A 
ATOM     47  C   UNL A   1      38.979  31.406  32.703  1.00  0.00     0.031 C 
ATOM     48  C   UNL A   1      40.255  27.226  27.360  1.00  0.00     0.029 A 
ATOM     49  C   UNL A   1      41.247  27.197  28.430  1.00  0.00     0.049 A 
ATOM     50  H   UNL A   1      41.229  28.291  30.203  1.00  0.00     0.167 HD
ATOM     51  C   UNL A   1      40.974  30.612  33.942  1.00  0.00     0.034 A 
ATOM     52  C   UNL A   1      42.366  26.447  28.438  1.00  0.00     0.034 A 
ATOM     53  C   UNL A   1      42.148  29.785  34.072  1.00  0.00     0.049 A 
ATOM     54  C   UNL A   1      43.283  26.530  29.634  1.00  0.00     0.074 A 
ATOM     55  C   UNL A   1      43.017  29.688  35.145  1.00  0.00     0.029 A 
ATOM     56  N   UNL A   1      42.633  28.928  33.090  1.00  0.00    -0.354 N 
ATOM     57  N   UNL A   1      43.152  27.241  30.731  1.00  0.00    -0.248 NA
ATOM     58  C   UNL A   1      44.491  25.699  29.594  1.00  0.00     0.031 C 
ATOM     59  C   UNL A   1      44.076  28.853  34.775  1.00  0.00     0.029 A 
ATOM     60  C   UNL A   1      43.812  28.336  33.516  1.00  0.00     0.049 A 
ATOM     61  H   UNL A   1      42.202  28.765  32.221  1.00  0.00     0.167 HD
ATOM     62  C   UNL A   1      44.242  26.906  31.532  1.00  0.00     0.074 A 
ATOM     63  C   UNL A   1      45.007  25.921  30.794  1.00  0.00     0.031 C 
ATOM     64  C   UNL A   1      44.575  27.363  32.767  1.00  0.00     0.034 A 
BRANCH  51  65
ATOM     65  C   UNL A   1      40.639  31.594  35.042  1.00  0.00     0.023 A 
ATOM     66  C   UNL A   1      39.657  31.319  36.012  1.00  0.00     0.031 A 
ATOM     67  C   UNL A   1      41.283  32.842  35.098  1.00  0.00     0.131 A 
ATOM     68  C   UNL A   1      39.284  32.311  36.932  1.00  0.00     0.055 A 
ATOM     69  C   UNL A   1      40.978  33.786  36.081  1.00  0.00     0.041 A 
ATOM     70  F   UNL A   1      42.210  33.176  34.187  1.00  0.00    -0.206 F 
ATOM     71  C   UNL A   1      39.960  33.530  36.994  1.00  0.00     0.022 A 
BRANCH  68  72
ATOM     72  S   UNL A   1      37.786  32.053  37.923  1.00  0.00     0.124 S 
ATOM     73  O   UNL A   1      36.871  33.029  37.335  1.00  0.00    -0.237 OA
ATOM     74  O   UNL A   1      37.475  30.651  37.668  1.00  0.00    -0.237 OA
ATOM     75  O   UNL A   1      38.218  32.360  39.285  1.00  0.00    -0.744 OA
ENDBRANCH  68  72
ENDBRANCH  51  65
BRANCH  52  76
ATOM     76  C   UNL A   1      42.686  25.546  27.293  1.00  0.00     0.023 A 
ATOM     77  C   UNL A   1      42.193  24.232  27.249  1.00  0.00     0.031 A 
ATOM     78  C   UNL A   1      43.533  25.965  26.252  1.00  0.00     0.131 A 
ATOM     79  C   UNL A   1      42.593  23.367  26.221  1.00  0.00     0.055 A 
ATOM     80  C   UNL A   1      43.875  25.121  25.193  1.00  0.00     0.041 A 
ATOM     81  F   UNL A   1      44.035  27.209  26.243  1.00  0.00    -0.206 F 
ATOM     82  C   UNL A   1      43.418  23.807  25.183  1.00  0.00     0.022 A 
BRANCH  79  83
ATOM     83  S   UNL A   1      42.112  21.621  26.319  1.00  0.00     0.124 S 
ATOM     84  O   UNL A   1      42.458  21.296  27.698  1.00  0.00    -0.237 OA
ATOM     85  O   UNL A   1      40.686  21.682  26.011  1.00  0.00    -0.237 OA
ATOM     86  O   UNL A   1      42.940  20.982  25.299  1.00  0.00    -0.744 OA
ENDBRANCH  79  83
ENDBRANCH  52  76
BRANCH  64  87
ATOM     87  C   UNL A   1      45.793  26.752  33.422  1.00  0.00     0.023 A 
ATOM     88  C   UNL A   1      45.722  25.568  34.177  1.00  0.00     0.031 A 
ATOM     89  C   UNL A   1      47.045  27.385  33.309  1.00  0.00     0.131 A 
ATOM     90  C   UNL A   1      46.859  25.102  34.854  1.00  0.00     0.055 A 
ATOM     91  C   UNL A   1      48.191  26.868  33.913  1.00  0.00     0.041 A 
ATOM     92  F   UNL A   1      47.176  28.523  32.607  1.00  0.00    -0.206 F 
ATOM     93  C   UNL A   1      48.098  25.730  34.707  1.00  0.00     0.022 A 
BRANCH  90  94
ATOM     94  S   UNL A   1      46.667  23.744  36.042  1.00  0.00     0.124 S 
ATOM     95  O   UNL A   1      47.036  22.584  35.236  1.00  0.00    -0.237 OA
ATOM     96  O   UNL A   1      47.607  24.115  37.094  1.00  0.00    -0.237 OA
ATOM     97  O   UNL A   1      45.256  23.815  36.418  1.00  0.00    -0.744 OA
ENDBRANCH  90  94
ENDBRANCH  64  87
ENDBRANCH  38  39
ENDBRANCH  30  33
ENDBRANCH  28  29
ENDBRANCH  27  28
ENDBRANCH   1  27
TORSDOF 18
ENDMDL
