MODEL 1
REMARK VINA RESULT:     -11.6      0.000      0.000
REMARK SMILES Cc1ccc(C)c([C@@H](C)[N@@H+](CC(=O)NCCCCNC(=O)c2ccc(-c3c4nc(c(-c5cc(S(=O)(=O)[O-])ccc5F)c5ccc([nH]5)c(-c5cc(S(=O)(=O)[O-])ccc5F)c5nc(c(-c6cc(S(=O)(=O)[O-])ccc6F)c6ccc3[nH]6)C=C5)C=C4)cc2)CC(F)(F)F)c1
REMARK SMILES IDX 16 1 15 2 14 3 12 4 13 5 11 7 10 8 8 10 9 11 7 12 1 13 2 14
REMARK SMILES IDX 3 15 90 16 4 17 5 18 6 19 85 20 86 21 87 22 88 23 89 24
REMARK SMILES IDX 17 25 18 26 19 27 20 28 21 30 22 31 23 32 84 33 24 34 83 35
REMARK SMILES IDX 25 36 26 37 27 38 77 39 28 40 82 41 76 42 78 43 29 44 81 45
REMARK SMILES IDX 75 46 74 47 30 49 62 50 42 51 61 52 43 53 46 54 60 55 79 56
REMARK SMILES IDX 44 57 45 58 59 60 80 61 47 62 31 63 32 64 40 65 33 66 39 67
REMARK SMILES IDX 41 68 38 69 34 70 35 71 36 72 37 73 63 74 64 75 72 76 65 77
REMARK SMILES IDX 71 78 73 79 70 80 66 81 67 82 68 83 69 84 48 85 49 86 57 87
REMARK SMILES IDX 50 88 56 89 58 90 55 91 51 92 52 93 53 94 54 95
REMARK H PARENT 14 6 10 9 19 29 78 48 46 59
REMARK Flexibility Score: inf
ROOT
ATOM      1  C   UNL A   1      31.889  29.606  26.716  1.00  0.00     0.023 C 
ENDROOT
BRANCH   1   2
ATOM      2  C   UNL A   1      31.554  29.450  25.192  1.00  0.00     0.116 C 
BRANCH   2   3
ATOM      3  N   UNL A   1      32.656  29.368  24.239  1.00  0.00    -0.351 N 
ATOM      4  C   UNL A   1      32.896  28.557  23.159  1.00  0.00     0.275 C 
ATOM      5  O   UNL A   1      33.908  28.803  22.496  1.00  0.00    -0.269 OA
ATOM      6  H   UNL A   1      33.369  30.027  24.404  1.00  0.00     0.163 HD
BRANCH   4   7
ATOM      7  C   UNL A   1      32.015  27.343  22.822  1.00  0.00     0.364 C 
BRANCH   7   8
ATOM      8  N   UNL A   1      32.507  26.046  23.363  1.00  0.00    -0.314 N 
ATOM      9  H   UNL A   1      31.691  25.438  23.446  1.00  0.00     0.349 HD
BRANCH   8  10
ATOM     10  C   UNL A   1      32.907  26.104  24.769  1.00  0.00     0.212 C 
ATOM     11  C   UNL A   1      34.377  26.410  25.071  1.00  0.00     0.081 C 
BRANCH  10  12
ATOM     12  C   UNL A   1      32.283  25.081  25.734  1.00  0.00     0.012 A 
ATOM     13  C   UNL A   1      33.549  21.732  27.145  1.00  0.00     0.044 C 
ATOM     14  C   UNL A   1      32.643  22.874  26.788  1.00  0.00    -0.051 A 
ATOM     15  C   UNL A   1      31.267  22.744  26.956  1.00  0.00     0.004 A 
ATOM     16  C   UNL A   1      33.140  24.054  26.219  1.00  0.00     0.013 A 
ATOM     17  C   UNL A   1      30.414  23.778  26.574  1.00  0.00     0.004 A 
ATOM     18  C   UNL A   1      30.902  24.955  25.976  1.00  0.00    -0.042 A 
ATOM     19  C   UNL A   1      29.876  25.953  25.521  1.00  0.00     0.045 C 
ENDBRANCH  10  12
ENDBRANCH   8  10
BRANCH   8  20
ATOM     20  C   UNL A   1      33.248  25.186  22.411  1.00  0.00     0.380 C 
BRANCH  20  21
ATOM     21  C   UNL A   1      33.381  23.637  22.434  1.00  0.00     0.438 C 
ATOM     22  F   UNL A   1      32.383  23.020  23.100  1.00  0.00    -0.165 F 
ATOM     23  F   UNL A   1      33.296  23.169  21.157  1.00  0.00    -0.165 F 
ATOM     24  F   UNL A   1      34.553  23.205  22.925  1.00  0.00    -0.165 F 
ENDBRANCH  20  21
ENDBRANCH   8  20
ENDBRANCH   7   8
ENDBRANCH   4   7
ENDBRANCH   2   3
ENDBRANCH   1   2
BRANCH   1  25
ATOM     25  C   UNL A   1      33.347  29.556  27.256  1.00  0.00     0.023 C 
BRANCH  25  26
ATOM     26  C   UNL A   1      34.274  30.803  27.272  1.00  0.00     0.116 C 
BRANCH  26  27
ATOM     27  N   UNL A   1      34.166  31.690  28.415  1.00  0.00    -0.352 N 
ATOM     28  C   UNL A   1      34.925  31.803  29.570  1.00  0.00     0.251 C 
ATOM     29  H   UNL A   1      33.419  32.329  28.360  1.00  0.00     0.163 HD
ATOM     30  O   UNL A   1      34.472  32.453  30.498  1.00  0.00    -0.269 OA
BRANCH  28  31
ATOM     31  C   UNL A   1      36.278  31.181  29.684  1.00  0.00     0.039 A 
ATOM     32  C   UNL A   1      37.438  31.964  29.737  1.00  0.00     0.014 A 
ATOM     33  C   UNL A   1      36.429  29.803  29.680  1.00  0.00     0.014 A 
ATOM     34  C   UNL A   1      38.696  31.342  29.717  1.00  0.00     0.010 A 
ATOM     35  C   UNL A   1      37.637  29.181  29.726  1.00  0.00     0.010 A 
ATOM     36  C   UNL A   1      38.772  29.945  29.661  1.00  0.00    -0.014 A 
BRANCH  36  37
ATOM     37  C   UNL A   1      39.990  29.171  29.765  1.00  0.00     0.031 A 
ATOM     38  C   UNL A   1      40.304  28.820  31.162  1.00  0.00     0.074 A 
ATOM     39  C   UNL A   1      40.528  28.456  28.757  1.00  0.00     0.049 A 
ATOM     40  N   UNL A   1      41.065  29.483  31.961  1.00  0.00    -0.248 NA
ATOM     41  C   UNL A   1      39.487  27.789  31.828  1.00  0.00     0.031 C 
ATOM     42  C   UNL A   1      40.041  28.284  27.385  1.00  0.00     0.029 A 
ATOM     43  N   UNL A   1      41.600  27.626  28.808  1.00  0.00    -0.354 N 
ATOM     44  C   UNL A   1      41.072  28.744  33.132  1.00  0.00     0.074 A 
ATOM     45  C   UNL A   1      39.861  27.975  33.096  1.00  0.00     0.031 C 
ATOM     46  C   UNL A   1      40.724  27.278  26.789  1.00  0.00     0.029 A 
ATOM     47  C   UNL A   1      41.789  26.843  27.678  1.00  0.00     0.049 A 
ATOM     48  H   UNL A   1      42.199  27.583  29.588  1.00  0.00     0.167 HD
ATOM     49  C   UNL A   1      42.225  28.570  33.836  1.00  0.00     0.034 A 
ATOM     50  C   UNL A   1      42.749  25.896  27.506  1.00  0.00     0.034 A 
ATOM     51  C   UNL A   1      43.278  29.417  33.290  1.00  0.00     0.049 A 
ATOM     52  C   UNL A   1      43.833  26.208  28.477  1.00  0.00     0.074 A 
ATOM     53  C   UNL A   1      43.394  30.772  33.027  1.00  0.00     0.029 A 
ATOM     54  N   UNL A   1      44.255  28.813  32.521  1.00  0.00    -0.354 N 
ATOM     55  N   UNL A   1      44.549  27.299  28.428  1.00  0.00    -0.248 NA
ATOM     56  C   UNL A   1      43.818  25.545  29.772  1.00  0.00     0.031 C 
ATOM     57  C   UNL A   1      44.077  30.853  31.775  1.00  0.00     0.029 A 
ATOM     58  C   UNL A   1      44.431  29.560  31.380  1.00  0.00     0.049 A 
ATOM     59  H   UNL A   1      44.742  27.988  32.751  1.00  0.00     0.167 HD
ATOM     60  C   UNL A   1      44.701  27.693  29.750  1.00  0.00     0.074 A 
ATOM     61  C   UNL A   1      44.344  26.512  30.532  1.00  0.00     0.031 C 
ATOM     62  C   UNL A   1      44.814  29.013  30.087  1.00  0.00     0.034 A 
BRANCH  49  63
ATOM     63  C   UNL A   1      42.536  27.384  34.728  1.00  0.00     0.023 A 
ATOM     64  C   UNL A   1      43.445  26.443  34.210  1.00  0.00     0.031 A 
ATOM     65  C   UNL A   1      41.866  26.989  35.909  1.00  0.00     0.131 A 
ATOM     66  C   UNL A   1      43.554  25.157  34.761  1.00  0.00     0.055 A 
ATOM     67  C   UNL A   1      42.029  25.729  36.494  1.00  0.00     0.041 A 
ATOM     68  F   UNL A   1      40.967  27.747  36.539  1.00  0.00    -0.206 F 
ATOM     69  C   UNL A   1      42.848  24.789  35.899  1.00  0.00     0.022 A 
BRANCH  66  70
ATOM     70  S   UNL A   1      44.508  23.927  33.843  1.00  0.00     0.124 S 
ATOM     71  O   UNL A   1      45.434  24.777  33.102  1.00  0.00    -0.237 OA
ATOM     72  O   UNL A   1      45.082  23.130  34.921  1.00  0.00    -0.237 OA
ATOM     73  O   UNL A   1      43.494  23.252  33.035  1.00  0.00    -0.744 OA
ENDBRANCH  66  70
ENDBRANCH  49  63
BRANCH  50  74
ATOM     74  C   UNL A   1      42.683  24.635  26.725  1.00  0.00     0.023 A 
ATOM     75  C   UNL A   1      43.757  24.177  25.935  1.00  0.00     0.031 A 
ATOM     76  C   UNL A   1      41.625  23.725  26.950  1.00  0.00     0.131 A 
ATOM     77  C   UNL A   1      43.751  22.861  25.418  1.00  0.00     0.055 A 
ATOM     78  C   UNL A   1      41.620  22.429  26.430  1.00  0.00     0.041 A 
ATOM     79  F   UNL A   1      40.602  24.038  27.759  1.00  0.00    -0.206 F 
ATOM     80  C   UNL A   1      42.691  21.986  25.670  1.00  0.00     0.022 A 
BRANCH  77  81
ATOM     81  S   UNL A   1      45.191  22.228  24.497  1.00  0.00     0.124 S 
ATOM     82  O   UNL A   1      44.616  21.114  23.752  1.00  0.00    -0.237 OA
ATOM     83  O   UNL A   1      45.599  23.390  23.715  1.00  0.00    -0.237 OA
ATOM     84  O   UNL A   1      46.129  21.844  25.553  1.00  0.00    -0.744 OA
ENDBRANCH  77  81
ENDBRANCH  50  74
BRANCH  62  85
ATOM     85  C   UNL A   1      45.157  30.008  28.989  1.00  0.00     0.023 A 
ATOM     86  C   UNL A   1      46.465  30.390  28.612  1.00  0.00     0.031 A 
ATOM     87  C   UNL A   1      44.090  30.515  28.225  1.00  0.00     0.131 A 
ATOM     88  C   UNL A   1      46.662  31.256  27.517  1.00  0.00     0.055 A 
ATOM     89  C   UNL A   1      44.289  31.356  27.130  1.00  0.00     0.041 A 
ATOM     90  F   UNL A   1      42.822  30.175  28.515  1.00  0.00    -0.206 F 
ATOM     91  C   UNL A   1      45.578  31.735  26.775  1.00  0.00     0.022 A 
BRANCH  88  92
ATOM     92  S   UNL A   1      48.340  31.791  27.044  1.00  0.00     0.124 S 
ATOM     93  O   UNL A   1      48.102  32.873  26.097  1.00  0.00    -0.237 OA
ATOM     94  O   UNL A   1      48.921  32.181  28.325  1.00  0.00    -0.237 OA
ATOM     95  O   UNL A   1      48.928  30.585  26.454  1.00  0.00    -0.744 OA
ENDBRANCH  88  92
ENDBRANCH  62  85
ENDBRANCH  36  37
ENDBRANCH  28  31
ENDBRANCH  26  27
ENDBRANCH  25  26
ENDBRANCH   1  25
TORSDOF 19
ENDMDL
MODEL 2
REMARK VINA RESULT:     -11.6      2.754      7.254
REMARK SMILES Cc1ccc(C)c([C@@H](C)[N@@H+](CC(=O)NCCCCNC(=O)c2ccc(-c3c4nc(c(-c5cc(S(=O)(=O)[O-])ccc5F)c5ccc([nH]5)c(-c5cc(S(=O)(=O)[O-])ccc5F)c5nc(c(-c6cc(S(=O)(=O)[O-])ccc6F)c6ccc3[nH]6)C=C5)C=C4)cc2)CC(F)(F)F)c1
REMARK SMILES IDX 16 1 15 2 14 3 12 4 13 5 11 7 10 8 8 10 9 11 7 12 1 13 2 14
REMARK SMILES IDX 3 15 90 16 4 17 5 18 6 19 85 20 86 21 87 22 88 23 89 24
REMARK SMILES IDX 17 25 18 26 19 27 20 28 21 30 22 31 23 32 84 33 24 34 83 35
REMARK SMILES IDX 25 36 26 37 27 38 77 39 28 40 82 41 76 42 78 43 29 44 81 45
REMARK SMILES IDX 75 46 74 47 30 49 62 50 42 51 61 52 43 53 46 54 60 55 79 56
REMARK SMILES IDX 44 57 45 58 59 60 80 61 47 62 31 63 32 64 40 65 33 66 39 67
REMARK SMILES IDX 41 68 38 69 34 70 35 71 36 72 37 73 63 74 64 75 72 76 65 77
REMARK SMILES IDX 71 78 73 79 70 80 66 81 67 82 68 83 69 84 48 85 49 86 57 87
REMARK SMILES IDX 50 88 56 89 58 90 55 91 51 92 52 93 53 94 54 95
REMARK H PARENT 14 6 10 9 19 29 78 48 46 59
REMARK Flexibility Score: inf
ROOT
ATOM      1  C   UNL A   1      33.362  29.644  26.152  1.00  0.00     0.023 C 
ENDROOT
BRANCH   1   2
ATOM      2  C   UNL A   1      32.482  28.911  25.083  1.00  0.00     0.116 C 
BRANCH   2   3
ATOM      3  N   UNL A   1      31.487  27.945  25.538  1.00  0.00    -0.351 N 
ATOM      4  C   UNL A   1      31.584  26.667  26.029  1.00  0.00     0.275 C 
ATOM      5  O   UNL A   1      30.535  26.138  26.408  1.00  0.00    -0.269 OA
ATOM      6  H   UNL A   1      30.562  28.276  25.482  1.00  0.00     0.163 HD
BRANCH   4   7
ATOM      7  C   UNL A   1      32.905  25.880  26.034  1.00  0.00     0.364 C 
BRANCH   7   8
ATOM      8  N   UNL A   1      32.930  24.699  25.127  1.00  0.00    -0.314 N 
ATOM      9  H   UNL A   1      31.974  24.567  24.795  1.00  0.00     0.349 HD
BRANCH   8  10
ATOM     10  C   UNL A   1      33.121  23.424  25.819  1.00  0.00     0.212 C 
ATOM     11  C   UNL A   1      32.477  23.269  27.200  1.00  0.00     0.081 C 
BRANCH  10  12
ATOM     12  C   UNL A   1      34.497  22.746  25.705  1.00  0.00     0.012 A 
ATOM     13  C   UNL A   1      38.085  24.050  26.193  1.00  0.00     0.044 C 
ATOM     14  C   UNL A   1      36.931  23.168  25.816  1.00  0.00    -0.051 A 
ATOM     15  C   UNL A   1      37.149  22.042  25.025  1.00  0.00     0.004 A 
ATOM     16  C   UNL A   1      35.615  23.484  26.183  1.00  0.00     0.013 A 
ATOM     17  C   UNL A   1      36.075  21.249  24.624  1.00  0.00     0.004 A 
ATOM     18  C   UNL A   1      34.748  21.576  24.963  1.00  0.00    -0.042 A 
ATOM     19  C   UNL A   1      33.673  20.698  24.390  1.00  0.00     0.045 C 
ENDBRANCH  10  12
ENDBRANCH   8  10
BRANCH   8  20
ATOM     20  C   UNL A   1      33.532  24.921  23.792  1.00  0.00     0.380 C 
BRANCH  20  21
ATOM     21  C   UNL A   1      32.910  25.676  22.583  1.00  0.00     0.438 C 
ATOM     22  F   UNL A   1      31.573  25.832  22.674  1.00  0.00    -0.165 F 
ATOM     23  F   UNL A   1      33.412  26.943  22.550  1.00  0.00    -0.165 F 
ATOM     24  F   UNL A   1      33.196  25.118  21.396  1.00  0.00    -0.165 F 
ENDBRANCH  20  21
ENDBRANCH   8  20
ENDBRANCH   7   8
ENDBRANCH   4   7
ENDBRANCH   2   3
ENDBRANCH   1   2
BRANCH   1  25
ATOM     25  C   UNL A   1      34.472  28.911  26.960  1.00  0.00     0.023 C 
BRANCH  25  26
ATOM     26  C   UNL A   1      35.670  29.661  27.603  1.00  0.00     0.116 C 
BRANCH  26  27
ATOM     27  N   UNL A   1      35.687  29.762  29.049  1.00  0.00    -0.352 N 
ATOM     28  C   UNL A   1      36.631  29.379  29.991  1.00  0.00     0.251 C 
ATOM     29  H   UNL A   1      34.882  30.179  29.434  1.00  0.00     0.163 HD
ATOM     30  O   UNL A   1      36.294  29.334  31.162  1.00  0.00    -0.269 OA
BRANCH  28  31
ATOM     31  C   UNL A   1      38.037  29.056  29.604  1.00  0.00     0.039 A 
ATOM     32  C   UNL A   1      38.568  29.470  28.376  1.00  0.00     0.014 A 
ATOM     33  C   UNL A   1      38.841  28.285  30.428  1.00  0.00     0.014 A 
ATOM     34  C   UNL A   1      39.849  29.041  27.995  1.00  0.00     0.010 A 
ATOM     35  C   UNL A   1      40.109  27.914  30.106  1.00  0.00     0.010 A 
ATOM     36  C   UNL A   1      40.585  28.219  28.857  1.00  0.00    -0.014 A 
BRANCH  36  37
ATOM     37  C   UNL A   1      41.958  27.814  28.653  1.00  0.00     0.031 A 
ATOM     38  C   UNL A   1      42.059  26.599  27.825  1.00  0.00     0.074 A 
ATOM     39  C   UNL A   1      43.021  28.635  28.771  1.00  0.00     0.049 A 
ATOM     40  N   UNL A   1      42.128  25.387  28.257  1.00  0.00    -0.248 NA
ATOM     41  C   UNL A   1      41.784  26.707  26.381  1.00  0.00     0.031 C 
ATOM     42  C   UNL A   1      43.053  30.062  29.106  1.00  0.00     0.029 A 
ATOM     43  N   UNL A   1      44.320  28.357  28.493  1.00  0.00    -0.354 N 
ATOM     44  C   UNL A   1      42.241  24.615  27.113  1.00  0.00     0.074 A 
ATOM     45  C   UNL A   1      41.679  25.415  26.063  1.00  0.00     0.031 C 
ATOM     46  C   UNL A   1      44.287  30.556  28.851  1.00  0.00     0.029 A 
ATOM     47  C   UNL A   1      45.165  29.457  28.483  1.00  0.00     0.049 A 
ATOM     48  H   UNL A   1      44.638  27.443  28.312  1.00  0.00     0.167 HD
ATOM     49  C   UNL A   1      43.097  23.556  27.074  1.00  0.00     0.034 A 
ATOM     50  C   UNL A   1      46.490  29.452  28.177  1.00  0.00     0.034 A 
ATOM     51  C   UNL A   1      43.633  23.294  28.404  1.00  0.00     0.049 A 
ATOM     52  C   UNL A   1      46.965  28.055  28.369  1.00  0.00     0.074 A 
ATOM     53  C   UNL A   1      43.069  23.064  29.648  1.00  0.00     0.029 A 
ATOM     54  N   UNL A   1      44.934  23.683  28.661  1.00  0.00    -0.354 N 
ATOM     55  N   UNL A   1      46.977  27.452  29.528  1.00  0.00    -0.248 NA
ATOM     56  C   UNL A   1      46.990  27.165  27.219  1.00  0.00     0.031 C 
ATOM     57  C   UNL A   1      43.885  23.790  30.569  1.00  0.00     0.029 A 
ATOM     58  C   UNL A   1      44.957  24.346  29.866  1.00  0.00     0.049 A 
ATOM     59  H   UNL A   1      45.712  23.515  28.081  1.00  0.00     0.167 HD
ATOM     60  C   UNL A   1      46.568  26.153  29.266  1.00  0.00     0.074 A 
ATOM     61  C   UNL A   1      46.716  26.002  27.820  1.00  0.00     0.031 C 
ATOM     62  C   UNL A   1      45.874  25.429  30.194  1.00  0.00     0.034 A 
BRANCH  49  63
ATOM     63  C   UNL A   1      43.763  23.013  25.824  1.00  0.00     0.023 A 
ATOM     64  C   UNL A   1      43.696  21.619  25.644  1.00  0.00     0.031 A 
ATOM     65  C   UNL A   1      44.632  23.694  24.941  1.00  0.00     0.131 A 
ATOM     66  C   UNL A   1      44.546  20.961  24.742  1.00  0.00     0.055 A 
ATOM     67  C   UNL A   1      45.429  23.039  23.996  1.00  0.00     0.041 A 
ATOM     68  F   UNL A   1      44.829  25.014  24.967  1.00  0.00    -0.206 F 
ATOM     69  C   UNL A   1      45.418  21.659  23.918  1.00  0.00     0.022 A 
BRANCH  66  70
ATOM     70  S   UNL A   1      44.603  19.155  24.808  1.00  0.00     0.124 S 
ATOM     71  O   UNL A   1      43.297  18.846  25.380  1.00  0.00    -0.237 OA
ATOM     72  O   UNL A   1      44.791  18.812  23.402  1.00  0.00    -0.237 OA
ATOM     73  O   UNL A   1      45.747  18.888  25.676  1.00  0.00    -0.744 OA
ENDBRANCH  66  70
ENDBRANCH  49  63
BRANCH  50  74
ATOM     74  C   UNL A   1      47.298  30.513  27.524  1.00  0.00     0.023 A 
ATOM     75  C   UNL A   1      46.717  31.667  26.960  1.00  0.00     0.031 A 
ATOM     76  C   UNL A   1      48.704  30.517  27.673  1.00  0.00     0.131 A 
ATOM     77  C   UNL A   1      47.529  32.761  26.581  1.00  0.00     0.055 A 
ATOM     78  C   UNL A   1      49.501  31.597  27.290  1.00  0.00     0.041 A 
ATOM     79  F   UNL A   1      49.339  29.501  28.279  1.00  0.00    -0.206 F 
ATOM     80  C   UNL A   1      48.915  32.731  26.752  1.00  0.00     0.022 A 
BRANCH  77  81
ATOM     81  S   UNL A   1      46.770  34.297  25.961  1.00  0.00     0.124 S 
ATOM     82  O   UNL A   1      45.541  33.808  25.345  1.00  0.00    -0.237 OA
ATOM     83  O   UNL A   1      46.615  35.085  27.179  1.00  0.00    -0.237 OA
ATOM     84  O   UNL A   1      47.765  34.816  25.022  1.00  0.00    -0.744 OA
ENDBRANCH  77  81
ENDBRANCH  50  74
BRANCH  62  85
ATOM     85  C   UNL A   1      45.890  25.907  31.638  1.00  0.00     0.023 A 
ATOM     86  C   UNL A   1      44.787  26.460  32.328  1.00  0.00     0.031 A 
ATOM     87  C   UNL A   1      47.072  25.693  32.372  1.00  0.00     0.131 A 
ATOM     88  C   UNL A   1      44.899  26.786  33.696  1.00  0.00     0.055 A 
ATOM     89  C   UNL A   1      47.172  25.998  33.729  1.00  0.00     0.041 A 
ATOM     90  F   UNL A   1      48.151  25.150  31.783  1.00  0.00    -0.206 F 
ATOM     91  C   UNL A   1      46.086  26.552  34.396  1.00  0.00     0.022 A 
BRANCH  88  92
ATOM     92  S   UNL A   1      43.499  27.538  34.590  1.00  0.00     0.124 S 
ATOM     93  O   UNL A   1      43.103  28.651  33.736  1.00  0.00    -0.237 OA
ATOM     94  O   UNL A   1      42.549  26.433  34.678  1.00  0.00    -0.237 OA
ATOM     95  O   UNL A   1      44.087  27.935  35.872  1.00  0.00    -0.744 OA
ENDBRANCH  88  92
ENDBRANCH  62  85
ENDBRANCH  36  37
ENDBRANCH  28  31
ENDBRANCH  26  27
ENDBRANCH  25  26
ENDBRANCH   1  25
TORSDOF 19
ENDMDL
MODEL 3
REMARK VINA RESULT:     -11.6      1.164      2.039
REMARK SMILES Cc1ccc(C)c([C@@H](C)[N@@H+](CC(=O)NCCCCNC(=O)c2ccc(-c3c4nc(c(-c5cc(S(=O)(=O)[O-])ccc5F)c5ccc([nH]5)c(-c5cc(S(=O)(=O)[O-])ccc5F)c5nc(c(-c6cc(S(=O)(=O)[O-])ccc6F)c6ccc3[nH]6)C=C5)C=C4)cc2)CC(F)(F)F)c1
REMARK SMILES IDX 16 1 15 2 14 3 12 4 13 5 11 7 10 8 8 10 9 11 7 12 1 13 2 14
REMARK SMILES IDX 3 15 90 16 4 17 5 18 6 19 85 20 86 21 87 22 88 23 89 24
REMARK SMILES IDX 17 25 18 26 19 27 20 28 21 30 22 31 23 32 84 33 24 34 83 35
REMARK SMILES IDX 25 36 26 37 27 38 77 39 28 40 82 41 76 42 78 43 29 44 81 45
REMARK SMILES IDX 75 46 74 47 30 49 62 50 42 51 61 52 43 53 46 54 60 55 79 56
REMARK SMILES IDX 44 57 45 58 59 60 80 61 47 62 31 63 32 64 40 65 33 66 39 67
REMARK SMILES IDX 41 68 38 69 34 70 35 71 36 72 37 73 63 74 64 75 72 76 65 77
REMARK SMILES IDX 71 78 73 79 70 80 66 81 67 82 68 83 69 84 48 85 49 86 57 87
REMARK SMILES IDX 50 88 56 89 58 90 55 91 51 92 52 93 53 94 54 95
REMARK H PARENT 14 6 10 9 19 29 78 48 46 59
REMARK Flexibility Score: inf
ROOT
ATOM      1  C   UNL A   1      32.761  29.678  27.460  1.00  0.00     0.023 C 
ENDROOT
BRANCH   1   2
ATOM      2  C   UNL A   1      33.536  28.581  26.650  1.00  0.00     0.116 C 
BRANCH   2   3
ATOM      3  N   UNL A   1      33.922  28.870  25.274  1.00  0.00    -0.351 N 
ATOM      4  C   UNL A   1      33.259  28.763  24.077  1.00  0.00     0.275 C 
ATOM      5  O   UNL A   1      33.853  29.175  23.076  1.00  0.00    -0.269 OA
ATOM      6  H   UNL A   1      34.842  29.209  25.186  1.00  0.00     0.163 HD
BRANCH   4   7
ATOM      7  C   UNL A   1      31.883  28.090  23.949  1.00  0.00     0.364 C 
BRANCH   7   8
ATOM      8  N   UNL A   1      31.899  26.607  24.097  1.00  0.00    -0.314 N 
ATOM      9  H   UNL A   1      32.479  26.403  24.911  1.00  0.00     0.349 HD
BRANCH   8  10
ATOM     10  C   UNL A   1      32.677  25.917  23.069  1.00  0.00     0.212 C 
ATOM     11  C   UNL A   1      32.236  26.095  21.613  1.00  0.00     0.081 C 
BRANCH  10  12
ATOM     12  C   UNL A   1      33.187  24.501  23.386  1.00  0.00     0.012 A 
ATOM     13  C   UNL A   1      31.958  21.005  22.349  1.00  0.00     0.044 C 
ATOM     14  C   UNL A   1      32.701  22.100  23.057  1.00  0.00    -0.051 A 
ATOM     15  C   UNL A   1      33.439  21.807  24.201  1.00  0.00     0.004 A 
ATOM     16  C   UNL A   1      32.617  23.434  22.638  1.00  0.00     0.013 A 
ATOM     17  C   UNL A   1      34.086  22.827  24.898  1.00  0.00     0.004 A 
ATOM     18  C   UNL A   1      33.983  24.173  24.500  1.00  0.00    -0.042 A 
ATOM     19  C   UNL A   1      34.644  25.188  25.387  1.00  0.00     0.045 C 
ENDBRANCH  10  12
ENDBRANCH   8  10
BRANCH   8  20
ATOM     20  C   UNL A   1      30.658  25.997  24.629  1.00  0.00     0.380 C 
BRANCH  20  21
ATOM     21  C   UNL A   1      30.530  24.938  25.760  1.00  0.00     0.438 C 
ATOM     22  F   UNL A   1      30.593  23.665  25.317  1.00  0.00    -0.165 F 
ATOM     23  F   UNL A   1      31.588  25.070  26.609  1.00  0.00    -0.165 F 
ATOM     24  F   UNL A   1      29.421  25.077  26.503  1.00  0.00    -0.165 F 
ENDBRANCH  20  21
ENDBRANCH   8  20
ENDBRANCH   7   8
ENDBRANCH   4   7
ENDBRANCH   2   3
ENDBRANCH   1   2
BRANCH   1  25
ATOM     25  C   UNL A   1      33.006  31.199  27.241  1.00  0.00     0.023 C 
BRANCH  25  26
ATOM     26  C   UNL A   1      34.357  31.885  27.587  1.00  0.00     0.116 C 
BRANCH  26  27
ATOM     27  N   UNL A   1      34.436  32.587  28.853  1.00  0.00    -0.352 N 
ATOM     28  C   UNL A   1      35.178  32.341  29.999  1.00  0.00     0.251 C 
ATOM     29  H   UNL A   1      33.859  33.382  28.911  1.00  0.00     0.163 HD
ATOM     30  O   UNL A   1      34.870  32.928  31.023  1.00  0.00    -0.269 OA
BRANCH  28  31
ATOM     31  C   UNL A   1      36.347  31.411  29.993  1.00  0.00     0.039 A 
ATOM     32  C   UNL A   1      36.173  30.023  30.046  1.00  0.00     0.014 A 
ATOM     33  C   UNL A   1      37.644  31.900  29.991  1.00  0.00     0.014 A 
ATOM     34  C   UNL A   1      37.295  29.188  30.165  1.00  0.00     0.010 A 
ATOM     35  C   UNL A   1      38.745  31.104  30.039  1.00  0.00     0.010 A 
ATOM     36  C   UNL A   1      38.574  29.755  30.210  1.00  0.00    -0.014 A 
BRANCH  36  37
ATOM     37  C   UNL A   1      39.816  29.015  30.198  1.00  0.00     0.031 A 
ATOM     38  C   UNL A   1      40.219  28.588  31.550  1.00  0.00     0.074 A 
ATOM     39  C   UNL A   1      40.315  28.379  29.119  1.00  0.00     0.049 A 
ATOM     40  N   UNL A   1      41.007  29.224  32.346  1.00  0.00    -0.248 NA
ATOM     41  C   UNL A   1      39.470  27.494  32.195  1.00  0.00     0.031 C 
ATOM     42  C   UNL A   1      39.755  28.277  27.768  1.00  0.00     0.029 A 
ATOM     43  N   UNL A   1      41.411  27.581  29.057  1.00  0.00    -0.354 N 
ATOM     44  C   UNL A   1      41.101  28.416  33.466  1.00  0.00     0.074 A 
ATOM     45  C   UNL A   1      39.911  27.613  33.449  1.00  0.00     0.031 C 
ATOM     46  C   UNL A   1      40.429  27.331  27.072  1.00  0.00     0.029 A 
ATOM     47  C   UNL A   1      41.555  26.875  27.872  1.00  0.00     0.049 A 
ATOM     48  H   UNL A   1      42.054  27.509  29.799  1.00  0.00     0.167 HD
ATOM     49  C   UNL A   1      42.296  28.234  34.092  1.00  0.00     0.034 A 
ATOM     50  C   UNL A   1      42.529  25.970  27.587  1.00  0.00     0.034 A 
ATOM     51  C   UNL A   1      43.294  29.145  33.543  1.00  0.00     0.049 A 
ATOM     52  C   UNL A   1      43.658  26.255  28.514  1.00  0.00     0.074 A 
ATOM     53  C   UNL A   1      43.357  30.516  33.359  1.00  0.00     0.029 A 
ATOM     54  N   UNL A   1      44.241  28.620  32.684  1.00  0.00    -0.354 N 
ATOM     55  N   UNL A   1      44.341  27.368  28.494  1.00  0.00    -0.248 NA
ATOM     56  C   UNL A   1      43.736  25.514  29.763  1.00  0.00     0.031 C 
ATOM     57  C   UNL A   1      43.965  30.694  32.079  1.00  0.00     0.029 A 
ATOM     58  C   UNL A   1      44.331  29.440  31.585  1.00  0.00     0.049 A 
ATOM     59  H   UNL A   1      44.762  27.797  32.835  1.00  0.00     0.167 HD
ATOM     60  C   UNL A   1      44.557  27.685  29.828  1.00  0.00     0.074 A 
ATOM     61  C   UNL A   1      44.278  26.448  30.553  1.00  0.00     0.031 C 
ATOM     62  C   UNL A   1      44.653  28.985  30.240  1.00  0.00     0.034 A 
BRANCH  49  63
ATOM     63  C   UNL A   1      42.691  27.006  34.890  1.00  0.00     0.023 A 
ATOM     64  C   UNL A   1      43.550  26.099  34.242  1.00  0.00     0.031 A 
ATOM     65  C   UNL A   1      42.133  26.546  36.105  1.00  0.00     0.131 A 
ATOM     66  C   UNL A   1      43.711  24.787  34.714  1.00  0.00     0.055 A 
ATOM     67  C   UNL A   1      42.351  25.259  36.606  1.00  0.00     0.041 A 
ATOM     68  F   UNL A   1      41.294  27.265  36.853  1.00  0.00    -0.206 F 
ATOM     69  C   UNL A   1      43.114  24.356  35.890  1.00  0.00     0.022 A 
BRANCH  66  70
ATOM     70  S   UNL A   1      44.579  23.612  33.649  1.00  0.00     0.124 S 
ATOM     71  O   UNL A   1      44.688  22.453  34.529  1.00  0.00    -0.237 OA
ATOM     72  O   UNL A   1      43.655  23.488  32.527  1.00  0.00    -0.237 OA
ATOM     73  O   UNL A   1      45.836  24.295  33.353  1.00  0.00    -0.744 OA
ENDBRANCH  66  70
ENDBRANCH  49  63
BRANCH  50  74
ATOM     74  C   UNL A   1      42.452  24.757  26.733  1.00  0.00     0.023 A 
ATOM     75  C   UNL A   1      43.480  24.397  25.838  1.00  0.00     0.031 A 
ATOM     76  C   UNL A   1      41.452  23.790  26.977  1.00  0.00     0.131 A 
ATOM     77  C   UNL A   1      43.486  23.116  25.239  1.00  0.00     0.055 A 
ATOM     78  C   UNL A   1      41.458  22.529  26.376  1.00  0.00     0.041 A 
ATOM     79  F   UNL A   1      40.482  24.008  27.878  1.00  0.00    -0.206 F 
ATOM     80  C   UNL A   1      42.483  22.181  25.512  1.00  0.00     0.022 A 
BRANCH  77  81
ATOM     81  S   UNL A   1      44.874  22.605  24.175  1.00  0.00     0.124 S 
ATOM     82  O   UNL A   1      45.468  21.516  24.943  1.00  0.00    -0.237 OA
ATOM     83  O   UNL A   1      44.200  22.233  22.936  1.00  0.00    -0.237 OA
ATOM     84  O   UNL A   1      45.696  23.812  24.083  1.00  0.00    -0.744 OA
ENDBRANCH  77  81
ENDBRANCH  50  74
BRANCH  62  85
ATOM     85  C   UNL A   1      44.906  30.056  29.189  1.00  0.00     0.023 A 
ATOM     86  C   UNL A   1      46.177  30.449  28.713  1.00  0.00     0.031 A 
ATOM     87  C   UNL A   1      43.778  30.632  28.575  1.00  0.00     0.131 A 
ATOM     88  C   UNL A   1      46.282  31.393  27.670  1.00  0.00     0.055 A 
ATOM     89  C   UNL A   1      43.884  31.549  27.531  1.00  0.00     0.041 A 
ATOM     90  F   UNL A   1      42.539  30.286  28.965  1.00  0.00    -0.206 F 
ATOM     91  C   UNL A   1      45.140  31.939  27.078  1.00  0.00     0.022 A 
BRANCH  88  92
ATOM     92  S   UNL A   1      47.915  31.941  27.073  1.00  0.00     0.124 S 
ATOM     93  O   UNL A   1      48.571  32.441  28.274  1.00  0.00    -0.237 OA
ATOM     94  O   UNL A   1      48.471  30.716  26.504  1.00  0.00    -0.237 OA
ATOM     95  O   UNL A   1      47.587  32.972  26.085  1.00  0.00    -0.744 OA
ENDBRANCH  88  92
ENDBRANCH  62  85
ENDBRANCH  36  37
ENDBRANCH  28  31
ENDBRANCH  26  27
ENDBRANCH  25  26
ENDBRANCH   1  25
TORSDOF 19
ENDMDL
