MODEL 1
REMARK VINA RESULT:     -11.6      0.000      0.000
REMARK SMILES CS(=O)(=O)c1ccc(C2=NN(c3ccc(C(=O)NCCCCNC(=O)c4ccc(-c5c6nc(c(-c7cc(S(=O)(=O)[O-])ccc7F)c7ccc([nH]7)c(-c7cc(S(=O)(=O)[O-])ccc7F)c7nc(c(-c8cc(S(=O)(=O)[O-])ccc8F)c8ccc5[nH]8)C=C7)C=C6)cc4)cc3)[C@H](c3cccs3)C2)cc1
REMARK SMILES IDX 20 1 19 2 18 3 16 4 17 5 15 7 12 8 13 9 90 10 14 11 89 12
REMARK SMILES IDX 11 13 9 14 10 15 97 16 91 17 8 18 5 19 6 20 99 21 7 22 98 23
REMARK SMILES IDX 2 24 1 25 3 26 4 27 92 28 93 29 96 30 94 31 95 32 21 33
REMARK SMILES IDX 22 34 23 35 24 36 25 38 26 39 27 40 88 41 28 42 87 43 29 44
REMARK SMILES IDX 30 45 31 46 81 47 32 48 86 49 80 50 82 51 33 52 85 53 79 54
REMARK SMILES IDX 78 55 34 57 66 58 46 59 65 60 47 61 50 62 64 63 83 64 48 65
REMARK SMILES IDX 49 66 63 68 84 69 51 70 35 71 36 72 44 73 37 74 43 75 45 76
REMARK SMILES IDX 42 77 38 78 39 79 40 80 41 81 67 82 68 83 76 84 69 85 75 86
REMARK SMILES IDX 77 87 74 88 70 89 71 90 72 91 73 92 52 93 53 94 61 95 54 96
REMARK SMILES IDX 60 97 62 98 59 99 55 100 56 101 57 102 58 103
REMARK H PARENT 18 6 23 37 82 56 50 67
REMARK Flexibility Score: inf
ROOT
ATOM      1  C   UNL A   1      36.799  29.763  30.131  1.00  0.00     0.023 C 
ENDROOT
BRANCH   1   2
ATOM      2  C   UNL A   1      36.239  29.642  28.713  1.00  0.00     0.116 C 
BRANCH   2   3
ATOM      3  N   UNL A   1      35.202  30.631  28.488  1.00  0.00    -0.352 N 
ATOM      4  C   UNL A   1      34.069  30.597  27.713  1.00  0.00     0.251 C 
ATOM      5  O   UNL A   1      33.317  31.569  27.735  1.00  0.00    -0.269 OA
ATOM      6  H   UNL A   1      35.332  31.475  28.978  1.00  0.00     0.163 HD
BRANCH   4   7
ATOM      7  C   UNL A   1      33.690  29.404  26.907  1.00  0.00     0.039 A 
ATOM      8  C   UNL A   1      32.960  27.267  25.217  1.00  0.00     0.060 A 
ATOM      9  C   UNL A   1      33.883  28.226  24.790  1.00  0.00     0.029 A 
ATOM     10  C   UNL A   1      32.471  27.348  26.520  1.00  0.00     0.029 A 
ATOM     11  C   UNL A   1      34.242  29.291  25.624  1.00  0.00     0.016 A 
ATOM     12  C   UNL A   1      32.852  28.389  27.365  1.00  0.00     0.016 A 
BRANCH   8  13
ATOM     13  N   UNL A   1      32.567  26.230  24.398  1.00  0.00    -0.257 N 
ATOM     14  C   UNL A   1      32.553  24.229  23.730  1.00  0.00     0.071 C 
ATOM     15  N   UNL A   1      32.873  24.964  24.745  1.00  0.00    -0.176 NA
ATOM     16  C   UNL A   1      32.046  24.958  22.516  1.00  0.00     0.091 C 
ATOM     17  C   UNL A   1      31.934  26.385  23.085  1.00  0.00     0.154 C 
BRANCH  14  18
ATOM     18  C   UNL A   1      32.678  22.770  23.775  1.00  0.00    -0.002 A 
ATOM     19  C   UNL A   1      32.755  19.996  23.840  1.00  0.00     0.067 A 
ATOM     20  C   UNL A   1      32.085  20.638  22.796  1.00  0.00     0.021 A 
ATOM     21  C   UNL A   1      33.381  20.738  24.854  1.00  0.00     0.021 A 
ATOM     22  C   UNL A   1      32.036  22.030  22.775  1.00  0.00     0.011 A 
ATOM     23  C   UNL A   1      33.353  22.134  24.816  1.00  0.00     0.011 A 
BRANCH  19  24
ATOM     24  S   UNL A   1      32.816  18.223  23.940  1.00  0.00     0.175 S 
ATOM     25  C   UNL A   1      34.508  17.782  24.229  1.00  0.00     0.163 C 
ATOM     26  O   UNL A   1      32.464  17.717  22.627  1.00  0.00    -0.224 OA
ATOM     27  O   UNL A   1      32.048  17.855  25.116  1.00  0.00    -0.224 OA
ENDBRANCH  19  24
ENDBRANCH  14  18
BRANCH  17  28
ATOM     28  C   UNL A   1      30.545  27.011  23.099  1.00  0.00     0.030 A 
ATOM     29  C   UNL A   1      30.187  28.212  22.500  1.00  0.00     0.017 A 
ATOM     30  S   UNL A   1      29.198  26.329  23.914  1.00  0.00    -0.147 S 
ATOM     31  C   UNL A   1      28.823  28.560  22.711  1.00  0.00     0.012 A 
ATOM     32  C   UNL A   1      28.161  27.602  23.442  1.00  0.00     0.065 A 
ENDBRANCH  17  28
ENDBRANCH   8  13
ENDBRANCH   4   7
ENDBRANCH   2   3
ENDBRANCH   1   2
BRANCH   1  33
ATOM     33  C   UNL A   1      36.278  30.974  30.904  1.00  0.00     0.023 C 
BRANCH  33  34
ATOM     34  C   UNL A   1      36.317  30.823  32.419  1.00  0.00     0.116 C 
BRANCH  34  35
ATOM     35  N   UNL A   1      36.491  32.091  33.112  1.00  0.00    -0.352 N 
ATOM     36  C   UNL A   1      37.636  32.839  33.246  1.00  0.00     0.251 C 
ATOM     37  H   UNL A   1      35.685  32.460  33.540  1.00  0.00     0.163 HD
ATOM     38  O   UNL A   1      37.648  33.820  33.981  1.00  0.00    -0.269 OA
BRANCH  36  39
ATOM     39  C   UNL A   1      38.854  32.415  32.525  1.00  0.00     0.039 A 
ATOM     40  C   UNL A   1      39.690  31.465  33.110  1.00  0.00     0.014 A 
ATOM     41  C   UNL A   1      39.132  32.915  31.250  1.00  0.00     0.014 A 
ATOM     42  C   UNL A   1      40.774  30.964  32.386  1.00  0.00     0.010 A 
ATOM     43  C   UNL A   1      40.159  32.354  30.499  1.00  0.00     0.010 A 
ATOM     44  C   UNL A   1      40.993  31.376  31.060  1.00  0.00    -0.014 A 
BRANCH  44  45
ATOM     45  C   UNL A   1      42.090  30.793  30.247  1.00  0.00     0.031 A 
ATOM     46  C   UNL A   1      41.892  29.480  29.542  1.00  0.00     0.074 A 
ATOM     47  C   UNL A   1      43.283  31.417  30.191  1.00  0.00     0.049 A 
ATOM     48  N   UNL A   1      42.736  28.793  28.815  1.00  0.00    -0.248 NA
ATOM     49  C   UNL A   1      40.579  28.841  29.705  1.00  0.00     0.031 C 
ATOM     50  C   UNL A   1      43.609  32.675  30.865  1.00  0.00     0.029 A 
ATOM     51  N   UNL A   1      44.440  31.082  29.536  1.00  0.00    -0.354 N 
ATOM     52  C   UNL A   1      42.060  27.634  28.446  1.00  0.00     0.074 A 
ATOM     53  C   UNL A   1      40.768  27.681  29.098  1.00  0.00     0.031 C 
ATOM     54  C   UNL A   1      44.863  33.031  30.547  1.00  0.00     0.029 A 
ATOM     55  C   UNL A   1      45.449  32.003  29.692  1.00  0.00     0.049 A 
ATOM     56  H   UNL A   1      44.540  30.259  29.005  1.00  0.00     0.167 HD
ATOM     57  C   UNL A   1      42.467  26.640  27.617  1.00  0.00     0.034 A 
ATOM     58  C   UNL A   1      46.705  32.017  29.204  1.00  0.00     0.034 A 
ATOM     59  C   UNL A   1      43.763  26.611  26.982  1.00  0.00     0.049 A 
ATOM     60  C   UNL A   1      47.159  30.875  28.332  1.00  0.00     0.074 A 
ATOM     61  C   UNL A   1      44.263  25.687  26.081  1.00  0.00     0.029 A 
ATOM     62  N   UNL A   1      44.776  27.540  27.195  1.00  0.00    -0.354 N 
ATOM     63  N   UNL A   1      46.490  29.816  27.937  1.00  0.00    -0.248 NA
ATOM     64  C   UNL A   1      48.539  30.935  27.835  1.00  0.00     0.031 C 
ATOM     65  C   UNL A   1      45.601  26.006  25.822  1.00  0.00     0.029 A 
ATOM     66  C   UNL A   1      45.911  27.185  26.483  1.00  0.00     0.049 A 
ATOM     67  H   UNL A   1      44.698  28.336  27.770  1.00  0.00     0.167 HD
ATOM     68  C   UNL A   1      47.358  29.102  27.116  1.00  0.00     0.074 A 
ATOM     69  C   UNL A   1      48.594  29.858  27.066  1.00  0.00     0.031 C 
ATOM     70  C   UNL A   1      47.150  27.933  26.456  1.00  0.00     0.034 A 
BRANCH  57  71
ATOM     71  C   UNL A   1      41.506  25.492  27.396  1.00  0.00     0.023 A 
ATOM     72  C   UNL A   1      41.847  24.167  27.724  1.00  0.00     0.031 A 
ATOM     73  C   UNL A   1      40.259  25.711  26.783  1.00  0.00     0.131 A 
ATOM     74  C   UNL A   1      41.015  23.108  27.331  1.00  0.00     0.055 A 
ATOM     75  C   UNL A   1      39.385  24.659  26.493  1.00  0.00     0.041 A 
ATOM     76  F   UNL A   1      39.879  26.947  26.426  1.00  0.00    -0.206 F 
ATOM     77  C   UNL A   1      39.772  23.346  26.743  1.00  0.00     0.022 A 
BRANCH  74  78
ATOM     78  S   UNL A   1      41.676  21.419  27.406  1.00  0.00     0.124 S 
ATOM     79  O   UNL A   1      43.024  21.653  27.922  1.00  0.00    -0.237 OA
ATOM     80  O   UNL A   1      40.748  20.757  28.316  1.00  0.00    -0.237 OA
ATOM     81  O   UNL A   1      41.620  20.968  26.017  1.00  0.00    -0.744 OA
ENDBRANCH  74  78
ENDBRANCH  57  71
BRANCH  58  82
ATOM     82  C   UNL A   1      47.616  33.156  29.507  1.00  0.00     0.023 A 
ATOM     83  C   UNL A   1      47.666  34.278  28.663  1.00  0.00     0.031 A 
ATOM     84  C   UNL A   1      48.460  33.138  30.631  1.00  0.00     0.131 A 
ATOM     85  C   UNL A   1      48.566  35.318  28.937  1.00  0.00     0.055 A 
ATOM     86  C   UNL A   1      49.316  34.199  30.928  1.00  0.00     0.041 A 
ATOM     87  F   UNL A   1      48.447  32.092  31.473  1.00  0.00    -0.206 F 
ATOM     88  C   UNL A   1      49.380  35.295  30.072  1.00  0.00     0.022 A 
BRANCH  85  89
ATOM     89  S   UNL A   1      48.703  36.682  27.749  1.00  0.00     0.124 S 
ATOM     90  O   UNL A   1      49.349  37.712  28.554  1.00  0.00    -0.237 OA
ATOM     91  O   UNL A   1      49.517  36.086  26.695  1.00  0.00    -0.237 OA
ATOM     92  O   UNL A   1      47.315  36.954  27.381  1.00  0.00    -0.744 OA
ENDBRANCH  85  89
ENDBRANCH  58  82
BRANCH  70  93
ATOM     93  C   UNL A   1      48.276  27.425  25.586  1.00  0.00     0.023 A 
ATOM     94  C   UNL A   1      48.405  27.806  24.238  1.00  0.00     0.031 A 
ATOM     95  C   UNL A   1      49.225  26.528  26.110  1.00  0.00     0.131 A 
ATOM     96  C   UNL A   1      49.419  27.246  23.446  1.00  0.00     0.055 A 
ATOM     97  C   UNL A   1      50.274  26.030  25.337  1.00  0.00     0.041 A 
ATOM     98  F   UNL A   1      49.149  26.122  27.388  1.00  0.00    -0.206 F 
ATOM     99  C   UNL A   1      50.367  26.376  23.992  1.00  0.00     0.022 A 
BRANCH  96 100
ATOM    100  S   UNL A   1      49.417  27.579  21.663  1.00  0.00     0.124 S 
ATOM    101  O   UNL A   1      48.089  27.119  21.270  1.00  0.00    -0.237 OA
ATOM    102  O   UNL A   1      49.631  29.021  21.615  1.00  0.00    -0.237 OA
ATOM    103  O   UNL A   1      50.527  26.771  21.162  1.00  0.00    -0.744 OA
ENDBRANCH  96 100
ENDBRANCH  70  93
ENDBRANCH  44  45
ENDBRANCH  36  39
ENDBRANCH  34  35
ENDBRANCH  33  34
ENDBRANCH   1  33
TORSDOF 18
ENDMDL
MODEL 2
REMARK VINA RESULT:     -11.5      5.292     11.918
REMARK SMILES CS(=O)(=O)c1ccc(C2=NN(c3ccc(C(=O)NCCCCNC(=O)c4ccc(-c5c6nc(c(-c7cc(S(=O)(=O)[O-])ccc7F)c7ccc([nH]7)c(-c7cc(S(=O)(=O)[O-])ccc7F)c7nc(c(-c8cc(S(=O)(=O)[O-])ccc8F)c8ccc5[nH]8)C=C7)C=C6)cc4)cc3)[C@H](c3cccs3)C2)cc1
REMARK SMILES IDX 20 1 19 2 18 3 16 4 17 5 15 7 12 8 13 9 90 10 14 11 89 12
REMARK SMILES IDX 11 13 9 14 10 15 97 16 91 17 8 18 5 19 6 20 99 21 7 22 98 23
REMARK SMILES IDX 2 24 1 25 3 26 4 27 92 28 93 29 96 30 94 31 95 32 21 33
REMARK SMILES IDX 22 34 23 35 24 36 25 38 26 39 27 40 88 41 28 42 87 43 29 44
REMARK SMILES IDX 30 45 31 46 81 47 32 48 86 49 80 50 82 51 33 52 85 53 79 54
REMARK SMILES IDX 78 55 34 57 66 58 46 59 65 60 47 61 50 62 64 63 83 64 48 65
REMARK SMILES IDX 49 66 63 68 84 69 51 70 35 71 36 72 44 73 37 74 43 75 45 76
REMARK SMILES IDX 42 77 38 78 39 79 40 80 41 81 67 82 68 83 76 84 69 85 75 86
REMARK SMILES IDX 77 87 74 88 70 89 71 90 72 91 73 92 52 93 53 94 61 95 54 96
REMARK SMILES IDX 60 97 62 98 59 99 55 100 56 101 57 102 58 103
REMARK H PARENT 18 6 23 37 82 56 50 67
REMARK Flexibility Score: inf
ROOT
ATOM      1  C   UNL A   1      33.081  34.942  29.128  1.00  0.00     0.023 C 
ENDROOT
BRANCH   1   2
ATOM      2  C   UNL A   1      33.769  35.412  30.411  1.00  0.00     0.116 C 
BRANCH   2   3
ATOM      3  N   UNL A   1      33.404  34.560  31.527  1.00  0.00    -0.352 N 
ATOM      4  C   UNL A   1      34.173  33.840  32.407  1.00  0.00     0.251 C 
ATOM      5  O   UNL A   1      33.607  33.224  33.309  1.00  0.00    -0.269 OA
ATOM      6  H   UNL A   1      32.435  34.485  31.681  1.00  0.00     0.163 HD
BRANCH   4   7
ATOM      7  C   UNL A   1      35.660  33.834  32.347  1.00  0.00     0.039 A 
ATOM      8  C   UNL A   1      38.463  33.781  32.033  1.00  0.00     0.060 A 
ATOM      9  C   UNL A   1      37.654  34.414  31.085  1.00  0.00     0.029 A 
ATOM     10  C   UNL A   1      37.861  33.248  33.172  1.00  0.00     0.029 A 
ATOM     11  C   UNL A   1      36.263  34.435  31.235  1.00  0.00     0.016 A 
ATOM     12  C   UNL A   1      36.478  33.298  33.341  1.00  0.00     0.016 A 
BRANCH   8  13
ATOM     13  N   UNL A   1      39.832  33.719  31.887  1.00  0.00    -0.257 N 
ATOM     14  C   UNL A   1      41.624  33.444  30.809  1.00  0.00     0.071 C 
ATOM     15  N   UNL A   1      40.363  33.680  30.650  1.00  0.00    -0.176 NA
ATOM     16  C   UNL A   1      42.084  33.218  32.224  1.00  0.00     0.091 C 
ATOM     17  C   UNL A   1      40.791  33.567  32.986  1.00  0.00     0.154 C 
BRANCH  14  18
ATOM     18  C   UNL A   1      42.544  33.406  29.669  1.00  0.00    -0.002 A 
ATOM     19  C   UNL A   1      44.169  33.399  27.419  1.00  0.00     0.067 A 
ATOM     20  C   UNL A   1      43.497  34.571  27.774  1.00  0.00     0.021 A 
ATOM     21  C   UNL A   1      44.025  32.230  28.182  1.00  0.00     0.021 A 
ATOM     22  C   UNL A   1      42.670  34.566  28.896  1.00  0.00     0.011 A 
ATOM     23  C   UNL A   1      43.217  32.236  29.321  1.00  0.00     0.011 A 
BRANCH  19  24
ATOM     24  S   UNL A   1      45.204  33.335  25.976  1.00  0.00     0.175 S 
ATOM     25  C   UNL A   1      44.213  33.866  24.607  1.00  0.00     0.163 C 
ATOM     26  O   UNL A   1      45.524  31.938  25.752  1.00  0.00    -0.224 OA
ATOM     27  O   UNL A   1      46.252  34.319  26.183  1.00  0.00    -0.224 OA
ENDBRANCH  19  24
ENDBRANCH  14  18
BRANCH  17  28
ATOM     28  C   UNL A   1      40.863  34.737  33.958  1.00  0.00     0.030 A 
ATOM     29  C   UNL A   1      39.928  35.041  34.939  1.00  0.00     0.017 A 
ATOM     30  S   UNL A   1      42.120  35.907  33.954  1.00  0.00    -0.147 S 
ATOM     31  C   UNL A   1      40.246  36.218  35.674  1.00  0.00     0.012 A 
ATOM     32  C   UNL A   1      41.434  36.772  35.258  1.00  0.00     0.065 A 
ENDBRANCH  17  28
ENDBRANCH   8  13
ENDBRANCH   4   7
ENDBRANCH   2   3
ENDBRANCH   1   2
BRANCH   1  33
ATOM     33  C   UNL A   1      34.029  34.308  28.111  1.00  0.00     0.023 C 
BRANCH  33  34
ATOM     34  C   UNL A   1      34.507  32.909  28.476  1.00  0.00     0.116 C 
BRANCH  34  35
ATOM     35  N   UNL A   1      33.975  31.879  27.597  1.00  0.00    -0.352 N 
ATOM     36  C   UNL A   1      34.532  30.665  27.273  1.00  0.00     0.251 C 
ATOM     37  H   UNL A   1      33.105  32.077  27.181  1.00  0.00     0.163 HD
ATOM     38  O   UNL A   1      34.020  29.966  26.405  1.00  0.00    -0.269 OA
BRANCH  36  39
ATOM     39  C   UNL A   1      35.772  30.242  27.955  1.00  0.00     0.039 A 
ATOM     40  C   UNL A   1      35.690  29.728  29.250  1.00  0.00     0.014 A 
ATOM     41  C   UNL A   1      37.000  30.302  27.293  1.00  0.00     0.014 A 
ATOM     42  C   UNL A   1      36.835  29.210  29.857  1.00  0.00     0.010 A 
ATOM     43  C   UNL A   1      38.120  29.708  27.864  1.00  0.00     0.010 A 
ATOM     44  C   UNL A   1      38.051  29.159  29.153  1.00  0.00    -0.014 A 
BRANCH  44  45
ATOM     45  C   UNL A   1      39.259  28.536  29.751  1.00  0.00     0.031 A 
ATOM     46  C   UNL A   1      39.772  29.010  31.082  1.00  0.00     0.074 A 
ATOM     47  C   UNL A   1      39.925  27.584  29.070  1.00  0.00     0.049 A 
ATOM     48  N   UNL A   1      40.825  28.619  31.752  1.00  0.00    -0.248 NA
ATOM     49  C   UNL A   1      39.016  30.093  31.727  1.00  0.00     0.031 C 
ATOM     50  C   UNL A   1      39.548  27.070  27.751  1.00  0.00     0.029 A 
ATOM     51  N   UNL A   1      41.056  26.878  29.390  1.00  0.00    -0.354 N 
ATOM     52  C   UNL A   1      40.866  29.416  32.892  1.00  0.00     0.074 A 
ATOM     53  C   UNL A   1      39.777  30.363  32.775  1.00  0.00     0.031 C 
ATOM     54  C   UNL A   1      40.401  26.096  27.400  1.00  0.00     0.029 A 
ATOM     55  C   UNL A   1      41.417  25.952  28.439  1.00  0.00     0.049 A 
ATOM     56  H   UNL A   1      41.563  27.021  30.222  1.00  0.00     0.167 HD
ATOM     57  C   UNL A   1      41.714  29.345  33.949  1.00  0.00     0.034 A 
ATOM     58  C   UNL A   1      42.448  25.086  28.408  1.00  0.00     0.034 A 
ATOM     59  C   UNL A   1      42.797  28.396  34.042  1.00  0.00     0.049 A 
ATOM     60  C   UNL A   1      43.413  25.062  29.565  1.00  0.00     0.074 A 
ATOM     61  C   UNL A   1      43.682  28.194  35.086  1.00  0.00     0.029 A 
ATOM     62  N   UNL A   1      43.158  27.500  33.041  1.00  0.00    -0.354 N 
ATOM     63  N   UNL A   1      43.405  25.776  30.667  1.00  0.00    -0.248 NA
ATOM     64  C   UNL A   1      44.524  24.107  29.475  1.00  0.00     0.031 C 
ATOM     65  C   UNL A   1      44.628  27.245  34.683  1.00  0.00     0.029 A 
ATOM     66  C   UNL A   1      44.279  26.779  33.425  1.00  0.00     0.049 A 
ATOM     67  H   UNL A   1      42.685  27.392  32.184  1.00  0.00     0.167 HD
ATOM     68  C   UNL A   1      44.490  25.332  31.417  1.00  0.00     0.074 A 
ATOM     69  C   UNL A   1      45.122  24.280  30.644  1.00  0.00     0.031 C 
ATOM     70  C   UNL A   1      44.919  25.747  32.638  1.00  0.00     0.034 A 
BRANCH  57  71
ATOM     71  C   UNL A   1      41.513  30.355  35.060  1.00  0.00     0.023 A 
ATOM     72  C   UNL A   1      40.323  30.403  35.809  1.00  0.00     0.031 A 
ATOM     73  C   UNL A   1      42.492  31.328  35.327  1.00  0.00     0.131 A 
ATOM     74  C   UNL A   1      40.093  31.466  36.695  1.00  0.00     0.055 A 
ATOM     75  C   UNL A   1      42.300  32.322  36.290  1.00  0.00     0.041 A 
ATOM     76  F   UNL A   1      43.642  31.351  34.635  1.00  0.00    -0.206 F 
ATOM     77  C   UNL A   1      41.085  32.411  36.963  1.00  0.00     0.022 A 
BRANCH  74  78
ATOM     78  S   UNL A   1      38.409  31.714  37.324  1.00  0.00     0.124 S 
ATOM     79  O   UNL A   1      37.952  32.838  36.509  1.00  0.00    -0.237 OA
ATOM     80  O   UNL A   1      37.778  30.427  37.051  1.00  0.00    -0.237 OA
ATOM     81  O   UNL A   1      38.614  32.024  38.738  1.00  0.00    -0.744 OA
ENDBRANCH  74  78
ENDBRANCH  57  71
BRANCH  58  82
ATOM     82  C   UNL A   1      42.614  24.157  27.255  1.00  0.00     0.023 A 
ATOM     83  C   UNL A   1      42.059  22.867  27.288  1.00  0.00     0.031 A 
ATOM     84  C   UNL A   1      43.340  24.534  26.111  1.00  0.00     0.131 A 
ATOM     85  C   UNL A   1      42.268  21.989  26.216  1.00  0.00     0.055 A 
ATOM     86  C   UNL A   1      43.500  23.674  25.024  1.00  0.00     0.041 A 
ATOM     87  F   UNL A   1      43.886  25.757  26.026  1.00  0.00    -0.206 F 
ATOM     88  C   UNL A   1      42.970  22.388  25.077  1.00  0.00     0.022 A 
BRANCH  85  89
ATOM     89  S   UNL A   1      41.657  20.287  26.356  1.00  0.00     0.124 S 
ATOM     90  O   UNL A   1      42.398  19.618  25.293  1.00  0.00    -0.237 OA
ATOM     91  O   UNL A   1      42.038  19.939  27.721  1.00  0.00    -0.237 OA
ATOM     92  O   UNL A   1      40.220  20.421  26.128  1.00  0.00    -0.744 OA
ENDBRANCH  85  89
ENDBRANCH  58  82
BRANCH  70  93
ATOM     93  C   UNL A   1      46.108  25.028  33.229  1.00  0.00     0.023 A 
ATOM     94  C   UNL A   1      45.963  23.869  34.013  1.00  0.00     0.031 A 
ATOM     95  C   UNL A   1      47.409  25.522  33.021  1.00  0.00     0.131 A 
ATOM     96  C   UNL A   1      47.089  23.281  34.610  1.00  0.00     0.055 A 
ATOM     97  C   UNL A   1      48.532  24.892  33.557  1.00  0.00     0.041 A 
ATOM     98  F   UNL A   1      47.610  26.629  32.288  1.00  0.00    -0.206 F 
ATOM     99  C   UNL A   1      48.375  23.772  34.369  1.00  0.00     0.022 A 
BRANCH  96 100
ATOM    100  S   UNL A   1      46.842  21.931  35.796  1.00  0.00     0.124 S 
ATOM    101  O   UNL A   1      46.862  22.641  37.070  1.00  0.00    -0.237 OA
ATOM    102  O   UNL A   1      45.551  21.389  35.388  1.00  0.00    -0.237 OA
ATOM    103  O   UNL A   1      47.986  21.052  35.558  1.00  0.00    -0.744 OA
ENDBRANCH  96 100
ENDBRANCH  70  93
ENDBRANCH  44  45
ENDBRANCH  36  39
ENDBRANCH  34  35
ENDBRANCH  33  34
ENDBRANCH   1  33
TORSDOF 18
ENDMDL
MODEL 3
REMARK VINA RESULT:     -11.4      4.004      8.787
REMARK SMILES CS(=O)(=O)c1ccc(C2=NN(c3ccc(C(=O)NCCCCNC(=O)c4ccc(-c5c6nc(c(-c7cc(S(=O)(=O)[O-])ccc7F)c7ccc([nH]7)c(-c7cc(S(=O)(=O)[O-])ccc7F)c7nc(c(-c8cc(S(=O)(=O)[O-])ccc8F)c8ccc5[nH]8)C=C7)C=C6)cc4)cc3)[C@H](c3cccs3)C2)cc1
REMARK SMILES IDX 20 1 19 2 18 3 16 4 17 5 15 7 12 8 13 9 90 10 14 11 89 12
REMARK SMILES IDX 11 13 9 14 10 15 97 16 91 17 8 18 5 19 6 20 99 21 7 22 98 23
REMARK SMILES IDX 2 24 1 25 3 26 4 27 92 28 93 29 96 30 94 31 95 32 21 33
REMARK SMILES IDX 22 34 23 35 24 36 25 38 26 39 27 40 88 41 28 42 87 43 29 44
REMARK SMILES IDX 30 45 31 46 81 47 32 48 86 49 80 50 82 51 33 52 85 53 79 54
REMARK SMILES IDX 78 55 34 57 66 58 46 59 65 60 47 61 50 62 64 63 83 64 48 65
REMARK SMILES IDX 49 66 63 68 84 69 51 70 35 71 36 72 44 73 37 74 43 75 45 76
REMARK SMILES IDX 42 77 38 78 39 79 40 80 41 81 67 82 68 83 76 84 69 85 75 86
REMARK SMILES IDX 77 87 74 88 70 89 71 90 72 91 73 92 52 93 53 94 61 95 54 96
REMARK SMILES IDX 60 97 62 98 59 99 55 100 56 101 57 102 58 103
REMARK H PARENT 18 6 23 37 82 56 50 67
REMARK Flexibility Score: inf
ROOT
ATOM      1  C   UNL A   1      36.792  29.480  29.686  1.00  0.00     0.023 C 
ENDROOT
BRANCH   1   2
ATOM      2  C   UNL A   1      36.416  29.765  28.231  1.00  0.00     0.116 C 
BRANCH   2   3
ATOM      3  N   UNL A   1      35.320  30.712  28.163  1.00  0.00    -0.352 N 
ATOM      4  C   UNL A   1      34.107  30.651  27.523  1.00  0.00     0.251 C 
ATOM      5  O   UNL A   1      33.323  31.588  27.666  1.00  0.00    -0.269 OA
ATOM      6  H   UNL A   1      35.472  31.546  28.664  1.00  0.00     0.163 HD
BRANCH   4   7
ATOM      7  C   UNL A   1      33.686  29.468  26.723  1.00  0.00     0.039 A 
ATOM      8  C   UNL A   1      32.810  27.356  25.072  1.00  0.00     0.060 A 
ATOM      9  C   UNL A   1      33.412  28.488  24.517  1.00  0.00     0.029 A 
ATOM     10  C   UNL A   1      32.724  27.261  26.460  1.00  0.00     0.029 A 
ATOM     11  C   UNL A   1      33.841  29.541  25.333  1.00  0.00     0.016 A 
ATOM     12  C   UNL A   1      33.181  28.293  27.278  1.00  0.00     0.016 A 
BRANCH   8  13
ATOM     13  N   UNL A   1      32.349  26.324  24.283  1.00  0.00    -0.257 N 
ATOM     14  C   UNL A   1      32.234  24.316  23.645  1.00  0.00     0.071 C 
ATOM     15  N   UNL A   1      32.617  25.052  24.637  1.00  0.00    -0.176 NA
ATOM     16  C   UNL A   1      31.713  25.048  22.439  1.00  0.00     0.091 C 
ATOM     17  C   UNL A   1      31.677  26.486  22.990  1.00  0.00     0.154 C 
BRANCH  14  18
ATOM     18  C   UNL A   1      32.305  22.854  23.708  1.00  0.00    -0.002 A 
ATOM     19  C   UNL A   1      32.586  20.099  23.889  1.00  0.00     0.067 A 
ATOM     20  C   UNL A   1      32.871  20.890  25.004  1.00  0.00     0.021 A 
ATOM     21  C   UNL A   1      32.167  20.682  22.683  1.00  0.00     0.021 A 
ATOM     22  C   UNL A   1      32.743  22.274  24.905  1.00  0.00     0.011 A 
ATOM     23  C   UNL A   1      32.014  22.068  22.594  1.00  0.00     0.011 A 
BRANCH  19  24
ATOM     24  S   UNL A   1      32.770  18.333  23.944  1.00  0.00     0.175 S 
ATOM     25  C   UNL A   1      34.458  18.004  24.374  1.00  0.00     0.163 C 
ATOM     26  O   UNL A   1      32.575  17.849  22.591  1.00  0.00    -0.224 OA
ATOM     27  O   UNL A   1      31.929  17.870  25.033  1.00  0.00    -0.224 OA
ENDBRANCH  19  24
ENDBRANCH  14  18
BRANCH  17  28
ATOM     28  C   UNL A   1      30.315  27.166  23.042  1.00  0.00     0.030 A 
ATOM     29  C   UNL A   1      30.002  28.406  22.501  1.00  0.00     0.017 A 
ATOM     30  S   UNL A   1      28.945  26.502  23.836  1.00  0.00    -0.147 S 
ATOM     31  C   UNL A   1      28.654  28.798  22.737  1.00  0.00     0.012 A 
ATOM     32  C   UNL A   1      27.958  27.835  23.429  1.00  0.00     0.065 A 
ENDBRANCH  17  28
ENDBRANCH   8  13
ENDBRANCH   4   7
ENDBRANCH   2   3
ENDBRANCH   1   2
BRANCH   1  33
ATOM     33  C   UNL A   1      37.757  30.499  30.290  1.00  0.00     0.023 C 
BRANCH  33  34
ATOM     34  C   UNL A   1      37.633  31.905  29.719  1.00  0.00     0.116 C 
BRANCH  34  35
ATOM     35  N   UNL A   1      37.123  32.868  30.685  1.00  0.00    -0.352 N 
ATOM     36  C   UNL A   1      37.762  33.964  31.213  1.00  0.00     0.251 C 
ATOM     37  H   UNL A   1      36.203  32.714  30.999  1.00  0.00     0.163 HD
ATOM     38  O   UNL A   1      37.242  34.600  32.124  1.00  0.00    -0.269 OA
BRANCH  36  39
ATOM     39  C   UNL A   1      39.096  34.333  30.695  1.00  0.00     0.039 A 
ATOM     40  C   UNL A   1      40.210  34.169  31.518  1.00  0.00     0.014 A 
ATOM     41  C   UNL A   1      39.245  34.783  29.381  1.00  0.00     0.014 A 
ATOM     42  C   UNL A   1      41.486  34.393  30.999  1.00  0.00     0.010 A 
ATOM     43  C   UNL A   1      40.519  34.923  28.841  1.00  0.00     0.010 A 
ATOM     44  C   UNL A   1      41.653  34.733  29.645  1.00  0.00    -0.014 A 
BRANCH  44  45
ATOM     45  C   UNL A   1      43.006  34.895  29.055  1.00  0.00     0.031 A 
ATOM     46  C   UNL A   1      43.503  36.260  28.671  1.00  0.00     0.074 A 
ATOM     47  C   UNL A   1      43.762  33.806  28.814  1.00  0.00     0.049 A 
ATOM     48  N   UNL A   1      44.636  36.603  28.112  1.00  0.00    -0.248 NA
ATOM     49  C   UNL A   1      42.589  37.383  28.916  1.00  0.00     0.031 C 
ATOM     50  C   UNL A   1      43.372  32.425  29.106  1.00  0.00     0.029 A 
ATOM     51  N   UNL A   1      45.015  33.688  28.271  1.00  0.00    -0.354 N 
ATOM     52  C   UNL A   1      44.565  37.980  27.929  1.00  0.00     0.074 A 
ATOM     53  C   UNL A   1      43.245  38.389  28.362  1.00  0.00     0.031 C 
ATOM     54  C   UNL A   1      44.385  31.606  28.787  1.00  0.00     0.029 A 
ATOM     55  C   UNL A   1      45.475  32.393  28.218  1.00  0.00     0.049 A 
ATOM     56  H   UNL A   1      45.538  34.458  27.948  1.00  0.00     0.167 HD
ATOM     57  C   UNL A   1      45.521  38.828  27.470  1.00  0.00     0.034 A 
ATOM     58  C   UNL A   1      46.642  31.896  27.763  1.00  0.00     0.034 A 
ATOM     59  C   UNL A   1      46.829  38.397  27.039  1.00  0.00     0.049 A 
ATOM     60  C   UNL A   1      47.669  32.846  27.204  1.00  0.00     0.074 A 
ATOM     61  C   UNL A   1      47.894  39.168  26.609  1.00  0.00     0.029 A 
ATOM     62  N   UNL A   1      47.245  37.072  26.961  1.00  0.00    -0.354 N 
ATOM     63  N   UNL A   1      47.616  34.154  27.093  1.00  0.00    -0.248 NA
ATOM     64  C   UNL A   1      48.917  32.251  26.712  1.00  0.00     0.031 C 
ATOM     65  C   UNL A   1      48.917  38.310  26.189  1.00  0.00     0.029 A 
ATOM     66  C   UNL A   1      48.531  37.003  26.446  1.00  0.00     0.049 A 
ATOM     67  H   UNL A   1      46.705  36.295  27.232  1.00  0.00     0.167 HD
ATOM     68  C   UNL A   1      48.838  34.540  26.552  1.00  0.00     0.074 A 
ATOM     69  C   UNL A   1      49.610  33.327  26.369  1.00  0.00     0.031 C 
ATOM     70  C   UNL A   1      49.287  35.785  26.244  1.00  0.00     0.034 A 
BRANCH  57  71
ATOM     71  C   UNL A   1      45.154  40.294  27.381  1.00  0.00     0.023 A 
ATOM     72  C   UNL A   1      44.560  40.839  26.227  1.00  0.00     0.031 A 
ATOM     73  C   UNL A   1      45.467  41.175  28.431  1.00  0.00     0.131 A 
ATOM     74  C   UNL A   1      44.411  42.228  26.103  1.00  0.00     0.055 A 
ATOM     75  C   UNL A   1      45.214  42.547  28.343  1.00  0.00     0.041 A 
ATOM     76  F   UNL A   1      46.052  40.724  29.552  1.00  0.00    -0.206 F 
ATOM     77  C   UNL A   1      44.707  43.084  27.164  1.00  0.00     0.022 A 
BRANCH  74  78
ATOM     78  S   UNL A   1      44.029  42.909  24.464  1.00  0.00     0.124 S 
ATOM     79  O   UNL A   1      44.242  44.339  24.683  1.00  0.00    -0.237 OA
ATOM     80  O   UNL A   1      45.003  42.241  23.609  1.00  0.00    -0.237 OA
ATOM     81  O   UNL A   1      42.635  42.522  24.249  1.00  0.00    -0.744 OA
ENDBRANCH  74  78
ENDBRANCH  57  71
BRANCH  58  82
ATOM     82  C   UNL A   1      46.913  30.433  27.834  1.00  0.00     0.023 A 
ATOM     83  C   UNL A   1      46.549  29.585  26.775  1.00  0.00     0.031 A 
ATOM     84  C   UNL A   1      47.525  29.857  28.961  1.00  0.00     0.131 A 
ATOM     85  C   UNL A   1      46.768  28.203  26.880  1.00  0.00     0.055 A 
ATOM     86  C   UNL A   1      47.787  28.488  29.038  1.00  0.00     0.041 A 
ATOM     87  F   UNL A   1      47.897  30.624  29.998  1.00  0.00    -0.206 F 
ATOM     88  C   UNL A   1      47.399  27.651  27.997  1.00  0.00     0.022 A 
BRANCH  85  89
ATOM     89  S   UNL A   1      46.156  27.125  25.556  1.00  0.00     0.124 S 
ATOM     90  O   UNL A   1      44.973  26.538  26.175  1.00  0.00    -0.237 OA
ATOM     91  O   UNL A   1      45.912  28.077  24.478  1.00  0.00    -0.237 OA
ATOM     92  O   UNL A   1      47.266  26.202  25.329  1.00  0.00    -0.744 OA
ENDBRANCH  85  89
ENDBRANCH  58  82
BRANCH  70  93
ATOM     93  C   UNL A   1      50.698  35.896  25.715  1.00  0.00     0.023 A 
ATOM     94  C   UNL A   1      51.819  35.686  26.537  1.00  0.00     0.031 A 
ATOM     95  C   UNL A   1      50.924  36.237  24.369  1.00  0.00     0.131 A 
ATOM     96  C   UNL A   1      53.111  35.879  26.024  1.00  0.00     0.055 A 
ATOM     97  C   UNL A   1      52.211  36.357  23.845  1.00  0.00     0.041 A 
ATOM     98  F   UNL A   1      49.893  36.458  23.537  1.00  0.00    -0.206 F 
ATOM     99  C   UNL A   1      53.315  36.193  24.677  1.00  0.00     0.022 A 
BRANCH  96 100
ATOM    100  S   UNL A   1      54.520  35.826  27.164  1.00  0.00     0.124 S 
ATOM    101  O   UNL A   1      55.405  34.869  26.507  1.00  0.00    -0.237 OA
ATOM    102  O   UNL A   1      54.972  37.213  27.167  1.00  0.00    -0.237 OA
ATOM    103  O   UNL A   1      53.929  35.364  28.419  1.00  0.00    -0.744 OA
ENDBRANCH  96 100
ENDBRANCH  70  93
ENDBRANCH  44  45
ENDBRANCH  36  39
ENDBRANCH  34  35
ENDBRANCH  33  34
ENDBRANCH   1  33
TORSDOF 18
ENDMDL
