MODEL 1
REMARK VINA RESULT:     -12.4      0.000      0.000
REMARK SMILES CCOc1ccc(-c2nc(C(=O)NCCCCNC(=O)c3ccc(-c4c5nc(c(-c6cc(S(=O)(=O)[O-])ccc6F)c6ccc([nH]6)c(-c6cc(S(=O)(=O)[O-])ccc6F)c6nc(c(-c7cc(S(=O)(=O)[O-])ccc7F)c7ccc4[nH]7)C=C6)C=C5)cc3)cc(=O)[nH]2)cc1
REMARK SMILES IDX 15 1 14 2 13 3 11 4 12 5 10 7 8 8 9 9 87 10 85 11 84 13
REMARK SMILES IDX 86 14 7 15 4 16 5 17 89 18 6 19 88 20 3 21 2 22 1 23 16 24
REMARK SMILES IDX 17 25 18 26 19 27 20 29 21 30 22 31 83 32 23 33 82 34 24 35
REMARK SMILES IDX 25 36 26 37 76 38 27 39 81 40 75 41 77 42 28 43 80 44 74 45
REMARK SMILES IDX 73 46 29 48 61 49 41 50 60 51 42 52 45 53 59 54 78 55 43 56
REMARK SMILES IDX 44 57 58 59 79 60 46 61 30 62 31 63 39 64 32 65 38 66 40 67
REMARK SMILES IDX 37 68 33 69 34 70 35 71 36 72 62 73 63 74 71 75 64 76 70 77
REMARK SMILES IDX 72 78 69 79 65 80 66 81 67 82 68 83 47 84 48 85 56 86 49 87
REMARK SMILES IDX 55 88 57 89 54 90 50 91 51 92 52 93 53 94
REMARK H PARENT 13 6 87 12 18 28 77 47 45 58
REMARK Flexibility Score: inf
ROOT
ATOM      1  C   UNL A   1      36.348  23.194  23.764  1.00  0.00     0.023 C 
ENDROOT
BRANCH   1   2
ATOM      2  C   UNL A   1      34.851  23.356  23.988  1.00  0.00     0.116 C 
BRANCH   2   3
ATOM      3  N   UNL A   1      34.071  22.181  23.645  1.00  0.00    -0.351 N 
ATOM      4  C   UNL A   1      32.761  21.843  23.832  1.00  0.00     0.270 C 
ATOM      5  O   UNL A   1      32.408  20.742  23.399  1.00  0.00    -0.268 OA
ATOM      6  H   UNL A   1      34.594  21.486  23.182  1.00  0.00     0.163 HD
BRANCH   4   7
ATOM      7  C   UNL A   1      31.766  22.720  24.573  1.00  0.00     0.136 A 
ATOM      8  C   UNL A   1      30.553  24.670  24.532  1.00  0.00     0.141 A 
ATOM      9  N   UNL A   1      31.298  23.832  23.889  1.00  0.00    -0.225 NA
ATOM     10  N   UNL A   1      30.085  24.428  25.795  1.00  0.00    -0.306 N 
ATOM     11  C   UNL A   1      30.472  23.337  26.506  1.00  0.00     0.251 A 
ATOM     12  H   UNL A   1      29.450  25.061  26.200  1.00  0.00     0.171 HD
ATOM     13  C   UNL A   1      31.502  22.514  25.869  1.00  0.00     0.105 A 
ATOM     14  O   UNL A   1      30.008  23.057  27.600  1.00  0.00    -0.269 OA
BRANCH   8  15
ATOM     15  C   UNL A   1      30.171  25.978  23.952  1.00  0.00     0.018 A 
ATOM     16  C   UNL A   1      29.456  28.392  22.765  1.00  0.00     0.119 A 
ATOM     17  C   UNL A   1      30.773  27.951  22.678  1.00  0.00     0.047 A 
ATOM     18  C   UNL A   1      28.486  27.608  23.392  1.00  0.00     0.047 A 
ATOM     19  C   UNL A   1      31.134  26.743  23.275  1.00  0.00     0.016 A 
ATOM     20  C   UNL A   1      28.842  26.400  23.994  1.00  0.00     0.016 A 
BRANCH  16  21
ATOM     21  O   UNL A   1      29.115  29.544  22.114  1.00  0.00    -0.494 OA
BRANCH  21  22
ATOM     22  C   UNL A   1      27.858  30.072  22.552  1.00  0.00     0.226 C 
ATOM     23  C   UNL A   1      28.049  31.224  23.523  1.00  0.00     0.049 C 
ENDBRANCH  21  22
ENDBRANCH  16  21
ENDBRANCH   8  15
ENDBRANCH   4   7
ENDBRANCH   2   3
ENDBRANCH   1   2
BRANCH   1  24
ATOM     24  C   UNL A   1      36.919  21.797  23.980  1.00  0.00     0.023 C 
BRANCH  24  25
ATOM     25  C   UNL A   1      37.165  21.391  25.430  1.00  0.00     0.116 C 
BRANCH  25  26
ATOM     26  N   UNL A   1      38.293  20.484  25.604  1.00  0.00    -0.352 N 
ATOM     27  C   UNL A   1      39.542  20.730  26.127  1.00  0.00     0.251 C 
ATOM     28  H   UNL A   1      38.138  19.560  25.304  1.00  0.00     0.163 HD
ATOM     29  O   UNL A   1      40.398  19.851  26.106  1.00  0.00    -0.269 OA
BRANCH  27  30
ATOM     30  C   UNL A   1      39.859  22.071  26.663  1.00  0.00     0.039 A 
ATOM     31  C   UNL A   1      40.851  22.188  27.639  1.00  0.00     0.014 A 
ATOM     32  C   UNL A   1      39.231  23.210  26.155  1.00  0.00     0.014 A 
ATOM     33  C   UNL A   1      41.293  23.456  28.021  1.00  0.00     0.010 A 
ATOM     34  C   UNL A   1      39.728  24.470  26.477  1.00  0.00     0.010 A 
ATOM     35  C   UNL A   1      40.781  24.606  27.394  1.00  0.00    -0.014 A 
BRANCH  35  36
ATOM     36  C   UNL A   1      41.375  25.946  27.646  1.00  0.00     0.031 A 
ATOM     37  C   UNL A   1      42.772  26.258  27.183  1.00  0.00     0.074 A 
ATOM     38  C   UNL A   1      40.675  26.856  28.355  1.00  0.00     0.049 A 
ATOM     39  N   UNL A   1      43.478  27.343  27.370  1.00  0.00    -0.248 NA
ATOM     40  C   UNL A   1      43.475  25.206  26.435  1.00  0.00     0.031 C 
ATOM     41  C   UNL A   1      39.326  26.652  28.892  1.00  0.00     0.029 A 
ATOM     42  N   UNL A   1      40.995  28.130  28.756  1.00  0.00    -0.354 N 
ATOM     43  C   UNL A   1      44.711  27.103  26.772  1.00  0.00     0.074 A 
ATOM     44  C   UNL A   1      44.672  25.749  26.261  1.00  0.00     0.031 C 
ATOM     45  C   UNL A   1      38.926  27.770  29.521  1.00  0.00     0.029 A 
ATOM     46  C   UNL A   1      40.006  28.750  29.487  1.00  0.00     0.049 A 
ATOM     47  H   UNL A   1      41.854  28.561  28.540  1.00  0.00     0.167 HD
ATOM     48  C   UNL A   1      45.767  27.942  26.646  1.00  0.00     0.034 A 
ATOM     49  C   UNL A   1      39.977  29.961  30.078  1.00  0.00     0.034 A 
ATOM     50  C   UNL A   1      45.784  29.293  27.150  1.00  0.00     0.049 A 
ATOM     51  C   UNL A   1      41.189  30.854  29.959  1.00  0.00     0.074 A 
ATOM     52  C   UNL A   1      46.778  30.248  27.012  1.00  0.00     0.029 A 
ATOM     53  N   UNL A   1      44.775  29.879  27.902  1.00  0.00    -0.354 N 
ATOM     54  N   UNL A   1      42.317  30.634  29.324  1.00  0.00    -0.248 NA
ATOM     55  C   UNL A   1      41.120  32.158  30.631  1.00  0.00     0.031 C 
ATOM     56  C   UNL A   1      46.407  31.376  27.750  1.00  0.00     0.029 A 
ATOM     57  C   UNL A   1      45.144  31.163  28.275  1.00  0.00     0.049 A 
ATOM     58  H   UNL A   1      43.923  29.445  28.137  1.00  0.00     0.167 HD
ATOM     59  C   UNL A   1      43.078  31.789  29.497  1.00  0.00     0.074 A 
ATOM     60  C   UNL A   1      42.270  32.707  30.270  1.00  0.00     0.031 C 
ATOM     61  C   UNL A   1      44.332  32.064  29.057  1.00  0.00     0.034 A 
BRANCH  48  62
ATOM     62  C   UNL A   1      47.006  27.418  25.960  1.00  0.00     0.023 A 
ATOM     63  C   UNL A   1      48.009  26.730  26.664  1.00  0.00     0.031 A 
ATOM     64  C   UNL A   1      47.173  27.590  24.573  1.00  0.00     0.131 A 
ATOM     65  C   UNL A   1      49.156  26.284  25.990  1.00  0.00     0.055 A 
ATOM     66  C   UNL A   1      48.280  27.077  23.897  1.00  0.00     0.041 A 
ATOM     67  F   UNL A   1      46.258  28.259  23.854  1.00  0.00    -0.206 F 
ATOM     68  C   UNL A   1      49.285  26.427  24.606  1.00  0.00     0.022 A 
BRANCH  65  69
ATOM     69  S   UNL A   1      50.529  25.609  26.964  1.00  0.00     0.124 S 
ATOM     70  O   UNL A   1      51.505  25.300  25.923  1.00  0.00    -0.237 OA
ATOM     71  O   UNL A   1      50.867  26.720  27.846  1.00  0.00    -0.237 OA
ATOM     72  O   UNL A   1      49.941  24.445  27.624  1.00  0.00    -0.744 OA
ENDBRANCH  65  69
ENDBRANCH  48  62
BRANCH  49  73
ATOM     73  C   UNL A   1      38.786  30.406  30.863  1.00  0.00     0.023 A 
ATOM     74  C   UNL A   1      37.695  31.024  30.231  1.00  0.00     0.031 A 
ATOM     75  C   UNL A   1      38.755  30.297  32.265  1.00  0.00     0.131 A 
ATOM     76  C   UNL A   1      36.656  31.571  30.999  1.00  0.00     0.055 A 
ATOM     77  C   UNL A   1      37.684  30.779  33.021  1.00  0.00     0.041 A 
ATOM     78  F   UNL A   1      39.770  29.717  32.926  1.00  0.00    -0.206 F 
ATOM     79  C   UNL A   1      36.635  31.439  32.389  1.00  0.00     0.022 A 
BRANCH  76  80
ATOM     80  S   UNL A   1      35.397  32.575  30.163  1.00  0.00     0.124 S 
ATOM     81  O   UNL A   1      36.170  33.744  29.762  1.00  0.00    -0.237 OA
ATOM     82  O   UNL A   1      34.967  31.687  29.088  1.00  0.00    -0.237 OA
ATOM     83  O   UNL A   1      34.403  32.812  31.208  1.00  0.00    -0.744 OA
ENDBRANCH  76  80
ENDBRANCH  49  73
BRANCH  61  84
ATOM     84  C   UNL A   1      44.885  33.433  29.376  1.00  0.00     0.023 A 
ATOM     85  C   UNL A   1      44.633  34.542  28.549  1.00  0.00     0.031 A 
ATOM     86  C   UNL A   1      45.686  33.628  30.515  1.00  0.00     0.131 A 
ATOM     87  C   UNL A   1      45.227  35.779  28.839  1.00  0.00     0.055 A 
ATOM     88  C   UNL A   1      46.218  34.876  30.836  1.00  0.00     0.041 A 
ATOM     89  F   UNL A   1      45.965  32.604  31.338  1.00  0.00    -0.206 F 
ATOM     90  C   UNL A   1      46.001  35.959  29.988  1.00  0.00     0.022 A 
BRANCH  87  91
ATOM     91  S   UNL A   1      45.059  37.127  27.637  1.00  0.00     0.124 S 
ATOM     92  O   UNL A   1      46.192  36.886  26.749  1.00  0.00    -0.237 OA
ATOM     93  O   UNL A   1      43.738  36.876  27.068  1.00  0.00    -0.237 OA
ATOM     94  O   UNL A   1      45.159  38.333  28.457  1.00  0.00    -0.744 OA
ENDBRANCH  87  91
ENDBRANCH  61  84
ENDBRANCH  35  36
ENDBRANCH  27  30
ENDBRANCH  25  26
ENDBRANCH  24  25
ENDBRANCH   1  24
TORSDOF 17
ENDMDL
MODEL 2
REMARK VINA RESULT:     -12.3      2.163      2.506
REMARK SMILES CCOc1ccc(-c2nc(C(=O)NCCCCNC(=O)c3ccc(-c4c5nc(c(-c6cc(S(=O)(=O)[O-])ccc6F)c6ccc([nH]6)c(-c6cc(S(=O)(=O)[O-])ccc6F)c6nc(c(-c7cc(S(=O)(=O)[O-])ccc7F)c7ccc4[nH]7)C=C6)C=C5)cc3)cc(=O)[nH]2)cc1
REMARK SMILES IDX 15 1 14 2 13 3 11 4 12 5 10 7 8 8 9 9 87 10 85 11 84 13
REMARK SMILES IDX 86 14 7 15 4 16 5 17 89 18 6 19 88 20 3 21 2 22 1 23 16 24
REMARK SMILES IDX 17 25 18 26 19 27 20 29 21 30 22 31 83 32 23 33 82 34 24 35
REMARK SMILES IDX 25 36 26 37 76 38 27 39 81 40 75 41 77 42 28 43 80 44 74 45
REMARK SMILES IDX 73 46 29 48 61 49 41 50 60 51 42 52 45 53 59 54 78 55 43 56
REMARK SMILES IDX 44 57 58 59 79 60 46 61 30 62 31 63 39 64 32 65 38 66 40 67
REMARK SMILES IDX 37 68 33 69 34 70 35 71 36 72 62 73 63 74 71 75 64 76 70 77
REMARK SMILES IDX 72 78 69 79 65 80 66 81 67 82 68 83 47 84 48 85 56 86 49 87
REMARK SMILES IDX 55 88 57 89 54 90 50 91 51 92 52 93 53 94
REMARK H PARENT 13 6 87 12 18 28 77 47 45 58
REMARK Flexibility Score: inf
ROOT
ATOM      1  C   UNL A   1      35.551  23.551  24.217  1.00  0.00     0.023 C 
ENDROOT
BRANCH   1   2
ATOM      2  C   UNL A   1      34.434  23.727  23.198  1.00  0.00     0.116 C 
BRANCH   2   3
ATOM      3  N   UNL A   1      33.537  22.591  23.101  1.00  0.00    -0.351 N 
ATOM      4  C   UNL A   1      32.380  22.257  23.747  1.00  0.00     0.270 C 
ATOM      5  O   UNL A   1      31.848  21.195  23.411  1.00  0.00    -0.268 OA
ATOM      6  H   UNL A   1      33.820  21.925  22.433  1.00  0.00     0.163 HD
BRANCH   4   7
ATOM      7  C   UNL A   1      31.772  23.089  24.863  1.00  0.00     0.136 A 
ATOM      8  C   UNL A   1      31.738  25.136  25.904  1.00  0.00     0.141 A 
ATOM      9  N   UNL A   1      32.131  24.428  24.896  1.00  0.00    -0.225 NA
ATOM     10  N   UNL A   1      30.863  24.664  26.845  1.00  0.00    -0.306 N 
ATOM     11  C   UNL A   1      30.440  23.374  26.847  1.00  0.00     0.251 A 
ATOM     12  H   UNL A   1      30.530  25.277  27.539  1.00  0.00     0.171 HD
ATOM     13  C   UNL A   1      31.073  22.511  25.847  1.00  0.00     0.105 A 
ATOM     14  O   UNL A   1      29.601  22.950  27.625  1.00  0.00    -0.269 OA
BRANCH   8  15
ATOM     15  C   UNL A   1      32.232  26.513  26.128  1.00  0.00     0.018 A 
ATOM     16  C   UNL A   1      33.129  29.128  26.453  1.00  0.00     0.119 A 
ATOM     17  C   UNL A   1      33.864  28.246  25.666  1.00  0.00     0.047 A 
ATOM     18  C   UNL A   1      31.923  28.728  27.030  1.00  0.00     0.047 A 
ATOM     19  C   UNL A   1      33.418  26.934  25.505  1.00  0.00     0.016 A 
ATOM     20  C   UNL A   1      31.473  27.416  26.875  1.00  0.00     0.016 A 
BRANCH  16  21
ATOM     21  O   UNL A   1      33.553  30.425  26.538  1.00  0.00    -0.494 OA
BRANCH  21  22
ATOM     22  C   UNL A   1      34.156  30.724  27.803  1.00  0.00     0.226 C 
ATOM     23  C   UNL A   1      35.491  31.428  27.627  1.00  0.00     0.049 C 
ENDBRANCH  21  22
ENDBRANCH  16  21
ENDBRANCH   8  15
ENDBRANCH   4   7
ENDBRANCH   2   3
ENDBRANCH   1   2
BRANCH   1  24
ATOM     24  C   UNL A   1      36.165  22.159  24.317  1.00  0.00     0.023 C 
BRANCH  24  25
ATOM     25  C   UNL A   1      36.657  21.742  25.699  1.00  0.00     0.116 C 
BRANCH  25  26
ATOM     26  N   UNL A   1      37.807  20.847  25.670  1.00  0.00    -0.352 N 
ATOM     27  C   UNL A   1      39.115  21.091  26.020  1.00  0.00     0.251 C 
ATOM     28  H   UNL A   1      37.620  19.934  25.353  1.00  0.00     0.163 HD
ATOM     29  O   UNL A   1      39.969  20.228  25.837  1.00  0.00    -0.269 OA
BRANCH  27  30
ATOM     30  C   UNL A   1      39.492  22.412  26.566  1.00  0.00     0.039 A 
ATOM     31  C   UNL A   1      40.536  22.485  27.490  1.00  0.00     0.014 A 
ATOM     32  C   UNL A   1      38.866  23.576  26.115  1.00  0.00     0.014 A 
ATOM     33  C   UNL A   1      41.028  23.734  27.875  1.00  0.00     0.010 A 
ATOM     34  C   UNL A   1      39.409  24.817  26.436  1.00  0.00     0.010 A 
ATOM     35  C   UNL A   1      40.511  24.909  27.300  1.00  0.00    -0.014 A 
BRANCH  35  36
ATOM     36  C   UNL A   1      41.150  26.229  27.547  1.00  0.00     0.031 A 
ATOM     37  C   UNL A   1      42.515  26.531  26.990  1.00  0.00     0.074 A 
ATOM     38  C   UNL A   1      40.523  27.128  28.335  1.00  0.00     0.049 A 
ATOM     39  N   UNL A   1      43.255  27.596  27.157  1.00  0.00    -0.248 NA
ATOM     40  C   UNL A   1      43.138  25.490  26.159  1.00  0.00     0.031 C 
ATOM     41  C   UNL A   1      39.215  26.931  28.965  1.00  0.00     0.029 A 
ATOM     42  N   UNL A   1      40.898  28.382  28.750  1.00  0.00    -0.354 N 
ATOM     43  C   UNL A   1      44.434  27.353  26.461  1.00  0.00     0.074 A 
ATOM     44  C   UNL A   1      44.329  26.017  25.913  1.00  0.00     0.031 C 
ATOM     45  C   UNL A   1      38.885  28.035  29.656  1.00  0.00     0.029 A 
ATOM     46  C   UNL A   1      39.979  28.996  29.572  1.00  0.00     0.049 A 
ATOM     47  H   UNL A   1      41.747  28.804  28.483  1.00  0.00     0.167 HD
ATOM     48  C   UNL A   1      45.495  28.177  26.282  1.00  0.00     0.034 A 
ATOM     49  C   UNL A   1      40.019  30.188  30.201  1.00  0.00     0.034 A 
ATOM     50  C   UNL A   1      45.578  29.510  26.825  1.00  0.00     0.049 A 
ATOM     51  C   UNL A   1      41.237  31.062  30.018  1.00  0.00     0.074 A 
ATOM     52  C   UNL A   1      46.577  30.451  26.642  1.00  0.00     0.029 A 
ATOM     53  N   UNL A   1      44.639  30.089  27.668  1.00  0.00    -0.354 N 
ATOM     54  N   UNL A   1      42.310  30.843  29.294  1.00  0.00    -0.248 NA
ATOM     55  C   UNL A   1      41.245  32.345  30.733  1.00  0.00     0.031 C 
ATOM     56  C   UNL A   1      46.286  31.560  27.440  1.00  0.00     0.029 A 
ATOM     57  C   UNL A   1      45.061  31.353  28.052  1.00  0.00     0.049 A 
ATOM     58  H   UNL A   1      43.798  29.663  27.953  1.00  0.00     0.167 HD
ATOM     59  C   UNL A   1      43.105  31.977  29.445  1.00  0.00     0.074 A 
ATOM     60  C   UNL A   1      42.376  32.884  30.304  1.00  0.00     0.031 C 
ATOM     61  C   UNL A   1      44.328  32.244  28.921  1.00  0.00     0.034 A 
BRANCH  48  62
ATOM     62  C   UNL A   1      46.668  27.653  25.489  1.00  0.00     0.023 A 
ATOM     63  C   UNL A   1      46.891  28.032  24.154  1.00  0.00     0.031 A 
ATOM     64  C   UNL A   1      47.592  26.776  26.088  1.00  0.00     0.131 A 
ATOM     65  C   UNL A   1      47.980  27.499  23.447  1.00  0.00     0.055 A 
ATOM     66  C   UNL A   1      48.713  26.309  25.402  1.00  0.00     0.041 A 
ATOM     67  F   UNL A   1      47.417  26.360  27.352  1.00  0.00    -0.206 F 
ATOM     68  C   UNL A   1      48.909  26.663  24.071  1.00  0.00     0.022 A 
BRANCH  65  69
ATOM     69  S   UNL A   1      48.105  27.828  21.668  1.00  0.00     0.124 S 
ATOM     70  O   UNL A   1      49.177  28.818  21.626  1.00  0.00    -0.237 OA
ATOM     71  O   UNL A   1      48.427  26.513  21.126  1.00  0.00    -0.237 OA
ATOM     72  O   UNL A   1      46.780  28.339  21.320  1.00  0.00    -0.744 OA
ENDBRANCH  65  69
ENDBRANCH  48  62
BRANCH  49  73
ATOM     73  C   UNL A   1      38.900  30.629  31.086  1.00  0.00     0.023 A 
ATOM     74  C   UNL A   1      37.921  31.521  30.621  1.00  0.00     0.031 A 
ATOM     75  C   UNL A   1      38.837  30.232  32.434  1.00  0.00     0.131 A 
ATOM     76  C   UNL A   1      36.966  32.042  31.508  1.00  0.00     0.055 A 
ATOM     77  C   UNL A   1      37.842  30.697  33.297  1.00  0.00     0.041 A 
ATOM     78  F   UNL A   1      39.747  29.382  32.937  1.00  0.00    -0.206 F 
ATOM     79  C   UNL A   1      36.910  31.623  32.840  1.00  0.00     0.022 A 
BRANCH  76  80
ATOM     80  S   UNL A   1      35.880  33.375  30.929  1.00  0.00     0.124 S 
ATOM     81  O   UNL A   1      35.937  34.308  32.048  1.00  0.00    -0.237 OA
ATOM     82  O   UNL A   1      36.549  33.798  29.703  1.00  0.00    -0.237 OA
ATOM     83  O   UNL A   1      34.595  32.706  30.737  1.00  0.00    -0.744 OA
ENDBRANCH  76  80
ENDBRANCH  49  73
BRANCH  61  84
ATOM     84  C   UNL A   1      44.932  33.591  29.239  1.00  0.00     0.023 A 
ATOM     85  C   UNL A   1      44.556  34.753  28.540  1.00  0.00     0.031 A 
ATOM     86  C   UNL A   1      45.905  33.713  30.246  1.00  0.00     0.131 A 
ATOM     87  C   UNL A   1      45.194  35.970  28.814  1.00  0.00     0.055 A 
ATOM     88  C   UNL A   1      46.487  34.941  30.562  1.00  0.00     0.041 A 
ATOM     89  F   UNL A   1      46.307  32.638  30.943  1.00  0.00    -0.206 F 
ATOM     90  C   UNL A   1      46.143  36.077  29.835  1.00  0.00     0.022 A 
BRANCH  87  91
ATOM     91  S   UNL A   1      44.842  37.396  27.750  1.00  0.00     0.124 S 
ATOM     92  O   UNL A   1      46.137  37.630  27.118  1.00  0.00    -0.237 OA
ATOM     93  O   UNL A   1      43.791  36.882  26.877  1.00  0.00    -0.237 OA
ATOM     94  O   UNL A   1      44.414  38.430  28.690  1.00  0.00    -0.744 OA
ENDBRANCH  87  91
ENDBRANCH  61  84
ENDBRANCH  35  36
ENDBRANCH  27  30
ENDBRANCH  25  26
ENDBRANCH  24  25
ENDBRANCH   1  24
TORSDOF 17
ENDMDL
MODEL 3
REMARK VINA RESULT:     -12.2      2.501      2.923
REMARK SMILES CCOc1ccc(-c2nc(C(=O)NCCCCNC(=O)c3ccc(-c4c5nc(c(-c6cc(S(=O)(=O)[O-])ccc6F)c6ccc([nH]6)c(-c6cc(S(=O)(=O)[O-])ccc6F)c6nc(c(-c7cc(S(=O)(=O)[O-])ccc7F)c7ccc4[nH]7)C=C6)C=C5)cc3)cc(=O)[nH]2)cc1
REMARK SMILES IDX 15 1 14 2 13 3 11 4 12 5 10 7 8 8 9 9 87 10 85 11 84 13
REMARK SMILES IDX 86 14 7 15 4 16 5 17 89 18 6 19 88 20 3 21 2 22 1 23 16 24
REMARK SMILES IDX 17 25 18 26 19 27 20 29 21 30 22 31 83 32 23 33 82 34 24 35
REMARK SMILES IDX 25 36 26 37 76 38 27 39 81 40 75 41 77 42 28 43 80 44 74 45
REMARK SMILES IDX 73 46 29 48 61 49 41 50 60 51 42 52 45 53 59 54 78 55 43 56
REMARK SMILES IDX 44 57 58 59 79 60 46 61 30 62 31 63 39 64 32 65 38 66 40 67
REMARK SMILES IDX 37 68 33 69 34 70 35 71 36 72 62 73 63 74 71 75 64 76 70 77
REMARK SMILES IDX 72 78 69 79 65 80 66 81 67 82 68 83 47 84 48 85 56 86 49 87
REMARK SMILES IDX 55 88 57 89 54 90 50 91 51 92 52 93 53 94
REMARK H PARENT 13 6 87 12 18 28 77 47 45 58
REMARK Flexibility Score: inf
ROOT
ATOM      1  C   UNL A   1      35.571  23.493  24.208  1.00  0.00     0.023 C 
ENDROOT
BRANCH   1   2
ATOM      2  C   UNL A   1      34.547  23.755  23.113  1.00  0.00     0.116 C 
BRANCH   2   3
ATOM      3  N   UNL A   1      33.577  22.689  22.942  1.00  0.00    -0.351 N 
ATOM      4  C   UNL A   1      32.400  22.389  23.568  1.00  0.00     0.270 C 
ATOM      5  O   UNL A   1      31.799  21.390  23.162  1.00  0.00    -0.268 OA
ATOM      6  H   UNL A   1      33.816  22.054  22.229  1.00  0.00     0.163 HD
BRANCH   4   7
ATOM      7  C   UNL A   1      31.846  23.181  24.739  1.00  0.00     0.136 A 
ATOM      8  C   UNL A   1      31.853  25.196  25.843  1.00  0.00     0.141 A 
ATOM      9  N   UNL A   1      32.196  24.522  24.794  1.00  0.00    -0.225 NA
ATOM     10  N   UNL A   1      31.034  24.688  26.814  1.00  0.00    -0.306 N 
ATOM     11  C   UNL A   1      30.621  23.394  26.800  1.00  0.00     0.251 A 
ATOM     12  H   UNL A   1      30.734  25.277  27.544  1.00  0.00     0.171 HD
ATOM     13  C   UNL A   1      31.206  22.568  25.742  1.00  0.00     0.105 A 
ATOM     14  O   UNL A   1      29.828  22.940  27.609  1.00  0.00    -0.269 OA
BRANCH   8  15
ATOM     15  C   UNL A   1      32.348  26.570  26.083  1.00  0.00     0.018 A 
ATOM     16  C   UNL A   1      33.238  29.184  26.440  1.00  0.00     0.119 A 
ATOM     17  C   UNL A   1      33.905  28.350  25.547  1.00  0.00     0.047 A 
ATOM     18  C   UNL A   1      32.098  28.737  27.111  1.00  0.00     0.047 A 
ATOM     19  C   UNL A   1      33.463  27.039  25.369  1.00  0.00     0.016 A 
ATOM     20  C   UNL A   1      31.653  27.425  26.939  1.00  0.00     0.016 A 
BRANCH  16  21
ATOM     21  O   UNL A   1      33.651  30.482  26.544  1.00  0.00    -0.494 OA
BRANCH  21  22
ATOM     22  C   UNL A   1      34.261  30.765  27.809  1.00  0.00     0.226 C 
ATOM     23  C   UNL A   1      35.480  29.890  28.044  1.00  0.00     0.049 C 
ENDBRANCH  21  22
ENDBRANCH  16  21
ENDBRANCH   8  15
ENDBRANCH   4   7
ENDBRANCH   2   3
ENDBRANCH   1   2
BRANCH   1  24
ATOM     24  C   UNL A   1      36.128  22.076  24.290  1.00  0.00     0.023 C 
BRANCH  24  25
ATOM     25  C   UNL A   1      36.619  21.628  25.664  1.00  0.00     0.116 C 
BRANCH  25  26
ATOM     26  N   UNL A   1      37.766  20.730  25.616  1.00  0.00    -0.352 N 
ATOM     27  C   UNL A   1      39.077  20.963  25.963  1.00  0.00     0.251 C 
ATOM     28  H   UNL A   1      37.574  19.823  25.286  1.00  0.00     0.163 HD
ATOM     29  O   UNL A   1      39.925  20.100  25.763  1.00  0.00    -0.269 OA
BRANCH  27  30
ATOM     30  C   UNL A   1      39.461  22.274  26.527  1.00  0.00     0.039 A 
ATOM     31  C   UNL A   1      40.524  22.333  27.430  1.00  0.00     0.014 A 
ATOM     32  C   UNL A   1      38.822  23.445  26.112  1.00  0.00     0.014 A 
ATOM     33  C   UNL A   1      41.020  23.576  27.829  1.00  0.00     0.010 A 
ATOM     34  C   UNL A   1      39.368  24.681  26.446  1.00  0.00     0.010 A 
ATOM     35  C   UNL A   1      40.488  24.760  27.288  1.00  0.00    -0.014 A 
BRANCH  35  36
ATOM     36  C   UNL A   1      41.128  26.077  27.547  1.00  0.00     0.031 A 
ATOM     37  C   UNL A   1      42.508  26.369  27.024  1.00  0.00     0.074 A 
ATOM     38  C   UNL A   1      40.487  26.982  28.317  1.00  0.00     0.049 A 
ATOM     39  N   UNL A   1      43.250  27.431  27.207  1.00  0.00    -0.248 NA
ATOM     40  C   UNL A   1      43.146  25.323  26.212  1.00  0.00     0.031 C 
ATOM     41  C   UNL A   1      39.162  26.795  28.915  1.00  0.00     0.029 A 
ATOM     42  N   UNL A   1      40.859  28.235  28.738  1.00  0.00    -0.354 N 
ATOM     43  C   UNL A   1      44.445  27.179  26.541  1.00  0.00     0.074 A 
ATOM     44  C   UNL A   1      44.346  25.842  25.994  1.00  0.00     0.031 C 
ATOM     45  C   UNL A   1      38.822  27.902  29.594  1.00  0.00     0.029 A 
ATOM     46  C   UNL A   1      39.924  28.856  29.535  1.00  0.00     0.049 A 
ATOM     47  H   UNL A   1      41.717  28.651  28.492  1.00  0.00     0.167 HD
ATOM     48  C   UNL A   1      45.515  27.996  26.386  1.00  0.00     0.034 A 
ATOM     49  C   UNL A   1      39.955  30.050  30.161  1.00  0.00     0.034 A 
ATOM     50  C   UNL A   1      45.591  29.331  26.927  1.00  0.00     0.049 A 
ATOM     51  C   UNL A   1      41.181  30.916  30.007  1.00  0.00     0.074 A 
ATOM     52  C   UNL A   1      46.601  30.265  26.767  1.00  0.00     0.029 A 
ATOM     53  N   UNL A   1      44.636  29.917  27.746  1.00  0.00    -0.354 N 
ATOM     54  N   UNL A   1      42.271  30.689  29.310  1.00  0.00    -0.248 NA
ATOM     55  C   UNL A   1      41.180  32.201  30.719  1.00  0.00     0.031 C 
ATOM     56  C   UNL A   1      46.296  31.379  27.555  1.00  0.00     0.029 A 
ATOM     57  C   UNL A   1      45.055  31.180  28.136  1.00  0.00     0.049 A 
ATOM     58  H   UNL A   1      43.785  29.497  28.010  1.00  0.00     0.167 HD
ATOM     59  C   UNL A   1      43.069  31.819  29.478  1.00  0.00     0.074 A 
ATOM     60  C   UNL A   1      42.324  32.733  30.317  1.00  0.00     0.031 C 
ATOM     61  C   UNL A   1      44.306  32.077  28.984  1.00  0.00     0.034 A 
BRANCH  48  62
ATOM     62  C   UNL A   1      46.704  27.463  25.624  1.00  0.00     0.023 A 
ATOM     63  C   UNL A   1      46.988  27.873  24.310  1.00  0.00     0.031 A 
ATOM     64  C   UNL A   1      47.581  26.547  26.233  1.00  0.00     0.131 A 
ATOM     65  C   UNL A   1      48.090  27.331  23.631  1.00  0.00     0.055 A 
ATOM     66  C   UNL A   1      48.717  26.069  25.578  1.00  0.00     0.041 A 
ATOM     67  F   UNL A   1      47.347  26.102  27.477  1.00  0.00    -0.206 F 
ATOM     68  C   UNL A   1      48.973  26.453  24.265  1.00  0.00     0.022 A 
BRANCH  65  69
ATOM     69  S   UNL A   1      48.292  27.704  21.867  1.00  0.00     0.124 S 
ATOM     70  O   UNL A   1      49.447  28.598  21.886  1.00  0.00    -0.237 OA
ATOM     71  O   UNL A   1      48.515  26.385  21.288  1.00  0.00    -0.237 OA
ATOM     72  O   UNL A   1      47.027  28.339  21.504  1.00  0.00    -0.744 OA
ENDBRANCH  65  69
ENDBRANCH  48  62
BRANCH  49  73
ATOM     73  C   UNL A   1      38.816  30.500  31.018  1.00  0.00     0.023 A 
ATOM     74  C   UNL A   1      37.827  31.358  30.510  1.00  0.00     0.031 A 
ATOM     75  C   UNL A   1      38.743  30.147  32.378  1.00  0.00     0.131 A 
ATOM     76  C   UNL A   1      36.852  31.890  31.367  1.00  0.00     0.055 A 
ATOM     77  C   UNL A   1      37.729  30.623  33.211  1.00  0.00     0.041 A 
ATOM     78  F   UNL A   1      39.661  29.332  32.921  1.00  0.00    -0.206 F 
ATOM     79  C   UNL A   1      36.786  31.516  32.712  1.00  0.00     0.022 A 
BRANCH  76  80
ATOM     80  S   UNL A   1      35.749  33.182  30.730  1.00  0.00     0.124 S 
ATOM     81  O   UNL A   1      34.450  32.526  30.808  1.00  0.00    -0.237 OA
ATOM     82  O   UNL A   1      35.979  34.269  31.675  1.00  0.00    -0.237 OA
ATOM     83  O   UNL A   1      36.250  33.418  29.377  1.00  0.00    -0.744 OA
ENDBRANCH  76  80
ENDBRANCH  49  73
BRANCH  61  84
ATOM     84  C   UNL A   1      44.909  33.422  29.313  1.00  0.00     0.023 A 
ATOM     85  C   UNL A   1      45.724  33.610  30.444  1.00  0.00     0.031 A 
ATOM     86  C   UNL A   1      44.655  34.535  28.492  1.00  0.00     0.131 A 
ATOM     87  C   UNL A   1      46.203  34.890  30.756  1.00  0.00     0.055 A 
ATOM     88  C   UNL A   1      45.192  35.792  28.769  1.00  0.00     0.041 A 
ATOM     89  F   UNL A   1      43.880  34.418  27.401  1.00  0.00    -0.206 F 
ATOM     90  C   UNL A   1      45.959  35.979  29.915  1.00  0.00     0.022 A 
BRANCH  87  91
ATOM     91  S   UNL A   1      47.065  35.136  32.333  1.00  0.00     0.124 S 
ATOM     92  O   UNL A   1      48.432  34.755  31.994  1.00  0.00    -0.237 OA
ATOM     93  O   UNL A   1      46.844  36.556  32.591  1.00  0.00    -0.237 OA
ATOM     94  O   UNL A   1      46.376  34.227  33.247  1.00  0.00    -0.744 OA
ENDBRANCH  87  91
ENDBRANCH  61  84
ENDBRANCH  35  36
ENDBRANCH  27  30
ENDBRANCH  25  26
ENDBRANCH  24  25
ENDBRANCH   1  24
TORSDOF 17
ENDMDL
