MODEL 1
REMARK VINA RESULT:     -10.5      0.000      0.000
REMARK SMILES C[C@@H](C(=O)NCCCCNC(=O)c1ccc(-c2c3nc(c(-c4cc(S(=O)(=O)[O-])ccc4F)c4ccc([nH]4)c(-c4cc(S(=O)(=O)[O-])ccc4F)c4nc(c(-c5cc(S(=O)(=O)[O-])ccc5F)c5ccc2[nH]5)C=C4)C=C3)cc1)c1ccc(-c2ccccc2)c(F)c1
REMARK SMILES IDX 8 1 7 2 6 3 5 4 3 5 4 6 2 8 1 9 76 10 77 11 88 12 78 13
REMARK SMILES IDX 86 14 79 15 87 16 80 17 81 18 85 19 82 20 84 21 83 22 9 23
REMARK SMILES IDX 10 24 11 25 12 27 13 28 14 29 75 30 15 31 74 32 16 33 17 34
REMARK SMILES IDX 18 35 68 36 19 37 73 38 67 39 69 40 20 41 72 42 66 43 65 44
REMARK SMILES IDX 21 46 53 47 33 48 52 49 34 50 37 51 51 52 70 53 35 54 36 55
REMARK SMILES IDX 50 57 71 58 38 59 22 60 23 61 31 62 24 63 30 64 32 65 29 66
REMARK SMILES IDX 25 67 26 68 27 69 28 70 54 71 55 72 63 73 56 74 62 75 64 76
REMARK SMILES IDX 61 77 57 78 58 79 59 80 60 81 39 82 40 83 48 84 41 85 47 86
REMARK SMILES IDX 49 87 46 88 42 89 43 90 44 91 45 92
REMARK H PARENT 5 7 10 26 69 45 37 56
REMARK Flexibility Score: inf
ROOT
ATOM      1  C   UNL A   1      34.273  34.133  28.058  1.00  0.00     0.023 C 
ENDROOT
BRANCH   1   2
ATOM      2  C   UNL A   1      34.000  35.336  28.965  1.00  0.00     0.023 C 
BRANCH   2   3
ATOM      3  C   UNL A   1      33.289  35.005  30.278  1.00  0.00     0.116 C 
BRANCH   3   4
ATOM      4  N   UNL A   1      33.816  35.786  31.378  1.00  0.00    -0.356 N 
ATOM      5  C   UNL A   1      34.681  35.438  32.377  1.00  0.00     0.227 C 
ATOM      6  O   UNL A   1      34.918  36.295  33.230  1.00  0.00    -0.274 OA
ATOM      7  H   UNL A   1      33.501  36.718  31.412  1.00  0.00     0.163 HD
BRANCH   5   8
ATOM      8  C   UNL A   1      35.338  34.047  32.383  1.00  0.00     0.105 C 
ATOM      9  C   UNL A   1      35.431  33.453  33.793  1.00  0.00     0.023 C 
BRANCH   8  10
ATOM     10  C   UNL A   1      36.726  34.057  31.746  1.00  0.00    -0.033 A 
ATOM     11  C   UNL A   1      37.844  34.481  32.479  1.00  0.00     0.005 A 
ATOM     12  C   UNL A   1      36.914  33.663  30.413  1.00  0.00     0.044 A 
ATOM     13  C   UNL A   1      39.110  34.536  31.881  1.00  0.00     0.012 A 
ATOM     14  C   UNL A   1      38.174  33.730  29.825  1.00  0.00     0.131 A 
ATOM     15  C   UNL A   1      39.295  34.176  30.536  1.00  0.00     0.017 A 
ATOM     16  F   UNL A   1      38.292  33.362  28.539  1.00  0.00    -0.206 F 
BRANCH  15  17
ATOM     17  C   UNL A   1      40.616  34.280  29.898  1.00  0.00    -0.015 A 
ATOM     18  C   UNL A   1      41.622  33.333  30.148  1.00  0.00     0.009 A 
ATOM     19  C   UNL A   1      40.907  35.337  29.018  1.00  0.00     0.009 A 
ATOM     20  C   UNL A   1      42.874  33.437  29.536  1.00  0.00     0.001 A 
ATOM     21  C   UNL A   1      42.159  35.444  28.409  1.00  0.00     0.001 A 
ATOM     22  C   UNL A   1      43.142  34.493  28.668  1.00  0.00     0.000 A 
ENDBRANCH  15  17
ENDBRANCH   8  10
ENDBRANCH   5   8
ENDBRANCH   3   4
ENDBRANCH   2   3
ENDBRANCH   1   2
BRANCH   1  23
ATOM     23  C   UNL A   1      34.194  32.767  28.734  1.00  0.00     0.116 C 
BRANCH  23  24
ATOM     24  N   UNL A   1      33.802  31.704  27.821  1.00  0.00    -0.352 N 
ATOM     25  C   UNL A   1      34.494  30.567  27.475  1.00  0.00     0.251 C 
ATOM     26  H   UNL A   1      32.923  31.813  27.394  1.00  0.00     0.163 HD
ATOM     27  O   UNL A   1      34.063  29.833  26.590  1.00  0.00    -0.269 OA
BRANCH  25  28
ATOM     28  C   UNL A   1      35.776  30.260  28.147  1.00  0.00     0.039 A 
ATOM     29  C   UNL A   1      35.750  29.649  29.403  1.00  0.00     0.014 A 
ATOM     30  C   UNL A   1      36.993  30.533  27.519  1.00  0.00     0.014 A 
ATOM     31  C   UNL A   1      36.944  29.227  29.991  1.00  0.00     0.010 A 
ATOM     32  C   UNL A   1      38.177  30.064  28.082  1.00  0.00     0.010 A 
ATOM     33  C   UNL A   1      38.163  29.388  29.312  1.00  0.00    -0.014 A 
BRANCH  33  34
ATOM     34  C   UNL A   1      39.431  28.817  29.838  1.00  0.00     0.031 A 
ATOM     35  C   UNL A   1      40.164  29.509  30.952  1.00  0.00     0.074 A 
ATOM     36  C   UNL A   1      39.973  27.741  29.231  1.00  0.00     0.049 A 
ATOM     37  N   UNL A   1      41.351  29.257  31.441  1.00  0.00    -0.248 NA
ATOM     38  C   UNL A   1      39.485  30.653  31.578  1.00  0.00     0.031 C 
ATOM     39  C   UNL A   1      39.372  27.009  28.112  1.00  0.00     0.029 A 
ATOM     40  N   UNL A   1      41.164  27.093  29.444  1.00  0.00    -0.354 N 
ATOM     41  C   UNL A   1      41.574  30.225  32.413  1.00  0.00     0.074 A 
ATOM     42  C   UNL A   1      40.410  31.088  32.421  1.00  0.00     0.031 C 
ATOM     43  C   UNL A   1      40.199  26.022  27.736  1.00  0.00     0.029 A 
ATOM     44  C   UNL A   1      41.410  26.078  28.548  1.00  0.00     0.049 A 
ATOM     45  H   UNL A   1      41.785  27.334  30.170  1.00  0.00     0.167 HD
ATOM     46  C   UNL A   1      42.649  30.374  33.226  1.00  0.00     0.034 A 
ATOM     47  C   UNL A   1      42.500  25.303  28.375  1.00  0.00     0.034 A 
ATOM     48  C   UNL A   1      43.785  29.487  33.226  1.00  0.00     0.049 A 
ATOM     49  C   UNL A   1      43.689  25.502  29.281  1.00  0.00     0.074 A 
ATOM     50  C   UNL A   1      44.869  29.478  34.086  1.00  0.00     0.029 A 
ATOM     51  N   UNL A   1      43.995  28.462  32.312  1.00  0.00    -0.354 N 
ATOM     52  N   UNL A   1      43.848  26.373  30.251  1.00  0.00    -0.248 NA
ATOM     53  C   UNL A   1      44.841  24.617  29.072  1.00  0.00     0.031 C 
ATOM     54  C   UNL A   1      45.766  28.496  33.651  1.00  0.00     0.029 A 
ATOM     55  C   UNL A   1      45.212  27.846  32.560  1.00  0.00     0.049 A 
ATOM     56  H   UNL A   1      43.371  28.210  31.593  1.00  0.00     0.167 HD
ATOM     57  C   UNL A   1      45.111  26.122  30.780  1.00  0.00     0.074 A 
ATOM     58  C   UNL A   1      45.663  25.012  30.033  1.00  0.00     0.031 C 
ATOM     59  C   UNL A   1      45.755  26.751  31.794  1.00  0.00     0.034 A 
BRANCH  46  60
ATOM     60  C   UNL A   1      42.662  31.554  34.164  1.00  0.00     0.023 A 
ATOM     61  C   UNL A   1      42.071  31.498  35.437  1.00  0.00     0.031 A 
ATOM     62  C   UNL A   1      43.286  32.754  33.776  1.00  0.00     0.131 A 
ATOM     63  C   UNL A   1      42.069  32.637  36.257  1.00  0.00     0.055 A 
ATOM     64  C   UNL A   1      43.338  33.862  34.622  1.00  0.00     0.041 A 
ATOM     65  F   UNL A   1      43.849  32.869  32.564  1.00  0.00    -0.206 F 
ATOM     66  C   UNL A   1      42.719  33.811  35.867  1.00  0.00     0.022 A 
BRANCH  63  67
ATOM     67  S   UNL A   1      41.114  32.595  37.797  1.00  0.00     0.124 S 
ATOM     68  O   UNL A   1      41.933  31.717  38.630  1.00  0.00    -0.237 OA
ATOM     69  O   UNL A   1      41.083  34.000  38.188  1.00  0.00    -0.237 OA
ATOM     70  O   UNL A   1      39.827  32.033  37.388  1.00  0.00    -0.744 OA
ENDBRANCH  63  67
ENDBRANCH  46  60
BRANCH  47  71
ATOM     71  C   UNL A   1      42.549  24.298  27.273  1.00  0.00     0.023 A 
ATOM     72  C   UNL A   1      41.945  23.039  27.413  1.00  0.00     0.031 A 
ATOM     73  C   UNL A   1      43.256  24.562  26.087  1.00  0.00     0.131 A 
ATOM     74  C   UNL A   1      42.101  22.073  26.408  1.00  0.00     0.055 A 
ATOM     75  C   UNL A   1      43.364  23.616  25.065  1.00  0.00     0.041 A 
ATOM     76  F   UNL A   1      43.850  25.752  25.900  1.00  0.00    -0.206 F 
ATOM     77  C   UNL A   1      42.796  22.357  25.230  1.00  0.00     0.022 A 
BRANCH  74  78
ATOM     78  S   UNL A   1      41.464  20.401  26.704  1.00  0.00     0.124 S 
ATOM     79  O   UNL A   1      42.261  19.977  27.851  1.00  0.00    -0.237 OA
ATOM     80  O   UNL A   1      40.052  20.659  26.965  1.00  0.00    -0.237 OA
ATOM     81  O   UNL A   1      41.748  19.701  25.454  1.00  0.00    -0.744 OA
ENDBRANCH  74  78
ENDBRANCH  47  71
BRANCH  59  82
ATOM     82  C   UNL A   1      47.116  26.225  32.171  1.00  0.00     0.023 A 
ATOM     83  C   UNL A   1      47.280  25.272  33.192  1.00  0.00     0.031 A 
ATOM     84  C   UNL A   1      48.262  26.684  31.499  1.00  0.00     0.131 A 
ATOM     85  C   UNL A   1      48.568  24.840  33.540  1.00  0.00     0.055 A 
ATOM     86  C   UNL A   1      49.536  26.212  31.815  1.00  0.00     0.041 A 
ATOM     87  F   UNL A   1      48.159  27.595  30.517  1.00  0.00    -0.206 F 
ATOM     88  C   UNL A   1      49.695  25.292  32.847  1.00  0.00     0.022 A 
BRANCH  85  89
ATOM     89  S   UNL A   1      48.760  23.721  34.954  1.00  0.00     0.124 S 
ATOM     90  O   UNL A   1      47.512  23.932  35.679  1.00  0.00    -0.237 OA
ATOM     91  O   UNL A   1      48.910  22.421  34.307  1.00  0.00    -0.237 OA
ATOM     92  O   UNL A   1      49.960  24.219  35.625  1.00  0.00    -0.744 OA
ENDBRANCH  85  89
ENDBRANCH  59  82
ENDBRANCH  33  34
ENDBRANCH  25  28
ENDBRANCH  23  24
ENDBRANCH   1  23
TORSDOF 16
ENDMDL
MODEL 2
REMARK VINA RESULT:     -10.5      6.268     12.188
REMARK SMILES C[C@@H](C(=O)NCCCCNC(=O)c1ccc(-c2c3nc(c(-c4cc(S(=O)(=O)[O-])ccc4F)c4ccc([nH]4)c(-c4cc(S(=O)(=O)[O-])ccc4F)c4nc(c(-c5cc(S(=O)(=O)[O-])ccc5F)c5ccc2[nH]5)C=C4)C=C3)cc1)c1ccc(-c2ccccc2)c(F)c1
REMARK SMILES IDX 8 1 7 2 6 3 5 4 3 5 4 6 2 8 1 9 76 10 77 11 88 12 78 13
REMARK SMILES IDX 86 14 79 15 87 16 80 17 81 18 85 19 82 20 84 21 83 22 9 23
REMARK SMILES IDX 10 24 11 25 12 27 13 28 14 29 75 30 15 31 74 32 16 33 17 34
REMARK SMILES IDX 18 35 68 36 19 37 73 38 67 39 69 40 20 41 72 42 66 43 65 44
REMARK SMILES IDX 21 46 53 47 33 48 52 49 34 50 37 51 51 52 70 53 35 54 36 55
REMARK SMILES IDX 50 57 71 58 38 59 22 60 23 61 31 62 24 63 30 64 32 65 29 66
REMARK SMILES IDX 25 67 26 68 27 69 28 70 54 71 55 72 63 73 56 74 62 75 64 76
REMARK SMILES IDX 61 77 57 78 58 79 59 80 60 81 39 82 40 83 48 84 41 85 47 86
REMARK SMILES IDX 49 87 46 88 42 89 43 90 44 91 45 92
REMARK H PARENT 5 7 10 26 69 45 37 56
REMARK Flexibility Score: inf
ROOT
ATOM      1  C   UNL A   1      36.202  21.835  24.185  1.00  0.00     0.023 C 
ENDROOT
BRANCH   1   2
ATOM      2  C   UNL A   1      36.058  23.206  23.519  1.00  0.00     0.023 C 
BRANCH   2   3
ATOM      3  C   UNL A   1      35.154  24.192  24.263  1.00  0.00     0.116 C 
BRANCH   3   4
ATOM      4  N   UNL A   1      34.186  24.799  23.372  1.00  0.00    -0.356 N 
ATOM      5  C   UNL A   1      32.821  24.792  23.412  1.00  0.00     0.227 C 
ATOM      6  O   UNL A   1      32.236  25.346  22.479  1.00  0.00    -0.274 OA
ATOM      7  H   UNL A   1      34.575  25.296  22.617  1.00  0.00     0.163 HD
BRANCH   5   8
ATOM      8  C   UNL A   1      32.083  24.148  24.597  1.00  0.00     0.105 C 
ATOM      9  C   UNL A   1      32.418  24.826  25.930  1.00  0.00     0.023 C 
BRANCH   8  10
ATOM     10  C   UNL A   1      32.359  22.650  24.709  1.00  0.00    -0.033 A 
ATOM     11  C   UNL A   1      32.869  22.105  25.896  1.00  0.00     0.005 A 
ATOM     12  C   UNL A   1      32.130  21.788  23.625  1.00  0.00     0.044 A 
ATOM     13  C   UNL A   1      33.168  20.739  25.984  1.00  0.00     0.012 A 
ATOM     14  C   UNL A   1      32.438  20.434  23.719  1.00  0.00     0.131 A 
ATOM     15  C   UNL A   1      32.973  19.880  24.890  1.00  0.00     0.017 A 
ATOM     16  F   UNL A   1      32.219  19.661  22.644  1.00  0.00    -0.206 F 
BRANCH  15  17
ATOM     17  C   UNL A   1      33.332  18.457  24.969  1.00  0.00    -0.015 A 
ATOM     18  C   UNL A   1      34.541  17.980  24.437  1.00  0.00     0.009 A 
ATOM     19  C   UNL A   1      32.470  17.531  25.582  1.00  0.00     0.009 A 
ATOM     20  C   UNL A   1      34.877  16.626  24.518  1.00  0.00     0.001 A 
ATOM     21  C   UNL A   1      32.803  16.177  25.661  1.00  0.00     0.001 A 
ATOM     22  C   UNL A   1      34.008  15.726  25.128  1.00  0.00     0.000 A 
ENDBRANCH  15  17
ENDBRANCH   8  10
ENDBRANCH   5   8
ENDBRANCH   3   4
ENDBRANCH   2   3
ENDBRANCH   1   2
BRANCH   1  23
ATOM     23  C   UNL A   1      36.793  21.845  25.592  1.00  0.00     0.116 C 
BRANCH  23  24
ATOM     24  N   UNL A   1      37.870  20.881  25.762  1.00  0.00    -0.352 N 
ATOM     25  C   UNL A   1      39.165  21.100  26.170  1.00  0.00     0.251 C 
ATOM     26  H   UNL A   1      37.641  19.947  25.557  1.00  0.00     0.163 HD
ATOM     27  O   UNL A   1      39.979  20.182  26.140  1.00  0.00    -0.269 OA
BRANCH  25  28
ATOM     28  C   UNL A   1      39.575  22.453  26.605  1.00  0.00     0.039 A 
ATOM     29  C   UNL A   1      40.610  22.578  27.535  1.00  0.00     0.014 A 
ATOM     30  C   UNL A   1      38.970  23.589  26.063  1.00  0.00     0.014 A 
ATOM     31  C   UNL A   1      41.102  23.846  27.854  1.00  0.00     0.010 A 
ATOM     32  C   UNL A   1      39.497  24.847  26.340  1.00  0.00     0.010 A 
ATOM     33  C   UNL A   1      40.582  24.988  27.222  1.00  0.00    -0.014 A 
BRANCH  33  34
ATOM     34  C   UNL A   1      41.182  26.332  27.422  1.00  0.00     0.031 A 
ATOM     35  C   UNL A   1      42.555  26.632  26.890  1.00  0.00     0.074 A 
ATOM     36  C   UNL A   1      40.533  27.239  28.181  1.00  0.00     0.049 A 
ATOM     37  N   UNL A   1      43.307  27.683  27.092  1.00  0.00    -0.248 NA
ATOM     38  C   UNL A   1      43.174  25.600  26.045  1.00  0.00     0.031 C 
ATOM     39  C   UNL A   1      39.212  27.045  28.786  1.00  0.00     0.029 A 
ATOM     40  N   UNL A   1      40.907  28.490  28.604  1.00  0.00    -0.354 N 
ATOM     41  C   UNL A   1      44.499  27.430  26.422  1.00  0.00     0.074 A 
ATOM     42  C   UNL A   1      44.378  26.112  25.834  1.00  0.00     0.031 C 
ATOM     43  C   UNL A   1      38.891  28.132  29.504  1.00  0.00     0.029 A 
ATOM     44  C   UNL A   1      39.999  29.080  29.456  1.00  0.00     0.049 A 
ATOM     45  H   UNL A   1      41.745  28.924  28.326  1.00  0.00     0.167 HD
ATOM     46  C   UNL A   1      45.587  28.230  26.305  1.00  0.00     0.034 A 
ATOM     47  C   UNL A   1      40.067  30.236  30.148  1.00  0.00     0.034 A 
ATOM     48  C   UNL A   1      45.677  29.553  26.870  1.00  0.00     0.049 A 
ATOM     49  C   UNL A   1      41.297  31.097  30.013  1.00  0.00     0.074 A 
ATOM     50  C   UNL A   1      46.684  30.489  26.712  1.00  0.00     0.029 A 
ATOM     51  N   UNL A   1      44.735  30.122  27.717  1.00  0.00    -0.354 N 
ATOM     52  N   UNL A   1      42.383  30.877  29.308  1.00  0.00    -0.248 NA
ATOM     53  C   UNL A   1      41.313  32.358  30.765  1.00  0.00     0.031 C 
ATOM     54  C   UNL A   1      46.386  31.594  27.516  1.00  0.00     0.029 A 
ATOM     55  C   UNL A   1      45.160  31.377  28.125  1.00  0.00     0.049 A 
ATOM     56  H   UNL A   1      43.890  29.697  27.988  1.00  0.00     0.167 HD
ATOM     57  C   UNL A   1      43.199  31.986  29.515  1.00  0.00     0.074 A 
ATOM     58  C   UNL A   1      42.476  32.877  30.398  1.00  0.00     0.031 C 
ATOM     59  C   UNL A   1      44.434  32.246  29.018  1.00  0.00     0.034 A 
BRANCH  46  60
ATOM     60  C   UNL A   1      46.781  27.686  25.560  1.00  0.00     0.023 A 
ATOM     61  C   UNL A   1      47.029  28.010  24.216  1.00  0.00     0.031 A 
ATOM     62  C   UNL A   1      47.689  26.835  26.215  1.00  0.00     0.131 A 
ATOM     63  C   UNL A   1      48.128  27.443  23.553  1.00  0.00     0.055 A 
ATOM     64  C   UNL A   1      48.817  26.328  25.570  1.00  0.00     0.041 A 
ATOM     65  F   UNL A   1      47.490  26.478  27.493  1.00  0.00    -0.206 F 
ATOM     66  C   UNL A   1      49.036  26.622  24.227  1.00  0.00     0.022 A 
BRANCH  63  67
ATOM     67  S   UNL A   1      48.296  27.709  21.767  1.00  0.00     0.124 S 
ATOM     68  O   UNL A   1      48.529  26.349  21.287  1.00  0.00    -0.237 OA
ATOM     69  O   UNL A   1      47.010  28.300  21.414  1.00  0.00    -0.237 OA
ATOM     70  O   UNL A   1      49.445  28.606  21.661  1.00  0.00    -0.744 OA
ENDBRANCH  63  67
ENDBRANCH  46  60
BRANCH  47  71
ATOM     71  C   UNL A   1      38.964  30.633  31.070  1.00  0.00     0.023 A 
ATOM     72  C   UNL A   1      37.907  31.445  30.628  1.00  0.00     0.031 A 
ATOM     73  C   UNL A   1      38.984  30.255  32.424  1.00  0.00     0.131 A 
ATOM     74  C   UNL A   1      36.943  31.895  31.543  1.00  0.00     0.055 A 
ATOM     75  C   UNL A   1      37.992  30.662  33.319  1.00  0.00     0.041 A 
ATOM     76  F   UNL A   1      39.969  29.476  32.898  1.00  0.00    -0.206 F 
ATOM     77  C   UNL A   1      36.971  31.500  32.882  1.00  0.00     0.022 A 
BRANCH  74  78
ATOM     78  S   UNL A   1      35.700  33.089  30.976  1.00  0.00     0.124 S 
ATOM     79  O   UNL A   1      34.456  32.387  31.274  1.00  0.00    -0.237 OA
ATOM     80  O   UNL A   1      35.996  34.250  31.807  1.00  0.00    -0.237 OA
ATOM     81  O   UNL A   1      36.002  33.247  29.556  1.00  0.00    -0.744 OA
ENDBRANCH  74  78
ENDBRANCH  47  71
BRANCH  59  82
ATOM     82  C   UNL A   1      45.060  33.563  29.397  1.00  0.00     0.023 A 
ATOM     83  C   UNL A   1      44.750  34.749  28.709  1.00  0.00     0.031 A 
ATOM     84  C   UNL A   1      45.979  33.630  30.458  1.00  0.00     0.131 A 
ATOM     85  C   UNL A   1      45.387  35.947  29.065  1.00  0.00     0.055 A 
ATOM     86  C   UNL A   1      46.571  34.834  30.841  1.00  0.00     0.041 A 
ATOM     87  F   UNL A   1      46.310  32.525  31.146  1.00  0.00    -0.206 F 
ATOM     88  C   UNL A   1      46.282  36.000  30.137  1.00  0.00     0.022 A 
BRANCH  85  89
ATOM     89  S   UNL A   1      45.075  37.430  28.070  1.00  0.00     0.124 S 
ATOM     90  O   UNL A   1      45.754  37.105  26.820  1.00  0.00    -0.237 OA
ATOM     91  O   UNL A   1      43.617  37.469  28.011  1.00  0.00    -0.237 OA
ATOM     92  O   UNL A   1      45.690  38.502  28.850  1.00  0.00    -0.744 OA
ENDBRANCH  85  89
ENDBRANCH  59  82
ENDBRANCH  33  34
ENDBRANCH  25  28
ENDBRANCH  23  24
ENDBRANCH   1  23
TORSDOF 16
ENDMDL
MODEL 3
REMARK VINA RESULT:     -10.4      6.384     10.740
REMARK SMILES C[C@@H](C(=O)NCCCCNC(=O)c1ccc(-c2c3nc(c(-c4cc(S(=O)(=O)[O-])ccc4F)c4ccc([nH]4)c(-c4cc(S(=O)(=O)[O-])ccc4F)c4nc(c(-c5cc(S(=O)(=O)[O-])ccc5F)c5ccc2[nH]5)C=C4)C=C3)cc1)c1ccc(-c2ccccc2)c(F)c1
REMARK SMILES IDX 8 1 7 2 6 3 5 4 3 5 4 6 2 8 1 9 76 10 77 11 88 12 78 13
REMARK SMILES IDX 86 14 79 15 87 16 80 17 81 18 85 19 82 20 84 21 83 22 9 23
REMARK SMILES IDX 10 24 11 25 12 27 13 28 14 29 75 30 15 31 74 32 16 33 17 34
REMARK SMILES IDX 18 35 68 36 19 37 73 38 67 39 69 40 20 41 72 42 66 43 65 44
REMARK SMILES IDX 21 46 53 47 33 48 52 49 34 50 37 51 51 52 70 53 35 54 36 55
REMARK SMILES IDX 50 57 71 58 38 59 22 60 23 61 31 62 24 63 30 64 32 65 29 66
REMARK SMILES IDX 25 67 26 68 27 69 28 70 54 71 55 72 63 73 56 74 62 75 64 76
REMARK SMILES IDX 61 77 57 78 58 79 59 80 60 81 39 82 40 83 48 84 41 85 47 86
REMARK SMILES IDX 49 87 46 88 42 89 43 90 44 91 45 92
REMARK H PARENT 5 7 10 26 69 45 37 56
REMARK Flexibility Score: inf
ROOT
ATOM      1  C   UNL A   1      36.876  22.473  23.716  1.00  0.00     0.023 C 
ENDROOT
BRANCH   1   2
ATOM      2  C   UNL A   1      35.488  22.968  23.300  1.00  0.00     0.023 C 
BRANCH   2   3
ATOM      3  C   UNL A   1      35.053  24.285  23.946  1.00  0.00     0.116 C 
BRANCH   3   4
ATOM      4  N   UNL A   1      33.943  24.884  23.233  1.00  0.00    -0.356 N 
ATOM      5  C   UNL A   1      32.605  24.872  23.508  1.00  0.00     0.227 C 
ATOM      6  O   UNL A   1      31.866  25.419  22.687  1.00  0.00    -0.274 OA
ATOM      7  H   UNL A   1      34.193  25.378  22.419  1.00  0.00     0.163 HD
BRANCH   5   8
ATOM      8  C   UNL A   1      32.086  24.232  24.806  1.00  0.00     0.105 C 
ATOM      9  C   UNL A   1      32.665  24.901  26.057  1.00  0.00     0.023 C 
BRANCH   8  10
ATOM     10  C   UNL A   1      32.360  22.730  24.864  1.00  0.00    -0.033 A 
ATOM     11  C   UNL A   1      32.923  22.152  26.009  1.00  0.00     0.005 A 
ATOM     12  C   UNL A   1      32.075  21.900  23.769  1.00  0.00     0.044 A 
ATOM     13  C   UNL A   1      33.219  20.783  26.046  1.00  0.00     0.012 A 
ATOM     14  C   UNL A   1      32.381  20.542  23.811  1.00  0.00     0.131 A 
ATOM     15  C   UNL A   1      32.967  19.955  24.940  1.00  0.00     0.017 A 
ATOM     16  F   UNL A   1      32.106  19.800  22.728  1.00  0.00    -0.206 F 
BRANCH  15  17
ATOM     17  C   UNL A   1      33.323  18.528  24.963  1.00  0.00    -0.015 A 
ATOM     18  C   UNL A   1      34.433  18.043  24.253  1.00  0.00     0.009 A 
ATOM     19  C   UNL A   1      32.556  17.609  25.699  1.00  0.00     0.009 A 
ATOM     20  C   UNL A   1      34.767  16.686  24.282  1.00  0.00     0.001 A 
ATOM     21  C   UNL A   1      32.886  16.252  25.725  1.00  0.00     0.001 A 
ATOM     22  C   UNL A   1      33.993  15.792  25.016  1.00  0.00     0.000 A 
ENDBRANCH  15  17
ENDBRANCH   8  10
ENDBRANCH   5   8
ENDBRANCH   3   4
ENDBRANCH   2   3
ENDBRANCH   1   2
BRANCH   1  23
ATOM     23  C   UNL A   1      37.041  22.147  25.198  1.00  0.00     0.116 C 
BRANCH  23  24
ATOM     24  N   UNL A   1      37.966  21.049  25.437  1.00  0.00    -0.352 N 
ATOM     25  C   UNL A   1      39.209  21.082  26.024  1.00  0.00     0.251 C 
ATOM     26  H   UNL A   1      37.660  20.163  25.139  1.00  0.00     0.163 HD
ATOM     27  O   UNL A   1      39.908  20.073  26.034  1.00  0.00    -0.269 OA
BRANCH  25  28
ATOM     28  C   UNL A   1      39.710  22.348  26.602  1.00  0.00     0.039 A 
ATOM     29  C   UNL A   1      40.658  22.293  27.627  1.00  0.00     0.014 A 
ATOM     30  C   UNL A   1      39.277  23.579  26.104  1.00  0.00     0.014 A 
ATOM     31  C   UNL A   1      41.242  23.474  28.090  1.00  0.00     0.010 A 
ATOM     32  C   UNL A   1      39.900  24.750  26.529  1.00  0.00     0.010 A 
ATOM     33  C   UNL A   1      40.903  24.708  27.510  1.00  0.00    -0.014 A 
BRANCH  33  34
ATOM     34  C   UNL A   1      41.614  25.962  27.872  1.00  0.00     0.031 A 
ATOM     35  C   UNL A   1      40.875  27.074  28.563  1.00  0.00     0.074 A 
ATOM     36  C   UNL A   1      42.890  26.137  27.474  1.00  0.00     0.049 A 
ATOM     37  N   UNL A   1      41.273  28.293  28.822  1.00  0.00    -0.248 NA
ATOM     38  C   UNL A   1      39.498  26.784  28.991  1.00  0.00     0.031 C 
ATOM     39  C   UNL A   1      43.697  25.143  26.759  1.00  0.00     0.029 A 
ATOM     40  N   UNL A   1      43.725  27.221  27.581  1.00  0.00    -0.354 N 
ATOM     41  C   UNL A   1      40.189  28.926  29.419  1.00  0.00     0.074 A 
ATOM     42  C   UNL A   1      39.108  27.963  29.455  1.00  0.00     0.031 C 
ATOM     43  C   UNL A   1      44.903  25.666  26.489  1.00  0.00     0.029 A 
ATOM     44  C   UNL A   1      44.942  27.046  26.961  1.00  0.00     0.049 A 
ATOM     45  H   UNL A   1      43.476  28.048  28.055  1.00  0.00     0.167 HD
ATOM     46  C   UNL A   1      40.110  30.192  29.898  1.00  0.00     0.034 A 
ATOM     47  C   UNL A   1      45.960  27.908  26.764  1.00  0.00     0.034 A 
ATOM     48  C   UNL A   1      41.207  31.127  29.883  1.00  0.00     0.049 A 
ATOM     49  C   UNL A   1      45.838  29.315  27.292  1.00  0.00     0.074 A 
ATOM     50  C   UNL A   1      41.268  32.389  30.447  1.00  0.00     0.029 A 
ATOM     51  N   UNL A   1      42.428  30.911  29.258  1.00  0.00    -0.354 N 
ATOM     52  N   UNL A   1      44.833  29.871  27.928  1.00  0.00    -0.248 NA
ATOM     53  C   UNL A   1      46.983  30.208  27.076  1.00  0.00     0.031 C 
ATOM     54  C   UNL A   1      42.498  32.963  30.104  1.00  0.00     0.029 A 
ATOM     55  C   UNL A   1      43.231  32.034  29.383  1.00  0.00     0.049 A 
ATOM     56  H   UNL A   1      42.686  30.082  28.794  1.00  0.00     0.167 HD
ATOM     57  C   UNL A   1      45.237  31.174  28.207  1.00  0.00     0.074 A 
ATOM     58  C   UNL A   1      46.580  31.315  27.685  1.00  0.00     0.031 C 
ATOM     59  C   UNL A   1      44.562  32.164  28.842  1.00  0.00     0.034 A 
BRANCH  46  60
ATOM     60  C   UNL A   1      38.785  30.650  30.454  1.00  0.00     0.023 A 
ATOM     61  C   UNL A   1      37.850  31.345  29.669  1.00  0.00     0.031 A 
ATOM     62  C   UNL A   1      38.453  30.378  31.794  1.00  0.00     0.131 A 
ATOM     63  C   UNL A   1      36.650  31.791  30.243  1.00  0.00     0.055 A 
ATOM     64  C   UNL A   1      37.230  30.766  32.341  1.00  0.00     0.041 A 
ATOM     65  F   UNL A   1      39.317  29.735  32.594  1.00  0.00    -0.206 F 
ATOM     66  C   UNL A   1      36.324  31.486  31.567  1.00  0.00     0.022 A 
BRANCH  63  67
ATOM     67  S   UNL A   1      35.567  32.867  29.265  1.00  0.00     0.124 S 
ATOM     68  O   UNL A   1      36.065  32.635  27.911  1.00  0.00    -0.237 OA
ATOM     69  O   UNL A   1      34.242  32.333  29.560  1.00  0.00    -0.237 OA
ATOM     70  O   UNL A   1      35.836  34.201  29.800  1.00  0.00    -0.744 OA
ENDBRANCH  63  67
ENDBRANCH  46  60
BRANCH  47  71
ATOM     71  C   UNL A   1      47.169  27.492  25.995  1.00  0.00     0.023 A 
ATOM     72  C   UNL A   1      47.311  27.819  24.637  1.00  0.00     0.031 A 
ATOM     73  C   UNL A   1      48.171  26.707  26.593  1.00  0.00     0.131 A 
ATOM     74  C   UNL A   1      48.402  27.321  23.909  1.00  0.00     0.055 A 
ATOM     75  C   UNL A   1      49.283  26.259  25.877  1.00  0.00     0.041 A 
ATOM     76  F   UNL A   1      48.086  26.369  27.889  1.00  0.00    -0.206 F 
ATOM     77  C   UNL A   1      49.395  26.554  24.522  1.00  0.00     0.022 A 
BRANCH  74  78
ATOM     78  S   UNL A   1      48.456  27.611  22.119  1.00  0.00     0.124 S 
ATOM     79  O   UNL A   1      49.594  28.516  21.998  1.00  0.00    -0.237 OA
ATOM     80  O   UNL A   1      48.653  26.261  21.601  1.00  0.00    -0.237 OA
ATOM     81  O   UNL A   1      47.153  28.204  21.831  1.00  0.00    -0.744 OA
ENDBRANCH  74  78
ENDBRANCH  47  71
BRANCH  59  82
ATOM     82  C   UNL A   1      45.283  33.473  29.030  1.00  0.00     0.023 A 
ATOM     83  C   UNL A   1      45.254  34.477  28.047  1.00  0.00     0.031 A 
ATOM     84  C   UNL A   1      46.009  33.716  30.209  1.00  0.00     0.131 A 
ATOM     85  C   UNL A   1      45.975  35.665  28.243  1.00  0.00     0.055 A 
ATOM     86  C   UNL A   1      46.682  34.921  30.421  1.00  0.00     0.041 A 
ATOM     87  F   UNL A   1      46.070  32.789  31.178  1.00  0.00    -0.206 F 
ATOM     88  C   UNL A   1      46.674  35.899  29.431  1.00  0.00     0.022 A 
BRANCH  85  89
ATOM     89  S   UNL A   1      46.035  36.880  26.900  1.00  0.00     0.124 S 
ATOM     90  O   UNL A   1      46.380  36.047  25.752  1.00  0.00    -0.237 OA
ATOM     91  O   UNL A   1      44.681  37.426  26.908  1.00  0.00    -0.237 OA
ATOM     92  O   UNL A   1      47.078  37.811  27.326  1.00  0.00    -0.744 OA
ENDBRANCH  85  89
ENDBRANCH  59  82
ENDBRANCH  33  34
ENDBRANCH  25  28
ENDBRANCH  23  24
ENDBRANCH   1  23
TORSDOF 16
ENDMDL
