MODEL 1
REMARK VINA RESULT:     -11.2      0.000      0.000
REMARK SMILES COC(=O)CCN(C)C(=O)NCc1ccc(C(=O)NCCCCNC(=O)c2ccc(-c3c4nc(c(-c5cc(S(=O)(=O)[O-])ccc5F)c5ccc([nH]5)c(-c5cc(S(=O)(=O)[O-])ccc5F)c5nc(c(-c6cc(S(=O)(=O)[O-])ccc6F)c6ccc3[nH]6)C=C5)C=C4)cc2)o1
REMARK SMILES IDX 17 1 18 2 19 3 16 5 13 6 14 7 90 8 15 9 12 10 11 11 9 12
REMARK SMILES IDX 10 13 7 15 8 16 6 17 5 18 3 19 4 20 2 21 1 22 20 23 21 24
REMARK SMILES IDX 22 25 23 26 24 27 25 28 26 30 27 31 28 32 89 33 29 34 88 35
REMARK SMILES IDX 30 36 31 37 32 38 82 39 33 40 87 41 81 42 83 43 34 44 86 45
REMARK SMILES IDX 80 46 79 47 35 49 67 50 47 51 66 52 48 53 51 54 65 55 84 56
REMARK SMILES IDX 49 57 50 58 64 60 85 61 52 62 36 63 37 64 45 65 38 66 44 67
REMARK SMILES IDX 46 68 43 69 39 70 40 71 41 72 42 73 68 74 69 75 77 76 70 77
REMARK SMILES IDX 76 78 78 79 75 80 71 81 72 82 73 83 74 84 53 85 54 86 62 87
REMARK SMILES IDX 55 88 61 89 63 90 60 91 56 92 57 93 58 94 59 95
REMARK H PARENT 19 4 11 14 24 29 83 48 51 59
REMARK Flexibility Score: inf
ROOT
ATOM      1  C   UNL A   1      33.512  27.795  22.353  1.00  0.00     0.286 C 
ATOM      2  O   UNL A   1      34.429  28.201  21.638  1.00  0.00    -0.266 OA
ATOM      3  N   UNL A   1      32.344  28.515  22.295  1.00  0.00    -0.349 N 
ATOM      4  H   UNL A   1      32.390  29.332  21.747  1.00  0.00     0.163 HD
ENDROOT
BRANCH   1   5
ATOM      5  C   UNL A   1      33.634  26.618  23.195  1.00  0.00     0.191 A 
ATOM      6  C   UNL A   1      33.717  24.414  23.448  1.00  0.00     0.124 A 
ATOM      7  C   UNL A   1      33.897  24.948  24.701  1.00  0.00     0.048 A 
ATOM      8  O   UNL A   1      33.518  25.417  22.548  1.00  0.00    -0.454 OA
ATOM      9  C   UNL A   1      33.879  26.360  24.534  1.00  0.00     0.056 A 
BRANCH   6  10
ATOM     10  C   UNL A   1      33.708  23.037  22.891  1.00  0.00     0.193 C 
BRANCH  10  11
ATOM     11  N   UNL A   1      34.486  22.199  23.778  1.00  0.00    -0.331 N 
ATOM     12  C   UNL A   1      34.247  21.249  24.689  1.00  0.00     0.317 C 
ATOM     13  O   UNL A   1      35.244  20.685  25.149  1.00  0.00    -0.249 OA
ATOM     14  H   UNL A   1      35.450  22.376  23.687  1.00  0.00     0.165 HD
BRANCH  12  15
ATOM     15  N   UNL A   1      32.983  20.863  25.041  1.00  0.00    -0.327 N 
ATOM     16  C   UNL A   1      31.911  21.738  25.476  1.00  0.00     0.148 C 
BRANCH  15  17
ATOM     17  C   UNL A   1      32.702  19.420  25.035  1.00  0.00     0.132 C 
BRANCH  17  18
ATOM     18  C   UNL A   1      32.701  18.821  23.632  1.00  0.00     0.144 C 
BRANCH  18  19
ATOM     19  C   UNL A   1      33.565  17.589  23.558  1.00  0.00     0.307 C 
ATOM     20  O   UNL A   1      33.744  16.941  22.535  1.00  0.00    -0.252 OA
BRANCH  19  21
ATOM     21  O   UNL A   1      34.110  17.318  24.776  1.00  0.00    -0.469 OA
ATOM     22  C   UNL A   1      33.744  16.047  25.319  1.00  0.00     0.282 C 
ENDBRANCH  19  21
ENDBRANCH  18  19
ENDBRANCH  17  18
ENDBRANCH  15  17
ENDBRANCH  12  15
ENDBRANCH  10  11
ENDBRANCH   6  10
ENDBRANCH   1   5
BRANCH   3  23
ATOM     23  C   UNL A   1      31.061  28.268  22.907  1.00  0.00     0.116 C 
BRANCH  23  24
ATOM     24  C   UNL A   1      30.797  29.260  24.037  1.00  0.00     0.023 C 
BRANCH  24  25
ATOM     25  C   UNL A   1      31.482  28.888  25.356  1.00  0.00     0.023 C 
BRANCH  25  26
ATOM     26  C   UNL A   1      32.654  29.784  25.747  1.00  0.00     0.116 C 
BRANCH  26  27
ATOM     27  N   UNL A   1      32.241  31.114  26.168  1.00  0.00    -0.352 N 
ATOM     28  C   UNL A   1      32.859  31.952  27.066  1.00  0.00     0.251 C 
ATOM     29  H   UNL A   1      31.415  31.458  25.757  1.00  0.00     0.163 HD
ATOM     30  O   UNL A   1      32.313  32.994  27.412  1.00  0.00    -0.269 OA
BRANCH  28  31
ATOM     31  C   UNL A   1      34.162  31.553  27.635  1.00  0.00     0.039 A 
ATOM     32  C   UNL A   1      35.110  32.539  27.913  1.00  0.00     0.014 A 
ATOM     33  C   UNL A   1      34.418  30.214  27.945  1.00  0.00     0.014 A 
ATOM     34  C   UNL A   1      36.290  32.189  28.570  1.00  0.00     0.010 A 
ATOM     35  C   UNL A   1      35.558  29.882  28.669  1.00  0.00     0.010 A 
ATOM     36  C   UNL A   1      36.506  30.866  28.991  1.00  0.00    -0.014 A 
BRANCH  36  37
ATOM     37  C   UNL A   1      37.718  30.489  29.765  1.00  0.00     0.031 A 
ATOM     38  C   UNL A   1      38.728  29.550  29.164  1.00  0.00     0.074 A 
ATOM     39  C   UNL A   1      37.878  30.945  31.024  1.00  0.00     0.049 A 
ATOM     40  N   UNL A   1      39.803  29.035  29.705  1.00  0.00    -0.248 NA
ATOM     41  C   UNL A   1      38.479  29.106  27.784  1.00  0.00     0.031 C 
ATOM     42  C   UNL A   1      36.949  31.834  31.726  1.00  0.00     0.029 A 
ATOM     43  N   UNL A   1      38.874  30.721  31.943  1.00  0.00    -0.354 N 
ATOM     44  C   UNL A   1      40.353  28.204  28.735  1.00  0.00     0.074 A 
ATOM     45  C   UNL A   1      39.455  28.230  27.601  1.00  0.00     0.031 C 
ATOM     46  C   UNL A   1      37.432  32.100  32.951  1.00  0.00     0.029 A 
ATOM     47  C   UNL A   1      38.676  31.362  33.145  1.00  0.00     0.049 A 
ATOM     48  H   UNL A   1      39.657  30.154  31.757  1.00  0.00     0.167 HD
ATOM     49  C   UNL A   1      41.514  27.504  28.777  1.00  0.00     0.034 A 
ATOM     50  C   UNL A   1      39.404  31.343  34.280  1.00  0.00     0.034 A 
ATOM     51  C   UNL A   1      42.402  27.496  29.912  1.00  0.00     0.049 A 
ATOM     52  C   UNL A   1      40.671  30.522  34.315  1.00  0.00     0.074 A 
ATOM     53  C   UNL A   1      43.622  26.857  30.046  1.00  0.00     0.029 A 
ATOM     54  N   UNL A   1      42.166  28.152  31.115  1.00  0.00    -0.354 N 
ATOM     55  N   UNL A   1      41.200  29.776  33.371  1.00  0.00    -0.248 NA
ATOM     56  C   UNL A   1      41.443  30.547  35.563  1.00  0.00     0.031 C 
ATOM     57  C   UNL A   1      44.087  27.064  31.348  1.00  0.00     0.029 A 
ATOM     58  C   UNL A   1      43.202  27.906  32.002  1.00  0.00     0.049 A 
ATOM     59  H   UNL A   1      41.378  28.710  31.307  1.00  0.00     0.167 HD
ATOM     60  C   UNL A   1      42.387  29.278  33.902  1.00  0.00     0.074 A 
ATOM     61  C   UNL A   1      42.502  29.819  35.240  1.00  0.00     0.031 C 
ATOM     62  C   UNL A   1      43.304  28.453  33.334  1.00  0.00     0.034 A 
BRANCH  49  63
ATOM     63  C   UNL A   1      41.873  26.675  27.567  1.00  0.00     0.023 A 
ATOM     64  C   UNL A   1      41.540  25.311  27.482  1.00  0.00     0.031 A 
ATOM     65  C   UNL A   1      42.566  27.251  26.487  1.00  0.00     0.131 A 
ATOM     66  C   UNL A   1      41.960  24.554  26.379  1.00  0.00     0.055 A 
ATOM     67  C   UNL A   1      42.906  26.511  25.354  1.00  0.00     0.041 A 
ATOM     68  F   UNL A   1      42.932  28.542  26.520  1.00  0.00    -0.206 F 
ATOM     69  C   UNL A   1      42.616  25.151  25.300  1.00  0.00     0.022 A 
BRANCH  66  70
ATOM     70  S   UNL A   1      41.758  22.754  26.438  1.00  0.00     0.124 S 
ATOM     71  O   UNL A   1      42.446  22.421  27.683  1.00  0.00    -0.237 OA
ATOM     72  O   UNL A   1      40.308  22.597  26.447  1.00  0.00    -0.237 OA
ATOM     73  O   UNL A   1      42.428  22.294  25.222  1.00  0.00    -0.744 OA
ENDBRANCH  66  70
ENDBRANCH  49  63
BRANCH  50  74
ATOM     74  C   UNL A   1      38.962  32.106  35.483  1.00  0.00     0.023 A 
ATOM     75  C   UNL A   1      38.385  31.451  36.583  1.00  0.00     0.031 A 
ATOM     76  C   UNL A   1      39.046  33.510  35.525  1.00  0.00     0.131 A 
ATOM     77  C   UNL A   1      37.858  32.199  37.648  1.00  0.00     0.055 A 
ATOM     78  C   UNL A   1      38.579  34.246  36.616  1.00  0.00     0.041 A 
ATOM     79  F   UNL A   1      39.588  34.189  34.503  1.00  0.00    -0.206 F 
ATOM     80  C   UNL A   1      37.964  33.591  37.679  1.00  0.00     0.022 A 
BRANCH  77  81
ATOM     81  S   UNL A   1      36.926  31.331  38.940  1.00  0.00     0.124 S 
ATOM     82  O   UNL A   1      37.853  31.390  40.064  1.00  0.00    -0.237 OA
ATOM     83  O   UNL A   1      35.726  32.154  39.052  1.00  0.00    -0.237 OA
ATOM     84  O   UNL A   1      36.715  30.001  38.371  1.00  0.00    -0.744 OA
ENDBRANCH  77  81
ENDBRANCH  50  74
BRANCH  62  85
ATOM     85  C   UNL A   1      44.540  28.136  34.141  1.00  0.00     0.023 A 
ATOM     86  C   UNL A   1      44.613  27.013  34.984  1.00  0.00     0.031 A 
ATOM     87  C   UNL A   1      45.665  28.977  34.063  1.00  0.00     0.131 A 
ATOM     88  C   UNL A   1      45.761  26.794  35.760  1.00  0.00     0.055 A 
ATOM     89  C   UNL A   1      46.830  28.717  34.786  1.00  0.00     0.041 A 
ATOM     90  F   UNL A   1      45.652  30.066  33.277  1.00  0.00    -0.206 F 
ATOM     91  C   UNL A   1      46.878  27.628  35.650  1.00  0.00     0.022 A 
BRANCH  88  92
ATOM     92  S   UNL A   1      45.743  25.459  36.987  1.00  0.00     0.124 S 
ATOM     93  O   UNL A   1      44.708  25.912  37.910  1.00  0.00    -0.237 OA
ATOM     94  O   UNL A   1      45.409  24.294  36.176  1.00  0.00    -0.237 OA
ATOM     95  O   UNL A   1      47.102  25.470  37.525  1.00  0.00    -0.744 OA
ENDBRANCH  88  92
ENDBRANCH  62  85
ENDBRANCH  36  37
ENDBRANCH  28  31
ENDBRANCH  26  27
ENDBRANCH  25  26
ENDBRANCH  24  25
ENDBRANCH  23  24
ENDBRANCH   3  23
TORSDOF 21
ENDMDL
MODEL 2
REMARK VINA RESULT:     -10.9      1.407      7.624
REMARK SMILES COC(=O)CCN(C)C(=O)NCc1ccc(C(=O)NCCCCNC(=O)c2ccc(-c3c4nc(c(-c5cc(S(=O)(=O)[O-])ccc5F)c5ccc([nH]5)c(-c5cc(S(=O)(=O)[O-])ccc5F)c5nc(c(-c6cc(S(=O)(=O)[O-])ccc6F)c6ccc3[nH]6)C=C5)C=C4)cc2)o1
REMARK SMILES IDX 17 1 18 2 19 3 16 5 13 6 14 7 90 8 15 9 12 10 11 11 9 12
REMARK SMILES IDX 10 13 7 15 8 16 6 17 5 18 3 19 4 20 2 21 1 22 20 23 21 24
REMARK SMILES IDX 22 25 23 26 24 27 25 28 26 30 27 31 28 32 89 33 29 34 88 35
REMARK SMILES IDX 30 36 31 37 32 38 82 39 33 40 87 41 81 42 83 43 34 44 86 45
REMARK SMILES IDX 80 46 79 47 35 49 67 50 47 51 66 52 48 53 51 54 65 55 84 56
REMARK SMILES IDX 49 57 50 58 64 60 85 61 52 62 36 63 37 64 45 65 38 66 44 67
REMARK SMILES IDX 46 68 43 69 39 70 40 71 41 72 42 73 68 74 69 75 77 76 70 77
REMARK SMILES IDX 76 78 78 79 75 80 71 81 72 82 73 83 74 84 53 85 54 86 62 87
REMARK SMILES IDX 55 88 61 89 63 90 60 91 56 92 57 93 58 94 59 95
REMARK H PARENT 19 4 11 14 24 29 83 48 51 59
REMARK Flexibility Score: inf
ROOT
ATOM      1  C   UNL A   1      33.185  28.467  23.884  1.00  0.00     0.286 C 
ATOM      2  O   UNL A   1      33.546  28.474  22.706  1.00  0.00    -0.266 OA
ATOM      3  N   UNL A   1      32.836  29.687  24.410  1.00  0.00    -0.349 N 
ATOM      4  H   UNL A   1      32.991  30.454  23.812  1.00  0.00     0.163 HD
ENDROOT
BRANCH   1   5
ATOM      5  C   UNL A   1      33.104  27.251  24.675  1.00  0.00     0.191 A 
ATOM      6  C   UNL A   1      32.196  25.271  25.103  1.00  0.00     0.124 A 
ATOM      7  C   UNL A   1      33.211  25.431  26.016  1.00  0.00     0.048 A 
ATOM      8  O   UNL A   1      32.106  26.384  24.322  1.00  0.00    -0.454 OA
ATOM      9  C   UNL A   1      33.815  26.683  25.719  1.00  0.00     0.056 A 
BRANCH   6  10
ATOM     10  C   UNL A   1      31.231  24.186  24.792  1.00  0.00     0.193 C 
BRANCH  10  11
ATOM     11  N   UNL A   1      31.674  23.540  23.575  1.00  0.00    -0.331 N 
ATOM     12  C   UNL A   1      32.520  22.560  23.237  1.00  0.00     0.317 C 
ATOM     13  O   UNL A   1      32.509  22.230  22.047  1.00  0.00    -0.249 OA
ATOM     14  H   UNL A   1      31.234  23.925  22.784  1.00  0.00     0.165 HD
BRANCH  12  15
ATOM     15  N   UNL A   1      33.297  21.905  24.151  1.00  0.00    -0.327 N 
ATOM     16  C   UNL A   1      34.645  22.269  24.546  1.00  0.00     0.148 C 
BRANCH  15  17
ATOM     17  C   UNL A   1      32.737  20.685  24.749  1.00  0.00     0.132 C 
BRANCH  17  18
ATOM     18  C   UNL A   1      33.135  19.418  23.998  1.00  0.00     0.144 C 
BRANCH  18  19
ATOM     19  C   UNL A   1      32.996  18.195  24.866  1.00  0.00     0.307 C 
ATOM     20  O   UNL A   1      32.155  18.076  25.748  1.00  0.00    -0.252 OA
BRANCH  19  21
ATOM     21  O   UNL A   1      33.925  17.261  24.522  1.00  0.00    -0.469 OA
ATOM     22  C   UNL A   1      33.964  16.950  23.128  1.00  0.00     0.282 C 
ENDBRANCH  19  21
ENDBRANCH  18  19
ENDBRANCH  17  18
ENDBRANCH  15  17
ENDBRANCH  12  15
ENDBRANCH  10  11
ENDBRANCH   6  10
ENDBRANCH   1   5
BRANCH   3  23
ATOM     23  C   UNL A   1      32.279  30.026  25.697  1.00  0.00     0.116 C 
BRANCH  23  24
ATOM     24  C   UNL A   1      31.016  30.868  25.539  1.00  0.00     0.023 C 
BRANCH  24  25
ATOM     25  C   UNL A   1      31.060  32.194  26.305  1.00  0.00     0.023 C 
BRANCH  25  26
ATOM     26  C   UNL A   1      32.324  32.418  27.132  1.00  0.00     0.116 C 
BRANCH  26  27
ATOM     27  N   UNL A   1      32.515  33.808  27.518  1.00  0.00    -0.352 N 
ATOM     28  C   UNL A   1      33.511  34.344  28.299  1.00  0.00     0.251 C 
ATOM     29  H   UNL A   1      31.846  34.445  27.177  1.00  0.00     0.163 HD
ATOM     30  O   UNL A   1      33.460  35.520  28.640  1.00  0.00    -0.269 OA
BRANCH  28  31
ATOM     31  C   UNL A   1      34.613  33.470  28.751  1.00  0.00     0.039 A 
ATOM     32  C   UNL A   1      35.907  33.719  28.290  1.00  0.00     0.014 A 
ATOM     33  C   UNL A   1      34.371  32.446  29.672  1.00  0.00     0.014 A 
ATOM     34  C   UNL A   1      36.973  32.984  28.812  1.00  0.00     0.010 A 
ATOM     35  C   UNL A   1      35.443  31.771  30.245  1.00  0.00     0.010 A 
ATOM     36  C   UNL A   1      36.755  32.034  29.823  1.00  0.00    -0.014 A 
BRANCH  36  37
ATOM     37  C   UNL A   1      37.886  31.300  30.449  1.00  0.00     0.031 A 
ATOM     38  C   UNL A   1      38.324  31.648  31.847  1.00  0.00     0.074 A 
ATOM     39  C   UNL A   1      38.552  30.365  29.742  1.00  0.00     0.049 A 
ATOM     40  N   UNL A   1      39.335  31.187  32.536  1.00  0.00    -0.248 NA
ATOM     41  C   UNL A   1      37.537  32.675  32.548  1.00  0.00     0.031 C 
ATOM     42  C   UNL A   1      38.243  29.965  28.367  1.00  0.00     0.029 A 
ATOM     43  N   UNL A   1      39.633  29.585  30.075  1.00  0.00    -0.354 N 
ATOM     44  C   UNL A   1      39.311  31.870  33.747  1.00  0.00     0.074 A 
ATOM     45  C   UNL A   1      38.227  32.825  33.669  1.00  0.00     0.031 C 
ATOM     46  C   UNL A   1      39.093  28.998  27.986  1.00  0.00     0.029 A 
ATOM     47  C   UNL A   1      40.043  28.743  29.065  1.00  0.00     0.049 A 
ATOM     48  H   UNL A   1      40.073  29.624  30.955  1.00  0.00     0.167 HD
ATOM     49  C   UNL A   1      40.103  31.697  34.834  1.00  0.00     0.034 A 
ATOM     50  C   UNL A   1      41.076  27.879  29.009  1.00  0.00     0.034 A 
ATOM     51  C   UNL A   1      41.174  30.734  34.899  1.00  0.00     0.049 A 
ATOM     52  C   UNL A   1      41.969  27.736  30.218  1.00  0.00     0.074 A 
ATOM     53  C   UNL A   1      42.009  30.447  35.964  1.00  0.00     0.029 A 
ATOM     54  N   UNL A   1      41.563  29.903  33.856  1.00  0.00    -0.354 N 
ATOM     55  N   UNL A   1      41.903  28.358  31.373  1.00  0.00    -0.248 NA
ATOM     56  C   UNL A   1      43.068  26.767  30.120  1.00  0.00     0.031 C 
ATOM     57  C   UNL A   1      42.949  29.500  35.543  1.00  0.00     0.029 A 
ATOM     58  C   UNL A   1      42.646  29.129  34.243  1.00  0.00     0.049 A 
ATOM     59  H   UNL A   1      41.133  29.870  32.971  1.00  0.00     0.167 HD
ATOM     60  C   UNL A   1      42.928  27.826  32.150  1.00  0.00     0.074 A 
ATOM     61  C   UNL A   1      43.586  26.823  31.338  1.00  0.00     0.031 C 
ATOM     62  C   UNL A   1      43.291  28.132  33.422  1.00  0.00     0.034 A 
BRANCH  49  63
ATOM     63  C   UNL A   1      39.851  32.585  36.029  1.00  0.00     0.023 A 
ATOM     64  C   UNL A   1      38.994  32.192  37.073  1.00  0.00     0.031 A 
ATOM     65  C   UNL A   1      40.465  33.847  36.123  1.00  0.00     0.131 A 
ATOM     66  C   UNL A   1      38.721  33.076  38.127  1.00  0.00     0.055 A 
ATOM     67  C   UNL A   1      40.254  34.687  37.218  1.00  0.00     0.041 A 
ATOM     68  F   UNL A   1      41.273  34.288  35.147  1.00  0.00    -0.206 F 
ATOM     69  C   UNL A   1      39.368  34.310  38.221  1.00  0.00     0.022 A 
BRANCH  66  70
ATOM     70  S   UNL A   1      37.405  32.647  39.298  1.00  0.00     0.124 S 
ATOM     71  O   UNL A   1      37.573  33.677  40.320  1.00  0.00    -0.237 OA
ATOM     72  O   UNL A   1      36.204  32.750  38.477  1.00  0.00    -0.237 OA
ATOM     73  O   UNL A   1      37.755  31.293  39.725  1.00  0.00    -0.744 OA
ENDBRANCH  66  70
ENDBRANCH  49  63
BRANCH  50  74
ATOM     74  C   UNL A   1      41.342  27.087  27.772  1.00  0.00     0.023 A 
ATOM     75  C   UNL A   1      41.068  25.711  27.721  1.00  0.00     0.031 A 
ATOM     76  C   UNL A   1      41.940  27.680  26.645  1.00  0.00     0.131 A 
ATOM     77  C   UNL A   1      41.446  24.962  26.595  1.00  0.00     0.055 A 
ATOM     78  C   UNL A   1      42.255  26.943  25.502  1.00  0.00     0.041 A 
ATOM     79  F   UNL A   1      42.224  28.992  26.637  1.00  0.00    -0.206 F 
ATOM     80  C   UNL A   1      42.024  25.571  25.479  1.00  0.00     0.022 A 
BRANCH  77  81
ATOM     81  S   UNL A   1      41.277  23.157  26.658  1.00  0.00     0.124 S 
ATOM     82  O   UNL A   1      39.889  22.976  26.248  1.00  0.00    -0.237 OA
ATOM     83  O   UNL A   1      42.291  22.725  25.703  1.00  0.00    -0.237 OA
ATOM     84  O   UNL A   1      41.563  22.838  28.055  1.00  0.00    -0.744 OA
ENDBRANCH  77  81
ENDBRANCH  50  74
BRANCH  62  85
ATOM     85  C   UNL A   1      44.415  27.328  34.032  1.00  0.00     0.023 A 
ATOM     86  C   UNL A   1      44.175  26.199  34.833  1.00  0.00     0.031 A 
ATOM     87  C   UNL A   1      45.751  27.705  33.806  1.00  0.00     0.131 A 
ATOM     88  C   UNL A   1      45.250  25.521  35.427  1.00  0.00     0.055 A 
ATOM     89  C   UNL A   1      46.820  26.987  34.344  1.00  0.00     0.041 A 
ATOM     90  F   UNL A   1      46.041  28.778  33.051  1.00  0.00    -0.206 F 
ATOM     91  C   UNL A   1      46.572  25.896  35.170  1.00  0.00     0.022 A 
BRANCH  88  92
ATOM     92  S   UNL A   1      44.897  24.199  36.618  1.00  0.00     0.124 S 
ATOM     93  O   UNL A   1      46.189  24.033  37.276  1.00  0.00    -0.237 OA
ATOM     94  O   UNL A   1      43.838  24.785  37.431  1.00  0.00    -0.237 OA
ATOM     95  O   UNL A   1      44.483  23.079  35.774  1.00  0.00    -0.744 OA
ENDBRANCH  88  92
ENDBRANCH  62  85
ENDBRANCH  36  37
ENDBRANCH  28  31
ENDBRANCH  26  27
ENDBRANCH  25  26
ENDBRANCH  24  25
ENDBRANCH  23  24
ENDBRANCH   3  23
TORSDOF 21
ENDMDL
MODEL 3
REMARK VINA RESULT:     -10.7      1.889      2.544
REMARK SMILES COC(=O)CCN(C)C(=O)NCc1ccc(C(=O)NCCCCNC(=O)c2ccc(-c3c4nc(c(-c5cc(S(=O)(=O)[O-])ccc5F)c5ccc([nH]5)c(-c5cc(S(=O)(=O)[O-])ccc5F)c5nc(c(-c6cc(S(=O)(=O)[O-])ccc6F)c6ccc3[nH]6)C=C5)C=C4)cc2)o1
REMARK SMILES IDX 17 1 18 2 19 3 16 5 13 6 14 7 90 8 15 9 12 10 11 11 9 12
REMARK SMILES IDX 10 13 7 15 8 16 6 17 5 18 3 19 4 20 2 21 1 22 20 23 21 24
REMARK SMILES IDX 22 25 23 26 24 27 25 28 26 30 27 31 28 32 89 33 29 34 88 35
REMARK SMILES IDX 30 36 31 37 32 38 82 39 33 40 87 41 81 42 83 43 34 44 86 45
REMARK SMILES IDX 80 46 79 47 35 49 67 50 47 51 66 52 48 53 51 54 65 55 84 56
REMARK SMILES IDX 49 57 50 58 64 60 85 61 52 62 36 63 37 64 45 65 38 66 44 67
REMARK SMILES IDX 46 68 43 69 39 70 40 71 41 72 42 73 68 74 69 75 77 76 70 77
REMARK SMILES IDX 76 78 78 79 75 80 71 81 72 82 73 83 74 84 53 85 54 86 62 87
REMARK SMILES IDX 55 88 61 89 63 90 60 91 56 92 57 93 58 94 59 95
REMARK H PARENT 19 4 11 14 24 29 83 48 51 59
REMARK Flexibility Score: inf
ROOT
ATOM      1  C   UNL A   1      33.212  25.678  22.899  1.00  0.00     0.286 C 
ATOM      2  O   UNL A   1      33.992  25.119  22.126  1.00  0.00    -0.266 OA
ATOM      3  N   UNL A   1      32.462  26.695  22.361  1.00  0.00    -0.349 N 
ATOM      4  H   UNL A   1      32.686  26.925  21.430  1.00  0.00     0.163 HD
ENDROOT
BRANCH   1   5
ATOM      5  C   UNL A   1      33.067  25.285  24.290  1.00  0.00     0.191 A 
ATOM      6  C   UNL A   1      32.078  24.084  25.873  1.00  0.00     0.124 A 
ATOM      7  C   UNL A   1      33.070  24.799  26.500  1.00  0.00     0.048 A 
ATOM      8  O   UNL A   1      32.049  24.408  24.550  1.00  0.00    -0.454 OA
ATOM      9  C   UNL A   1      33.726  25.541  25.480  1.00  0.00     0.056 A 
BRANCH   6  10
ATOM     10  C   UNL A   1      31.085  23.070  26.310  1.00  0.00     0.193 C 
BRANCH  10  11
ATOM     11  N   UNL A   1      31.351  21.850  25.578  1.00  0.00    -0.331 N 
ATOM     12  C   UNL A   1      32.390  21.030  25.385  1.00  0.00     0.317 C 
ATOM     13  O   UNL A   1      32.145  19.995  24.759  1.00  0.00    -0.249 OA
ATOM     14  H   UNL A   1      30.553  21.542  25.092  1.00  0.00     0.165 HD
BRANCH  12  15
ATOM     15  N   UNL A   1      33.631  21.271  25.907  1.00  0.00    -0.327 N 
ATOM     16  C   UNL A   1      33.968  21.333  27.317  1.00  0.00     0.148 C 
BRANCH  15  17
ATOM     17  C   UNL A   1      34.713  21.550  24.953  1.00  0.00     0.132 C 
BRANCH  17  18
ATOM     18  C   UNL A   1      35.871  22.321  25.576  1.00  0.00     0.144 C 
BRANCH  18  19
ATOM     19  C   UNL A   1      37.181  21.604  25.376  1.00  0.00     0.307 C 
ATOM     20  O   UNL A   1      37.279  20.481  24.898  1.00  0.00    -0.252 OA
BRANCH  19  21
ATOM     21  O   UNL A   1      38.217  22.384  25.792  1.00  0.00    -0.469 OA
ATOM     22  C   UNL A   1      37.852  23.725  26.124  1.00  0.00     0.282 C 
ENDBRANCH  19  21
ENDBRANCH  18  19
ENDBRANCH  17  18
ENDBRANCH  15  17
ENDBRANCH  12  15
ENDBRANCH  10  11
ENDBRANCH   6  10
ENDBRANCH   1   5
BRANCH   3  23
ATOM     23  C   UNL A   1      31.398  27.479  22.939  1.00  0.00     0.116 C 
BRANCH  23  24
ATOM     24  C   UNL A   1      31.851  28.917  23.179  1.00  0.00     0.023 C 
BRANCH  24  25
ATOM     25  C   UNL A   1      33.169  29.026  23.954  1.00  0.00     0.023 C 
BRANCH  25  26
ATOM     26  C   UNL A   1      33.018  29.104  25.471  1.00  0.00     0.116 C 
BRANCH  26  27
ATOM     27  N   UNL A   1      32.500  30.384  25.929  1.00  0.00    -0.352 N 
ATOM     28  C   UNL A   1      33.027  31.223  26.883  1.00  0.00     0.251 C 
ATOM     29  H   UNL A   1      31.667  30.689  25.502  1.00  0.00     0.163 HD
ATOM     30  O   UNL A   1      32.399  32.210  27.250  1.00  0.00    -0.269 OA
BRANCH  28  31
ATOM     31  C   UNL A   1      34.334  30.888  27.484  1.00  0.00     0.039 A 
ATOM     32  C   UNL A   1      35.271  31.906  27.677  1.00  0.00     0.014 A 
ATOM     33  C   UNL A   1      34.605  29.584  27.908  1.00  0.00     0.014 A 
ATOM     34  C   UNL A   1      36.454  31.626  28.362  1.00  0.00     0.010 A 
ATOM     35  C   UNL A   1      35.747  29.328  28.658  1.00  0.00     0.010 A 
ATOM     36  C   UNL A   1      36.683  30.347  28.895  1.00  0.00    -0.014 A 
BRANCH  36  37
ATOM     37  C   UNL A   1      37.899  30.051  29.699  1.00  0.00     0.031 A 
ATOM     38  C   UNL A   1      38.922  29.078  29.179  1.00  0.00     0.074 A 
ATOM     39  C   UNL A   1      38.051  30.613  30.915  1.00  0.00     0.049 A 
ATOM     40  N   UNL A   1      40.002  28.624  29.761  1.00  0.00    -0.248 NA
ATOM     41  C   UNL A   1      38.681  28.518  27.841  1.00  0.00     0.031 C 
ATOM     42  C   UNL A   1      37.110  31.546  31.539  1.00  0.00     0.029 A 
ATOM     43  N   UNL A   1      39.048  30.479  31.850  1.00  0.00    -0.354 N 
ATOM     44  C   UNL A   1      40.564  27.722  28.865  1.00  0.00     0.074 A 
ATOM     45  C   UNL A   1      39.668  27.642  27.732  1.00  0.00     0.031 C 
ATOM     46  C   UNL A   1      37.587  31.919  32.738  1.00  0.00     0.029 A 
ATOM     47  C   UNL A   1      38.840  31.215  32.994  1.00  0.00     0.049 A 
ATOM     48  H   UNL A   1      39.839  29.908  31.713  1.00  0.00     0.167 HD
ATOM     49  C   UNL A   1      41.734  27.043  28.966  1.00  0.00     0.034 A 
ATOM     50  C   UNL A   1      39.566  31.300  34.127  1.00  0.00     0.034 A 
ATOM     51  C   UNL A   1      42.620  27.141  30.099  1.00  0.00     0.049 A 
ATOM     52  C   UNL A   1      40.843  30.501  34.232  1.00  0.00     0.074 A 
ATOM     53  C   UNL A   1      43.848  26.531  30.286  1.00  0.00     0.029 A 
ATOM     54  N   UNL A   1      42.374  27.892  31.242  1.00  0.00    -0.354 N 
ATOM     55  N   UNL A   1      41.383  29.686  33.354  1.00  0.00    -0.248 NA
ATOM     56  C   UNL A   1      41.612  30.641  35.475  1.00  0.00     0.031 C 
ATOM     57  C   UNL A   1      44.308  26.851  31.567  1.00  0.00     0.029 A 
ATOM     58  C   UNL A   1      43.411  27.734  32.148  1.00  0.00     0.049 A 
ATOM     59  H   UNL A   1      41.579  28.454  31.386  1.00  0.00     0.167 HD
ATOM     60  C   UNL A   1      42.575  29.250  33.926  1.00  0.00     0.074 A 
ATOM     61  C   UNL A   1      42.681  29.902  35.214  1.00  0.00     0.031 C 
ATOM     62  C   UNL A   1      43.503  28.392  33.430  1.00  0.00     0.034 A 
BRANCH  49  63
ATOM     63  C   UNL A   1      42.105  26.120  27.830  1.00  0.00     0.023 A 
ATOM     64  C   UNL A   1      41.698  24.774  27.810  1.00  0.00     0.031 A 
ATOM     65  C   UNL A   1      42.886  26.587  26.758  1.00  0.00     0.131 A 
ATOM     66  C   UNL A   1      42.129  23.927  26.778  1.00  0.00     0.055 A 
ATOM     67  C   UNL A   1      43.240  25.759  25.691  1.00  0.00     0.041 A 
ATOM     68  F   UNL A   1      43.325  27.855  26.733  1.00  0.00    -0.206 F 
ATOM     69  C   UNL A   1      42.874  24.417  25.704  1.00  0.00     0.022 A 
BRANCH  66  70
ATOM     70  S   UNL A   1      41.819  22.147  26.934  1.00  0.00     0.124 S 
ATOM     71  O   UNL A   1      41.327  21.816  25.600  1.00  0.00    -0.237 OA
ATOM     72  O   UNL A   1      43.137  21.625  27.278  1.00  0.00    -0.237 OA
ATOM     73  O   UNL A   1      40.819  22.066  27.997  1.00  0.00    -0.744 OA
ENDBRANCH  66  70
ENDBRANCH  49  63
BRANCH  50  74
ATOM     74  C   UNL A   1      39.112  32.156  35.263  1.00  0.00     0.023 A 
ATOM     75  C   UNL A   1      39.569  33.476  35.402  1.00  0.00     0.031 A 
ATOM     76  C   UNL A   1      38.267  31.645  36.265  1.00  0.00     0.131 A 
ATOM     77  C   UNL A   1      39.233  34.218  36.545  1.00  0.00     0.055 A 
ATOM     78  C   UNL A   1      37.882  32.409  37.368  1.00  0.00     0.041 A 
ATOM     79  F   UNL A   1      37.798  30.390  36.184  1.00  0.00    -0.206 F 
ATOM     80  C   UNL A   1      38.380  33.699  37.522  1.00  0.00     0.022 A 
BRANCH  77  81
ATOM     81  S   UNL A   1      40.021  35.833  36.794  1.00  0.00     0.124 S 
ATOM     82  O   UNL A   1      39.841  36.454  35.486  1.00  0.00    -0.237 OA
ATOM     83  O   UNL A   1      39.230  36.391  37.885  1.00  0.00    -0.237 OA
ATOM     84  O   UNL A   1      41.399  35.489  37.138  1.00  0.00    -0.744 OA
ENDBRANCH  77  81
ENDBRANCH  50  74
BRANCH  62  85
ATOM     85  C   UNL A   1      44.742  28.159  34.261  1.00  0.00     0.023 A 
ATOM     86  C   UNL A   1      44.828  27.111  35.194  1.00  0.00     0.031 A 
ATOM     87  C   UNL A   1      45.856  29.006  34.115  1.00  0.00     0.131 A 
ATOM     88  C   UNL A   1      45.978  26.972  35.986  1.00  0.00     0.055 A 
ATOM     89  C   UNL A   1      47.023  28.822  34.858  1.00  0.00     0.041 A 
ATOM     90  F   UNL A   1      45.830  30.026  33.241  1.00  0.00    -0.206 F 
ATOM     91  C   UNL A   1      47.084  27.809  35.809  1.00  0.00     0.022 A 
BRANCH  88  92
ATOM     92  S   UNL A   1      45.975  25.742  37.319  1.00  0.00     0.124 S 
ATOM     93  O   UNL A   1      44.551  25.458  37.464  1.00  0.00    -0.237 OA
ATOM     94  O   UNL A   1      46.786  24.669  36.755  1.00  0.00    -0.237 OA
ATOM     95  O   UNL A   1      46.583  26.453  38.442  1.00  0.00    -0.744 OA
ENDBRANCH  88  92
ENDBRANCH  62  85
ENDBRANCH  36  37
ENDBRANCH  28  31
ENDBRANCH  26  27
ENDBRANCH  25  26
ENDBRANCH  24  25
ENDBRANCH  23  24
ENDBRANCH   3  23
TORSDOF 21
ENDMDL
