MODEL 1
REMARK VINA RESULT:     -11.6      0.000      0.000
REMARK SMILES O=C(C[C@@H]1CN(C(=O)NC[C@H]2C[C@H]3CC[C@@H]2C3)CCO1)NCCCCNC(=O)c1ccc(-c2c3nc(c(-c4cc(S(=O)(=O)[O-])ccc4F)c4ccc([nH]4)c(-c4cc(S(=O)(=O)[O-])ccc4F)c4nc(c(-c5cc(S(=O)(=O)[O-])ccc5F)c5ccc2[nH]5)C=C4)C=C3)cc1
REMARK SMILES IDX 23 1 22 2 21 3 1 4 2 5 3 7 4 8 5 9 20 10 6 11 19 12 18 13
REMARK SMILES IDX 7 14 8 15 9 16 10 18 11 19 12 20 16 21 13 22 15 23 17 24
REMARK SMILES IDX 14 25 24 26 25 27 26 28 27 29 28 31 29 32 30 33 91 34 31 35
REMARK SMILES IDX 90 36 32 37 33 38 34 39 84 40 35 41 89 42 83 43 85 44 36 45
REMARK SMILES IDX 88 46 82 47 81 48 37 50 69 51 49 52 68 53 50 54 53 55 67 56
REMARK SMILES IDX 86 57 51 58 52 59 66 61 87 62 54 63 38 64 39 65 47 66 40 67
REMARK SMILES IDX 46 68 48 69 45 70 41 71 42 72 43 73 44 74 70 75 71 76 79 77
REMARK SMILES IDX 72 78 78 79 80 80 77 81 73 82 74 83 75 84 76 85 55 86 56 87
REMARK SMILES IDX 64 88 57 89 63 90 65 91 62 92 58 93 59 94 60 95 61 96
REMARK H PARENT 21 6 9 17 26 30 85 49 53 60
REMARK Flexibility Score: inf
ROOT
ATOM      1  C   UNL A   1      31.229  31.064  26.193  1.00  0.00     0.023 C 
ENDROOT
BRANCH   1   2
ATOM      2  C   UNL A   1      32.149  30.099  26.942  1.00  0.00     0.116 C 
BRANCH   2   3
ATOM      3  N   UNL A   1      31.837  28.686  26.765  1.00  0.00    -0.356 N 
ATOM      4  O   UNL A   1      34.036  28.045  26.586  1.00  0.00    -0.275 OA
ATOM      5  C   UNL A   1      32.843  27.751  26.602  1.00  0.00     0.222 C 
ATOM      6  H   UNL A   1      30.897  28.393  26.762  1.00  0.00     0.163 HD
BRANCH   5   7
ATOM      7  C   UNL A   1      32.394  26.309  26.485  1.00  0.00     0.133 C 
BRANCH   7   8
ATOM      8  C   UNL A   1      31.906  25.968  25.078  1.00  0.00     0.147 C 
ATOM      9  C   UNL A   1      33.034  25.936  24.006  1.00  0.00     0.154 C 
ATOM     10  O   UNL A   1      30.912  26.947  24.701  1.00  0.00    -0.374 OA
ATOM     11  N   UNL A   1      32.478  25.637  22.672  1.00  0.00    -0.320 N 
ATOM     12  C   UNL A   1      30.318  26.588  23.440  1.00  0.00     0.182 C 
ATOM     13  C   UNL A   1      31.368  26.540  22.326  1.00  0.00     0.150 C 
BRANCH  11  14
ATOM     14  C   UNL A   1      32.872  24.756  21.710  1.00  0.00     0.317 C 
ATOM     15  O   UNL A   1      33.228  25.148  20.591  1.00  0.00    -0.249 OA
ATOM     16  N   UNL A   1      32.901  23.424  21.839  1.00  0.00    -0.338 N 
ATOM     17  H   UNL A   1      33.242  23.015  21.012  1.00  0.00     0.165 HD
BRANCH  16  18
ATOM     18  C   UNL A   1      32.592  22.395  22.810  1.00  0.00     0.121 C 
BRANCH  18  19
ATOM     19  C   UNL A   1      33.419  22.392  24.100  1.00  0.00     0.012 C 
ATOM     20  C   UNL A   1      32.601  22.360  25.388  1.00  0.00     0.009 C 
ATOM     21  C   UNL A   1      34.474  21.289  24.378  1.00  0.00    -0.006 C 
ATOM     22  C   UNL A   1      33.346  21.383  26.295  1.00  0.00    -0.011 C 
ATOM     23  C   UNL A   1      33.871  19.880  24.511  1.00  0.00     0.004 C 
ATOM     24  C   UNL A   1      34.790  21.588  25.857  1.00  0.00     0.007 C 
ATOM     25  C   UNL A   1      33.039  19.965  25.797  1.00  0.00     0.004 C 
ENDBRANCH  18  19
ENDBRANCH  16  18
ENDBRANCH  11  14
ENDBRANCH   7   8
ENDBRANCH   5   7
ENDBRANCH   2   3
ENDBRANCH   1   2
BRANCH   1  26
ATOM     26  C   UNL A   1      31.381  32.554  26.519  1.00  0.00     0.023 C 
BRANCH  26  27
ATOM     27  C   UNL A   1      32.704  32.987  27.146  1.00  0.00     0.116 C 
BRANCH  27  28
ATOM     28  N   UNL A   1      32.662  34.271  27.820  1.00  0.00    -0.352 N 
ATOM     29  C   UNL A   1      33.476  34.777  28.811  1.00  0.00     0.251 C 
ATOM     30  H   UNL A   1      31.942  34.874  27.525  1.00  0.00     0.163 HD
ATOM     31  O   UNL A   1      33.238  35.894  29.266  1.00  0.00    -0.269 OA
BRANCH  29  32
ATOM     32  C   UNL A   1      34.594  33.977  29.374  1.00  0.00     0.039 A 
ATOM     33  C   UNL A   1      35.902  34.333  29.026  1.00  0.00     0.014 A 
ATOM     34  C   UNL A   1      34.379  32.888  30.224  1.00  0.00     0.014 A 
ATOM     35  C   UNL A   1      36.988  33.663  29.598  1.00  0.00     0.010 A 
ATOM     36  C   UNL A   1      35.466  32.255  30.836  1.00  0.00     0.010 A 
ATOM     37  C   UNL A   1      36.784  32.648  30.547  1.00  0.00    -0.014 A 
BRANCH  37  38
ATOM     38  C   UNL A   1      37.935  32.031  31.267  1.00  0.00     0.031 A 
ATOM     39  C   UNL A   1      38.732  30.918  30.642  1.00  0.00     0.074 A 
ATOM     40  C   UNL A   1      38.237  32.447  32.515  1.00  0.00     0.049 A 
ATOM     41  N   UNL A   1      39.732  30.234  31.141  1.00  0.00    -0.248 NA
ATOM     42  C   UNL A   1      38.340  30.509  29.287  1.00  0.00     0.031 C 
ATOM     43  C   UNL A   1      37.526  33.496  33.249  1.00  0.00     0.029 A 
ATOM     44  N   UNL A   1      39.212  32.037  33.392  1.00  0.00    -0.354 N 
ATOM     45  C   UNL A   1      40.090  29.311  30.165  1.00  0.00     0.074 A 
ATOM     46  C   UNL A   1      39.159  29.489  29.068  1.00  0.00     0.031 C 
ATOM     47  C   UNL A   1      38.098  33.657  34.453  1.00  0.00     0.029 A 
ATOM     48  C   UNL A   1      39.186  32.695  34.600  1.00  0.00     0.049 A 
ATOM     49  H   UNL A   1      39.870  31.336  33.175  1.00  0.00     0.167 HD
ATOM     50  C   UNL A   1      41.109  28.415  30.172  1.00  0.00     0.034 A 
ATOM     51  C   UNL A   1      39.940  32.539  35.708  1.00  0.00     0.034 A 
ATOM     52  C   UNL A   1      42.030  28.242  31.271  1.00  0.00     0.049 A 
ATOM     53  C   UNL A   1      41.039  31.507  35.708  1.00  0.00     0.074 A 
ATOM     54  C   UNL A   1      43.120  27.392  31.359  1.00  0.00     0.029 A 
ATOM     55  N   UNL A   1      41.964  28.921  32.482  1.00  0.00    -0.354 N 
ATOM     56  N   UNL A   1      41.393  30.675  34.756  1.00  0.00    -0.248 NA
ATOM     57  C   UNL A   1      41.850  31.402  36.930  1.00  0.00     0.031 C 
ATOM     58  C   UNL A   1      43.669  27.506  32.640  1.00  0.00     0.029 A 
ATOM     59  C   UNL A   1      42.973  28.484  33.331  1.00  0.00     0.049 A 
ATOM     60  H   UNL A   1      41.300  29.611  32.706  1.00  0.00     0.167 HD
ATOM     61  C   UNL A   1      42.486  29.971  35.254  1.00  0.00     0.074 A 
ATOM     62  C   UNL A   1      42.742  30.486  36.583  1.00  0.00     0.031 C 
ATOM     63  C   UNL A   1      43.215  28.991  34.662  1.00  0.00     0.034 A 
BRANCH  50  64
ATOM     64  C   UNL A   1      41.262  27.529  28.956  1.00  0.00     0.023 A 
ATOM     65  C   UNL A   1      42.272  27.754  28.004  1.00  0.00     0.031 A 
ATOM     66  C   UNL A   1      40.379  26.457  28.736  1.00  0.00     0.131 A 
ATOM     67  C   UNL A   1      42.326  26.971  26.840  1.00  0.00     0.055 A 
ATOM     68  C   UNL A   1      40.489  25.629  27.617  1.00  0.00     0.041 A 
ATOM     69  F   UNL A   1      39.384  26.203  29.600  1.00  0.00    -0.206 F 
ATOM     70  C   UNL A   1      41.457  25.893  26.652  1.00  0.00     0.022 A 
BRANCH  67  71
ATOM     71  S   UNL A   1      43.453  27.473  25.510  1.00  0.00     0.124 S 
ATOM     72  O   UNL A   1      44.138  28.611  26.118  1.00  0.00    -0.237 OA
ATOM     73  O   UNL A   1      44.259  26.275  25.311  1.00  0.00    -0.237 OA
ATOM     74  O   UNL A   1      42.554  27.812  24.409  1.00  0.00    -0.744 OA
ENDBRANCH  67  71
ENDBRANCH  50  64
BRANCH  51  75
ATOM     75  C   UNL A   1      39.673  33.361  36.924  1.00  0.00     0.023 A 
ATOM     76  C   UNL A   1      38.967  32.833  38.017  1.00  0.00     0.031 A 
ATOM     77  C   UNL A   1      40.080  34.705  36.989  1.00  0.00     0.131 A 
ATOM     78  C   UNL A   1      38.649  33.657  39.108  1.00  0.00     0.055 A 
ATOM     79  C   UNL A   1      39.808  35.506  38.100  1.00  0.00     0.041 A 
ATOM     80  F   UNL A   1      40.761  35.259  35.973  1.00  0.00    -0.206 F 
ATOM     81  C   UNL A   1      39.076  34.986  39.163  1.00  0.00     0.022 A 
BRANCH  78  82
ATOM     82  S   UNL A   1      37.589  32.991  40.421  1.00  0.00     0.124 S 
ATOM     83  O   UNL A   1      36.342  32.753  39.704  1.00  0.00    -0.237 OA
ATOM     84  O   UNL A   1      38.331  31.804  40.833  1.00  0.00    -0.237 OA
ATOM     85  O   UNL A   1      37.549  34.070  41.405  1.00  0.00    -0.744 OA
ENDBRANCH  78  82
ENDBRANCH  51  75
BRANCH  63  86
ATOM     86  C   UNL A   1      44.391  28.445  35.437  1.00  0.00     0.023 A 
ATOM     87  C   UNL A   1      44.241  27.427  36.396  1.00  0.00     0.031 A 
ATOM     88  C   UNL A   1      45.681  28.962  35.222  1.00  0.00     0.131 A 
ATOM     89  C   UNL A   1      45.350  26.999  37.142  1.00  0.00     0.055 A 
ATOM     90  C   UNL A   1      46.790  28.490  35.924  1.00  0.00     0.041 A 
ATOM     91  F   UNL A   1      45.884  29.937  34.322  1.00  0.00    -0.206 F 
ATOM     92  C   UNL A   1      46.627  27.512  36.900  1.00  0.00     0.022 A 
BRANCH  89  93
ATOM     93  S   UNL A   1      45.088  25.824  38.500  1.00  0.00     0.124 S 
ATOM     94  O   UNL A   1      44.172  26.560  39.365  1.00  0.00    -0.237 OA
ATOM     95  O   UNL A   1      44.523  24.669  37.809  1.00  0.00    -0.237 OA
ATOM     96  O   UNL A   1      46.429  25.624  39.045  1.00  0.00    -0.744 OA
ENDBRANCH  89  93
ENDBRANCH  63  86
ENDBRANCH  37  38
ENDBRANCH  29  32
ENDBRANCH  27  28
ENDBRANCH  26  27
ENDBRANCH   1  26
TORSDOF 18
ENDMDL
MODEL 2
REMARK VINA RESULT:     -11.5      1.860      2.550
REMARK SMILES O=C(C[C@@H]1CN(C(=O)NC[C@H]2C[C@H]3CC[C@@H]2C3)CCO1)NCCCCNC(=O)c1ccc(-c2c3nc(c(-c4cc(S(=O)(=O)[O-])ccc4F)c4ccc([nH]4)c(-c4cc(S(=O)(=O)[O-])ccc4F)c4nc(c(-c5cc(S(=O)(=O)[O-])ccc5F)c5ccc2[nH]5)C=C4)C=C3)cc1
REMARK SMILES IDX 23 1 22 2 21 3 1 4 2 5 3 7 4 8 5 9 20 10 6 11 19 12 18 13
REMARK SMILES IDX 7 14 8 15 9 16 10 18 11 19 12 20 16 21 13 22 15 23 17 24
REMARK SMILES IDX 14 25 24 26 25 27 26 28 27 29 28 31 29 32 30 33 91 34 31 35
REMARK SMILES IDX 90 36 32 37 33 38 34 39 84 40 35 41 89 42 83 43 85 44 36 45
REMARK SMILES IDX 88 46 82 47 81 48 37 50 69 51 49 52 68 53 50 54 53 55 67 56
REMARK SMILES IDX 86 57 51 58 52 59 66 61 87 62 54 63 38 64 39 65 47 66 40 67
REMARK SMILES IDX 46 68 48 69 45 70 41 71 42 72 43 73 44 74 70 75 71 76 79 77
REMARK SMILES IDX 72 78 78 79 80 80 77 81 73 82 74 83 75 84 76 85 55 86 56 87
REMARK SMILES IDX 64 88 57 89 63 90 65 91 62 92 58 93 59 94 60 95 61 96
REMARK H PARENT 21 6 9 17 26 30 85 49 53 60
REMARK Flexibility Score: inf
ROOT
ATOM      1  C   UNL A   1      32.094  29.855  25.793  1.00  0.00     0.023 C 
ENDROOT
BRANCH   1   2
ATOM      2  C   UNL A   1      31.133  29.432  24.681  1.00  0.00     0.116 C 
BRANCH   2   3
ATOM      3  N   UNL A   1      31.268  28.050  24.240  1.00  0.00    -0.356 N 
ATOM      4  O   UNL A   1      30.448  28.459  22.133  1.00  0.00    -0.275 OA
ATOM      5  C   UNL A   1      30.906  27.673  22.959  1.00  0.00     0.222 C 
ATOM      6  H   UNL A   1      31.623  27.375  24.862  1.00  0.00     0.163 HD
BRANCH   5   7
ATOM      7  C   UNL A   1      31.148  26.220  22.603  1.00  0.00     0.133 C 
BRANCH   7   8
ATOM      8  C   UNL A   1      31.569  25.391  23.815  1.00  0.00     0.147 C 
ATOM      9  C   UNL A   1      32.084  23.966  23.461  1.00  0.00     0.154 C 
ATOM     10  O   UNL A   1      30.430  25.284  24.699  1.00  0.00    -0.374 OA
ATOM     11  N   UNL A   1      32.434  23.218  24.685  1.00  0.00    -0.320 N 
ATOM     12  C   UNL A   1      30.815  24.632  25.924  1.00  0.00     0.182 C 
ATOM     13  C   UNL A   1      31.331  23.215  25.659  1.00  0.00     0.150 C 
BRANCH  11  14
ATOM     14  C   UNL A   1      33.535  22.482  25.004  1.00  0.00     0.317 C 
ATOM     15  O   UNL A   1      34.597  23.027  25.330  1.00  0.00    -0.249 OA
ATOM     16  N   UNL A   1      33.610  21.145  24.984  1.00  0.00    -0.338 N 
ATOM     17  H   UNL A   1      34.505  20.856  25.274  1.00  0.00     0.165 HD
BRANCH  16  18
ATOM     18  C   UNL A   1      32.792  19.991  24.672  1.00  0.00     0.121 C 
BRANCH  18  19
ATOM     19  C   UNL A   1      33.489  18.823  23.966  1.00  0.00     0.012 C 
ATOM     20  C   UNL A   1      34.765  18.332  24.646  1.00  0.00     0.009 C 
ATOM     21  C   UNL A   1      32.749  17.487  23.699  1.00  0.00    -0.006 C 
ATOM     22  C   UNL A   1      34.690  16.810  24.556  1.00  0.00    -0.011 C 
ATOM     23  C   UNL A   1      32.338  16.742  24.981  1.00  0.00     0.004 C 
ATOM     24  C   UNL A   1      33.935  16.609  23.248  1.00  0.00     0.007 C 
ATOM     25  C   UNL A   1      33.678  16.335  25.606  1.00  0.00     0.004 C 
ENDBRANCH  18  19
ENDBRANCH  16  18
ENDBRANCH  11  14
ENDBRANCH   7   8
ENDBRANCH   5   7
ENDBRANCH   2   3
ENDBRANCH   1   2
BRANCH   1  26
ATOM     26  C   UNL A   1      31.723  31.115  26.582  1.00  0.00     0.023 C 
BRANCH  26  27
ATOM     27  C   UNL A   1      32.876  31.901  27.201  1.00  0.00     0.116 C 
BRANCH  27  28
ATOM     28  N   UNL A   1      32.572  33.288  27.498  1.00  0.00    -0.352 N 
ATOM     29  C   UNL A   1      33.205  34.170  28.347  1.00  0.00     0.251 C 
ATOM     30  H   UNL A   1      31.795  33.656  27.019  1.00  0.00     0.163 HD
ATOM     31  O   UNL A   1      32.754  35.308  28.470  1.00  0.00    -0.269 OA
BRANCH  29  32
ATOM     32  C   UNL A   1      34.381  33.755  29.153  1.00  0.00     0.039 A 
ATOM     33  C   UNL A   1      34.162  32.942  30.271  1.00  0.00     0.014 A 
ATOM     34  C   UNL A   1      35.682  34.155  28.837  1.00  0.00     0.014 A 
ATOM     35  C   UNL A   1      35.246  32.457  31.010  1.00  0.00     0.010 A 
ATOM     36  C   UNL A   1      36.768  33.626  29.545  1.00  0.00     0.010 A 
ATOM     37  C   UNL A   1      36.564  32.754  30.628  1.00  0.00    -0.014 A 
BRANCH  37  38
ATOM     38  C   UNL A   1      37.723  32.123  31.322  1.00  0.00     0.031 A 
ATOM     39  C   UNL A   1      38.483  30.991  30.686  1.00  0.00     0.074 A 
ATOM     40  C   UNL A   1      38.066  32.544  32.558  1.00  0.00     0.049 A 
ATOM     41  N   UNL A   1      39.484  30.295  31.164  1.00  0.00    -0.248 NA
ATOM     42  C   UNL A   1      38.049  30.579  29.345  1.00  0.00     0.031 C 
ATOM     43  C   UNL A   1      37.392  33.610  33.302  1.00  0.00     0.029 A 
ATOM     44  N   UNL A   1      39.056  32.123  33.412  1.00  0.00    -0.354 N 
ATOM     45  C   UNL A   1      39.800  29.357  30.186  1.00  0.00     0.074 A 
ATOM     46  C   UNL A   1      38.844  29.543  29.113  1.00  0.00     0.031 C 
ATOM     47  C   UNL A   1      37.999  33.771  34.489  1.00  0.00     0.029 A 
ATOM     48  C   UNL A   1      39.074  32.792  34.615  1.00  0.00     0.049 A 
ATOM     49  H   UNL A   1      39.695  31.409  33.184  1.00  0.00     0.167 HD
ATOM     50  C   UNL A   1      40.804  28.444  30.173  1.00  0.00     0.034 A 
ATOM     51  C   UNL A   1      39.854  32.631  35.704  1.00  0.00     0.034 A 
ATOM     52  C   UNL A   1      41.751  28.264  31.249  1.00  0.00     0.049 A 
ATOM     53  C   UNL A   1      40.935  31.581  35.684  1.00  0.00     0.074 A 
ATOM     54  C   UNL A   1      42.828  27.396  31.314  1.00  0.00     0.029 A 
ATOM     55  N   UNL A   1      41.729  28.954  32.455  1.00  0.00    -0.354 N 
ATOM     56  N   UNL A   1      41.249  30.735  34.729  1.00  0.00    -0.248 NA
ATOM     57  C   UNL A   1      41.776  31.471  36.884  1.00  0.00     0.031 C 
ATOM     58  C   UNL A   1      43.412  27.510  32.580  1.00  0.00     0.029 A 
ATOM     59  C   UNL A   1      42.752  28.506  33.280  1.00  0.00     0.049 A 
ATOM     60  H   UNL A   1      41.083  29.656  32.691  1.00  0.00     0.167 HD
ATOM     61  C   UNL A   1      42.342  30.016  35.204  1.00  0.00     0.074 A 
ATOM     62  C   UNL A   1      42.643  30.537  36.521  1.00  0.00     0.031 C 
ATOM     63  C   UNL A   1      43.039  29.019  34.600  1.00  0.00     0.034 A 
BRANCH  50  64
ATOM     64  C   UNL A   1      40.909  27.546  28.961  1.00  0.00     0.023 A 
ATOM     65  C   UNL A   1      41.918  27.724  27.998  1.00  0.00     0.031 A 
ATOM     66  C   UNL A   1      39.981  26.510  28.755  1.00  0.00     0.131 A 
ATOM     67  C   UNL A   1      41.929  26.933  26.839  1.00  0.00     0.055 A 
ATOM     68  C   UNL A   1      40.046  25.672  27.640  1.00  0.00     0.041 A 
ATOM     69  F   UNL A   1      38.984  26.301  29.630  1.00  0.00    -0.206 F 
ATOM     70  C   UNL A   1      41.015  25.891  26.665  1.00  0.00     0.022 A 
BRANCH  67  71
ATOM     71  S   UNL A   1      43.064  27.381  25.496  1.00  0.00     0.124 S 
ATOM     72  O   UNL A   1      44.136  28.053  26.227  1.00  0.00    -0.237 OA
ATOM     73  O   UNL A   1      43.398  26.084  24.920  1.00  0.00    -0.237 OA
ATOM     74  O   UNL A   1      42.259  28.254  24.644  1.00  0.00    -0.744 OA
ENDBRANCH  67  71
ENDBRANCH  50  64
BRANCH  51  75
ATOM     75  C   UNL A   1      39.634  33.468  36.920  1.00  0.00     0.023 A 
ATOM     76  C   UNL A   1      40.417  34.605  37.169  1.00  0.00     0.031 A 
ATOM     77  C   UNL A   1      38.665  33.111  37.874  1.00  0.00     0.131 A 
ATOM     78  C   UNL A   1      40.251  35.319  38.367  1.00  0.00     0.055 A 
ATOM     79  C   UNL A   1      38.467  33.855  39.039  1.00  0.00     0.041 A 
ATOM     80  F   UNL A   1      37.886  32.034  37.683  1.00  0.00    -0.206 F 
ATOM     81  C   UNL A   1      39.272  34.960  39.297  1.00  0.00     0.022 A 
BRANCH  78  82
ATOM     82  S   UNL A   1      41.396  36.678  38.735  1.00  0.00     0.124 S 
ATOM     83  O   UNL A   1      42.297  36.054  39.698  1.00  0.00    -0.237 OA
ATOM     84  O   UNL A   1      41.958  36.963  37.419  1.00  0.00    -0.237 OA
ATOM     85  O   UNL A   1      40.525  37.718  39.277  1.00  0.00    -0.744 OA
ENDBRANCH  78  82
ENDBRANCH  51  75
BRANCH  63  86
ATOM     86  C   UNL A   1      44.225  28.458  35.348  1.00  0.00     0.023 A 
ATOM     87  C   UNL A   1      44.086  27.437  36.306  1.00  0.00     0.031 A 
ATOM     88  C   UNL A   1      45.516  28.965  35.109  1.00  0.00     0.131 A 
ATOM     89  C   UNL A   1      45.206  26.996  37.027  1.00  0.00     0.055 A 
ATOM     90  C   UNL A   1      46.635  28.480  35.785  1.00  0.00     0.041 A 
ATOM     91  F   UNL A   1      45.708  29.942  34.208  1.00  0.00    -0.206 F 
ATOM     92  C   UNL A   1      46.483  27.498  36.760  1.00  0.00     0.022 A 
BRANCH  89  93
ATOM     93  S   UNL A   1      44.962  25.818  38.386  1.00  0.00     0.124 S 
ATOM     94  O   UNL A   1      46.263  25.843  39.046  1.00  0.00    -0.237 OA
ATOM     95  O   UNL A   1      43.859  26.421  39.128  1.00  0.00    -0.237 OA
ATOM     96  O   UNL A   1      44.638  24.568  37.703  1.00  0.00    -0.744 OA
ENDBRANCH  89  93
ENDBRANCH  63  86
ENDBRANCH  37  38
ENDBRANCH  29  32
ENDBRANCH  27  28
ENDBRANCH  26  27
ENDBRANCH   1  26
TORSDOF 18
ENDMDL
MODEL 3
REMARK VINA RESULT:     -11.3      5.180      8.718
REMARK SMILES O=C(C[C@@H]1CN(C(=O)NC[C@H]2C[C@H]3CC[C@@H]2C3)CCO1)NCCCCNC(=O)c1ccc(-c2c3nc(c(-c4cc(S(=O)(=O)[O-])ccc4F)c4ccc([nH]4)c(-c4cc(S(=O)(=O)[O-])ccc4F)c4nc(c(-c5cc(S(=O)(=O)[O-])ccc5F)c5ccc2[nH]5)C=C4)C=C3)cc1
REMARK SMILES IDX 23 1 22 2 21 3 1 4 2 5 3 7 4 8 5 9 20 10 6 11 19 12 18 13
REMARK SMILES IDX 7 14 8 15 9 16 10 18 11 19 12 20 16 21 13 22 15 23 17 24
REMARK SMILES IDX 14 25 24 26 25 27 26 28 27 29 28 31 29 32 30 33 91 34 31 35
REMARK SMILES IDX 90 36 32 37 33 38 34 39 84 40 35 41 89 42 83 43 85 44 36 45
REMARK SMILES IDX 88 46 82 47 81 48 37 50 69 51 49 52 68 53 50 54 53 55 67 56
REMARK SMILES IDX 86 57 51 58 52 59 66 61 87 62 54 63 38 64 39 65 47 66 40 67
REMARK SMILES IDX 46 68 48 69 45 70 41 71 42 72 43 73 44 74 70 75 71 76 79 77
REMARK SMILES IDX 72 78 78 79 80 80 77 81 73 82 74 83 75 84 76 85 55 86 56 87
REMARK SMILES IDX 64 88 57 89 63 90 65 91 62 92 58 93 59 94 60 95 61 96
REMARK H PARENT 21 6 9 17 26 30 85 49 53 60
REMARK Flexibility Score: inf
ROOT
ATOM      1  C   UNL A   1      35.657  21.608  24.817  1.00  0.00     0.023 C 
ENDROOT
BRANCH   1   2
ATOM      2  C   UNL A   1      34.357  21.569  25.621  1.00  0.00     0.116 C 
BRANCH   2   3
ATOM      3  N   UNL A   1      33.213  22.203  24.978  1.00  0.00    -0.356 N 
ATOM      4  O   UNL A   1      32.316  22.979  26.945  1.00  0.00    -0.275 OA
ATOM      5  C   UNL A   1      32.264  22.880  25.722  1.00  0.00     0.222 C 
ATOM      6  H   UNL A   1      33.116  22.150  23.999  1.00  0.00     0.163 HD
BRANCH   5   7
ATOM      7  C   UNL A   1      31.155  23.545  24.932  1.00  0.00     0.133 C 
BRANCH   7   8
ATOM      8  C   UNL A   1      31.677  24.661  24.029  1.00  0.00     0.147 C 
ATOM      9  C   UNL A   1      30.572  25.621  23.502  1.00  0.00     0.154 C 
ATOM     10  O   UNL A   1      32.356  24.048  22.910  1.00  0.00    -0.374 OA
ATOM     11  N   UNL A   1      31.151  26.645  22.610  1.00  0.00    -0.320 N 
ATOM     12  C   UNL A   1      32.990  25.058  22.103  1.00  0.00     0.182 C 
ATOM     13  C   UNL A   1      31.962  26.044  21.539  1.00  0.00     0.150 C 
BRANCH  11  14
ATOM     14  C   UNL A   1      30.986  27.997  22.567  1.00  0.00     0.317 C 
ATOM     15  O   UNL A   1      29.966  28.501  22.078  1.00  0.00    -0.249 OA
ATOM     16  N   UNL A   1      31.869  28.904  23.003  1.00  0.00    -0.338 N 
ATOM     17  H   UNL A   1      31.507  29.811  22.878  1.00  0.00     0.165 HD
BRANCH  16  18
ATOM     18  C   UNL A   1      33.186  28.974  23.601  1.00  0.00     0.121 C 
BRANCH  18  19
ATOM     19  C   UNL A   1      33.252  29.370  25.079  1.00  0.00     0.012 C 
ATOM     20  C   UNL A   1      31.912  29.755  25.701  1.00  0.00     0.009 C 
ATOM     21  C   UNL A   1      33.820  28.401  26.148  1.00  0.00    -0.006 C 
ATOM     22  C   UNL A   1      31.927  29.108  27.084  1.00  0.00    -0.011 C 
ATOM     23  C   UNL A   1      32.994  27.113  26.312  1.00  0.00     0.004 C 
ATOM     24  C   UNL A   1      33.409  29.149  27.433  1.00  0.00     0.007 C 
ATOM     25  C   UNL A   1      31.665  27.609  26.894  1.00  0.00     0.004 C 
ENDBRANCH  18  19
ENDBRANCH  16  18
ENDBRANCH  11  14
ENDBRANCH   7   8
ENDBRANCH   5   7
ENDBRANCH   2   3
ENDBRANCH   1   2
BRANCH   1  26
ATOM     26  C   UNL A   1      36.231  22.993  24.500  1.00  0.00     0.023 C 
BRANCH  26  27
ATOM     27  C   UNL A   1      37.451  23.430  25.306  1.00  0.00     0.116 C 
BRANCH  27  28
ATOM     28  N   UNL A   1      38.361  22.355  25.655  1.00  0.00    -0.352 N 
ATOM     29  C   UNL A   1      39.574  22.400  26.308  1.00  0.00     0.251 C 
ATOM     30  H   UNL A   1      38.067  21.455  25.385  1.00  0.00     0.163 HD
ATOM     31  O   UNL A   1      40.201  21.355  26.476  1.00  0.00    -0.269 OA
BRANCH  29  32
ATOM     32  C   UNL A   1      40.159  23.688  26.760  1.00  0.00     0.039 A 
ATOM     33  C   UNL A   1      40.118  24.777  25.881  1.00  0.00     0.014 A 
ATOM     34  C   UNL A   1      40.750  23.840  28.018  1.00  0.00     0.014 A 
ATOM     35  C   UNL A   1      40.580  26.031  26.295  1.00  0.00     0.010 A 
ATOM     36  C   UNL A   1      41.162  25.106  28.448  1.00  0.00     0.010 A 
ATOM     37  C   UNL A   1      41.063  26.222  27.599  1.00  0.00    -0.014 A 
BRANCH  37  38
ATOM     38  C   UNL A   1      41.420  27.583  28.092  1.00  0.00     0.031 A 
ATOM     39  C   UNL A   1      42.856  28.020  28.187  1.00  0.00     0.074 A 
ATOM     40  C   UNL A   1      40.441  28.419  28.500  1.00  0.00     0.049 A 
ATOM     41  N   UNL A   1      43.351  29.147  28.636  1.00  0.00    -0.248 NA
ATOM     42  C   UNL A   1      43.868  27.056  27.735  1.00  0.00     0.031 C 
ATOM     43  C   UNL A   1      39.010  28.109  28.491  1.00  0.00     0.029 A 
ATOM     44  N   UNL A   1      40.498  29.693  29.011  1.00  0.00    -0.354 N 
ATOM     45  C   UNL A   1      44.733  29.029  28.524  1.00  0.00     0.074 A 
ATOM     46  C   UNL A   1      44.994  27.697  28.018  1.00  0.00     0.031 C 
ATOM     47  C   UNL A   1      38.327  29.168  28.955  1.00  0.00     0.029 A 
ATOM     48  C   UNL A   1      39.268  30.216  29.339  1.00  0.00     0.049 A 
ATOM     49  H   UNL A   1      41.342  30.188  29.131  1.00  0.00     0.167 HD
ATOM     50  C   UNL A   1      45.692  29.951  28.798  1.00  0.00     0.034 A 
ATOM     51  C   UNL A   1      38.929  31.396  29.898  1.00  0.00     0.034 A 
ATOM     52  C   UNL A   1      45.422  31.276  29.306  1.00  0.00     0.049 A 
ATOM     53  C   UNL A   1      40.015  32.387  30.234  1.00  0.00     0.074 A 
ATOM     54  C   UNL A   1      46.319  32.296  29.575  1.00  0.00     0.029 A 
ATOM     55  N   UNL A   1      44.163  31.764  29.635  1.00  0.00    -0.354 N 
ATOM     56  N   UNL A   1      41.314  32.276  30.076  1.00  0.00    -0.248 NA
ATOM     57  C   UNL A   1      39.587  33.669  30.811  1.00  0.00     0.031 C 
ATOM     58  C   UNL A   1      45.615  33.370  30.129  1.00  0.00     0.029 A 
ATOM     59  C   UNL A   1      44.266  33.056  30.134  1.00  0.00     0.049 A 
ATOM     60  H   UNL A   1      43.321  31.266  29.530  1.00  0.00     0.167 HD
ATOM     61  C   UNL A   1      41.853  33.485  30.507  1.00  0.00     0.074 A 
ATOM     62  C   UNL A   1      40.739  34.315  30.915  1.00  0.00     0.031 C 
ATOM     63  C   UNL A   1      43.152  33.875  30.554  1.00  0.00     0.034 A 
BRANCH  50  64
ATOM     64  C   UNL A   1      47.131  29.541  28.578  1.00  0.00     0.023 A 
ATOM     65  C   UNL A   1      47.893  28.954  29.603  1.00  0.00     0.031 A 
ATOM     66  C   UNL A   1      47.753  29.753  27.336  1.00  0.00     0.131 A 
ATOM     67  C   UNL A   1      49.252  28.672  29.392  1.00  0.00     0.055 A 
ATOM     68  C   UNL A   1      49.083  29.394  27.106  1.00  0.00     0.041 A 
ATOM     69  F   UNL A   1      47.081  30.326  26.323  1.00  0.00    -0.206 F 
ATOM     70  C   UNL A   1      49.846  28.865  28.143  1.00  0.00     0.022 A 
BRANCH  67  71
ATOM     71  S   UNL A   1      50.267  28.188  30.816  1.00  0.00     0.124 S 
ATOM     72  O   UNL A   1      51.529  28.864  30.522  1.00  0.00    -0.237 OA
ATOM     73  O   UNL A   1      49.505  28.719  31.941  1.00  0.00    -0.237 OA
ATOM     74  O   UNL A   1      50.314  26.731  30.725  1.00  0.00    -0.744 OA
ENDBRANCH  67  71
ENDBRANCH  50  64
BRANCH  51  75
ATOM     75  C   UNL A   1      37.501  31.706  30.201  1.00  0.00     0.023 A 
ATOM     76  C   UNL A   1      36.686  32.359  29.264  1.00  0.00     0.031 A 
ATOM     77  C   UNL A   1      36.946  31.394  31.455  1.00  0.00     0.131 A 
ATOM     78  C   UNL A   1      35.374  32.721  29.610  1.00  0.00     0.055 A 
ATOM     79  C   UNL A   1      35.625  31.708  31.776  1.00  0.00     0.041 A 
ATOM     80  F   UNL A   1      37.682  30.766  32.387  1.00  0.00    -0.206 F 
ATOM     81  C   UNL A   1      34.834  32.388  30.855  1.00  0.00     0.022 A 
BRANCH  78  82
ATOM     82  S   UNL A   1      34.409  33.715  28.439  1.00  0.00     0.124 S 
ATOM     83  O   UNL A   1      33.352  32.784  28.061  1.00  0.00    -0.237 OA
ATOM     84  O   UNL A   1      34.004  34.846  29.267  1.00  0.00    -0.237 OA
ATOM     85  O   UNL A   1      35.372  34.029  27.387  1.00  0.00    -0.744 OA
ENDBRANCH  78  82
ENDBRANCH  51  75
BRANCH  63  86
ATOM     86  C   UNL A   1      43.432  35.282  31.025  1.00  0.00     0.023 A 
ATOM     87  C   UNL A   1      43.511  36.364  30.129  1.00  0.00     0.031 A 
ATOM     88  C   UNL A   1      43.638  35.543  32.392  1.00  0.00     0.131 A 
ATOM     89  C   UNL A   1      43.843  37.643  30.603  1.00  0.00     0.055 A 
ATOM     90  C   UNL A   1      43.908  36.827  32.864  1.00  0.00     0.041 A 
ATOM     91  F   UNL A   1      43.578  34.549  33.292  1.00  0.00    -0.206 F 
ATOM     92  C   UNL A   1      44.025  37.885  31.967  1.00  0.00     0.022 A 
BRANCH  89  93
ATOM     93  S   UNL A   1      44.125  38.974  29.402  1.00  0.00     0.124 S 
ATOM     94  O   UNL A   1      42.861  39.700  29.453  1.00  0.00    -0.237 OA
ATOM     95  O   UNL A   1      45.280  39.665  29.967  1.00  0.00    -0.237 OA
ATOM     96  O   UNL A   1      44.381  38.261  28.152  1.00  0.00    -0.744 OA
ENDBRANCH  89  93
ENDBRANCH  63  86
ENDBRANCH  37  38
ENDBRANCH  29  32
ENDBRANCH  27  28
ENDBRANCH  26  27
ENDBRANCH   1  26
TORSDOF 18
ENDMDL
