MODEL 1
REMARK VINA RESULT:     -12.5      0.000      0.000
REMARK SMILES C=Cc1cc(Cl)cc2c1O[C@H](C(F)(F)F)C(C(=O)NCCCCNC(=O)c1ccc(-c3c4nc(c(-c5cc(S(=O)(=O)[O-])ccc5F)c5ccc([nH]5)c(-c5cc(S(=O)(=O)[O-])ccc5F)c5nc(c(-c6cc(S(=O)(=O)[O-])ccc6F)c6ccc3[nH]6)C=C5)C=C4)cc1)=C2
REMARK SMILES IDX 22 1 21 2 20 3 19 4 17 5 18 6 16 8 3 9 4 10 9 11 5 12 8 13
REMARK SMILES IDX 10 14 6 15 7 16 90 17 11 18 2 19 1 20 12 21 13 22 14 23
REMARK SMILES IDX 15 24 23 25 24 26 25 27 26 29 27 30 28 31 89 32 29 33 88 34
REMARK SMILES IDX 30 35 31 36 32 37 82 38 33 39 87 40 81 41 83 42 34 43 86 44
REMARK SMILES IDX 80 45 79 46 35 48 67 49 47 50 66 51 48 52 51 53 65 54 84 55
REMARK SMILES IDX 49 56 50 57 64 59 85 60 52 61 36 62 37 63 45 64 38 65 44 66
REMARK SMILES IDX 46 67 43 68 39 69 40 70 41 71 42 72 68 73 69 74 77 75 70 76
REMARK SMILES IDX 76 77 78 78 75 79 71 80 72 81 73 82 74 83 53 84 54 85 62 86
REMARK SMILES IDX 55 87 61 88 63 89 60 90 56 91 57 92 58 93 59 94
REMARK H PARENT 19 7 24 28 83 47 51 58
REMARK Flexibility Score: inf
ROOT
ATOM      1  C   UNL A   1      32.435  30.074  25.393  1.00  0.00     0.023 C 
ENDROOT
BRANCH   1   2
ATOM      2  C   UNL A   1      31.014  29.965  24.830  1.00  0.00     0.023 C 
BRANCH   2   3
ATOM      3  C   UNL A   1      30.906  29.146  23.545  1.00  0.00     0.116 C 
BRANCH   3   4
ATOM      4  N   UNL A   1      29.871  28.130  23.627  1.00  0.00    -0.352 N 
ATOM      5  C   UNL A   1      29.815  26.790  23.813  1.00  0.00     0.251 C 
ATOM      6  O   UNL A   1      28.679  26.304  23.820  1.00  0.00    -0.270 OA
ATOM      7  H   UNL A   1      28.973  28.518  23.517  1.00  0.00     0.163 HD
BRANCH   5   8
ATOM      8  C   UNL A   1      30.994  25.893  24.004  1.00  0.00     0.067 C 
ATOM      9  C   UNL A   1      34.285  23.266  24.224  1.00  0.00     0.018 A 
ATOM     10  C   UNL A   1      34.065  21.891  24.065  1.00  0.00     0.032 A 
ATOM     11  C   UNL A   1      33.194  24.144  24.109  1.00  0.00     0.135 A 
ATOM     12  C   UNL A   1      32.787  21.416  23.769  1.00  0.00     0.042 A 
ATOM     13  C   UNL A   1      31.915  23.666  23.803  1.00  0.00     0.019 A 
ATOM     14  O   UNL A   1      33.436  25.487  24.244  1.00  0.00    -0.475 OA
ATOM     15  Cl  UNL A   1      32.535  19.724  23.571  1.00  0.00    -0.084 Cl
ATOM     16  C   UNL A   1      31.714  22.294  23.632  1.00  0.00     0.032 A 
ATOM     17  C   UNL A   1      30.819  24.613  23.627  1.00  0.00     0.025 C 
ATOM     18  C   UNL A   1      32.301  26.320  24.607  1.00  0.00     0.314 C 
BRANCH   9  19
ATOM     19  C   UNL A   1      35.621  23.777  24.565  1.00  0.00     0.004 C 
ATOM     20  C   UNL A   1      36.145  23.729  25.797  1.00  0.00     0.009 C 
ENDBRANCH   9  19
BRANCH  18  21
ATOM     21  C   UNL A   1      32.235  26.446  26.141  1.00  0.00     0.429 C 
ATOM     22  F   UNL A   1      32.150  25.220  26.713  1.00  0.00    -0.167 F 
ATOM     23  F   UNL A   1      33.332  27.041  26.662  1.00  0.00    -0.167 F 
ATOM     24  F   UNL A   1      31.163  27.159  26.557  1.00  0.00    -0.167 F 
ENDBRANCH  18  21
ENDBRANCH   5   8
ENDBRANCH   3   4
ENDBRANCH   2   3
ENDBRANCH   1   2
BRANCH   1  25
ATOM     25  C   UNL A   1      32.529  30.413  26.879  1.00  0.00     0.116 C 
BRANCH  25  26
ATOM     26  N   UNL A   1      32.429  31.835  27.183  1.00  0.00    -0.352 N 
ATOM     27  C   UNL A   1      33.418  32.657  27.681  1.00  0.00     0.251 C 
ATOM     28  H   UNL A   1      31.555  32.256  27.014  1.00  0.00     0.163 HD
ATOM     29  O   UNL A   1      33.179  33.826  27.960  1.00  0.00    -0.269 OA
BRANCH  27  30
ATOM     30  C   UNL A   1      34.752  32.072  27.932  1.00  0.00     0.039 A 
ATOM     31  C   UNL A   1      34.868  30.720  28.257  1.00  0.00     0.014 A 
ATOM     32  C   UNL A   1      35.866  32.914  27.976  1.00  0.00     0.014 A 
ATOM     33  C   UNL A   1      36.052  30.257  28.817  1.00  0.00     0.010 A 
ATOM     34  C   UNL A   1      37.079  32.422  28.463  1.00  0.00     0.010 A 
ATOM     35  C   UNL A   1      37.161  31.110  28.954  1.00  0.00    -0.014 A 
BRANCH  35  36
ATOM     36  C   UNL A   1      38.372  30.614  29.658  1.00  0.00     0.031 A 
ATOM     37  C   UNL A   1      38.652  31.018  31.082  1.00  0.00     0.074 A 
ATOM     38  C   UNL A   1      39.175  29.727  29.039  1.00  0.00     0.049 A 
ATOM     39  N   UNL A   1      39.620  30.628  31.873  1.00  0.00    -0.248 NA
ATOM     40  C   UNL A   1      37.730  31.983  31.703  1.00  0.00     0.031 C 
ATOM     41  C   UNL A   1      38.989  29.258  27.666  1.00  0.00     0.029 A 
ATOM     42  N   UNL A   1      40.275  29.038  29.484  1.00  0.00    -0.354 N 
ATOM     43  C   UNL A   1      39.434  31.308  33.072  1.00  0.00     0.074 A 
ATOM     44  C   UNL A   1      38.281  32.162  32.896  1.00  0.00     0.031 C 
ATOM     45  C   UNL A   1      39.900  28.312  27.402  1.00  0.00     0.029 A 
ATOM     46  C   UNL A   1      40.777  28.152  28.560  1.00  0.00     0.049 A 
ATOM     47  H   UNL A   1      40.666  29.166  30.377  1.00  0.00     0.167 HD
ATOM     48  C   UNL A   1      40.151  31.217  34.217  1.00  0.00     0.034 A 
ATOM     49  C   UNL A   1      41.823  27.303  28.633  1.00  0.00     0.034 A 
ATOM     50  C   UNL A   1      41.288  30.349  34.386  1.00  0.00     0.049 A 
ATOM     51  C   UNL A   1      42.608  27.225  29.916  1.00  0.00     0.074 A 
ATOM     52  C   UNL A   1      42.084  30.189  35.507  1.00  0.00     0.029 A 
ATOM     53  N   UNL A   1      41.783  29.485  33.420  1.00  0.00    -0.354 N 
ATOM     54  N   UNL A   1      42.406  27.864  31.044  1.00  0.00    -0.248 NA
ATOM     55  C   UNL A   1      43.760  26.313  29.941  1.00  0.00     0.031 C 
ATOM     56  C   UNL A   1      43.082  29.261  35.206  1.00  0.00     0.029 A 
ATOM     57  C   UNL A   1      42.877  28.797  33.916  1.00  0.00     0.049 A 
ATOM     58  H   UNL A   1      41.410  29.375  32.515  1.00  0.00     0.167 HD
ATOM     59  C   UNL A   1      43.395  27.421  31.918  1.00  0.00     0.074 A 
ATOM     60  C   UNL A   1      44.175  26.438  31.195  1.00  0.00     0.031 C 
ATOM     61  C   UNL A   1      43.639  27.804  33.196  1.00  0.00     0.034 A 
BRANCH  48  62
ATOM     62  C   UNL A   1      39.736  32.062  35.396  1.00  0.00     0.023 A 
ATOM     63  C   UNL A   1      38.897  31.524  36.391  1.00  0.00     0.031 A 
ATOM     64  C   UNL A   1      40.075  33.424  35.475  1.00  0.00     0.131 A 
ATOM     65  C   UNL A   1      38.402  32.354  37.406  1.00  0.00     0.055 A 
ATOM     66  C   UNL A   1      39.605  34.238  36.507  1.00  0.00     0.041 A 
ATOM     67  F   UNL A   1      40.877  33.981  34.553  1.00  0.00    -0.206 F 
ATOM     68  C   UNL A   1      38.755  33.706  37.472  1.00  0.00     0.022 A 
BRANCH  65  69
ATOM     69  S   UNL A   1      37.239  31.727  38.648  1.00  0.00     0.124 S 
ATOM     70  O   UNL A   1      36.115  32.647  38.496  1.00  0.00    -0.237 OA
ATOM     71  O   UNL A   1      36.998  30.364  38.181  1.00  0.00    -0.237 OA
ATOM     72  O   UNL A   1      37.971  31.842  39.905  1.00  0.00    -0.744 OA
ENDBRANCH  65  69
ENDBRANCH  48  62
BRANCH  49  73
ATOM     73  C   UNL A   1      42.127  26.430  27.462  1.00  0.00     0.023 A 
ATOM     74  C   UNL A   1      41.649  25.107  27.406  1.00  0.00     0.031 A 
ATOM     75  C   UNL A   1      42.999  26.861  26.450  1.00  0.00     0.131 A 
ATOM     76  C   UNL A   1      42.113  24.241  26.408  1.00  0.00     0.055 A 
ATOM     77  C   UNL A   1      43.400  26.016  25.414  1.00  0.00     0.041 A 
ATOM     78  F   UNL A   1      43.490  28.111  26.469  1.00  0.00    -0.206 F 
ATOM     79  C   UNL A   1      42.974  24.692  25.403  1.00  0.00     0.022 A 
BRANCH  76  80
ATOM     80  S   UNL A   1      41.741  22.467  26.476  1.00  0.00     0.124 S 
ATOM     81  O   UNL A   1      42.317  22.086  27.762  1.00  0.00    -0.237 OA
ATOM     82  O   UNL A   1      40.281  22.463  26.412  1.00  0.00    -0.237 OA
ATOM     83  O   UNL A   1      42.411  21.928  25.297  1.00  0.00    -0.744 OA
ENDBRANCH  76  80
ENDBRANCH  49  73
BRANCH  61  84
ATOM     84  C   UNL A   1      44.794  27.171  33.928  1.00  0.00     0.023 A 
ATOM     85  C   UNL A   1      44.586  26.023  34.716  1.00  0.00     0.031 A 
ATOM     86  C   UNL A   1      46.058  27.786  33.965  1.00  0.00     0.131 A 
ATOM     87  C   UNL A   1      45.616  25.545  35.535  1.00  0.00     0.055 A 
ATOM     88  C   UNL A   1      47.094  27.283  34.754  1.00  0.00     0.041 A 
ATOM     89  F   UNL A   1      46.299  28.890  33.240  1.00  0.00    -0.206 F 
ATOM     90  C   UNL A   1      46.870  26.166  35.554  1.00  0.00     0.022 A 
BRANCH  87  91
ATOM     91  S   UNL A   1      45.344  24.155  36.668  1.00  0.00     0.124 S 
ATOM     92  O   UNL A   1      46.711  23.810  37.055  1.00  0.00    -0.237 OA
ATOM     93  O   UNL A   1      44.535  24.767  37.719  1.00  0.00    -0.237 OA
ATOM     94  O   UNL A   1      44.661  23.161  35.849  1.00  0.00    -0.744 OA
ENDBRANCH  87  91
ENDBRANCH  61  84
ENDBRANCH  35  36
ENDBRANCH  27  30
ENDBRANCH  25  26
ENDBRANCH   1  25
TORSDOF 16
ENDMDL
MODEL 2
REMARK VINA RESULT:     -12.5      5.147     10.178
REMARK SMILES C=Cc1cc(Cl)cc2c1O[C@H](C(F)(F)F)C(C(=O)NCCCCNC(=O)c1ccc(-c3c4nc(c(-c5cc(S(=O)(=O)[O-])ccc5F)c5ccc([nH]5)c(-c5cc(S(=O)(=O)[O-])ccc5F)c5nc(c(-c6cc(S(=O)(=O)[O-])ccc6F)c6ccc3[nH]6)C=C5)C=C4)cc1)=C2
REMARK SMILES IDX 22 1 21 2 20 3 19 4 17 5 18 6 16 8 3 9 4 10 9 11 5 12 8 13
REMARK SMILES IDX 10 14 6 15 7 16 90 17 11 18 2 19 1 20 12 21 13 22 14 23
REMARK SMILES IDX 15 24 23 25 24 26 25 27 26 29 27 30 28 31 89 32 29 33 88 34
REMARK SMILES IDX 30 35 31 36 32 37 82 38 33 39 87 40 81 41 83 42 34 43 86 44
REMARK SMILES IDX 80 45 79 46 35 48 67 49 47 50 66 51 48 52 51 53 65 54 84 55
REMARK SMILES IDX 49 56 50 57 64 59 85 60 52 61 36 62 37 63 45 64 38 65 44 66
REMARK SMILES IDX 46 67 43 68 39 69 40 70 41 71 42 72 68 73 69 74 77 75 70 76
REMARK SMILES IDX 76 77 78 78 75 79 71 80 72 81 73 82 74 83 53 84 54 85 62 86
REMARK SMILES IDX 55 87 61 88 63 89 60 90 56 91 57 92 58 93 59 94
REMARK H PARENT 19 7 24 28 83 47 51 58
REMARK Flexibility Score: inf
ROOT
ATOM      1  C   UNL A   1      35.856  20.632  25.064  1.00  0.00     0.023 C 
ENDROOT
BRANCH   1   2
ATOM      2  C   UNL A   1      34.848  21.322  25.989  1.00  0.00     0.023 C 
BRANCH   2   3
ATOM      3  C   UNL A   1      33.742  22.083  25.261  1.00  0.00     0.116 C 
BRANCH   3   4
ATOM      4  N   UNL A   1      34.117  22.431  23.901  1.00  0.00    -0.352 N 
ATOM      5  C   UNL A   1      33.942  23.482  23.066  1.00  0.00     0.251 C 
ATOM      6  O   UNL A   1      34.455  23.362  21.949  1.00  0.00    -0.270 OA
ATOM      7  H   UNL A   1      34.636  21.712  23.474  1.00  0.00     0.163 HD
BRANCH   5   8
ATOM      8  C   UNL A   1      33.196  24.734  23.396  1.00  0.00     0.067 C 
ATOM      9  C   UNL A   1      31.370  28.437  24.252  1.00  0.00     0.018 A 
ATOM     10  C   UNL A   1      31.865  29.205  25.315  1.00  0.00     0.032 A 
ATOM     11  C   UNL A   1      32.006  27.223  23.942  1.00  0.00     0.135 A 
ATOM     12  C   UNL A   1      32.987  28.778  26.026  1.00  0.00     0.042 A 
ATOM     13  C   UNL A   1      33.137  26.801  24.650  1.00  0.00     0.019 A 
ATOM     14  O   UNL A   1      31.521  26.499  22.883  1.00  0.00    -0.475 OA
ATOM     15  Cl  UNL A   1      33.586  29.738  27.324  1.00  0.00    -0.084 Cl
ATOM     16  C   UNL A   1      33.628  27.585  25.696  1.00  0.00     0.032 A 
ATOM     17  C   UNL A   1      33.809  25.567  24.257  1.00  0.00     0.025 C 
ATOM     18  C   UNL A   1      31.835  25.079  22.867  1.00  0.00     0.314 C 
BRANCH   9  19
ATOM     19  C   UNL A   1      30.171  28.861  23.514  1.00  0.00     0.004 C 
ATOM     20  C   UNL A   1      30.199  29.676  22.451  1.00  0.00     0.009 C 
ENDBRANCH   9  19
BRANCH  18  21
ATOM     21  C   UNL A   1      30.708  24.303  23.574  1.00  0.00     0.429 C 
ATOM     22  F   UNL A   1      30.979  24.174  24.896  1.00  0.00    -0.167 F 
ATOM     23  F   UNL A   1      29.510  24.924  23.484  1.00  0.00    -0.167 F 
ATOM     24  F   UNL A   1      30.544  23.056  23.074  1.00  0.00    -0.167 F 
ENDBRANCH  18  21
ENDBRANCH   5   8
ENDBRANCH   3   4
ENDBRANCH   2   3
ENDBRANCH   1   2
BRANCH   1  25
ATOM     25  C   UNL A   1      37.278  21.189  25.109  1.00  0.00     0.116 C 
BRANCH  25  26
ATOM     26  N   UNL A   1      38.321  20.177  25.223  1.00  0.00    -0.352 N 
ATOM     27  C   UNL A   1      39.527  20.289  25.882  1.00  0.00     0.251 C 
ATOM     28  H   UNL A   1      38.143  19.317  24.779  1.00  0.00     0.163 HD
ATOM     29  O   UNL A   1      40.349  19.380  25.841  1.00  0.00    -0.269 OA
BRANCH  27  30
ATOM     30  C   UNL A   1      39.828  21.557  26.580  1.00  0.00     0.039 A 
ATOM     31  C   UNL A   1      39.283  22.753  26.112  1.00  0.00     0.014 A 
ATOM     32  C   UNL A   1      40.765  21.557  27.615  1.00  0.00     0.014 A 
ATOM     33  C   UNL A   1      39.823  23.958  26.543  1.00  0.00     0.010 A 
ATOM     34  C   UNL A   1      41.247  22.773  28.104  1.00  0.00     0.010 A 
ATOM     35  C   UNL A   1      40.832  23.981  27.522  1.00  0.00    -0.014 A 
BRANCH  35  36
ATOM     36  C   UNL A   1      41.466  25.277  27.877  1.00  0.00     0.031 A 
ATOM     37  C   UNL A   1      42.861  25.604  27.413  1.00  0.00     0.074 A 
ATOM     38  C   UNL A   1      40.746  26.198  28.548  1.00  0.00     0.049 A 
ATOM     39  N   UNL A   1      43.543  26.710  27.570  1.00  0.00    -0.248 NA
ATOM     40  C   UNL A   1      43.589  24.557  26.678  1.00  0.00     0.031 C 
ATOM     41  C   UNL A   1      39.382  25.991  29.033  1.00  0.00     0.029 A 
ATOM     42  N   UNL A   1      41.038  27.490  28.904  1.00  0.00    -0.354 N 
ATOM     43  C   UNL A   1      44.779  26.488  26.971  1.00  0.00     0.074 A 
ATOM     44  C   UNL A   1      44.768  25.130  26.476  1.00  0.00     0.031 C 
ATOM     45  C   UNL A   1      38.931  27.135  29.565  1.00  0.00     0.029 A 
ATOM     46  C   UNL A   1      39.993  28.138  29.520  1.00  0.00     0.049 A 
ATOM     47  H   UNL A   1      41.910  27.912  28.735  1.00  0.00     0.167 HD
ATOM     48  C   UNL A   1      45.820  27.344  26.835  1.00  0.00     0.034 A 
ATOM     49  C   UNL A   1      39.894  29.397  29.993  1.00  0.00     0.034 A 
ATOM     50  C   UNL A   1      45.811  28.701  27.317  1.00  0.00     0.049 A 
ATOM     51  C   UNL A   1      41.068  30.328  29.835  1.00  0.00     0.074 A 
ATOM     52  C   UNL A   1      46.820  29.646  27.232  1.00  0.00     0.029 A 
ATOM     53  N   UNL A   1      44.745  29.314  27.958  1.00  0.00    -0.354 N 
ATOM     54  N   UNL A   1      42.222  30.105  29.249  1.00  0.00    -0.248 NA
ATOM     55  C   UNL A   1      40.932  31.679  30.395  1.00  0.00     0.031 C 
ATOM     56  C   UNL A   1      46.379  30.814  27.855  1.00  0.00     0.029 A 
ATOM     57  C   UNL A   1      45.074  30.620  28.281  1.00  0.00     0.049 A 
ATOM     58  H   UNL A   1      43.880  28.885  28.153  1.00  0.00     0.167 HD
ATOM     59  C   UNL A   1      42.942  31.290  29.358  1.00  0.00     0.074 A 
ATOM     60  C   UNL A   1      42.082  32.236  30.039  1.00  0.00     0.031 C 
ATOM     61  C   UNL A   1      44.204  31.563  28.942  1.00  0.00     0.034 A 
BRANCH  48  62
ATOM     62  C   UNL A   1      47.061  26.861  26.126  1.00  0.00     0.023 A 
ATOM     63  C   UNL A   1      48.114  26.283  26.860  1.00  0.00     0.031 A 
ATOM     64  C   UNL A   1      47.248  27.077  24.749  1.00  0.00     0.131 A 
ATOM     65  C   UNL A   1      49.319  25.968  26.217  1.00  0.00     0.055 A 
ATOM     66  C   UNL A   1      48.438  26.730  24.108  1.00  0.00     0.041 A 
ATOM     67  F   UNL A   1      46.270  27.620  24.007  1.00  0.00    -0.206 F 
ATOM     68  C   UNL A   1      49.484  26.184  24.845  1.00  0.00     0.022 A 
BRANCH  65  69
ATOM     69  S   UNL A   1      50.735  25.316  27.143  1.00  0.00     0.124 S 
ATOM     70  O   UNL A   1      50.117  24.241  27.917  1.00  0.00    -0.237 OA
ATOM     71  O   UNL A   1      51.627  24.880  26.071  1.00  0.00    -0.237 OA
ATOM     72  O   UNL A   1      51.200  26.457  27.925  1.00  0.00    -0.744 OA
ENDBRANCH  65  69
ENDBRANCH  48  62
BRANCH  49  73
ATOM     73  C   UNL A   1      38.607  29.840  30.603  1.00  0.00     0.023 A 
ATOM     74  C   UNL A   1      37.753  30.727  29.920  1.00  0.00     0.031 A 
ATOM     75  C   UNL A   1      38.277  29.488  31.922  1.00  0.00     0.131 A 
ATOM     76  C   UNL A   1      36.659  31.292  30.587  1.00  0.00     0.055 A 
ATOM     77  C   UNL A   1      37.143  29.997  32.557  1.00  0.00     0.041 A 
ATOM     78  F   UNL A   1      39.068  28.656  32.617  1.00  0.00    -0.206 F 
ATOM     79  C   UNL A   1      36.340  30.921  31.896  1.00  0.00     0.022 A 
BRANCH  76  80
ATOM     80  S   UNL A   1      35.713  32.643  29.832  1.00  0.00     0.124 S 
ATOM     81  O   UNL A   1      35.797  32.315  28.412  1.00  0.00    -0.237 OA
ATOM     82  O   UNL A   1      34.397  32.468  30.443  1.00  0.00    -0.237 OA
ATOM     83  O   UNL A   1      36.432  33.842  30.248  1.00  0.00    -0.744 OA
ENDBRANCH  76  80
ENDBRANCH  49  73
BRANCH  61  84
ATOM     84  C   UNL A   1      44.762  32.940  29.196  1.00  0.00     0.023 A 
ATOM     85  C   UNL A   1      44.711  33.919  28.185  1.00  0.00     0.031 A 
ATOM     86  C   UNL A   1      45.473  33.233  30.373  1.00  0.00     0.131 A 
ATOM     87  C   UNL A   1      45.387  35.133  28.357  1.00  0.00     0.055 A 
ATOM     88  C   UNL A   1      46.113  34.460  30.555  1.00  0.00     0.041 A 
ATOM     89  F   UNL A   1      45.560  32.327  31.359  1.00  0.00    -0.206 F 
ATOM     90  C   UNL A   1      46.083  35.410  29.539  1.00  0.00     0.022 A 
BRANCH  87  91
ATOM     91  S   UNL A   1      45.461  36.361  27.024  1.00  0.00     0.124 S 
ATOM     92  O   UNL A   1      46.484  37.280  27.518  1.00  0.00    -0.237 OA
ATOM     93  O   UNL A   1      45.856  35.548  25.876  1.00  0.00    -0.237 OA
ATOM     94  O   UNL A   1      44.110  36.906  26.971  1.00  0.00    -0.744 OA
ENDBRANCH  87  91
ENDBRANCH  61  84
ENDBRANCH  35  36
ENDBRANCH  27  30
ENDBRANCH  25  26
ENDBRANCH   1  25
TORSDOF 16
ENDMDL
MODEL 3
REMARK VINA RESULT:     -12.5      1.890      2.447
REMARK SMILES C=Cc1cc(Cl)cc2c1O[C@H](C(F)(F)F)C(C(=O)NCCCCNC(=O)c1ccc(-c3c4nc(c(-c5cc(S(=O)(=O)[O-])ccc5F)c5ccc([nH]5)c(-c5cc(S(=O)(=O)[O-])ccc5F)c5nc(c(-c6cc(S(=O)(=O)[O-])ccc6F)c6ccc3[nH]6)C=C5)C=C4)cc1)=C2
REMARK SMILES IDX 22 1 21 2 20 3 19 4 17 5 18 6 16 8 3 9 4 10 9 11 5 12 8 13
REMARK SMILES IDX 10 14 6 15 7 16 90 17 11 18 2 19 1 20 12 21 13 22 14 23
REMARK SMILES IDX 15 24 23 25 24 26 25 27 26 29 27 30 28 31 89 32 29 33 88 34
REMARK SMILES IDX 30 35 31 36 32 37 82 38 33 39 87 40 81 41 83 42 34 43 86 44
REMARK SMILES IDX 80 45 79 46 35 48 67 49 47 50 66 51 48 52 51 53 65 54 84 55
REMARK SMILES IDX 49 56 50 57 64 59 85 60 52 61 36 62 37 63 45 64 38 65 44 66
REMARK SMILES IDX 46 67 43 68 39 69 40 70 41 71 42 72 68 73 69 74 77 75 70 76
REMARK SMILES IDX 76 77 78 78 75 79 71 80 72 81 73 82 74 83 53 84 54 85 62 86
REMARK SMILES IDX 55 87 61 88 63 89 60 90 56 91 57 92 58 93 59 94
REMARK H PARENT 19 7 24 28 83 47 51 58
REMARK Flexibility Score: inf
ROOT
ATOM      1  C   UNL A   1      31.755  29.725  25.320  1.00  0.00     0.023 C 
ENDROOT
BRANCH   1   2
ATOM      2  C   UNL A   1      32.662  29.002  24.319  1.00  0.00     0.023 C 
BRANCH   2   3
ATOM      3  C   UNL A   1      32.789  27.499  24.554  1.00  0.00     0.116 C 
BRANCH   3   4
ATOM      4  N   UNL A   1      31.821  27.010  25.522  1.00  0.00    -0.352 N 
ATOM      5  C   UNL A   1      31.454  25.812  26.033  1.00  0.00     0.251 C 
ATOM      6  O   UNL A   1      30.550  25.849  26.874  1.00  0.00    -0.270 OA
ATOM      7  H   UNL A   1      31.292  27.745  25.907  1.00  0.00     0.163 HD
BRANCH   5   8
ATOM      8  C   UNL A   1      32.049  24.493  25.660  1.00  0.00     0.067 C 
ATOM      9  C   UNL A   1      33.847  20.751  24.921  1.00  0.00     0.018 A 
ATOM     10  C   UNL A   1      35.241  20.643  25.001  1.00  0.00     0.032 A 
ATOM     11  C   UNL A   1      33.246  21.988  25.208  1.00  0.00     0.135 A 
ATOM     12  C   UNL A   1      36.008  21.742  25.388  1.00  0.00     0.042 A 
ATOM     13  C   UNL A   1      34.016  23.087  25.606  1.00  0.00     0.019 A 
ATOM     14  O   UNL A   1      31.879  22.065  25.147  1.00  0.00    -0.475 OA
ATOM     15  Cl  UNL A   1      37.721  21.590  25.488  1.00  0.00    -0.084 Cl
ATOM     16  C   UNL A   1      35.404  22.960  25.696  1.00  0.00     0.032 A 
ATOM     17  C   UNL A   1      33.353  24.337  25.959  1.00  0.00     0.025 C 
ATOM     18  C   UNL A   1      31.309  23.390  24.961  1.00  0.00     0.314 C 
BRANCH   9  19
ATOM     19  C   UNL A   1      33.030  19.608  24.485  1.00  0.00     0.004 C 
ATOM     20  C   UNL A   1      32.682  18.592  25.285  1.00  0.00     0.009 C 
ENDBRANCH   9  19
BRANCH  18  21
ATOM     21  C   UNL A   1      31.127  23.657  23.455  1.00  0.00     0.429 C 
ATOM     22  F   UNL A   1      31.238  22.502  22.753  1.00  0.00    -0.167 F 
ATOM     23  F   UNL A   1      29.913  24.174  23.159  1.00  0.00    -0.167 F 
ATOM     24  F   UNL A   1      32.052  24.515  22.964  1.00  0.00    -0.167 F 
ENDBRANCH  18  21
ENDBRANCH   5   8
ENDBRANCH   3   4
ENDBRANCH   2   3
ENDBRANCH   1   2
BRANCH   1  25
ATOM     25  C   UNL A   1      32.432  30.186  26.609  1.00  0.00     0.116 C 
BRANCH  25  26
ATOM     26  N   UNL A   1      32.228  31.593  26.931  1.00  0.00    -0.352 N 
ATOM     27  C   UNL A   1      33.141  32.467  27.481  1.00  0.00     0.251 C 
ATOM     28  H   UNL A   1      31.336  31.960  26.733  1.00  0.00     0.163 HD
ATOM     29  O   UNL A   1      32.816  33.613  27.768  1.00  0.00    -0.269 OA
BRANCH  27  30
ATOM     30  C   UNL A   1      34.500  31.964  27.776  1.00  0.00     0.039 A 
ATOM     31  C   UNL A   1      34.702  30.603  28.003  1.00  0.00     0.014 A 
ATOM     32  C   UNL A   1      35.538  32.880  27.961  1.00  0.00     0.014 A 
ATOM     33  C   UNL A   1      35.882  30.184  28.604  1.00  0.00     0.010 A 
ATOM     34  C   UNL A   1      36.754  32.441  28.489  1.00  0.00     0.010 A 
ATOM     35  C   UNL A   1      36.910  31.103  28.882  1.00  0.00    -0.014 A 
BRANCH  35  36
ATOM     36  C   UNL A   1      38.111  30.641  29.627  1.00  0.00     0.031 A 
ATOM     37  C   UNL A   1      38.323  31.040  31.064  1.00  0.00     0.074 A 
ATOM     38  C   UNL A   1      38.967  29.790  29.030  1.00  0.00     0.049 A 
ATOM     39  N   UNL A   1      39.274  30.675  31.887  1.00  0.00    -0.248 NA
ATOM     40  C   UNL A   1      37.345  31.966  31.659  1.00  0.00     0.031 C 
ATOM     41  C   UNL A   1      38.848  29.329  27.646  1.00  0.00     0.029 A 
ATOM     42  N   UNL A   1      40.073  29.135  29.509  1.00  0.00    -0.354 N 
ATOM     43  C   UNL A   1      39.019  31.336  33.084  1.00  0.00     0.074 A 
ATOM     44  C   UNL A   1      37.844  32.151  32.873  1.00  0.00     0.031 C 
ATOM     45  C   UNL A   1      39.802  28.419  27.408  1.00  0.00     0.029 A 
ATOM     46  C   UNL A   1      40.640  28.277  28.597  1.00  0.00     0.049 A 
ATOM     47  H   UNL A   1      40.426  29.267  30.418  1.00  0.00     0.167 HD
ATOM     48  C   UNL A   1      39.696  31.258  34.255  1.00  0.00     0.034 A 
ATOM     49  C   UNL A   1      41.711  27.464  28.700  1.00  0.00     0.034 A 
ATOM     50  C   UNL A   1      40.856  30.428  34.458  1.00  0.00     0.049 A 
ATOM     51  C   UNL A   1      42.451  27.400  30.011  1.00  0.00     0.074 A 
ATOM     52  C   UNL A   1      41.615  30.284  35.606  1.00  0.00     0.029 A 
ATOM     53  N   UNL A   1      41.417  29.592  33.503  1.00  0.00    -0.354 N 
ATOM     54  N   UNL A   1      42.184  28.019  31.138  1.00  0.00    -0.248 NA
ATOM     55  C   UNL A   1      43.632  26.528  30.072  1.00  0.00     0.031 C 
ATOM     56  C   UNL A   1      42.656  29.394  35.335  1.00  0.00     0.029 A 
ATOM     57  C   UNL A   1      42.515  28.937  34.034  1.00  0.00     0.049 A 
ATOM     58  H   UNL A   1      41.082  29.479  32.584  1.00  0.00     0.167 HD
ATOM     59  C   UNL A   1      43.155  27.602  32.043  1.00  0.00     0.074 A 
ATOM     60  C   UNL A   1      43.996  26.654  31.342  1.00  0.00     0.031 C 
ATOM     61  C   UNL A   1      43.337  27.979  33.333  1.00  0.00     0.034 A 
BRANCH  48  62
ATOM     62  C   UNL A   1      39.208  32.075  35.425  1.00  0.00     0.023 A 
ATOM     63  C   UNL A   1      39.675  33.389  35.614  1.00  0.00     0.031 A 
ATOM     64  C   UNL A   1      38.374  31.515  36.410  1.00  0.00     0.131 A 
ATOM     65  C   UNL A   1      39.328  34.090  36.777  1.00  0.00     0.055 A 
ATOM     66  C   UNL A   1      38.006  32.230  37.551  1.00  0.00     0.041 A 
ATOM     67  F   UNL A   1      37.900  30.267  36.271  1.00  0.00    -0.206 F 
ATOM     68  C   UNL A   1      38.492  33.519  37.743  1.00  0.00     0.022 A 
BRANCH  65  69
ATOM     69  S   UNL A   1      39.988  35.746  37.108  1.00  0.00     0.124 S 
ATOM     70  O   UNL A   1      39.652  36.454  35.874  1.00  0.00    -0.237 OA
ATOM     71  O   UNL A   1      39.226  36.150  38.286  1.00  0.00    -0.237 OA
ATOM     72  O   UNL A   1      41.413  35.520  37.326  1.00  0.00    -0.744 OA
ENDBRANCH  65  69
ENDBRANCH  48  62
BRANCH  49  73
ATOM     73  C   UNL A   1      42.089  26.615  27.534  1.00  0.00     0.023 A 
ATOM     74  C   UNL A   1      41.736  25.253  27.489  1.00  0.00     0.031 A 
ATOM     75  C   UNL A   1      42.914  27.118  26.515  1.00  0.00     0.131 A 
ATOM     76  C   UNL A   1      42.273  24.427  26.494  1.00  0.00     0.055 A 
ATOM     77  C   UNL A   1      43.387  26.306  25.482  1.00  0.00     0.041 A 
ATOM     78  F   UNL A   1      43.287  28.408  26.523  1.00  0.00    -0.206 F 
ATOM     79  C   UNL A   1      43.084  24.948  25.481  1.00  0.00     0.022 A 
BRANCH  76  80
ATOM     80  S   UNL A   1      42.067  22.626  26.576  1.00  0.00     0.124 S 
ATOM     81  O   UNL A   1      42.525  22.208  25.255  1.00  0.00    -0.237 OA
ATOM     82  O   UNL A   1      42.944  22.273  27.690  1.00  0.00    -0.237 OA
ATOM     83  O   UNL A   1      40.641  22.455  26.835  1.00  0.00    -0.744 OA
ENDBRANCH  76  80
ENDBRANCH  49  73
BRANCH  61  84
ATOM     84  C   UNL A   1      44.487  27.379  34.103  1.00  0.00     0.023 A 
ATOM     85  C   UNL A   1      44.318  26.160  34.785  1.00  0.00     0.031 A 
ATOM     86  C   UNL A   1      45.690  28.084  34.282  1.00  0.00     0.131 A 
ATOM     87  C   UNL A   1      45.324  25.697  35.642  1.00  0.00     0.055 A 
ATOM     88  C   UNL A   1      46.705  27.599  35.107  1.00  0.00     0.041 A 
ATOM     89  F   UNL A   1      45.891  29.257  33.662  1.00  0.00    -0.206 F 
ATOM     90  C   UNL A   1      46.518  26.408  35.803  1.00  0.00     0.022 A 
BRANCH  87  91
ATOM     91  S   UNL A   1      45.087  24.203  36.644  1.00  0.00     0.124 S 
ATOM     92  O   UNL A   1      46.450  23.684  36.737  1.00  0.00    -0.237 OA
ATOM     93  O   UNL A   1      44.542  24.748  37.886  1.00  0.00    -0.237 OA
ATOM     94  O   UNL A   1      44.165  23.392  35.857  1.00  0.00    -0.744 OA
ENDBRANCH  87  91
ENDBRANCH  61  84
ENDBRANCH  35  36
ENDBRANCH  27  30
ENDBRANCH  25  26
ENDBRANCH   1  25
TORSDOF 16
ENDMDL
