MODEL 1
REMARK VINA RESULT:     -12.5      0.000      0.000
REMARK SMILES CC(C)[N@@H+](C)Cc1cc2c(cc1Cl)C=C(C(=O)NCCCCNC(=O)c1ccc(-c3c4nc(c(-c5cc(S(=O)(=O)[O-])ccc5F)c5ccc([nH]5)c(-c5cc(S(=O)(=O)[O-])ccc5F)c5nc(c(-c6cc(S(=O)(=O)[O-])ccc6F)c6ccc3[nH]6)C=C5)C=C4)cc1)[C@@H](C(F)(F)F)O2
REMARK SMILES IDX 20 1 19 2 18 3 16 4 17 5 15 7 7 8 8 9 12 10 9 11 11 12 13 13
REMARK SMILES IDX 10 14 94 15 14 16 89 17 6 18 4 19 5 20 2 22 1 23 3 24 90 25
REMARK SMILES IDX 91 26 92 27 93 28 21 29 22 30 23 31 24 32 25 34 26 35 27 36
REMARK SMILES IDX 88 37 28 38 87 39 29 40 30 41 31 42 81 43 32 44 86 45 80 46
REMARK SMILES IDX 82 47 33 48 85 49 79 50 78 51 34 53 66 54 46 55 65 56 47 57
REMARK SMILES IDX 50 58 64 59 83 60 48 61 49 62 63 64 84 65 51 66 35 67 36 68
REMARK SMILES IDX 44 69 37 70 43 71 45 72 42 73 38 74 39 75 40 76 41 77 67 78
REMARK SMILES IDX 68 79 76 80 69 81 75 82 77 83 74 84 70 85 71 86 72 87 73 88
REMARK SMILES IDX 52 89 53 90 61 91 54 92 60 93 62 94 59 95 55 96 56 97 57 98
REMARK SMILES IDX 58 99
REMARK H PARENT 18 6 4 21 23 33 82 52 50 63
REMARK Flexibility Score: inf
ROOT
ATOM      1  C   UNL A   1      33.161  29.061  25.044  1.00  0.00     0.023 C 
ENDROOT
BRANCH   1   2
ATOM      2  C   UNL A   1      32.705  28.350  23.773  1.00  0.00     0.116 C 
BRANCH   2   3
ATOM      3  N   UNL A   1      31.303  27.973  23.830  1.00  0.00    -0.352 N 
ATOM      4  C   UNL A   1      30.597  26.819  23.846  1.00  0.00     0.251 C 
ATOM      5  O   UNL A   1      29.369  26.945  23.883  1.00  0.00    -0.270 OA
ATOM      6  H   UNL A   1      30.715  28.761  23.866  1.00  0.00     0.163 HD
BRANCH   4   7
ATOM      7  C   UNL A   1      31.191  25.449  23.831  1.00  0.00     0.067 C 
ATOM      8  C   UNL A   1      33.634  21.213  25.068  1.00  0.00     0.029 A 
ATOM      9  C   UNL A   1      32.902  21.641  23.948  1.00  0.00     0.058 A 
ATOM     10  C   UNL A   1      33.549  21.988  26.237  1.00  0.00     0.050 A 
ATOM     11  C   UNL A   1      32.240  22.866  23.950  1.00  0.00     0.128 A 
ATOM     12  C   UNL A   1      32.859  23.210  26.242  1.00  0.00     0.033 A 
ATOM     13  Cl  UNL A   1      34.231  21.478  27.741  1.00  0.00    -0.084 Cl
ATOM     14  C   UNL A   1      32.230  23.668  25.084  1.00  0.00     0.019 A 
ATOM     15  O   UNL A   1      31.607  23.220  22.793  1.00  0.00    -0.475 OA
ATOM     16  C   UNL A   1      31.555  24.959  25.032  1.00  0.00     0.025 C 
ATOM     17  C   UNL A   1      31.454  24.653  22.581  1.00  0.00     0.314 C 
BRANCH   8  18
ATOM     18  C   UNL A   1      34.460  19.950  24.939  1.00  0.00     0.300 C 
BRANCH  18  19
ATOM     19  N   UNL A   1      33.746  18.675  24.776  1.00  0.00    -0.332 N 
ATOM     20  C   UNL A   1      32.789  18.388  25.837  1.00  0.00     0.333 C 
ATOM     21  H   UNL A   1      33.234  18.911  23.926  1.00  0.00     0.348 HD
BRANCH  19  22
ATOM     22  C   UNL A   1      34.455  17.477  24.298  1.00  0.00     0.177 C 
ATOM     23  C   UNL A   1      34.460  16.339  25.324  1.00  0.00     0.075 C 
ATOM     24  C   UNL A   1      34.067  16.949  22.911  1.00  0.00     0.075 C 
ENDBRANCH  19  22
ENDBRANCH  18  19
ENDBRANCH   8  18
BRANCH  17  25
ATOM     25  C   UNL A   1      32.661  25.175  21.778  1.00  0.00     0.429 C 
ATOM     26  F   UNL A   1      33.065  24.245  20.876  1.00  0.00    -0.167 F 
ATOM     27  F   UNL A   1      32.376  26.295  21.074  1.00  0.00    -0.167 F 
ATOM     28  F   UNL A   1      33.725  25.462  22.562  1.00  0.00    -0.167 F 
ENDBRANCH  17  25
ENDBRANCH   4   7
ENDBRANCH   2   3
ENDBRANCH   1   2
BRANCH   1  29
ATOM     29  C   UNL A   1      32.138  30.045  25.614  1.00  0.00     0.023 C 
BRANCH  29  30
ATOM     30  C   UNL A   1      32.403  30.516  27.042  1.00  0.00     0.116 C 
BRANCH  30  31
ATOM     31  N   UNL A   1      32.337  31.962  27.219  1.00  0.00    -0.352 N 
ATOM     32  C   UNL A   1      33.337  32.805  27.652  1.00  0.00     0.251 C 
ATOM     33  H   UNL A   1      31.475  32.386  27.005  1.00  0.00     0.163 HD
ATOM     34  O   UNL A   1      33.115  34.001  27.819  1.00  0.00    -0.269 OA
BRANCH  32  35
ATOM     35  C   UNL A   1      34.659  32.227  27.966  1.00  0.00     0.039 A 
ATOM     36  C   UNL A   1      34.760  30.890  28.355  1.00  0.00     0.014 A 
ATOM     37  C   UNL A   1      35.779  33.060  27.985  1.00  0.00     0.014 A 
ATOM     38  C   UNL A   1      35.935  30.440  28.940  1.00  0.00     0.010 A 
ATOM     39  C   UNL A   1      36.985  32.578  28.497  1.00  0.00     0.010 A 
ATOM     40  C   UNL A   1      37.055  31.285  29.038  1.00  0.00    -0.014 A 
BRANCH  40  41
ATOM     41  C   UNL A   1      38.274  30.788  29.726  1.00  0.00     0.031 A 
ATOM     42  C   UNL A   1      38.570  31.171  31.151  1.00  0.00     0.074 A 
ATOM     43  C   UNL A   1      39.076  29.919  29.079  1.00  0.00     0.049 A 
ATOM     44  N   UNL A   1      39.542  30.764  31.926  1.00  0.00    -0.248 NA
ATOM     45  C   UNL A   1      37.661  32.136  31.792  1.00  0.00     0.031 C 
ATOM     46  C   UNL A   1      38.879  29.479  27.698  1.00  0.00     0.029 A 
ATOM     47  N   UNL A   1      40.184  29.227  29.498  1.00  0.00    -0.354 N 
ATOM     48  C   UNL A   1      39.373  31.429  33.136  1.00  0.00     0.074 A 
ATOM     49  C   UNL A   1      38.225  32.295  32.981  1.00  0.00     0.031 C 
ATOM     50  C   UNL A   1      39.790  28.541  27.405  1.00  0.00     0.029 A 
ATOM     51  C   UNL A   1      40.679  28.361  28.551  1.00  0.00     0.049 A 
ATOM     52  H   UNL A   1      40.586  29.340  30.389  1.00  0.00     0.167 HD
ATOM     53  C   UNL A   1      40.101  31.314  34.273  1.00  0.00     0.034 A 
ATOM     54  C   UNL A   1      41.730  27.516  28.593  1.00  0.00     0.034 A 
ATOM     55  C   UNL A   1      41.230  30.430  34.418  1.00  0.00     0.049 A 
ATOM     56  C   UNL A   1      42.534  27.423  29.862  1.00  0.00     0.074 A 
ATOM     57  C   UNL A   1      42.013  30.223  35.539  1.00  0.00     0.029 A 
ATOM     58  N   UNL A   1      41.733  29.605  33.422  1.00  0.00    -0.354 N 
ATOM     59  N   UNL A   1      42.334  28.030  31.009  1.00  0.00    -0.248 NA
ATOM     60  C   UNL A   1      43.704  26.536  29.849  1.00  0.00     0.031 C 
ATOM     61  C   UNL A   1      43.019  29.313  35.208  1.00  0.00     0.029 A 
ATOM     62  C   UNL A   1      42.830  28.906  33.896  1.00  0.00     0.049 A 
ATOM     63  H   UNL A   1      41.363  29.528  32.513  1.00  0.00     0.167 HD
ATOM     64  C   UNL A   1      43.351  27.596  31.853  1.00  0.00     0.074 A 
ATOM     65  C   UNL A   1      44.142  26.647  31.096  1.00  0.00     0.031 C 
ATOM     66  C   UNL A   1      43.612  27.961  33.133  1.00  0.00     0.034 A 
BRANCH  53  67
ATOM     67  C   UNL A   1      39.706  32.145  35.469  1.00  0.00     0.023 A 
ATOM     68  C   UNL A   1      38.871  31.601  36.463  1.00  0.00     0.031 A 
ATOM     69  C   UNL A   1      40.055  33.505  35.562  1.00  0.00     0.131 A 
ATOM     70  C   UNL A   1      38.391  32.420  37.493  1.00  0.00     0.055 A 
ATOM     71  C   UNL A   1      39.600  34.307  36.609  1.00  0.00     0.041 A 
ATOM     72  F   UNL A   1      40.852  34.069  34.640  1.00  0.00    -0.206 F 
ATOM     73  C   UNL A   1      38.755  33.768  37.574  1.00  0.00     0.022 A 
BRANCH  70  74
ATOM     74  S   UNL A   1      37.233  31.786  38.736  1.00  0.00     0.124 S 
ATOM     75  O   UNL A   1      37.008  30.420  38.265  1.00  0.00    -0.237 OA
ATOM     76  O   UNL A   1      38.011  31.900  39.966  1.00  0.00    -0.237 OA
ATOM     77  O   UNL A   1      36.082  32.675  38.631  1.00  0.00    -0.744 OA
ENDBRANCH  70  74
ENDBRANCH  53  67
BRANCH  54  78
ATOM     78  C   UNL A   1      42.024  26.671  27.401  1.00  0.00     0.023 A 
ATOM     79  C   UNL A   1      41.617  25.326  27.352  1.00  0.00     0.031 A 
ATOM     80  C   UNL A   1      42.829  27.157  26.357  1.00  0.00     0.131 A 
ATOM     81  C   UNL A   1      42.086  24.492  26.329  1.00  0.00     0.055 A 
ATOM     82  C   UNL A   1      43.232  26.341  25.298  1.00  0.00     0.041 A 
ATOM     83  F   UNL A   1      43.253  28.429  26.367  1.00  0.00    -0.206 F 
ATOM     84  C   UNL A   1      42.877  24.995  25.292  1.00  0.00     0.022 A 
BRANCH  81  85
ATOM     85  S   UNL A   1      41.814  22.699  26.398  1.00  0.00     0.124 S 
ATOM     86  O   UNL A   1      42.497  22.335  27.635  1.00  0.00    -0.237 OA
ATOM     87  O   UNL A   1      40.355  22.619  26.435  1.00  0.00    -0.237 OA
ATOM     88  O   UNL A   1      42.427  22.210  25.168  1.00  0.00    -0.744 OA
ENDBRANCH  81  85
ENDBRANCH  54  78
BRANCH  66  89
ATOM     89  C   UNL A   1      44.814  27.359  33.818  1.00  0.00     0.023 A 
ATOM     90  C   UNL A   1      44.670  26.216  34.626  1.00  0.00     0.031 A 
ATOM     91  C   UNL A   1      46.064  28.000  33.785  1.00  0.00     0.131 A 
ATOM     92  C   UNL A   1      45.750  25.770  35.399  1.00  0.00     0.055 A 
ATOM     93  C   UNL A   1      47.149  27.527  34.524  1.00  0.00     0.041 A 
ATOM     94  F   UNL A   1      46.245  29.100  33.036  1.00  0.00    -0.206 F 
ATOM     95  C   UNL A   1      46.991  26.416  35.345  1.00  0.00     0.022 A 
BRANCH  92  96
ATOM     96  S   UNL A   1      45.566  24.389  36.560  1.00  0.00     0.124 S 
ATOM     97  O   UNL A   1      46.579  24.701  37.564  1.00  0.00    -0.237 OA
ATOM     98  O   UNL A   1      44.182  24.541  37.002  1.00  0.00    -0.237 OA
ATOM     99  O   UNL A   1      45.838  23.207  35.748  1.00  0.00    -0.744 OA
ENDBRANCH  92  96
ENDBRANCH  66  89
ENDBRANCH  40  41
ENDBRANCH  32  35
ENDBRANCH  30  31
ENDBRANCH  29  30
ENDBRANCH   1  29
TORSDOF 18
ENDMDL
MODEL 2
REMARK VINA RESULT:     -12.4      1.977      2.393
REMARK SMILES CC(C)[N@@H+](C)Cc1cc2c(cc1Cl)C=C(C(=O)NCCCCNC(=O)c1ccc(-c3c4nc(c(-c5cc(S(=O)(=O)[O-])ccc5F)c5ccc([nH]5)c(-c5cc(S(=O)(=O)[O-])ccc5F)c5nc(c(-c6cc(S(=O)(=O)[O-])ccc6F)c6ccc3[nH]6)C=C5)C=C4)cc1)[C@@H](C(F)(F)F)O2
REMARK SMILES IDX 20 1 19 2 18 3 16 4 17 5 15 7 7 8 8 9 12 10 9 11 11 12 13 13
REMARK SMILES IDX 10 14 94 15 14 16 89 17 6 18 4 19 5 20 2 22 1 23 3 24 90 25
REMARK SMILES IDX 91 26 92 27 93 28 21 29 22 30 23 31 24 32 25 34 26 35 27 36
REMARK SMILES IDX 88 37 28 38 87 39 29 40 30 41 31 42 81 43 32 44 86 45 80 46
REMARK SMILES IDX 82 47 33 48 85 49 79 50 78 51 34 53 66 54 46 55 65 56 47 57
REMARK SMILES IDX 50 58 64 59 83 60 48 61 49 62 63 64 84 65 51 66 35 67 36 68
REMARK SMILES IDX 44 69 37 70 43 71 45 72 42 73 38 74 39 75 40 76 41 77 67 78
REMARK SMILES IDX 68 79 76 80 69 81 75 82 77 83 74 84 70 85 71 86 72 87 73 88
REMARK SMILES IDX 52 89 53 90 61 91 54 92 60 93 62 94 59 95 55 96 56 97 57 98
REMARK SMILES IDX 58 99
REMARK H PARENT 18 6 4 21 23 33 82 52 50 63
REMARK Flexibility Score: inf
ROOT
ATOM      1  C   UNL A   1      31.635  30.188  26.507  1.00  0.00     0.023 C 
ENDROOT
BRANCH   1   2
ATOM      2  C   UNL A   1      33.056  29.950  26.006  1.00  0.00     0.116 C 
BRANCH   2   3
ATOM      3  N   UNL A   1      33.096  29.686  24.578  1.00  0.00    -0.352 N 
ATOM      4  C   UNL A   1      33.059  28.594  23.780  1.00  0.00     0.251 C 
ATOM      5  O   UNL A   1      33.139  28.816  22.568  1.00  0.00    -0.270 OA
ATOM      6  H   UNL A   1      33.170  30.517  24.055  1.00  0.00     0.163 HD
BRANCH   4   7
ATOM      7  C   UNL A   1      32.921  27.186  24.258  1.00  0.00     0.067 C 
ATOM      8  C   UNL A   1      33.698  22.293  25.207  1.00  0.00     0.029 A 
ATOM      9  C   UNL A   1      32.689  23.216  25.531  1.00  0.00     0.058 A 
ATOM     10  C   UNL A   1      34.899  22.799  24.679  1.00  0.00     0.050 A 
ATOM     11  C   UNL A   1      32.816  24.562  25.202  1.00  0.00     0.128 A 
ATOM     12  C   UNL A   1      35.031  24.162  24.372  1.00  0.00     0.033 A 
ATOM     13  Cl  UNL A   1      36.291  21.808  24.424  1.00  0.00    -0.084 Cl
ATOM     14  C   UNL A   1      33.974  25.042  24.603  1.00  0.00     0.019 A 
ATOM     15  O   UNL A   1      31.756  25.368  25.504  1.00  0.00    -0.475 OA
ATOM     16  C   UNL A   1      34.052  26.452  24.242  1.00  0.00     0.025 C 
ATOM     17  C   UNL A   1      31.619  26.555  24.672  1.00  0.00     0.314 C 
BRANCH   8  18
ATOM     18  C   UNL A   1      33.424  20.824  25.448  1.00  0.00     0.300 C 
BRANCH  18  19
ATOM     19  N   UNL A   1      33.316  19.943  24.275  1.00  0.00    -0.332 N 
ATOM     20  C   UNL A   1      32.245  20.304  23.356  1.00  0.00     0.333 C 
ATOM     21  H   UNL A   1      34.211  20.175  23.846  1.00  0.00     0.348 HD
BRANCH  19  22
ATOM     22  C   UNL A   1      33.491  18.488  24.415  1.00  0.00     0.177 C 
ATOM     23  C   UNL A   1      34.962  18.074  24.528  1.00  0.00     0.075 C 
ATOM     24  C   UNL A   1      32.651  17.788  25.491  1.00  0.00     0.075 C 
ENDBRANCH  19  22
ENDBRANCH  18  19
ENDBRANCH   8  18
BRANCH  17  25
ATOM     25  C   UNL A   1      30.701  26.230  23.478  1.00  0.00     0.429 C 
ATOM     26  F   UNL A   1      29.590  25.577  23.902  1.00  0.00    -0.167 F 
ATOM     27  F   UNL A   1      30.273  27.338  22.830  1.00  0.00    -0.167 F 
ATOM     28  F   UNL A   1      31.302  25.443  22.557  1.00  0.00    -0.167 F 
ENDBRANCH  17  25
ENDBRANCH   4   7
ENDBRANCH   2   3
ENDBRANCH   1   2
BRANCH   1  29
ATOM     29  C   UNL A   1      31.215  31.660  26.526  1.00  0.00     0.023 C 
BRANCH  29  30
ATOM     30  C   UNL A   1      32.359  32.670  26.506  1.00  0.00     0.116 C 
BRANCH  30  31
ATOM     31  N   UNL A   1      32.145  33.836  27.355  1.00  0.00    -0.352 N 
ATOM     32  C   UNL A   1      32.950  34.296  28.374  1.00  0.00     0.251 C 
ATOM     33  H   UNL A   1      31.328  34.355  27.180  1.00  0.00     0.163 HD
ATOM     34  O   UNL A   1      32.606  35.260  29.053  1.00  0.00    -0.269 OA
BRANCH  32  35
ATOM     35  C   UNL A   1      34.202  33.570  28.665  1.00  0.00     0.039 A 
ATOM     36  C   UNL A   1      34.151  32.272  29.177  1.00  0.00     0.014 A 
ATOM     37  C   UNL A   1      35.422  34.237  28.537  1.00  0.00     0.014 A 
ATOM     38  C   UNL A   1      35.295  31.717  29.734  1.00  0.00     0.010 A 
ATOM     39  C   UNL A   1      36.586  33.639  29.023  1.00  0.00     0.010 A 
ATOM     40  C   UNL A   1      36.521  32.402  29.683  1.00  0.00    -0.014 A 
BRANCH  40  41
ATOM     41  C   UNL A   1      37.709  31.804  30.344  1.00  0.00     0.031 A 
ATOM     42  C   UNL A   1      38.041  32.122  31.778  1.00  0.00     0.074 A 
ATOM     43  C   UNL A   1      38.445  30.903  29.665  1.00  0.00     0.049 A 
ATOM     44  N   UNL A   1      38.989  31.627  32.531  1.00  0.00    -0.248 NA
ATOM     45  C   UNL A   1      37.204  33.127  32.455  1.00  0.00     0.031 C 
ATOM     46  C   UNL A   1      38.210  30.520  28.273  1.00  0.00     0.029 A 
ATOM     47  N   UNL A   1      39.507  30.126  30.052  1.00  0.00    -0.354 N 
ATOM     48  C   UNL A   1      38.874  32.266  33.762  1.00  0.00     0.074 A 
ATOM     49  C   UNL A   1      37.786  33.210  33.644  1.00  0.00     0.031 C 
ATOM     50  C   UNL A   1      39.053  29.531  27.944  1.00  0.00     0.029 A 
ATOM     51  C   UNL A   1      39.936  29.258  29.075  1.00  0.00     0.049 A 
ATOM     52  H   UNL A   1      39.923  30.184  30.942  1.00  0.00     0.167 HD
ATOM     53  C   UNL A   1      39.600  32.067  34.888  1.00  0.00     0.034 A 
ATOM     54  C   UNL A   1      40.928  28.343  29.082  1.00  0.00     0.034 A 
ATOM     55  C   UNL A   1      40.668  31.105  34.996  1.00  0.00     0.049 A 
ATOM     56  C   UNL A   1      41.732  28.157  30.340  1.00  0.00     0.074 A 
ATOM     57  C   UNL A   1      41.444  30.811  36.103  1.00  0.00     0.029 A 
ATOM     58  N   UNL A   1      41.107  30.279  33.971  1.00  0.00    -0.354 N 
ATOM     59  N   UNL A   1      41.583  28.741  31.506  1.00  0.00    -0.248 NA
ATOM     60  C   UNL A   1      42.840  27.195  30.289  1.00  0.00     0.031 C 
ATOM     61  C   UNL A   1      42.383  29.846  35.735  1.00  0.00     0.029 A 
ATOM     62  C   UNL A   1      42.158  29.493  34.414  1.00  0.00     0.049 A 
ATOM     63  H   UNL A   1      40.726  30.254  33.063  1.00  0.00     0.167 HD
ATOM     64  C   UNL A   1      42.574  28.214  32.328  1.00  0.00     0.074 A 
ATOM     65  C   UNL A   1      43.293  27.238  31.535  1.00  0.00     0.031 C 
ATOM     66  C   UNL A   1      42.868  28.522  33.616  1.00  0.00     0.034 A 
BRANCH  53  67
ATOM     67  C   UNL A   1      39.272  32.886  36.112  1.00  0.00     0.023 A 
ATOM     68  C   UNL A   1      39.870  34.146  36.300  1.00  0.00     0.031 A 
ATOM     69  C   UNL A   1      38.467  32.370  37.143  1.00  0.00     0.131 A 
ATOM     70  C   UNL A   1      39.676  34.837  37.504  1.00  0.00     0.055 A 
ATOM     71  C   UNL A   1      38.250  33.077  38.327  1.00  0.00     0.041 A 
ATOM     72  F   UNL A   1      37.872  31.174  37.010  1.00  0.00    -0.206 F 
ATOM     73  C   UNL A   1      38.865  34.311  38.515  1.00  0.00     0.022 A 
BRANCH  70  74
ATOM     74  S   UNL A   1      40.509  36.415  37.828  1.00  0.00     0.124 S 
ATOM     75  O   UNL A   1      40.950  36.799  36.488  1.00  0.00    -0.237 OA
ATOM     76  O   UNL A   1      39.428  37.223  38.384  1.00  0.00    -0.237 OA
ATOM     77  O   UNL A   1      41.577  36.064  38.756  1.00  0.00    -0.744 OA
ENDBRANCH  70  74
ENDBRANCH  53  67
BRANCH  54  78
ATOM     78  C   UNL A   1      41.156  27.517  27.862  1.00  0.00     0.023 A 
ATOM     79  C   UNL A   1      40.795  26.158  27.834  1.00  0.00     0.031 A 
ATOM     80  C   UNL A   1      41.855  28.039  26.762  1.00  0.00     0.131 A 
ATOM     81  C   UNL A   1      41.210  25.348  26.769  1.00  0.00     0.055 A 
ATOM     82  C   UNL A   1      42.201  27.245  25.666  1.00  0.00     0.041 A 
ATOM     83  F   UNL A   1      42.231  29.326  26.748  1.00  0.00    -0.206 F 
ATOM     84  C   UNL A   1      41.896  25.886  25.677  1.00  0.00     0.022 A 
BRANCH  81  85
ATOM     85  S   UNL A   1      41.011  23.546  26.844  1.00  0.00     0.124 S 
ATOM     86  O   UNL A   1      41.381  23.256  28.225  1.00  0.00    -0.237 OA
ATOM     87  O   UNL A   1      39.594  23.388  26.523  1.00  0.00    -0.237 OA
ATOM     88  O   UNL A   1      41.932  23.055  25.824  1.00  0.00    -0.744 OA
ENDBRANCH  81  85
ENDBRANCH  54  78
BRANCH  66  89
ATOM     89  C   UNL A   1      44.032  27.819  34.271  1.00  0.00     0.023 A 
ATOM     90  C   UNL A   1      43.817  26.668  35.051  1.00  0.00     0.031 A 
ATOM     91  C   UNL A   1      45.324  28.372  34.239  1.00  0.00     0.131 A 
ATOM     92  C   UNL A   1      44.871  26.128  35.799  1.00  0.00     0.055 A 
ATOM     93  C   UNL A   1      46.381  27.806  34.953  1.00  0.00     0.041 A 
ATOM     94  F   UNL A   1      45.574  29.476  33.516  1.00  0.00    -0.206 F 
ATOM     95  C   UNL A   1      46.153  26.687  35.748  1.00  0.00     0.022 A 
BRANCH  92  96
ATOM     96  S   UNL A   1      44.602  24.733  36.927  1.00  0.00     0.124 S 
ATOM     97  O   UNL A   1      43.243  24.985  37.399  1.00  0.00    -0.237 OA
ATOM     98  O   UNL A   1      44.750  23.585  36.038  1.00  0.00    -0.237 OA
ATOM     99  O   UNL A   1      45.648  24.886  37.933  1.00  0.00    -0.744 OA
ENDBRANCH  92  96
ENDBRANCH  66  89
ENDBRANCH  40  41
ENDBRANCH  32  35
ENDBRANCH  30  31
ENDBRANCH  29  30
ENDBRANCH   1  29
TORSDOF 18
ENDMDL
MODEL 3
REMARK VINA RESULT:     -12.3      2.068      2.845
REMARK SMILES CC(C)[N@@H+](C)Cc1cc2c(cc1Cl)C=C(C(=O)NCCCCNC(=O)c1ccc(-c3c4nc(c(-c5cc(S(=O)(=O)[O-])ccc5F)c5ccc([nH]5)c(-c5cc(S(=O)(=O)[O-])ccc5F)c5nc(c(-c6cc(S(=O)(=O)[O-])ccc6F)c6ccc3[nH]6)C=C5)C=C4)cc1)[C@@H](C(F)(F)F)O2
REMARK SMILES IDX 20 1 19 2 18 3 16 4 17 5 15 7 7 8 8 9 12 10 9 11 11 12 13 13
REMARK SMILES IDX 10 14 94 15 14 16 89 17 6 18 4 19 5 20 2 22 1 23 3 24 90 25
REMARK SMILES IDX 91 26 92 27 93 28 21 29 22 30 23 31 24 32 25 34 26 35 27 36
REMARK SMILES IDX 88 37 28 38 87 39 29 40 30 41 31 42 81 43 32 44 86 45 80 46
REMARK SMILES IDX 82 47 33 48 85 49 79 50 78 51 34 53 66 54 46 55 65 56 47 57
REMARK SMILES IDX 50 58 64 59 83 60 48 61 49 62 63 64 84 65 51 66 35 67 36 68
REMARK SMILES IDX 44 69 37 70 43 71 45 72 42 73 38 74 39 75 40 76 41 77 67 78
REMARK SMILES IDX 68 79 76 80 69 81 75 82 77 83 74 84 70 85 71 86 72 87 73 88
REMARK SMILES IDX 52 89 53 90 61 91 54 92 60 93 62 94 59 95 55 96 56 97 57 98
REMARK SMILES IDX 58 99
REMARK H PARENT 18 6 4 21 23 33 82 52 50 63
REMARK Flexibility Score: inf
ROOT
ATOM      1  C   UNL A   1      32.220  30.756  27.177  1.00  0.00     0.023 C 
ENDROOT
BRANCH   1   2
ATOM      2  C   UNL A   1      32.428  30.093  25.819  1.00  0.00     0.116 C 
BRANCH   2   3
ATOM      3  N   UNL A   1      31.269  30.238  24.955  1.00  0.00    -0.352 N 
ATOM      4  C   UNL A   1      30.618  29.472  24.049  1.00  0.00     0.251 C 
ATOM      5  O   UNL A   1      29.646  30.003  23.503  1.00  0.00    -0.270 OA
ATOM      6  H   UNL A   1      30.848  31.123  25.055  1.00  0.00     0.163 HD
BRANCH   4   7
ATOM      7  C   UNL A   1      30.984  28.070  23.688  1.00  0.00     0.067 C 
ATOM      8  C   UNL A   1      31.801  23.094  23.802  1.00  0.00     0.029 A 
ATOM      9  C   UNL A   1      31.951  24.100  22.832  1.00  0.00     0.058 A 
ATOM     10  C   UNL A   1      31.075  23.413  24.963  1.00  0.00     0.050 A 
ATOM     11  C   UNL A   1      31.529  25.403  23.078  1.00  0.00     0.128 A 
ATOM     12  C   UNL A   1      30.629  24.723  25.195  1.00  0.00     0.033 A 
ATOM     13  Cl  UNL A   1      30.643  22.225  26.141  1.00  0.00    -0.084 Cl
ATOM     14  C   UNL A   1      30.885  25.730  24.265  1.00  0.00     0.019 A 
ATOM     15  O   UNL A   1      31.773  26.321  22.098  1.00  0.00    -0.475 OA
ATOM     16  C   UNL A   1      30.491  27.113  24.499  1.00  0.00     0.025 C 
ATOM     17  C   UNL A   1      31.897  27.699  22.552  1.00  0.00     0.314 C 
BRANCH   8  18
ATOM     18  C   UNL A   1      32.428  21.743  23.530  1.00  0.00     0.300 C 
BRANCH  18  19
ATOM     19  N   UNL A   1      33.713  21.439  24.175  1.00  0.00    -0.332 N 
ATOM     20  C   UNL A   1      33.638  20.398  25.192  1.00  0.00     0.333 C 
ATOM     21  H   UNL A   1      34.194  21.065  23.356  1.00  0.00     0.348 HD
BRANCH  19  22
ATOM     22  C   UNL A   1      34.649  22.520  24.524  1.00  0.00     0.177 C 
ATOM     23  C   UNL A   1      34.705  22.798  26.030  1.00  0.00     0.075 C 
ATOM     24  C   UNL A   1      36.066  22.426  23.942  1.00  0.00     0.075 C 
ENDBRANCH  19  22
ENDBRANCH  18  19
ENDBRANCH   8  18
BRANCH  17  25
ATOM     25  C   UNL A   1      33.380  28.000  22.847  1.00  0.00     0.429 C 
ATOM     26  F   UNL A   1      33.617  29.333  22.754  1.00  0.00    -0.167 F 
ATOM     27  F   UNL A   1      33.751  27.629  24.094  1.00  0.00    -0.167 F 
ATOM     28  F   UNL A   1      34.219  27.382  21.986  1.00  0.00    -0.167 F 
ENDBRANCH  17  25
ENDBRANCH   4   7
ENDBRANCH   2   3
ENDBRANCH   1   2
BRANCH   1  29
ATOM     29  C   UNL A   1      31.754  32.212  27.099  1.00  0.00     0.023 C 
BRANCH  29  30
ATOM     30  C   UNL A   1      32.861  33.261  27.168  1.00  0.00     0.116 C 
BRANCH  30  31
ATOM     31  N   UNL A   1      32.608  34.340  28.116  1.00  0.00    -0.352 N 
ATOM     32  C   UNL A   1      33.333  34.659  29.243  1.00  0.00     0.251 C 
ATOM     33  H   UNL A   1      31.826  34.907  27.928  1.00  0.00     0.163 HD
ATOM     34  O   UNL A   1      32.959  35.559  29.990  1.00  0.00    -0.269 OA
BRANCH  32  35
ATOM     35  C   UNL A   1      34.530  33.856  29.560  1.00  0.00     0.039 A 
ATOM     36  C   UNL A   1      34.423  32.746  30.400  1.00  0.00     0.014 A 
ATOM     37  C   UNL A   1      35.779  34.291  29.111  1.00  0.00     0.014 A 
ATOM     38  C   UNL A   1      35.574  32.189  30.939  1.00  0.00     0.010 A 
ATOM     39  C   UNL A   1      36.935  33.672  29.591  1.00  0.00     0.010 A 
ATOM     40  C   UNL A   1      36.843  32.659  30.558  1.00  0.00    -0.014 A 
BRANCH  40  41
ATOM     41  C   UNL A   1      38.050  32.079  31.202  1.00  0.00     0.031 A 
ATOM     42  C   UNL A   1      38.480  32.518  32.577  1.00  0.00     0.074 A 
ATOM     43  C   UNL A   1      38.713  31.092  30.571  1.00  0.00     0.049 A 
ATOM     44  N   UNL A   1      39.456  32.059  33.318  1.00  0.00    -0.248 NA
ATOM     45  C   UNL A   1      37.720  33.613  33.203  1.00  0.00     0.031 C 
ATOM     46  C   UNL A   1      38.379  30.589  29.238  1.00  0.00     0.029 A 
ATOM     47  N   UNL A   1      39.771  30.314  30.967  1.00  0.00    -0.354 N 
ATOM     48  C   UNL A   1      39.438  32.814  34.486  1.00  0.00     0.074 A 
ATOM     49  C   UNL A   1      38.377  33.785  34.342  1.00  0.00     0.031 C 
ATOM     50  C   UNL A   1      39.168  29.543  28.956  1.00  0.00     0.029 A 
ATOM     51  C   UNL A   1      40.110  29.342  30.054  1.00  0.00     0.049 A 
ATOM     52  H   UNL A   1      40.243  30.439  31.822  1.00  0.00     0.167 HD
ATOM     53  C   UNL A   1      40.227  32.694  35.582  1.00  0.00     0.034 A 
ATOM     54  C   UNL A   1      41.069  28.395  30.091  1.00  0.00     0.034 A 
ATOM     55  C   UNL A   1      41.267  31.706  35.719  1.00  0.00     0.049 A 
ATOM     56  C   UNL A   1      41.944  28.296  31.312  1.00  0.00     0.074 A 
ATOM     57  C   UNL A   1      42.100  31.488  36.801  1.00  0.00     0.029 A 
ATOM     58  N   UNL A   1      41.614  30.771  34.753  1.00  0.00    -0.354 N 
ATOM     59  N   UNL A   1      41.886  28.993  32.423  1.00  0.00    -0.248 NA
ATOM     60  C   UNL A   1      43.014  27.292  31.289  1.00  0.00     0.031 C 
ATOM     61  C   UNL A   1      42.982  30.457  36.473  1.00  0.00     0.029 A 
ATOM     62  C   UNL A   1      42.665  29.991  35.207  1.00  0.00     0.049 A 
ATOM     63  H   UNL A   1      41.177  30.676  33.876  1.00  0.00     0.167 HD
ATOM     64  C   UNL A   1      42.908  28.507  33.232  1.00  0.00     0.074 A 
ATOM     65  C   UNL A   1      43.545  27.434  32.496  1.00  0.00     0.031 C 
ATOM     66  C   UNL A   1      43.292  28.922  34.465  1.00  0.00     0.034 A 
BRANCH  53  67
ATOM     67  C   UNL A   1      40.001  33.636  36.739  1.00  0.00     0.023 A 
ATOM     68  C   UNL A   1      39.339  33.187  37.896  1.00  0.00     0.031 A 
ATOM     69  C   UNL A   1      40.332  35.000  36.647  1.00  0.00     0.131 A 
ATOM     70  C   UNL A   1      39.004  34.100  38.905  1.00  0.00     0.055 A 
ATOM     71  C   UNL A   1      40.025  35.898  37.669  1.00  0.00     0.041 A 
ATOM     72  F   UNL A   1      40.967  35.476  35.564  1.00  0.00    -0.206 F 
ATOM     73  C   UNL A   1      39.348  35.451  38.800  1.00  0.00     0.022 A 
BRANCH  70  74
ATOM     74  S   UNL A   1      38.062  33.583  40.366  1.00  0.00     0.124 S 
ATOM     75  O   UNL A   1      36.852  33.029  39.760  1.00  0.00    -0.237 OA
ATOM     76  O   UNL A   1      38.957  32.606  40.978  1.00  0.00    -0.237 OA
ATOM     77  O   UNL A   1      37.870  34.819  41.116  1.00  0.00    -0.744 OA
ENDBRANCH  70  74
ENDBRANCH  53  67
BRANCH  54  78
ATOM     78  C   UNL A   1      41.194  27.450  28.945  1.00  0.00     0.023 A 
ATOM     79  C   UNL A   1      42.210  27.609  27.986  1.00  0.00     0.031 A 
ATOM     80  C   UNL A   1      40.224  26.459  28.722  1.00  0.00     0.131 A 
ATOM     81  C   UNL A   1      42.183  26.851  26.808  1.00  0.00     0.055 A 
ATOM     82  C   UNL A   1      40.244  25.653  27.582  1.00  0.00     0.041 A 
ATOM     83  F   UNL A   1      39.228  26.278  29.603  1.00  0.00    -0.206 F 
ATOM     84  C   UNL A   1      41.216  25.862  26.608  1.00  0.00     0.022 A 
BRANCH  81  85
ATOM     85  S   UNL A   1      43.305  27.234  25.434  1.00  0.00     0.124 S 
ATOM     86  O   UNL A   1      42.453  28.032  24.559  1.00  0.00    -0.237 OA
ATOM     87  O   UNL A   1      44.372  27.964  26.114  1.00  0.00    -0.237 OA
ATOM     88  O   UNL A   1      43.684  25.921  24.924  1.00  0.00    -0.744 OA
ENDBRANCH  81  85
ENDBRANCH  54  78
BRANCH  66  89
ATOM     89  C   UNL A   1      44.470  28.240  35.115  1.00  0.00     0.023 A 
ATOM     90  C   UNL A   1      44.272  27.122  35.947  1.00  0.00     0.031 A 
ATOM     91  C   UNL A   1      45.763  28.785  35.027  1.00  0.00     0.131 A 
ATOM     92  C   UNL A   1      45.344  26.606  36.686  1.00  0.00     0.055 A 
ATOM     93  C   UNL A   1      46.837  28.241  35.732  1.00  0.00     0.041 A 
ATOM     94  F   UNL A   1      45.998  29.857  34.253  1.00  0.00    -0.206 F 
ATOM     95  C   UNL A   1      46.626  27.155  36.577  1.00  0.00     0.022 A 
BRANCH  92  96
ATOM     96  S   UNL A   1      45.100  25.258  37.875  1.00  0.00     0.124 S 
ATOM     97  O   UNL A   1      45.311  25.939  39.150  1.00  0.00    -0.237 OA
ATOM     98  O   UNL A   1      43.723  24.854  37.605  1.00  0.00    -0.237 OA
ATOM     99  O   UNL A   1      46.122  24.281  37.515  1.00  0.00    -0.744 OA
ENDBRANCH  92  96
ENDBRANCH  66  89
ENDBRANCH  40  41
ENDBRANCH  32  35
ENDBRANCH  30  31
ENDBRANCH  29  30
ENDBRANCH   1  29
TORSDOF 18
ENDMDL
