MODEL 1
REMARK VINA RESULT:     -10.0      0.000      0.000
REMARK SMILES COC[C@@H](C)[C@@](O)(C(=O)NCCCCNC(=O)c1ccc(-c2c3nc(c(-c4cc(S(=O)(=O)[O-])ccc4F)c4ccc([nH]4)c(-c4cc(S(=O)(=O)[O-])ccc4F)c4nc(c(-c5cc(S(=O)(=O)[O-])ccc5F)c5ccc2[nH]5)C=C4)C=C3)cc1)C(C)C
REMARK SMILES IDX 12 1 11 2 10 3 8 4 9 5 6 7 4 8 5 9 3 10 2 11 1 12 7 13 81 15
REMARK SMILES IDX 82 16 83 17 13 18 14 19 15 20 16 21 17 23 18 24 19 25 80 26
REMARK SMILES IDX 20 27 79 28 21 29 22 30 23 31 73 32 24 33 78 34 72 35 74 36
REMARK SMILES IDX 25 37 77 38 71 39 70 40 26 42 58 43 38 44 57 45 39 46 42 47
REMARK SMILES IDX 56 48 75 49 40 50 41 51 55 53 76 54 43 55 27 56 28 57 36 58
REMARK SMILES IDX 29 59 35 60 37 61 34 62 30 63 31 64 32 65 33 66 59 67 60 68
REMARK SMILES IDX 68 69 61 70 67 71 69 72 66 73 62 74 63 75 64 76 65 77 44 78
REMARK SMILES IDX 45 79 53 80 46 81 52 82 54 83 51 84 47 85 48 86 49 87 50 88
REMARK H PARENT 10 6 7 14 15 22 74 41 42 52
REMARK Flexibility Score: inf
ROOT
ATOM      1  C   UNL A   1      34.513  23.352  24.439  1.00  0.00     0.023 C 
ENDROOT
BRANCH   1   2
ATOM      2  C   UNL A   1      33.921  24.728  24.129  1.00  0.00     0.116 C 
BRANCH   2   3
ATOM      3  N   UNL A   1      33.804  24.948  22.700  1.00  0.00    -0.354 N 
ATOM      4  C   UNL A   1      33.020  25.808  21.984  1.00  0.00     0.252 C 
ATOM      5  O   UNL A   1      33.187  25.790  20.760  1.00  0.00    -0.272 OA
ATOM      6  H   UNL A   1      34.391  24.379  22.151  1.00  0.00     0.163 HD
BRANCH   4   7
ATOM      7  C   UNL A   1      31.951  26.746  22.671  1.00  0.00     0.150 C 
BRANCH   7   8
ATOM      8  C   UNL A   1      32.645  28.002  23.300  1.00  0.00     0.053 C 
ATOM      9  C   UNL A   1      33.962  28.394  22.621  1.00  0.00     0.014 C 
BRANCH   8  10
ATOM     10  C   UNL A   1      32.766  27.975  24.833  1.00  0.00     0.166 C 
BRANCH  10  11
ATOM     11  O   UNL A   1      33.802  28.828  25.325  1.00  0.00    -0.384 OA
ATOM     12  C   UNL A   1      34.249  28.517  26.637  1.00  0.00     0.194 C 
ENDBRANCH  10  11
ENDBRANCH   8  10
ENDBRANCH   7   8
BRANCH   7  13
ATOM     13  O   UNL A   1      31.133  27.166  21.550  1.00  0.00    -0.379 OA
ATOM     14  H   UNL A   1      30.492  27.830  21.849  1.00  0.00     0.212 HD
ENDBRANCH   7  13
BRANCH   7  15
ATOM     15  C   UNL A   1      31.036  25.865  23.606  1.00  0.00     0.025 C 
ATOM     16  C   UNL A   1      29.785  26.564  24.154  1.00  0.00     0.011 C 
ATOM     17  C   UNL A   1      30.605  24.498  23.049  1.00  0.00     0.011 C 
ENDBRANCH   7  15
ENDBRANCH   4   7
ENDBRANCH   2   3
ENDBRANCH   1   2
BRANCH   1  18
ATOM     18  C   UNL A   1      35.402  23.301  25.681  1.00  0.00     0.023 C 
BRANCH  18  19
ATOM     19  C   UNL A   1      36.854  23.683  25.440  1.00  0.00     0.116 C 
BRANCH  19  20
ATOM     20  N   UNL A   1      37.785  22.662  25.888  1.00  0.00    -0.352 N 
ATOM     21  C   UNL A   1      38.993  22.811  26.526  1.00  0.00     0.251 C 
ATOM     22  H   UNL A   1      37.513  21.732  25.709  1.00  0.00     0.163 HD
ATOM     23  O   UNL A   1      39.721  21.838  26.681  1.00  0.00    -0.269 OA
BRANCH  21  24
ATOM     24  C   UNL A   1      39.415  24.152  26.990  1.00  0.00     0.039 A 
ATOM     25  C   UNL A   1      39.201  24.498  28.325  1.00  0.00     0.014 A 
ATOM     26  C   UNL A   1      40.015  25.063  26.117  1.00  0.00     0.014 A 
ATOM     27  C   UNL A   1      39.624  25.744  28.791  1.00  0.00     0.010 A 
ATOM     28  C   UNL A   1      40.521  26.263  26.605  1.00  0.00     0.010 A 
ATOM     29  C   UNL A   1      40.309  26.629  27.941  1.00  0.00    -0.014 A 
BRANCH  29  30
ATOM     30  C   UNL A   1      40.762  27.957  28.428  1.00  0.00     0.031 A 
ATOM     31  C   UNL A   1      42.231  28.291  28.442  1.00  0.00     0.074 A 
ATOM     32  C   UNL A   1      39.859  28.848  28.882  1.00  0.00     0.049 A 
ATOM     33  N   UNL A   1      42.828  29.389  28.831  1.00  0.00    -0.248 NA
ATOM     34  C   UNL A   1      43.154  27.240  27.985  1.00  0.00     0.031 C 
ATOM     35  C   UNL A   1      38.414  28.621  28.958  1.00  0.00     0.029 A 
ATOM     36  N   UNL A   1      40.017  30.125  29.359  1.00  0.00    -0.354 N 
ATOM     37  C   UNL A   1      44.191  29.153  28.681  1.00  0.00     0.074 A 
ATOM     38  C   UNL A   1      44.332  27.785  28.235  1.00  0.00     0.031 C 
ATOM     39  C   UNL A   1      37.816  29.737  29.404  1.00  0.00     0.029 A 
ATOM     40  C   UNL A   1      38.834  30.742  29.692  1.00  0.00     0.049 A 
ATOM     41  H   UNL A   1      40.896  30.558  29.453  1.00  0.00     0.167 HD
ATOM     42  C   UNL A   1      45.227  30.009  28.871  1.00  0.00     0.034 A 
ATOM     43  C   UNL A   1      38.598  31.979  30.175  1.00  0.00     0.034 A 
ATOM     44  C   UNL A   1      45.063  31.376  29.303  1.00  0.00     0.049 A 
ATOM     45  C   UNL A   1      39.769  32.905  30.398  1.00  0.00     0.074 A 
ATOM     46  C   UNL A   1      46.032  32.348  29.470  1.00  0.00     0.029 A 
ATOM     47  N   UNL A   1      43.850  31.961  29.647  1.00  0.00    -0.354 N 
ATOM     48  N   UNL A   1      41.048  32.689  30.191  1.00  0.00    -0.248 NA
ATOM     49  C   UNL A   1      39.458  34.247  30.905  1.00  0.00     0.031 C 
ATOM     50  C   UNL A   1      45.420  33.491  29.994  1.00  0.00     0.029 A 
ATOM     51  C   UNL A   1      44.054  33.269  30.062  1.00  0.00     0.049 A 
ATOM     52  H   UNL A   1      42.975  31.514  29.603  1.00  0.00     0.167 HD
ATOM     53  C   UNL A   1      41.689  33.886  30.502  1.00  0.00     0.074 A 
ATOM     54  C   UNL A   1      40.652  34.818  30.895  1.00  0.00     0.031 C 
ATOM     55  C   UNL A   1      43.012  34.189  30.460  1.00  0.00     0.034 A 
BRANCH  42  56
ATOM     56  C   UNL A   1      46.623  29.473  28.645  1.00  0.00     0.023 A 
ATOM     57  C   UNL A   1      47.127  29.226  27.355  1.00  0.00     0.031 A 
ATOM     58  C   UNL A   1      47.455  29.173  29.740  1.00  0.00     0.131 A 
ATOM     59  C   UNL A   1      48.381  28.618  27.194  1.00  0.00     0.055 A 
ATOM     60  C   UNL A   1      48.740  28.654  29.569  1.00  0.00     0.041 A 
ATOM     61  F   UNL A   1      47.026  29.364  30.996  1.00  0.00    -0.206 F 
ATOM     62  C   UNL A   1      49.204  28.357  28.292  1.00  0.00     0.022 A 
BRANCH  59  63
ATOM     63  S   UNL A   1      48.851  28.021  25.547  1.00  0.00     0.124 S 
ATOM     64  O   UNL A   1      47.672  28.372  24.759  1.00  0.00    -0.237 OA
ATOM     65  O   UNL A   1      50.059  28.789  25.267  1.00  0.00    -0.237 OA
ATOM     66  O   UNL A   1      49.053  26.588  25.745  1.00  0.00    -0.744 OA
ENDBRANCH  59  63
ENDBRANCH  42  56
BRANCH  43  67
ATOM     67  C   UNL A   1      37.206  32.427  30.470  1.00  0.00     0.023 A 
ATOM     68  C   UNL A   1      36.388  32.956  29.458  1.00  0.00     0.031 A 
ATOM     69  C   UNL A   1      36.689  32.382  31.777  1.00  0.00     0.131 A 
ATOM     70  C   UNL A   1      35.122  33.470  29.778  1.00  0.00     0.055 A 
ATOM     71  C   UNL A   1      35.404  32.839  32.078  1.00  0.00     0.041 A 
ATOM     72  F   UNL A   1      37.425  31.883  32.783  1.00  0.00    -0.206 F 
ATOM     73  C   UNL A   1      34.618  33.402  31.078  1.00  0.00     0.022 A 
BRANCH  70  74
ATOM     74  S   UNL A   1      34.180  34.323  28.484  1.00  0.00     0.124 S 
ATOM     75  O   UNL A   1      34.859  35.613  28.424  1.00  0.00    -0.237 OA
ATOM     76  O   UNL A   1      34.374  33.443  27.337  1.00  0.00    -0.237 OA
ATOM     77  O   UNL A   1      32.820  34.357  29.019  1.00  0.00    -0.744 OA
ENDBRANCH  70  74
ENDBRANCH  43  67
BRANCH  55  78
ATOM     78  C   UNL A   1      43.401  35.611  30.793  1.00  0.00     0.023 A 
ATOM     79  C   UNL A   1      43.583  36.044  32.118  1.00  0.00     0.031 A 
ATOM     80  C   UNL A   1      43.564  36.556  29.763  1.00  0.00     0.131 A 
ATOM     81  C   UNL A   1      43.840  37.398  32.383  1.00  0.00     0.055 A 
ATOM     82  C   UNL A   1      43.898  37.885  30.029  1.00  0.00     0.041 A 
ATOM     83  F   UNL A   1      43.400  36.204  28.478  1.00  0.00    -0.206 F 
ATOM     84  C   UNL A   1      44.018  38.316  31.346  1.00  0.00     0.022 A 
BRANCH  81  85
ATOM     85  S   UNL A   1      43.808  37.969  34.104  1.00  0.00     0.124 S 
ATOM     86  O   UNL A   1      42.829  39.048  34.048  1.00  0.00    -0.237 OA
ATOM     87  O   UNL A   1      43.393  36.768  34.822  1.00  0.00    -0.237 OA
ATOM     88  O   UNL A   1      45.186  38.392  34.351  1.00  0.00    -0.744 OA
ENDBRANCH  81  85
ENDBRANCH  55  78
ENDBRANCH  29  30
ENDBRANCH  21  24
ENDBRANCH  19  20
ENDBRANCH  18  19
ENDBRANCH   1  18
TORSDOF 19
ENDMDL
MODEL 2
REMARK VINA RESULT:     -10.0      2.018      2.363
REMARK SMILES COC[C@@H](C)[C@@](O)(C(=O)NCCCCNC(=O)c1ccc(-c2c3nc(c(-c4cc(S(=O)(=O)[O-])ccc4F)c4ccc([nH]4)c(-c4cc(S(=O)(=O)[O-])ccc4F)c4nc(c(-c5cc(S(=O)(=O)[O-])ccc5F)c5ccc2[nH]5)C=C4)C=C3)cc1)C(C)C
REMARK SMILES IDX 12 1 11 2 10 3 8 4 9 5 6 7 4 8 5 9 3 10 2 11 1 12 7 13 81 15
REMARK SMILES IDX 82 16 83 17 13 18 14 19 15 20 16 21 17 23 18 24 19 25 80 26
REMARK SMILES IDX 20 27 79 28 21 29 22 30 23 31 73 32 24 33 78 34 72 35 74 36
REMARK SMILES IDX 25 37 77 38 71 39 70 40 26 42 58 43 38 44 57 45 39 46 42 47
REMARK SMILES IDX 56 48 75 49 40 50 41 51 55 53 76 54 43 55 27 56 28 57 36 58
REMARK SMILES IDX 29 59 35 60 37 61 34 62 30 63 31 64 32 65 33 66 59 67 60 68
REMARK SMILES IDX 68 69 61 70 67 71 69 72 66 73 62 74 63 75 64 76 65 77 44 78
REMARK SMILES IDX 45 79 53 80 46 81 52 82 54 83 51 84 47 85 48 86 49 87 50 88
REMARK H PARENT 10 6 7 14 15 22 74 41 42 52
REMARK Flexibility Score: inf
ROOT
ATOM      1  C   UNL A   1      35.625  23.219  23.845  1.00  0.00     0.023 C 
ENDROOT
BRANCH   1   2
ATOM      2  C   UNL A   1      34.152  23.625  23.764  1.00  0.00     0.116 C 
BRANCH   2   3
ATOM      3  N   UNL A   1      33.818  24.158  22.457  1.00  0.00    -0.354 N 
ATOM      4  C   UNL A   1      33.187  25.313  22.092  1.00  0.00     0.252 C 
ATOM      5  O   UNL A   1      33.091  25.509  20.875  1.00  0.00    -0.272 OA
ATOM      6  H   UNL A   1      34.093  23.588  21.702  1.00  0.00     0.163 HD
BRANCH   4   7
ATOM      7  C   UNL A   1      32.594  26.323  23.151  1.00  0.00     0.150 C 
BRANCH   7   8
ATOM      8  C   UNL A   1      33.747  27.014  23.957  1.00  0.00     0.053 C 
ATOM      9  C   UNL A   1      33.853  26.554  25.416  1.00  0.00     0.014 C 
BRANCH   8  10
ATOM     10  C   UNL A   1      33.802  28.545  23.824  1.00  0.00     0.166 C 
BRANCH  10  11
ATOM     11  O   UNL A   1      32.566  29.178  24.164  1.00  0.00    -0.384 OA
ATOM     12  C   UNL A   1      32.572  29.847  25.417  1.00  0.00     0.194 C 
ENDBRANCH  10  11
ENDBRANCH   8  10
ENDBRANCH   7   8
BRANCH   7  13
ATOM     13  O   UNL A   1      31.939  27.310  22.316  1.00  0.00    -0.379 OA
ATOM     14  H   UNL A   1      31.194  27.700  22.800  1.00  0.00     0.212 HD
ENDBRANCH   7  13
BRANCH   7  15
ATOM     15  C   UNL A   1      31.464  25.587  23.969  1.00  0.00     0.025 C 
ATOM     16  C   UNL A   1      30.459  26.503  24.680  1.00  0.00     0.011 C 
ATOM     17  C   UNL A   1      30.666  24.509  23.216  1.00  0.00     0.011 C 
ENDBRANCH   7  15
ENDBRANCH   4   7
ENDBRANCH   2   3
ENDBRANCH   1   2
BRANCH   1  18
ATOM     18  C   UNL A   1      35.946  22.180  24.918  1.00  0.00     0.023 C 
BRANCH  18  19
ATOM     19  C   UNL A   1      37.056  22.578  25.878  1.00  0.00     0.116 C 
BRANCH  19  20
ATOM     20  N   UNL A   1      38.064  21.543  26.030  1.00  0.00    -0.352 N 
ATOM     21  C   UNL A   1      39.393  21.671  26.359  1.00  0.00     0.251 C 
ATOM     22  H   UNL A   1      37.753  20.622  25.877  1.00  0.00     0.163 HD
ATOM     23  O   UNL A   1      40.132  20.697  26.281  1.00  0.00    -0.269 OA
BRANCH  21  24
ATOM     24  C   UNL A   1      39.922  22.990  26.772  1.00  0.00     0.039 A 
ATOM     25  C   UNL A   1      39.584  24.115  26.018  1.00  0.00     0.014 A 
ATOM     26  C   UNL A   1      40.749  23.118  27.891  1.00  0.00     0.014 A 
ATOM     27  C   UNL A   1      40.044  25.373  26.411  1.00  0.00     0.010 A 
ATOM     28  C   UNL A   1      41.126  24.381  28.335  1.00  0.00     0.010 A 
ATOM     29  C   UNL A   1      40.800  25.520  27.587  1.00  0.00    -0.014 A 
BRANCH  29  30
ATOM     30  C   UNL A   1      41.294  26.855  28.012  1.00  0.00     0.031 A 
ATOM     31  C   UNL A   1      42.723  27.249  27.740  1.00  0.00     0.074 A 
ATOM     32  C   UNL A   1      40.471  27.697  28.666  1.00  0.00     0.049 A 
ATOM     33  N   UNL A   1      43.346  28.362  28.033  1.00  0.00    -0.248 NA
ATOM     34  C   UNL A   1      43.571  26.248  27.075  1.00  0.00     0.031 C 
ATOM     35  C   UNL A   1      39.080  27.409  29.025  1.00  0.00     0.029 A 
ATOM     36  N   UNL A   1      40.676  28.969  29.139  1.00  0.00    -0.354 N 
ATOM     37  C   UNL A   1      44.658  28.186  27.605  1.00  0.00     0.074 A 
ATOM     38  C   UNL A   1      44.755  26.836  27.099  1.00  0.00     0.031 C 
ATOM     39  C   UNL A   1      38.545  28.490  29.615  1.00  0.00     0.029 A 
ATOM     40  C   UNL A   1      39.564  29.529  29.723  1.00  0.00     0.049 A 
ATOM     41  H   UNL A   1      41.539  29.436  29.067  1.00  0.00     0.167 HD
ATOM     42  C   UNL A   1      45.679  29.079  27.608  1.00  0.00     0.034 A 
ATOM     43  C   UNL A   1      39.386  30.744  30.280  1.00  0.00     0.034 A 
ATOM     44  C   UNL A   1      45.557  30.429  28.104  1.00  0.00     0.049 A 
ATOM     45  C   UNL A   1      40.543  31.712  30.290  1.00  0.00     0.074 A 
ATOM     46  C   UNL A   1      46.504  31.437  28.102  1.00  0.00     0.029 A 
ATOM     47  N   UNL A   1      44.419  30.956  28.703  1.00  0.00    -0.354 N 
ATOM     48  N   UNL A   1      41.761  31.555  29.822  1.00  0.00    -0.248 NA
ATOM     49  C   UNL A   1      40.294  33.029  30.889  1.00  0.00     0.031 C 
ATOM     50  C   UNL A   1      45.971  32.542  28.772  1.00  0.00     0.029 A 
ATOM     51  C   UNL A   1      44.655  32.261  29.107  1.00  0.00     0.049 A 
ATOM     52  H   UNL A   1      43.569  30.474  28.823  1.00  0.00     0.167 HD
ATOM     53  C   UNL A   1      42.408  32.770  30.034  1.00  0.00     0.074 A 
ATOM     54  C   UNL A   1      41.439  33.649  30.656  1.00  0.00     0.031 C 
ATOM     55  C   UNL A   1      43.683  33.128  29.735  1.00  0.00     0.034 A 
BRANCH  42  56
ATOM     56  C   UNL A   1      47.019  28.607  27.089  1.00  0.00     0.023 A 
ATOM     57  C   UNL A   1      47.230  28.312  25.729  1.00  0.00     0.031 A 
ATOM     58  C   UNL A   1      48.097  28.417  27.973  1.00  0.00     0.131 A 
ATOM     59  C   UNL A   1      48.452  27.764  25.310  1.00  0.00     0.055 A 
ATOM     60  C   UNL A   1      49.340  27.959  27.533  1.00  0.00     0.041 A 
ATOM     61  F   UNL A   1      47.954  28.658  29.285  1.00  0.00    -0.206 F 
ATOM     62  C   UNL A   1      49.519  27.612  26.198  1.00  0.00     0.022 A 
BRANCH  59  63
ATOM     63  S   UNL A   1      48.571  27.098  23.627  1.00  0.00     0.124 S 
ATOM     64  O   UNL A   1      48.119  28.233  22.827  1.00  0.00    -0.237 OA
ATOM     65  O   UNL A   1      49.986  26.763  23.520  1.00  0.00    -0.237 OA
ATOM     66  O   UNL A   1      47.659  25.956  23.644  1.00  0.00    -0.744 OA
ENDBRANCH  59  63
ENDBRANCH  42  56
BRANCH  43  67
ATOM     67  C   UNL A   1      38.067  31.128  30.863  1.00  0.00     0.023 A 
ATOM     68  C   UNL A   1      37.103  31.796  30.090  1.00  0.00     0.031 A 
ATOM     69  C   UNL A   1      37.770  30.879  32.214  1.00  0.00     0.131 A 
ATOM     70  C   UNL A   1      35.914  32.242  30.687  1.00  0.00     0.055 A 
ATOM     71  C   UNL A   1      36.558  31.272  32.787  1.00  0.00     0.041 A 
ATOM     72  F   UNL A   1      38.653  30.241  32.999  1.00  0.00    -0.206 F 
ATOM     73  C   UNL A   1      35.627  31.971  32.026  1.00  0.00     0.022 A 
BRANCH  70  74
ATOM     74  S   UNL A   1      34.786  33.272  29.708  1.00  0.00     0.124 S 
ATOM     75  O   UNL A   1      33.888  33.787  30.736  1.00  0.00    -0.237 OA
ATOM     76  O   UNL A   1      35.699  34.240  29.111  1.00  0.00    -0.237 OA
ATOM     77  O   UNL A   1      34.185  32.325  28.771  1.00  0.00    -0.744 OA
ENDBRANCH  70  74
ENDBRANCH  43  67
BRANCH  55  78
ATOM     78  C   UNL A   1      44.080  34.558  30.025  1.00  0.00     0.023 A 
ATOM     79  C   UNL A   1      43.961  35.575  29.062  1.00  0.00     0.031 A 
ATOM     80  C   UNL A   1      44.616  34.899  31.281  1.00  0.00     0.131 A 
ATOM     81  C   UNL A   1      44.442  36.864  29.343  1.00  0.00     0.055 A 
ATOM     82  C   UNL A   1      45.019  36.201  31.581  1.00  0.00     0.041 A 
ATOM     83  F   UNL A   1      44.758  33.969  32.240  1.00  0.00    -0.206 F 
ATOM     84  C   UNL A   1      44.951  37.187  30.603  1.00  0.00     0.022 A 
BRANCH  81  85
ATOM     85  S   UNL A   1      44.512  38.077  27.997  1.00  0.00     0.124 S 
ATOM     86  O   UNL A   1      45.405  37.424  27.046  1.00  0.00    -0.237 OA
ATOM     87  O   UNL A   1      43.113  38.176  27.594  1.00  0.00    -0.237 OA
ATOM     88  O   UNL A   1      45.058  39.272  28.640  1.00  0.00    -0.744 OA
ENDBRANCH  81  85
ENDBRANCH  55  78
ENDBRANCH  29  30
ENDBRANCH  21  24
ENDBRANCH  19  20
ENDBRANCH  18  19
ENDBRANCH   1  18
TORSDOF 19
ENDMDL
MODEL 3
REMARK VINA RESULT:      -9.9      2.992      4.082
REMARK SMILES COC[C@@H](C)[C@@](O)(C(=O)NCCCCNC(=O)c1ccc(-c2c3nc(c(-c4cc(S(=O)(=O)[O-])ccc4F)c4ccc([nH]4)c(-c4cc(S(=O)(=O)[O-])ccc4F)c4nc(c(-c5cc(S(=O)(=O)[O-])ccc5F)c5ccc2[nH]5)C=C4)C=C3)cc1)C(C)C
REMARK SMILES IDX 12 1 11 2 10 3 8 4 9 5 6 7 4 8 5 9 3 10 2 11 1 12 7 13 81 15
REMARK SMILES IDX 82 16 83 17 13 18 14 19 15 20 16 21 17 23 18 24 19 25 80 26
REMARK SMILES IDX 20 27 79 28 21 29 22 30 23 31 73 32 24 33 78 34 72 35 74 36
REMARK SMILES IDX 25 37 77 38 71 39 70 40 26 42 58 43 38 44 57 45 39 46 42 47
REMARK SMILES IDX 56 48 75 49 40 50 41 51 55 53 76 54 43 55 27 56 28 57 36 58
REMARK SMILES IDX 29 59 35 60 37 61 34 62 30 63 31 64 32 65 33 66 59 67 60 68
REMARK SMILES IDX 68 69 61 70 67 71 69 72 66 73 62 74 63 75 64 76 65 77 44 78
REMARK SMILES IDX 45 79 53 80 46 81 52 82 54 83 51 84 47 85 48 86 49 87 50 88
REMARK H PARENT 10 6 7 14 15 22 74 41 42 52
REMARK Flexibility Score: inf
ROOT
ATOM      1  C   UNL A   1      35.811  23.543  26.126  1.00  0.00     0.023 C 
ENDROOT
BRANCH   1   2
ATOM      2  C   UNL A   1      34.615  24.315  25.566  1.00  0.00     0.116 C 
BRANCH   2   3
ATOM      3  N   UNL A   1      33.510  24.341  26.505  1.00  0.00    -0.354 N 
ATOM      4  C   UNL A   1      32.207  23.953  26.371  1.00  0.00     0.252 C 
ATOM      5  O   UNL A   1      31.510  24.058  27.386  1.00  0.00    -0.272 OA
ATOM      6  H   UNL A   1      33.739  24.698  27.394  1.00  0.00     0.163 HD
BRANCH   4   7
ATOM      7  C   UNL A   1      31.618  23.430  25.002  1.00  0.00     0.150 C 
BRANCH   7   8
ATOM      8  C   UNL A   1      32.413  22.173  24.506  1.00  0.00     0.053 C 
ATOM      9  C   UNL A   1      32.191  21.836  23.027  1.00  0.00     0.014 C 
BRANCH   8  10
ATOM     10  C   UNL A   1      32.294  20.934  25.410  1.00  0.00     0.166 C 
BRANCH  10  11
ATOM     11  O   UNL A   1      32.013  19.738  24.679  1.00  0.00    -0.384 OA
ATOM     12  C   UNL A   1      32.930  18.678  24.909  1.00  0.00     0.194 C 
ENDBRANCH  10  11
ENDBRANCH   8  10
ENDBRANCH   7   8
BRANCH   7  13
ATOM     13  O   UNL A   1      30.275  23.029  25.368  1.00  0.00    -0.379 OA
ATOM     14  H   UNL A   1      29.641  23.413  24.741  1.00  0.00     0.212 HD
ENDBRANCH   7  13
BRANCH   7  15
ATOM     15  C   UNL A   1      31.483  24.652  24.013  1.00  0.00     0.025 C 
ATOM     16  C   UNL A   1      30.236  24.644  23.120  1.00  0.00     0.011 C 
ATOM     17  C   UNL A   1      31.607  26.052  24.636  1.00  0.00     0.011 C 
ENDBRANCH   7  15
ENDBRANCH   4   7
ENDBRANCH   2   3
ENDBRANCH   1   2
BRANCH   1  18
ATOM     18  C   UNL A   1      35.945  22.109  25.614  1.00  0.00     0.023 C 
BRANCH  18  19
ATOM     19  C   UNL A   1      37.184  21.847  24.773  1.00  0.00     0.116 C 
BRANCH  19  20
ATOM     20  N   UNL A   1      37.975  20.735  25.272  1.00  0.00    -0.352 N 
ATOM     21  C   UNL A   1      39.174  20.759  25.944  1.00  0.00     0.251 C 
ATOM     22  H   UNL A   1      37.601  19.840  25.105  1.00  0.00     0.163 HD
ATOM     23  O   UNL A   1      39.778  19.712  26.143  1.00  0.00    -0.269 OA
BRANCH  21  24
ATOM     24  C   UNL A   1      39.737  22.052  26.392  1.00  0.00     0.039 A 
ATOM     25  C   UNL A   1      40.688  22.053  27.414  1.00  0.00     0.014 A 
ATOM     26  C   UNL A   1      39.331  23.257  25.812  1.00  0.00     0.014 A 
ATOM     27  C   UNL A   1      41.257  23.259  27.827  1.00  0.00     0.010 A 
ATOM     28  C   UNL A   1      39.968  24.444  26.157  1.00  0.00     0.010 A 
ATOM     29  C   UNL A   1      40.919  24.463  27.186  1.00  0.00    -0.014 A 
BRANCH  29  30
ATOM     30  C   UNL A   1      41.520  25.751  27.619  1.00  0.00     0.031 A 
ATOM     31  C   UNL A   1      42.933  26.092  27.223  1.00  0.00     0.074 A 
ATOM     32  C   UNL A   1      40.808  26.597  28.388  1.00  0.00     0.049 A 
ATOM     33  N   UNL A   1      43.638  27.159  27.502  1.00  0.00    -0.248 NA
ATOM     34  C   UNL A   1      43.661  25.086  26.433  1.00  0.00     0.031 C 
ATOM     35  C   UNL A   1      39.446  26.356  28.871  1.00  0.00     0.029 A 
ATOM     36  N   UNL A   1      41.123  27.833  28.894  1.00  0.00    -0.354 N 
ATOM     37  C   UNL A   1      44.891  26.944  26.937  1.00  0.00     0.074 A 
ATOM     38  C   UNL A   1      44.870  25.616  26.364  1.00  0.00     0.031 C 
ATOM     39  C   UNL A   1      39.027  27.430  29.559  1.00  0.00     0.029 A 
ATOM     40  C   UNL A   1      40.102  28.415  29.609  1.00  0.00     0.049 A 
ATOM     41  H   UNL A   1      41.997  28.263  28.757  1.00  0.00     0.167 HD
ATOM     42  C   UNL A   1      45.952  27.787  26.877  1.00  0.00     0.034 A 
ATOM     43  C   UNL A   1      40.042  29.609  30.235  1.00  0.00     0.034 A 
ATOM     44  C   UNL A   1      45.947  29.115  27.443  1.00  0.00     0.049 A 
ATOM     45  C   UNL A   1      41.242  30.520  30.172  1.00  0.00     0.074 A 
ATOM     46  C   UNL A   1      46.940  30.077  27.390  1.00  0.00     0.029 A 
ATOM     47  N   UNL A   1      44.901  29.664  28.175  1.00  0.00    -0.354 N 
ATOM     48  N   UNL A   1      42.399  30.330  29.579  1.00  0.00    -0.248 NA
ATOM     49  C   UNL A   1      41.119  31.816  30.851  1.00  0.00     0.031 C 
ATOM     50  C   UNL A   1      46.531  31.171  28.159  1.00  0.00     0.029 A 
ATOM     51  C   UNL A   1      45.242  30.936  28.611  1.00  0.00     0.049 A 
ATOM     52  H   UNL A   1      44.044  29.217  28.357  1.00  0.00     0.167 HD
ATOM     53  C   UNL A   1      43.125  31.502  29.778  1.00  0.00     0.074 A 
ATOM     54  C   UNL A   1      42.267  32.394  30.532  1.00  0.00     0.031 C 
ATOM     55  C   UNL A   1      44.381  31.815  29.370  1.00  0.00     0.034 A 
BRANCH  42  56
ATOM     56  C   UNL A   1      47.209  27.280  26.207  1.00  0.00     0.023 A 
ATOM     57  C   UNL A   1      48.143  26.475  26.886  1.00  0.00     0.031 A 
ATOM     58  C   UNL A   1      47.497  27.634  24.876  1.00  0.00     0.131 A 
ATOM     59  C   UNL A   1      49.352  26.125  26.265  1.00  0.00     0.055 A 
ATOM     60  C   UNL A   1      48.660  27.204  24.233  1.00  0.00     0.041 A 
ATOM     61  F   UNL A   1      46.660  28.419  24.181  1.00  0.00    -0.206 F 
ATOM     62  C   UNL A   1      49.605  26.460  24.933  1.00  0.00     0.022 A 
BRANCH  59  63
ATOM     63  S   UNL A   1      50.658  25.372  27.275  1.00  0.00     0.124 S 
ATOM     64  O   UNL A   1      49.921  24.326  27.978  1.00  0.00    -0.237 OA
ATOM     65  O   UNL A   1      51.611  24.918  26.269  1.00  0.00    -0.237 OA
ATOM     66  O   UNL A   1      51.117  26.473  28.118  1.00  0.00    -0.744 OA
ENDBRANCH  59  63
ENDBRANCH  42  56
BRANCH  43  67
ATOM     67  C   UNL A   1      38.807  30.023  30.963  1.00  0.00     0.023 A 
ATOM     68  C   UNL A   1      37.794  30.747  30.312  1.00  0.00     0.031 A 
ATOM     69  C   UNL A   1      38.644  29.749  32.332  1.00  0.00     0.131 A 
ATOM     70  C   UNL A   1      36.692  31.219  31.041  1.00  0.00     0.055 A 
ATOM     71  C   UNL A   1      37.515  30.170  33.039  1.00  0.00     0.041 A 
ATOM     72  F   UNL A   1      39.579  29.059  33.004  1.00  0.00    -0.206 F 
ATOM     73  C   UNL A   1      36.538  30.923  32.397  1.00  0.00     0.022 A 
BRANCH  70  74
ATOM     74  S   UNL A   1      35.508  32.315  30.212  1.00  0.00     0.124 S 
ATOM     75  O   UNL A   1      34.524  32.540  31.265  1.00  0.00    -0.237 OA
ATOM     76  O   UNL A   1      36.346  33.457  29.862  1.00  0.00    -0.237 OA
ATOM     77  O   UNL A   1      35.041  31.517  29.080  1.00  0.00    -0.744 OA
ENDBRANCH  70  74
ENDBRANCH  43  67
BRANCH  55  78
ATOM     78  C   UNL A   1      44.877  33.209  29.682  1.00  0.00     0.023 A 
ATOM     79  C   UNL A   1      44.699  34.281  28.790  1.00  0.00     0.031 A 
ATOM     80  C   UNL A   1      45.566  33.458  30.883  1.00  0.00     0.131 A 
ATOM     81  C   UNL A   1      45.269  35.531  29.077  1.00  0.00     0.055 A 
ATOM     82  C   UNL A   1      46.063  34.724  31.198  1.00  0.00     0.041 A 
ATOM     83  F   UNL A   1      45.771  32.473  31.773  1.00  0.00    -0.206 F 
ATOM     84  C   UNL A   1      45.932  35.764  30.284  1.00  0.00     0.022 A 
BRANCH  81  85
ATOM     85  S   UNL A   1      45.246  36.812  27.792  1.00  0.00     0.124 S 
ATOM     86  O   UNL A   1      44.406  36.199  26.769  1.00  0.00    -0.237 OA
ATOM     87  O   UNL A   1      44.664  37.949  28.498  1.00  0.00    -0.237 OA
ATOM     88  O   UNL A   1      46.655  36.962  27.432  1.00  0.00    -0.744 OA
ENDBRANCH  81  85
ENDBRANCH  55  78
ENDBRANCH  29  30
ENDBRANCH  21  24
ENDBRANCH  19  20
ENDBRANCH  18  19
ENDBRANCH   1  18
TORSDOF 19
ENDMDL
