MODEL 1
REMARK VINA RESULT:     -12.0      0.000      0.000
REMARK SMILES CN(C)C(=O)CCNC(=O)NC[C@H]1CC[C@@H](C(=O)NCCCCNC(=O)c2ccc(-c3c4nc(c(-c5cc(S(=O)(=O)[O-])ccc5F)c5ccc([nH]5)c(-c5cc(S(=O)(=O)[O-])ccc5F)c5nc(c(-c6cc(S(=O)(=O)[O-])ccc6F)c6ccc3[nH]6)C=C5)C=C4)cc2)CC1
REMARK SMILES IDX 20 1 19 2 17 3 18 4 16 6 13 7 14 8 91 9 15 10 90 11 12 12
REMARK SMILES IDX 11 13 8 14 9 15 10 17 7 19 6 20 4 21 1 22 2 23 3 24 5 25
REMARK SMILES IDX 21 26 22 27 23 28 24 29 25 30 26 32 27 33 28 34 89 35 29 36
REMARK SMILES IDX 88 37 30 38 31 39 32 40 82 41 33 42 87 43 81 44 83 45 34 46
REMARK SMILES IDX 86 47 80 48 79 49 35 51 67 52 47 53 66 54 48 55 51 56 65 57
REMARK SMILES IDX 84 58 49 59 50 60 64 62 85 63 52 64 36 65 37 66 45 67 38 68
REMARK SMILES IDX 44 69 46 70 43 71 39 72 40 73 41 74 42 75 68 76 69 77 77 78
REMARK SMILES IDX 70 79 76 80 78 81 75 82 71 83 72 84 73 85 74 86 53 87 54 88
REMARK SMILES IDX 62 89 55 90 61 91 63 92 60 93 56 94 57 95 58 96 59 97
REMARK H PARENT 19 5 8 16 11 18 24 31 83 50 51 61
REMARK Flexibility Score: inf
ROOT
ATOM      1  C   UNL A   1      31.840  28.916  25.257  1.00  0.00     0.116 C 
ENDROOT
BRANCH   1   2
ATOM      2  N   UNL A   1      31.045  29.696  24.339  1.00  0.00    -0.356 N 
ATOM      3  C   UNL A   1      30.178  29.368  23.350  1.00  0.00     0.223 C 
ATOM      4  O   UNL A   1      29.559  30.317  22.851  1.00  0.00    -0.275 OA
ATOM      5  H   UNL A   1      31.154  30.666  24.456  1.00  0.00     0.163 HD
BRANCH   3   6
ATOM      6  C   UNL A   1      29.919  27.951  22.811  1.00  0.00     0.078 C 
ATOM      7  C   UNL A   1      30.864  25.480  24.283  1.00  0.00     0.008 C 
ATOM      8  C   UNL A   1      29.534  26.175  24.647  1.00  0.00     0.006 C 
ATOM      9  C   UNL A   1      31.793  26.272  23.345  1.00  0.00     0.006 C 
ATOM     10  C   UNL A   1      28.934  27.079  23.581  1.00  0.00     0.014 C 
ATOM     11  C   UNL A   1      31.132  27.176  22.319  1.00  0.00     0.014 C 
BRANCH   7  12
ATOM     12  C   UNL A   1      31.613  25.078  25.587  1.00  0.00     0.121 C 
BRANCH  12  13
ATOM     13  N   UNL A   1      30.751  24.449  26.561  1.00  0.00    -0.338 N 
ATOM     14  N   UNL A   1      30.790  22.115  26.183  1.00  0.00    -0.338 N 
ATOM     15  C   UNL A   1      30.349  23.204  26.816  1.00  0.00     0.314 C 
ATOM     16  H   UNL A   1      30.254  21.318  26.399  1.00  0.00     0.165 HD
ATOM     17  O   UNL A   1      29.506  23.046  27.701  1.00  0.00    -0.249 OA
ATOM     18  H   UNL A   1      30.367  25.098  27.192  1.00  0.00     0.165 HD
BRANCH  14  19
ATOM     19  C   UNL A   1      31.865  21.816  25.254  1.00  0.00     0.127 C 
BRANCH  19  20
ATOM     20  C   UNL A   1      33.040  21.110  25.920  1.00  0.00     0.121 C 
BRANCH  20  21
ATOM     21  C   UNL A   1      34.037  22.153  26.384  1.00  0.00     0.223 C 
ATOM     22  C   UNL A   1      36.106  23.398  26.039  1.00  0.00     0.146 C 
ATOM     23  N   UNL A   1      35.263  22.251  25.747  1.00  0.00    -0.349 N 
ATOM     24  C   UNL A   1      35.825  21.260  24.840  1.00  0.00     0.146 C 
ATOM     25  O   UNL A   1      33.688  22.959  27.253  1.00  0.00    -0.275 OA
ENDBRANCH  20  21
ENDBRANCH  19  20
ENDBRANCH  14  19
ENDBRANCH  12  13
ENDBRANCH   7  12
ENDBRANCH   3   6
ENDBRANCH   1   2
BRANCH   1  26
ATOM     26  C   UNL A   1      32.958  29.717  25.923  1.00  0.00     0.023 C 
BRANCH  26  27
ATOM     27  C   UNL A   1      32.509  30.608  27.075  1.00  0.00     0.023 C 
BRANCH  27  28
ATOM     28  C   UNL A   1      33.486  31.708  27.478  1.00  0.00     0.116 C 
BRANCH  28  29
ATOM     29  N   UNL A   1      32.905  33.043  27.565  1.00  0.00    -0.352 N 
ATOM     30  C   UNL A   1      33.282  34.069  28.408  1.00  0.00     0.251 C 
ATOM     31  H   UNL A   1      32.159  33.234  26.953  1.00  0.00     0.163 HD
ATOM     32  O   UNL A   1      32.663  35.128  28.409  1.00  0.00    -0.269 OA
BRANCH  30  33
ATOM     33  C   UNL A   1      34.404  33.835  29.344  1.00  0.00     0.039 A 
ATOM     34  C   UNL A   1      34.176  33.089  30.503  1.00  0.00     0.014 A 
ATOM     35  C   UNL A   1      35.700  34.224  28.995  1.00  0.00     0.014 A 
ATOM     36  C   UNL A   1      35.265  32.636  31.252  1.00  0.00     0.010 A 
ATOM     37  C   UNL A   1      36.782  33.699  29.694  1.00  0.00     0.010 A 
ATOM     38  C   UNL A   1      36.578  32.882  30.818  1.00  0.00    -0.014 A 
BRANCH  38  39
ATOM     39  C   UNL A   1      37.754  32.274  31.500  1.00  0.00     0.031 A 
ATOM     40  C   UNL A   1      38.500  31.144  30.845  1.00  0.00     0.074 A 
ATOM     41  C   UNL A   1      38.089  32.671  32.745  1.00  0.00     0.049 A 
ATOM     42  N   UNL A   1      39.466  30.401  31.322  1.00  0.00    -0.248 NA
ATOM     43  C   UNL A   1      38.071  30.775  29.488  1.00  0.00     0.031 C 
ATOM     44  C   UNL A   1      37.408  33.716  33.515  1.00  0.00     0.029 A 
ATOM     45  N   UNL A   1      39.081  32.236  33.590  1.00  0.00    -0.354 N 
ATOM     46  C   UNL A   1      39.746  29.464  30.333  1.00  0.00     0.074 A 
ATOM     47  C   UNL A   1      38.799  29.692  29.261  1.00  0.00     0.031 C 
ATOM     48  C   UNL A   1      38.019  33.859  34.703  1.00  0.00     0.029 A 
ATOM     49  C   UNL A   1      39.105  32.890  34.802  1.00  0.00     0.049 A 
ATOM     50  H   UNL A   1      39.715  31.523  33.351  1.00  0.00     0.167 HD
ATOM     51  C   UNL A   1      40.717  28.518  30.307  1.00  0.00     0.034 A 
ATOM     52  C   UNL A   1      39.906  32.722  35.873  1.00  0.00     0.034 A 
ATOM     53  C   UNL A   1      41.672  28.319  31.369  1.00  0.00     0.049 A 
ATOM     54  C   UNL A   1      40.985  31.671  35.818  1.00  0.00     0.074 A 
ATOM     55  C   UNL A   1      42.731  27.430  31.423  1.00  0.00     0.029 A 
ATOM     56  N   UNL A   1      41.685  29.021  32.567  1.00  0.00    -0.354 N 
ATOM     57  N   UNL A   1      41.264  30.822  34.856  1.00  0.00    -0.248 NA
ATOM     58  C   UNL A   1      41.863  31.561  36.991  1.00  0.00     0.031 C 
ATOM     59  C   UNL A   1      43.352  27.560  32.670  1.00  0.00     0.029 A 
ATOM     60  C   UNL A   1      42.721  28.574  33.372  1.00  0.00     0.049 A 
ATOM     61  H   UNL A   1      41.050  29.735  32.809  1.00  0.00     0.167 HD
ATOM     62  C   UNL A   1      42.372  30.102  35.296  1.00  0.00     0.074 A 
ATOM     63  C   UNL A   1      42.714  30.622  36.603  1.00  0.00     0.031 C 
ATOM     64  C   UNL A   1      43.047  29.103  34.674  1.00  0.00     0.034 A 
BRANCH  51  65
ATOM     65  C   UNL A   1      40.776  27.624  29.092  1.00  0.00     0.023 A 
ATOM     66  C   UNL A   1      41.721  27.833  28.072  1.00  0.00     0.031 A 
ATOM     67  C   UNL A   1      39.852  26.577  28.927  1.00  0.00     0.131 A 
ATOM     68  C   UNL A   1      41.664  27.072  26.896  1.00  0.00     0.055 A 
ATOM     69  C   UNL A   1      39.856  25.764  27.792  1.00  0.00     0.041 A 
ATOM     70  F   UNL A   1      38.914  26.339  29.857  1.00  0.00    -0.206 F 
ATOM     71  C   UNL A   1      40.755  26.020  26.759  1.00  0.00     0.022 A 
BRANCH  68  72
ATOM     72  S   UNL A   1      42.692  27.578  25.491  1.00  0.00     0.124 S 
ATOM     73  O   UNL A   1      43.925  27.985  26.162  1.00  0.00    -0.237 OA
ATOM     74  O   UNL A   1      42.769  26.357  24.698  1.00  0.00    -0.237 OA
ATOM     75  O   UNL A   1      41.931  28.670  24.886  1.00  0.00    -0.744 OA
ENDBRANCH  68  72
ENDBRANCH  51  65
BRANCH  52  76
ATOM     76  C   UNL A   1      39.730  33.561  37.093  1.00  0.00     0.023 A 
ATOM     77  C   UNL A   1      39.193  33.014  38.270  1.00  0.00     0.031 A 
ATOM     78  C   UNL A   1      40.049  34.929  37.087  1.00  0.00     0.131 A 
ATOM     79  C   UNL A   1      38.942  33.843  39.375  1.00  0.00     0.055 A 
ATOM     80  C   UNL A   1      39.844  35.739  38.205  1.00  0.00     0.041 A 
ATOM     81  F   UNL A   1      40.573  35.500  35.990  1.00  0.00    -0.206 F 
ATOM     82  C   UNL A   1      39.273  35.199  39.355  1.00  0.00     0.022 A 
BRANCH  79  83
ATOM     83  S   UNL A   1      38.093  33.135  40.813  1.00  0.00     0.124 S 
ATOM     84  O   UNL A   1      38.449  31.725  40.706  1.00  0.00    -0.237 OA
ATOM     85  O   UNL A   1      38.704  33.869  41.916  1.00  0.00    -0.237 OA
ATOM     86  O   UNL A   1      36.687  33.444  40.565  1.00  0.00    -0.744 OA
ENDBRANCH  79  83
ENDBRANCH  52  76
BRANCH  64  87
ATOM     87  C   UNL A   1      44.256  28.549  35.386  1.00  0.00     0.023 A 
ATOM     88  C   UNL A   1      44.140  27.567  36.384  1.00  0.00     0.031 A 
ATOM     89  C   UNL A   1      45.540  29.025  35.066  1.00  0.00     0.131 A 
ATOM     90  C   UNL A   1      45.287  27.126  37.063  1.00  0.00     0.055 A 
ATOM     91  C   UNL A   1      46.681  28.545  35.708  1.00  0.00     0.041 A 
ATOM     92  F   UNL A   1      45.704  29.965  34.121  1.00  0.00    -0.206 F 
ATOM     93  C   UNL A   1      46.556  27.598  36.722  1.00  0.00     0.022 A 
BRANCH  90  94
ATOM     94  S   UNL A   1      45.087  25.983  38.457  1.00  0.00     0.124 S 
ATOM     95  O   UNL A   1      44.583  24.783  37.796  1.00  0.00    -0.237 OA
ATOM     96  O   UNL A   1      46.445  25.896  38.986  1.00  0.00    -0.237 OA
ATOM     97  O   UNL A   1      44.127  26.663  39.325  1.00  0.00    -0.744 OA
ENDBRANCH  90  94
ENDBRANCH  64  87
ENDBRANCH  38  39
ENDBRANCH  30  33
ENDBRANCH  28  29
ENDBRANCH  27  28
ENDBRANCH  26  27
ENDBRANCH   1  26
TORSDOF 19
ENDMDL
MODEL 2
REMARK VINA RESULT:     -11.7      2.537      8.016
REMARK SMILES CN(C)C(=O)CCNC(=O)NC[C@H]1CC[C@@H](C(=O)NCCCCNC(=O)c2ccc(-c3c4nc(c(-c5cc(S(=O)(=O)[O-])ccc5F)c5ccc([nH]5)c(-c5cc(S(=O)(=O)[O-])ccc5F)c5nc(c(-c6cc(S(=O)(=O)[O-])ccc6F)c6ccc3[nH]6)C=C5)C=C4)cc2)CC1
REMARK SMILES IDX 20 1 19 2 17 3 18 4 16 6 13 7 14 8 91 9 15 10 90 11 12 12
REMARK SMILES IDX 11 13 8 14 9 15 10 17 7 19 6 20 4 21 1 22 2 23 3 24 5 25
REMARK SMILES IDX 21 26 22 27 23 28 24 29 25 30 26 32 27 33 28 34 89 35 29 36
REMARK SMILES IDX 88 37 30 38 31 39 32 40 82 41 33 42 87 43 81 44 83 45 34 46
REMARK SMILES IDX 86 47 80 48 79 49 35 51 67 52 47 53 66 54 48 55 51 56 65 57
REMARK SMILES IDX 84 58 49 59 50 60 64 62 85 63 52 64 36 65 37 66 45 67 38 68
REMARK SMILES IDX 44 69 46 70 43 71 39 72 40 73 41 74 42 75 68 76 69 77 77 78
REMARK SMILES IDX 70 79 76 80 78 81 75 82 71 83 72 84 73 85 74 86 53 87 54 88
REMARK SMILES IDX 62 89 55 90 61 91 63 92 60 93 56 94 57 95 58 96 59 97
REMARK H PARENT 19 5 8 16 11 18 24 31 83 50 51 61
REMARK Flexibility Score: inf
ROOT
ATOM      1  C   UNL A   1      33.104  28.336  23.959  1.00  0.00     0.116 C 
ENDROOT
BRANCH   1   2
ATOM      2  N   UNL A   1      32.241  29.176  23.163  1.00  0.00    -0.356 N 
ATOM      3  C   UNL A   1      31.060  28.963  22.533  1.00  0.00     0.223 C 
ATOM      4  O   UNL A   1      30.527  29.971  22.050  1.00  0.00    -0.275 OA
ATOM      5  H   UNL A   1      32.581  30.093  23.055  1.00  0.00     0.163 HD
BRANCH   3   6
ATOM      6  C   UNL A   1      30.357  27.605  22.370  1.00  0.00     0.078 C 
ATOM      7  C   UNL A   1      30.798  25.329  24.316  1.00  0.00     0.008 C 
ATOM      8  C   UNL A   1      29.769  26.445  24.601  1.00  0.00     0.006 C 
ATOM      9  C   UNL A   1      31.766  25.600  23.150  1.00  0.00     0.006 C 
ATOM     10  C   UNL A   1      29.291  27.242  23.397  1.00  0.00     0.014 C 
ATOM     11  C   UNL A   1      31.236  26.424  21.989  1.00  0.00     0.014 C 
BRANCH   7  12
ATOM     12  C   UNL A   1      31.586  25.006  25.620  1.00  0.00     0.121 C 
BRANCH  12  13
ATOM     13  N   UNL A   1      30.773  24.359  26.624  1.00  0.00    -0.338 N 
ATOM     14  N   UNL A   1      30.828  22.028  26.228  1.00  0.00    -0.338 N 
ATOM     15  C   UNL A   1      30.399  23.106  26.886  1.00  0.00     0.314 C 
ATOM     16  H   UNL A   1      30.312  21.222  26.460  1.00  0.00     0.165 HD
ATOM     17  O   UNL A   1      29.595  22.931  27.804  1.00  0.00    -0.249 OA
ATOM     18  H   UNL A   1      30.406  24.999  27.275  1.00  0.00     0.165 HD
BRANCH  14  19
ATOM     19  C   UNL A   1      31.868  21.750  25.254  1.00  0.00     0.127 C 
BRANCH  19  20
ATOM     20  C   UNL A   1      33.053  21.001  25.853  1.00  0.00     0.121 C 
BRANCH  20  21
ATOM     21  C   UNL A   1      34.098  22.009  26.287  1.00  0.00     0.223 C 
ATOM     22  C   UNL A   1      36.294  23.031  25.999  1.00  0.00     0.146 C 
ATOM     23  N   UNL A   1      35.377  21.929  25.762  1.00  0.00    -0.349 N 
ATOM     24  C   UNL A   1      35.921  20.793  25.031  1.00  0.00     0.146 C 
ATOM     25  O   UNL A   1      33.752  22.940  27.022  1.00  0.00    -0.275 OA
ENDBRANCH  20  21
ENDBRANCH  19  20
ENDBRANCH  14  19
ENDBRANCH  12  13
ENDBRANCH   7  12
ENDBRANCH   3   6
ENDBRANCH   1   2
BRANCH   1  26
ATOM     26  C   UNL A   1      32.991  28.599  25.459  1.00  0.00     0.023 C 
BRANCH  26  27
ATOM     27  C   UNL A   1      32.421  29.963  25.830  1.00  0.00     0.023 C 
BRANCH  27  28
ATOM     28  C   UNL A   1      32.690  30.424  27.259  1.00  0.00     0.116 C 
BRANCH  28  29
ATOM     29  N   UNL A   1      32.765  31.870  27.433  1.00  0.00    -0.352 N 
ATOM     30  C   UNL A   1      33.867  32.616  27.801  1.00  0.00     0.251 C 
ATOM     31  H   UNL A   1      31.935  32.372  27.268  1.00  0.00     0.163 HD
ATOM     32  O   UNL A   1      33.768  33.829  27.961  1.00  0.00    -0.269 OA
BRANCH  30  33
ATOM     33  C   UNL A   1      35.142  31.909  28.054  1.00  0.00     0.039 A 
ATOM     34  C   UNL A   1      36.321  32.652  28.151  1.00  0.00     0.014 A 
ATOM     35  C   UNL A   1      35.139  30.543  28.343  1.00  0.00     0.014 A 
ATOM     36  C   UNL A   1      37.476  32.043  28.649  1.00  0.00     0.010 A 
ATOM     37  C   UNL A   1      36.266  29.963  28.918  1.00  0.00     0.010 A 
ATOM     38  C   UNL A   1      37.440  30.712  29.097  1.00  0.00    -0.014 A 
BRANCH  38  39
ATOM     39  C   UNL A   1      38.605  30.087  29.783  1.00  0.00     0.031 A 
ATOM     40  C   UNL A   1      39.000  30.547  31.160  1.00  0.00     0.074 A 
ATOM     41  C   UNL A   1      39.362  29.180  29.133  1.00  0.00     0.049 A 
ATOM     42  N   UNL A   1      40.046  30.222  31.875  1.00  0.00    -0.248 NA
ATOM     43  C   UNL A   1      38.119  31.538  31.798  1.00  0.00     0.031 C 
ATOM     44  C   UNL A   1      39.123  28.693  27.772  1.00  0.00     0.029 A 
ATOM     45  N   UNL A   1      40.496  28.511  29.524  1.00  0.00    -0.354 N 
ATOM     46  C   UNL A   1      39.962  30.983  33.037  1.00  0.00     0.074 A 
ATOM     47  C   UNL A   1      38.799  31.833  32.895  1.00  0.00     0.031 C 
ATOM     48  C   UNL A   1      40.061  27.786  27.454  1.00  0.00     0.029 A 
ATOM     49  C   UNL A   1      40.996  27.656  28.567  1.00  0.00     0.049 A 
ATOM     50  H   UNL A   1      40.914  28.632  30.407  1.00  0.00     0.167 HD
ATOM     51  C   UNL A   1      40.763  30.958  34.131  1.00  0.00     0.034 A 
ATOM     52  C   UNL A   1      42.086  26.864  28.581  1.00  0.00     0.034 A 
ATOM     53  C   UNL A   1      41.903  30.085  34.271  1.00  0.00     0.049 A 
ATOM     54  C   UNL A   1      42.957  26.844  29.812  1.00  0.00     0.074 A 
ATOM     55  C   UNL A   1      42.748  29.936  35.357  1.00  0.00     0.029 A 
ATOM     56  N   UNL A   1      42.357  29.211  33.293  1.00  0.00    -0.354 N 
ATOM     57  N   UNL A   1      42.837  27.538  30.919  1.00  0.00    -0.248 NA
ATOM     58  C   UNL A   1      44.105  25.928  29.796  1.00  0.00     0.031 C 
ATOM     59  C   UNL A   1      43.741  29.010  35.018  1.00  0.00     0.029 A 
ATOM     60  C   UNL A   1      43.481  28.533  33.743  1.00  0.00     0.049 A 
ATOM     61  H   UNL A   1      41.943  29.088  32.408  1.00  0.00     0.167 HD
ATOM     62  C   UNL A   1      43.875  27.116  31.745  1.00  0.00     0.074 A 
ATOM     63  C   UNL A   1      44.603  26.102  31.012  1.00  0.00     0.031 C 
ATOM     64  C   UNL A   1      44.196  27.526  32.998  1.00  0.00     0.034 A 
BRANCH  51  65
ATOM     65  C   UNL A   1      40.431  31.915  35.250  1.00  0.00     0.023 A 
ATOM     66  C   UNL A   1      39.430  31.623  36.193  1.00  0.00     0.031 A 
ATOM     67  C   UNL A   1      41.090  33.153  35.353  1.00  0.00     0.131 A 
ATOM     68  C   UNL A   1      39.053  32.588  37.138  1.00  0.00     0.055 A 
ATOM     69  C   UNL A   1      40.771  34.075  36.351  1.00  0.00     0.041 A 
ATOM     70  F   UNL A   1      42.041  33.496  34.470  1.00  0.00    -0.206 F 
ATOM     71  C   UNL A   1      39.735  33.803  37.241  1.00  0.00     0.022 A 
BRANCH  68  72
ATOM     72  S   UNL A   1      37.561  32.293  38.125  1.00  0.00     0.124 S 
ATOM     73  O   UNL A   1      37.991  32.746  39.447  1.00  0.00    -0.237 OA
ATOM     74  O   UNL A   1      36.569  33.125  37.456  1.00  0.00    -0.237 OA
ATOM     75  O   UNL A   1      37.353  30.851  38.006  1.00  0.00    -0.744 OA
ENDBRANCH  68  72
ENDBRANCH  51  65
BRANCH  52  76
ATOM     76  C   UNL A   1      42.429  26.020  27.401  1.00  0.00     0.023 A 
ATOM     77  C   UNL A   1      42.028  24.675  27.338  1.00  0.00     0.031 A 
ATOM     78  C   UNL A   1      43.203  26.527  26.343  1.00  0.00     0.131 A 
ATOM     79  C   UNL A   1      42.445  23.870  26.267  1.00  0.00     0.055 A 
ATOM     80  C   UNL A   1      43.575  25.735  25.255  1.00  0.00     0.041 A 
ATOM     81  F   UNL A   1      43.606  27.808  26.350  1.00  0.00    -0.206 F 
ATOM     82  C   UNL A   1      43.208  24.392  25.221  1.00  0.00     0.022 A 
BRANCH  79  83
ATOM     83  S   UNL A   1      42.049  22.100  26.308  1.00  0.00     0.124 S 
ATOM     84  O   UNL A   1      40.602  22.114  26.123  1.00  0.00    -0.237 OA
ATOM     85  O   UNL A   1      42.834  21.588  25.190  1.00  0.00    -0.237 OA
ATOM     86  O   UNL A   1      42.505  21.679  27.631  1.00  0.00    -0.744 OA
ENDBRANCH  79  83
ENDBRANCH  52  76
BRANCH  64  87
ATOM     87  C   UNL A   1      45.356  26.834  33.668  1.00  0.00     0.023 A 
ATOM     88  C   UNL A   1      46.668  27.329  33.572  1.00  0.00     0.031 A 
ATOM     89  C   UNL A   1      45.143  25.653  34.402  1.00  0.00     0.131 A 
ATOM     90  C   UNL A   1      47.726  26.617  34.159  1.00  0.00     0.055 A 
ATOM     91  C   UNL A   1      46.191  24.979  35.027  1.00  0.00     0.041 A 
ATOM     92  F   UNL A   1      43.908  25.138  34.522  1.00  0.00    -0.206 F 
ATOM     93  C   UNL A   1      47.493  25.454  34.897  1.00  0.00     0.022 A 
BRANCH  90  94
ATOM     94  S   UNL A   1      49.423  27.190  33.877  1.00  0.00     0.124 S 
ATOM     95  O   UNL A   1      49.284  28.635  34.025  1.00  0.00    -0.237 OA
ATOM     96  O   UNL A   1      50.162  26.509  34.935  1.00  0.00    -0.237 OA
ATOM     97  O   UNL A   1      49.720  26.731  32.521  1.00  0.00    -0.744 OA
ENDBRANCH  90  94
ENDBRANCH  64  87
ENDBRANCH  38  39
ENDBRANCH  30  33
ENDBRANCH  28  29
ENDBRANCH  27  28
ENDBRANCH  26  27
ENDBRANCH   1  26
TORSDOF 19
ENDMDL
MODEL 3
REMARK VINA RESULT:     -11.6      2.343      7.750
REMARK SMILES CN(C)C(=O)CCNC(=O)NC[C@H]1CC[C@@H](C(=O)NCCCCNC(=O)c2ccc(-c3c4nc(c(-c5cc(S(=O)(=O)[O-])ccc5F)c5ccc([nH]5)c(-c5cc(S(=O)(=O)[O-])ccc5F)c5nc(c(-c6cc(S(=O)(=O)[O-])ccc6F)c6ccc3[nH]6)C=C5)C=C4)cc2)CC1
REMARK SMILES IDX 20 1 19 2 17 3 18 4 16 6 13 7 14 8 91 9 15 10 90 11 12 12
REMARK SMILES IDX 11 13 8 14 9 15 10 17 7 19 6 20 4 21 1 22 2 23 3 24 5 25
REMARK SMILES IDX 21 26 22 27 23 28 24 29 25 30 26 32 27 33 28 34 89 35 29 36
REMARK SMILES IDX 88 37 30 38 31 39 32 40 82 41 33 42 87 43 81 44 83 45 34 46
REMARK SMILES IDX 86 47 80 48 79 49 35 51 67 52 47 53 66 54 48 55 51 56 65 57
REMARK SMILES IDX 84 58 49 59 50 60 64 62 85 63 52 64 36 65 37 66 45 67 38 68
REMARK SMILES IDX 44 69 46 70 43 71 39 72 40 73 41 74 42 75 68 76 69 77 77 78
REMARK SMILES IDX 70 79 76 80 78 81 75 82 71 83 72 84 73 85 74 86 53 87 54 88
REMARK SMILES IDX 62 89 55 90 61 91 63 92 60 93 56 94 57 95 58 96 59 97
REMARK H PARENT 19 5 8 16 11 18 24 31 83 50 51 61
REMARK Flexibility Score: inf
ROOT
ATOM      1  C   UNL A   1      33.248  28.642  23.556  1.00  0.00     0.116 C 
ENDROOT
BRANCH   1   2
ATOM      2  N   UNL A   1      32.209  29.320  22.817  1.00  0.00    -0.356 N 
ATOM      3  C   UNL A   1      30.950  28.975  22.457  1.00  0.00     0.223 C 
ATOM      4  O   UNL A   1      30.281  29.878  21.936  1.00  0.00    -0.275 OA
ATOM      5  H   UNL A   1      32.471  30.218  22.513  1.00  0.00     0.163 HD
BRANCH   3   6
ATOM      6  C   UNL A   1      30.309  27.588  22.632  1.00  0.00     0.078 C 
ATOM      7  C   UNL A   1      31.565  25.451  24.369  1.00  0.00     0.008 C 
ATOM      8  C   UNL A   1      30.661  26.549  24.970  1.00  0.00     0.006 C 
ATOM      9  C   UNL A   1      32.010  25.680  22.913  1.00  0.00     0.006 C 
ATOM     10  C   UNL A   1      29.726  27.255  24.000  1.00  0.00     0.014 C 
ATOM     11  C   UNL A   1      31.042  26.414  22.001  1.00  0.00     0.014 C 
BRANCH   7  12
ATOM     12  C   UNL A   1      32.800  25.234  25.293  1.00  0.00     0.121 C 
BRANCH  12  13
ATOM     13  N   UNL A   1      32.506  24.410  26.442  1.00  0.00    -0.338 N 
ATOM     14  N   UNL A   1      31.850  22.273  25.670  1.00  0.00    -0.338 N 
ATOM     15  C   UNL A   1      32.063  23.167  26.636  1.00  0.00     0.314 C 
ATOM     16  H   UNL A   1      31.370  21.479  25.998  1.00  0.00     0.165 HD
ATOM     17  O   UNL A   1      31.833  22.818  27.796  1.00  0.00    -0.249 OA
ATOM     18  H   UNL A   1      32.674  24.879  27.290  1.00  0.00     0.165 HD
BRANCH  14  19
ATOM     19  C   UNL A   1      32.151  22.183  24.252  1.00  0.00     0.127 C 
BRANCH  19  20
ATOM     20  C   UNL A   1      33.460  21.455  23.972  1.00  0.00     0.121 C 
BRANCH  20  21
ATOM     21  C   UNL A   1      34.572  22.479  23.855  1.00  0.00     0.223 C 
ATOM     22  C   UNL A   1      36.742  23.330  24.571  1.00  0.00     0.146 C 
ATOM     23  N   UNL A   1      35.565  22.514  24.818  1.00  0.00    -0.349 N 
ATOM     24  C   UNL A   1      35.515  21.844  26.110  1.00  0.00     0.146 C 
ATOM     25  O   UNL A   1      34.617  23.190  22.845  1.00  0.00    -0.275 OA
ENDBRANCH  20  21
ENDBRANCH  19  20
ENDBRANCH  14  19
ENDBRANCH  12  13
ENDBRANCH   7  12
ENDBRANCH   3   6
ENDBRANCH   1   2
BRANCH   1  26
ATOM     26  C   UNL A   1      33.247  28.973  25.047  1.00  0.00     0.023 C 
BRANCH  26  27
ATOM     27  C   UNL A   1      32.283  30.079  25.457  1.00  0.00     0.023 C 
BRANCH  27  28
ATOM     28  C   UNL A   1      32.338  30.492  26.925  1.00  0.00     0.116 C 
BRANCH  28  29
ATOM     29  N   UNL A   1      32.365  31.932  27.156  1.00  0.00    -0.352 N 
ATOM     30  C   UNL A   1      33.421  32.687  27.628  1.00  0.00     0.251 C 
ATOM     31  H   UNL A   1      31.537  32.422  26.953  1.00  0.00     0.163 HD
ATOM     32  O   UNL A   1      33.283  33.889  27.825  1.00  0.00    -0.269 OA
BRANCH  30  33
ATOM     33  C   UNL A   1      34.693  31.998  27.943  1.00  0.00     0.039 A 
ATOM     34  C   UNL A   1      35.856  32.756  28.092  1.00  0.00     0.014 A 
ATOM     35  C   UNL A   1      34.695  30.632  28.237  1.00  0.00     0.014 A 
ATOM     36  C   UNL A   1      36.994  32.165  28.646  1.00  0.00     0.010 A 
ATOM     37  C   UNL A   1      35.801  30.070  28.866  1.00  0.00     0.010 A 
ATOM     38  C   UNL A   1      36.956  30.835  29.097  1.00  0.00    -0.014 A 
BRANCH  38  39
ATOM     39  C   UNL A   1      38.095  30.229  29.840  1.00  0.00     0.031 A 
ATOM     40  C   UNL A   1      38.373  30.645  31.259  1.00  0.00     0.074 A 
ATOM     41  C   UNL A   1      38.934  29.381  29.210  1.00  0.00     0.049 A 
ATOM     42  N   UNL A   1      39.380  30.331  32.034  1.00  0.00    -0.248 NA
ATOM     43  C   UNL A   1      37.408  31.571  31.870  1.00  0.00     0.031 C 
ATOM     44  C   UNL A   1      38.811  28.943  27.817  1.00  0.00     0.029 A 
ATOM     45  N   UNL A   1      40.065  28.742  29.654  1.00  0.00    -0.354 N 
ATOM     46  C   UNL A   1      39.182  31.038  33.215  1.00  0.00     0.074 A 
ATOM     47  C   UNL A   1      37.996  31.847  33.025  1.00  0.00     0.031 C 
ATOM     48  C   UNL A   1      39.807  28.088  27.531  1.00  0.00     0.029 A 
ATOM     49  C   UNL A   1      40.667  27.948  28.702  1.00  0.00     0.049 A 
ATOM     50  H   UNL A   1      40.415  28.841  30.569  1.00  0.00     0.167 HD
ATOM     51  C   UNL A   1      39.904  30.998  34.362  1.00  0.00     0.034 A 
ATOM     52  C   UNL A   1      41.786  27.201  28.762  1.00  0.00     0.034 A 
ATOM     53  C   UNL A   1      41.068  30.166  34.549  1.00  0.00     0.049 A 
ATOM     54  C   UNL A   1      42.569  27.164  30.051  1.00  0.00     0.074 A 
ATOM     55  C   UNL A   1      41.841  30.005  35.686  1.00  0.00     0.029 A 
ATOM     56  N   UNL A   1      41.627  29.353  33.572  1.00  0.00    -0.354 N 
ATOM     57  N   UNL A   1      42.342  27.804  31.174  1.00  0.00    -0.248 NA
ATOM     58  C   UNL A   1      43.754  26.295  30.082  1.00  0.00     0.031 C 
ATOM     59  C   UNL A   1      42.894  29.135  35.382  1.00  0.00     0.029 A 
ATOM     60  C   UNL A   1      42.744  28.702  34.074  1.00  0.00     0.049 A 
ATOM     61  H   UNL A   1      41.281  29.253  32.655  1.00  0.00     0.167 HD
ATOM     62  C   UNL A   1      43.337  27.389  32.055  1.00  0.00     0.074 A 
ATOM     63  C   UNL A   1      44.158  26.436  31.336  1.00  0.00     0.031 C 
ATOM     64  C   UNL A   1      43.552  27.758  33.342  1.00  0.00     0.034 A 
BRANCH  51  65
ATOM     65  C   UNL A   1      39.455  31.893  35.492  1.00  0.00     0.023 A 
ATOM     66  C   UNL A   1      40.016  33.167  35.687  1.00  0.00     0.031 A 
ATOM     67  C   UNL A   1      38.488  31.453  36.412  1.00  0.00     0.131 A 
ATOM     68  C   UNL A   1      39.675  33.918  36.821  1.00  0.00     0.055 A 
ATOM     69  C   UNL A   1      38.087  32.242  37.492  1.00  0.00     0.041 A 
ATOM     70  F   UNL A   1      37.930  30.238  36.290  1.00  0.00    -0.206 F 
ATOM     71  C   UNL A   1      38.694  33.476  37.712  1.00  0.00     0.022 A 
BRANCH  68  72
ATOM     72  S   UNL A   1      40.643  35.405  37.194  1.00  0.00     0.124 S 
ATOM     73  O   UNL A   1      39.643  36.456  37.019  1.00  0.00    -0.237 OA
ATOM     74  O   UNL A   1      41.083  35.162  38.562  1.00  0.00    -0.237 OA
ATOM     75  O   UNL A   1      41.700  35.387  36.184  1.00  0.00    -0.744 OA
ENDBRANCH  68  72
ENDBRANCH  51  65
BRANCH  52  76
ATOM     76  C   UNL A   1      42.246  26.422  27.577  1.00  0.00     0.023 A 
ATOM     77  C   UNL A   1      41.879  25.076  27.415  1.00  0.00     0.031 A 
ATOM     78  C   UNL A   1      43.099  26.993  26.618  1.00  0.00     0.131 A 
ATOM     79  C   UNL A   1      42.404  24.332  26.347  1.00  0.00     0.055 A 
ATOM     80  C   UNL A   1      43.579  26.262  25.529  1.00  0.00     0.041 A 
ATOM     81  F   UNL A   1      43.474  28.279  26.721  1.00  0.00    -0.206 F 
ATOM     82  C   UNL A   1      43.243  24.918  25.397  1.00  0.00     0.022 A 
BRANCH  79  83
ATOM     83  S   UNL A   1      42.040  22.556  26.267  1.00  0.00     0.124 S 
ATOM     84  O   UNL A   1      40.582  22.548  26.295  1.00  0.00    -0.237 OA
ATOM     85  O   UNL A   1      42.661  22.177  25.003  1.00  0.00    -0.237 OA
ATOM     86  O   UNL A   1      42.690  22.022  27.463  1.00  0.00    -0.744 OA
ENDBRANCH  79  83
ENDBRANCH  52  76
BRANCH  64  87
ATOM     87  C   UNL A   1      44.691  27.084  34.065  1.00  0.00     0.023 A 
ATOM     88  C   UNL A   1      44.510  25.886  34.777  1.00  0.00     0.031 A 
ATOM     89  C   UNL A   1      45.974  27.660  34.049  1.00  0.00     0.131 A 
ATOM     90  C   UNL A   1      45.584  25.328  35.487  1.00  0.00     0.055 A 
ATOM     91  C   UNL A   1      47.050  27.072  34.713  1.00  0.00     0.041 A 
ATOM     92  F   UNL A   1      46.200  28.805  33.385  1.00  0.00    -0.206 F 
ATOM     93  C   UNL A   1      46.855  25.906  35.448  1.00  0.00     0.022 A 
BRANCH  90  94
ATOM     94  S   UNL A   1      45.278  23.876  36.530  1.00  0.00     0.124 S 
ATOM     95  O   UNL A   1      44.622  24.468  37.691  1.00  0.00    -0.237 OA
ATOM     96  O   UNL A   1      44.434  23.049  35.674  1.00  0.00    -0.237 OA
ATOM     97  O   UNL A   1      46.617  23.343  36.778  1.00  0.00    -0.744 OA
ENDBRANCH  90  94
ENDBRANCH  64  87
ENDBRANCH  38  39
ENDBRANCH  30  33
ENDBRANCH  28  29
ENDBRANCH  27  28
ENDBRANCH  26  27
ENDBRANCH   1  26
TORSDOF 19
ENDMDL
