MODEL 1
REMARK VINA RESULT:     -12.9      0.000      0.000
REMARK SMILES O=C(NCCCCNC(=O)[C@H]1[C@@H](C(=O)NN2CCOCC2)[C@H]2C=C[C@@H]1CC2)c1ccc(-c2c3nc(c(-c4cc(S(=O)(=O)[O-])ccc4F)c4ccc([nH]4)c(-c4cc(S(=O)(=O)[O-])ccc4F)c4nc(c(-c5cc(S(=O)(=O)[O-])ccc5F)c5ccc2[nH]5)C=C4)C=C3)cc1
REMARK SMILES IDX 5 1 4 2 3 3 1 4 2 5 28 7 29 8 90 9 30 10 89 11 31 12 32 13
REMARK SMILES IDX 33 14 83 15 34 16 88 17 82 18 84 19 35 20 87 21 81 22 80 23
REMARK SMILES IDX 36 25 68 26 48 27 67 28 49 29 52 30 66 31 85 32 50 33 51 34
REMARK SMILES IDX 65 36 86 37 53 38 37 39 38 40 46 41 39 42 45 43 47 44 44 45
REMARK SMILES IDX 40 46 41 47 42 48 43 49 69 50 70 51 78 52 71 53 77 54 79 55
REMARK SMILES IDX 76 56 72 57 73 58 74 59 75 60 54 61 55 62 63 63 56 64 62 65
REMARK SMILES IDX 64 66 61 67 57 68 58 69 59 70 60 71 6 72 7 73 8 74 9 75
REMARK SMILES IDX 10 77 11 78 12 79 25 80 22 81 24 82 26 83 23 84 27 85 13 86
REMARK SMILES IDX 14 87 15 88 16 90 17 91 21 92 18 93 20 94 19 95
REMARK H PARENT 3 6 84 24 52 35 8 76 15 89
REMARK Flexibility Score: inf
ROOT
ATOM      1  C   UNL A   1      31.640  32.275  26.742  1.00  0.00     0.023 C 
ENDROOT
BRANCH   1   2
ATOM      2  C   UNL A   1      32.866  32.866  27.384  1.00  0.00     0.116 C 
BRANCH   2   3
ATOM      3  N   UNL A   1      32.645  34.237  27.816  1.00  0.00    -0.352 N 
ATOM      4  O   UNL A   1      32.898  35.978  29.244  1.00  0.00    -0.269 OA
ATOM      5  C   UNL A   1      33.274  34.879  28.853  1.00  0.00     0.251 C 
ATOM      6  H   UNL A   1      31.975  34.756  27.315  1.00  0.00     0.163 HD
BRANCH   5   7
ATOM      7  C   UNL A   1      34.398  34.176  29.493  1.00  0.00     0.039 A 
ATOM      8  C   UNL A   1      35.703  34.498  29.106  1.00  0.00     0.014 A 
ATOM      9  C   UNL A   1      34.143  33.125  30.372  1.00  0.00     0.014 A 
ATOM     10  C   UNL A   1      36.750  33.688  29.508  1.00  0.00     0.010 A 
ATOM     11  C   UNL A   1      35.214  32.384  30.871  1.00  0.00     0.010 A 
ATOM     12  C   UNL A   1      36.522  32.663  30.443  1.00  0.00    -0.014 A 
BRANCH  12  13
ATOM     13  C   UNL A   1      37.693  32.029  31.088  1.00  0.00     0.031 A 
ATOM     14  C   UNL A   1      38.454  30.917  30.430  1.00  0.00     0.074 A 
ATOM     15  C   UNL A   1      38.046  32.495  32.302  1.00  0.00     0.049 A 
ATOM     16  N   UNL A   1      39.467  30.237  30.897  1.00  0.00    -0.248 NA
ATOM     17  C   UNL A   1      38.022  30.509  29.085  1.00  0.00     0.031 C 
ATOM     18  C   UNL A   1      37.351  33.572  33.022  1.00  0.00     0.029 A 
ATOM     19  N   UNL A   1      39.068  32.149  33.143  1.00  0.00    -0.354 N 
ATOM     20  C   UNL A   1      39.783  29.301  29.919  1.00  0.00     0.074 A 
ATOM     21  C   UNL A   1      38.843  29.496  28.834  1.00  0.00     0.031 C 
ATOM     22  C   UNL A   1      37.997  33.831  34.165  1.00  0.00     0.029 A 
ATOM     23  C   UNL A   1      39.082  32.874  34.312  1.00  0.00     0.049 A 
ATOM     24  H   UNL A   1      39.728  31.450  32.933  1.00  0.00     0.167 HD
ATOM     25  C   UNL A   1      40.767  28.367  29.941  1.00  0.00     0.034 A 
ATOM     26  C   UNL A   1      39.853  32.753  35.408  1.00  0.00     0.034 A 
ATOM     27  C   UNL A   1      41.690  28.206  31.041  1.00  0.00     0.049 A 
ATOM     28  C   UNL A   1      40.906  31.683  35.411  1.00  0.00     0.074 A 
ATOM     29  C   UNL A   1      42.753  27.326  31.151  1.00  0.00     0.029 A 
ATOM     30  N   UNL A   1      41.655  28.931  32.227  1.00  0.00    -0.354 N 
ATOM     31  N   UNL A   1      41.206  30.821  34.467  1.00  0.00    -0.248 NA
ATOM     32  C   UNL A   1      41.720  31.565  36.624  1.00  0.00     0.031 C 
ATOM     33  C   UNL A   1      43.312  27.467  32.426  1.00  0.00     0.029 A 
ATOM     34  C   UNL A   1      42.650  28.490  33.087  1.00  0.00     0.049 A 
ATOM     35  H   UNL A   1      41.015  29.652  32.428  1.00  0.00     0.167 HD
ATOM     36  C   UNL A   1      42.258  30.066  34.970  1.00  0.00     0.074 A 
ATOM     37  C   UNL A   1      42.558  30.599  36.285  1.00  0.00     0.031 C 
ATOM     38  C   UNL A   1      42.916  29.023  34.402  1.00  0.00     0.034 A 
BRANCH  25  39
ATOM     39  C   UNL A   1      40.866  27.413  28.777  1.00  0.00     0.023 A 
ATOM     40  C   UNL A   1      41.864  27.531  27.795  1.00  0.00     0.031 A 
ATOM     41  C   UNL A   1      39.958  26.343  28.668  1.00  0.00     0.131 A 
ATOM     42  C   UNL A   1      41.909  26.619  26.728  1.00  0.00     0.055 A 
ATOM     43  C   UNL A   1      40.047  25.402  27.640  1.00  0.00     0.041 A 
ATOM     44  F   UNL A   1      38.971  26.191  29.565  1.00  0.00    -0.206 F 
ATOM     45  C   UNL A   1      41.022  25.540  26.658  1.00  0.00     0.022 A 
BRANCH  42  46
ATOM     46  S   UNL A   1      43.085  26.910  25.379  1.00  0.00     0.124 S 
ATOM     47  O   UNL A   1      43.171  25.584  24.770  1.00  0.00    -0.237 OA
ATOM     48  O   UNL A   1      42.412  27.933  24.587  1.00  0.00    -0.237 OA
ATOM     49  O   UNL A   1      44.296  27.351  26.067  1.00  0.00    -0.744 OA
ENDBRANCH  42  46
ENDBRANCH  25  39
BRANCH  26  50
ATOM     50  C   UNL A   1      39.615  33.617  36.596  1.00  0.00     0.023 A 
ATOM     51  C   UNL A   1      39.041  33.096  37.764  1.00  0.00     0.031 A 
ATOM     52  C   UNL A   1      39.925  34.991  36.570  1.00  0.00     0.131 A 
ATOM     53  C   UNL A   1      38.743  33.951  38.836  1.00  0.00     0.055 A 
ATOM     54  C   UNL A   1      39.691  35.822  37.664  1.00  0.00     0.041 A 
ATOM     55  F   UNL A   1      40.480  35.542  35.479  1.00  0.00    -0.206 F 
ATOM     56  C   UNL A   1      39.079  35.307  38.801  1.00  0.00     0.022 A 
BRANCH  53  57
ATOM     57  S   UNL A   1      37.802  33.284  40.234  1.00  0.00     0.124 S 
ATOM     58  O   UNL A   1      36.497  33.044  39.627  1.00  0.00    -0.237 OA
ATOM     59  O   UNL A   1      38.577  32.098  40.581  1.00  0.00    -0.237 OA
ATOM     60  O   UNL A   1      37.844  34.365  41.217  1.00  0.00    -0.744 OA
ENDBRANCH  53  57
ENDBRANCH  26  50
BRANCH  38  61
ATOM     61  C   UNL A   1      44.039  28.426  35.208  1.00  0.00     0.023 A 
ATOM     62  C   UNL A   1      43.818  27.354  36.092  1.00  0.00     0.031 A 
ATOM     63  C   UNL A   1      45.336  28.961  35.123  1.00  0.00     0.131 A 
ATOM     64  C   UNL A   1      44.864  26.896  36.906  1.00  0.00     0.055 A 
ATOM     65  C   UNL A   1      46.387  28.458  35.888  1.00  0.00     0.041 A 
ATOM     66  F   UNL A   1      45.598  29.988  34.299  1.00  0.00    -0.206 F 
ATOM     67  C   UNL A   1      46.151  27.429  36.798  1.00  0.00     0.022 A 
BRANCH  64  68
ATOM     68  S   UNL A   1      44.492  25.665  38.184  1.00  0.00     0.124 S 
ATOM     69  O   UNL A   1      43.183  25.176  37.761  1.00  0.00    -0.237 OA
ATOM     70  O   UNL A   1      45.600  24.726  38.045  1.00  0.00    -0.237 OA
ATOM     71  O   UNL A   1      44.492  26.444  39.420  1.00  0.00    -0.744 OA
ENDBRANCH  64  68
ENDBRANCH  38  61
ENDBRANCH  12  13
ENDBRANCH   5   7
ENDBRANCH   2   3
ENDBRANCH   1   2
BRANCH   1  72
ATOM     72  C   UNL A   1      31.678  30.771  26.555  1.00  0.00     0.023 C 
BRANCH  72  73
ATOM     73  C   UNL A   1      32.890  29.982  27.047  1.00  0.00     0.116 C 
BRANCH  73  74
ATOM     74  N   UNL A   1      33.536  29.054  26.149  1.00  0.00    -0.356 N 
ATOM     75  C   UNL A   1      33.072  28.201  25.201  1.00  0.00     0.224 C 
ATOM     76  H   UNL A   1      34.517  29.038  26.243  1.00  0.00     0.163 HD
ATOM     77  O   UNL A   1      33.919  27.793  24.393  1.00  0.00    -0.275 OA
BRANCH  75  78
ATOM     78  C   UNL A   1      31.624  27.755  25.013  1.00  0.00     0.098 C 
ATOM     79  C   UNL A   1      30.792  28.146  23.773  1.00  0.00     0.100 C 
ATOM     80  C   UNL A   1      31.443  26.233  25.325  1.00  0.00     0.025 C 
ATOM     81  C   UNL A   1      30.312  26.810  23.060  1.00  0.00     0.025 C 
ATOM     82  C   UNL A   1      31.971  25.434  24.160  1.00  0.00    -0.027 C 
ATOM     83  C   UNL A   1      29.923  25.903  25.381  1.00  0.00     0.009 C 
ATOM     84  C   UNL A   1      31.401  25.750  22.983  1.00  0.00    -0.027 C 
ATOM     85  C   UNL A   1      29.270  26.148  23.993  1.00  0.00     0.009 C 
BRANCH  79  86
ATOM     86  C   UNL A   1      31.180  29.257  22.786  1.00  0.00     0.238 C 
ATOM     87  O   UNL A   1      32.354  29.345  22.398  1.00  0.00    -0.273 OA
ATOM     88  N   UNL A   1      30.272  30.079  22.151  1.00  0.00    -0.288 N 
ATOM     89  H   UNL A   1      30.601  30.568  21.361  1.00  0.00     0.185 HD
BRANCH  88  90
ATOM     90  N   UNL A   1      28.933  30.295  22.506  1.00  0.00    -0.217 NA
ATOM     91  C   UNL A   1      28.034  30.505  21.353  1.00  0.00     0.136 C 
ATOM     92  C   UNL A   1      28.777  31.461  23.421  1.00  0.00     0.136 C 
ATOM     93  C   UNL A   1      28.077  31.919  20.742  1.00  0.00     0.177 C 
ATOM     94  C   UNL A   1      28.838  32.841  22.756  1.00  0.00     0.177 C 
ATOM     95  O   UNL A   1      27.857  32.933  21.724  1.00  0.00    -0.379 OA
ENDBRANCH  88  90
ENDBRANCH  79  86
ENDBRANCH  75  78
ENDBRANCH  73  74
ENDBRANCH  72  73
ENDBRANCH   1  72
TORSDOF 16
ENDMDL
MODEL 2
REMARK VINA RESULT:     -12.7      1.011      1.506
REMARK SMILES O=C(NCCCCNC(=O)[C@H]1[C@@H](C(=O)NN2CCOCC2)[C@H]2C=C[C@@H]1CC2)c1ccc(-c2c3nc(c(-c4cc(S(=O)(=O)[O-])ccc4F)c4ccc([nH]4)c(-c4cc(S(=O)(=O)[O-])ccc4F)c4nc(c(-c5cc(S(=O)(=O)[O-])ccc5F)c5ccc2[nH]5)C=C4)C=C3)cc1
REMARK SMILES IDX 5 1 4 2 3 3 1 4 2 5 28 7 29 8 90 9 30 10 89 11 31 12 32 13
REMARK SMILES IDX 33 14 83 15 34 16 88 17 82 18 84 19 35 20 87 21 81 22 80 23
REMARK SMILES IDX 36 25 68 26 48 27 67 28 49 29 52 30 66 31 85 32 50 33 51 34
REMARK SMILES IDX 65 36 86 37 53 38 37 39 38 40 46 41 39 42 45 43 47 44 44 45
REMARK SMILES IDX 40 46 41 47 42 48 43 49 69 50 70 51 78 52 71 53 77 54 79 55
REMARK SMILES IDX 76 56 72 57 73 58 74 59 75 60 54 61 55 62 63 63 56 64 62 65
REMARK SMILES IDX 64 66 61 67 57 68 58 69 59 70 60 71 6 72 7 73 8 74 9 75
REMARK SMILES IDX 10 77 11 78 12 79 25 80 22 81 24 82 26 83 23 84 27 85 13 86
REMARK SMILES IDX 14 87 15 88 16 90 17 91 21 92 18 93 20 94 19 95
REMARK H PARENT 3 6 84 24 52 35 8 76 15 89
REMARK Flexibility Score: inf
ROOT
ATOM      1  C   UNL A   1      31.692  31.688  26.549  1.00  0.00     0.023 C 
ENDROOT
BRANCH   1   2
ATOM      2  C   UNL A   1      32.847  32.349  27.253  1.00  0.00     0.116 C 
BRANCH   2   3
ATOM      3  N   UNL A   1      32.546  33.726  27.613  1.00  0.00    -0.352 N 
ATOM      4  O   UNL A   1      32.741  35.570  28.914  1.00  0.00    -0.269 OA
ATOM      5  C   UNL A   1      33.178  34.478  28.571  1.00  0.00     0.251 C 
ATOM      6  H   UNL A   1      31.814  34.162  27.119  1.00  0.00     0.163 HD
BRANCH   5   7
ATOM      7  C   UNL A   1      34.383  33.900  29.188  1.00  0.00     0.039 A 
ATOM      8  C   UNL A   1      34.233  32.994  30.244  1.00  0.00     0.014 A 
ATOM      9  C   UNL A   1      35.642  34.354  28.799  1.00  0.00     0.014 A 
ATOM     10  C   UNL A   1      35.340  32.633  30.991  1.00  0.00     0.010 A 
ATOM     11  C   UNL A   1      36.769  33.893  29.479  1.00  0.00     0.010 A 
ATOM     12  C   UNL A   1      36.623  33.029  30.577  1.00  0.00    -0.014 A 
BRANCH  12  13
ATOM     13  C   UNL A   1      37.795  32.375  31.200  1.00  0.00     0.031 A 
ATOM     14  C   UNL A   1      38.514  31.239  30.536  1.00  0.00     0.074 A 
ATOM     15  C   UNL A   1      38.188  32.845  32.401  1.00  0.00     0.049 A 
ATOM     16  N   UNL A   1      39.522  30.540  30.986  1.00  0.00    -0.248 NA
ATOM     17  C   UNL A   1      38.039  30.827  29.207  1.00  0.00     0.031 C 
ATOM     18  C   UNL A   1      37.535  33.946  33.125  1.00  0.00     0.029 A 
ATOM     19  N   UNL A   1      39.222  32.485  33.220  1.00  0.00    -0.354 N 
ATOM     20  C   UNL A   1      39.793  29.587  30.011  1.00  0.00     0.074 A 
ATOM     21  C   UNL A   1      38.831  29.792  28.947  1.00  0.00     0.031 C 
ATOM     22  C   UNL A   1      38.214  34.201  34.249  1.00  0.00     0.029 A 
ATOM     23  C   UNL A   1      39.281  33.221  34.381  1.00  0.00     0.049 A 
ATOM     24  H   UNL A   1      39.861  31.769  33.002  1.00  0.00     0.167 HD
ATOM     25  C   UNL A   1      40.755  28.632  30.020  1.00  0.00     0.034 A 
ATOM     26  C   UNL A   1      40.076  33.094  35.458  1.00  0.00     0.034 A 
ATOM     27  C   UNL A   1      41.701  28.461  31.099  1.00  0.00     0.049 A 
ATOM     28  C   UNL A   1      41.104  32.000  35.448  1.00  0.00     0.074 A 
ATOM     29  C   UNL A   1      42.746  27.557  31.192  1.00  0.00     0.029 A 
ATOM     30  N   UNL A   1      41.712  29.198  32.278  1.00  0.00    -0.354 N 
ATOM     31  N   UNL A   1      41.361  31.122  34.506  1.00  0.00    -0.248 NA
ATOM     32  C   UNL A   1      41.944  31.876  36.642  1.00  0.00     0.031 C 
ATOM     33  C   UNL A   1      43.339  27.699  32.452  1.00  0.00     0.029 A 
ATOM     34  C   UNL A   1      42.717  28.744  33.118  1.00  0.00     0.049 A 
ATOM     35  H   UNL A   1      41.094  29.937  32.486  1.00  0.00     0.167 HD
ATOM     36  C   UNL A   1      42.408  30.348  34.992  1.00  0.00     0.074 A 
ATOM     37  C   UNL A   1      42.752  30.887  36.293  1.00  0.00     0.031 C 
ATOM     38  C   UNL A   1      43.027  29.284  34.420  1.00  0.00     0.034 A 
BRANCH  25  39
ATOM     39  C   UNL A   1      40.805  27.663  28.864  1.00  0.00     0.023 A 
ATOM     40  C   UNL A   1      41.757  27.771  27.837  1.00  0.00     0.031 A 
ATOM     41  C   UNL A   1      39.895  26.590  28.809  1.00  0.00     0.131 A 
ATOM     42  C   UNL A   1      41.755  26.845  26.781  1.00  0.00     0.055 A 
ATOM     43  C   UNL A   1      39.939  25.636  27.790  1.00  0.00     0.041 A 
ATOM     44  F   UNL A   1      38.949  26.448  29.751  1.00  0.00    -0.206 F 
ATOM     45  C   UNL A   1      40.869  25.765  26.764  1.00  0.00     0.022 A 
BRANCH  42  46
ATOM     46  S   UNL A   1      42.869  27.122  25.376  1.00  0.00     0.124 S 
ATOM     47  O   UNL A   1      44.118  27.464  26.052  1.00  0.00    -0.237 OA
ATOM     48  O   UNL A   1      42.845  25.833  24.695  1.00  0.00    -0.237 OA
ATOM     49  O   UNL A   1      42.241  28.223  24.650  1.00  0.00    -0.744 OA
ENDBRANCH  42  46
ENDBRANCH  25  39
BRANCH  26  50
ATOM     50  C   UNL A   1      39.887  33.976  36.643  1.00  0.00     0.023 A 
ATOM     51  C   UNL A   1      39.320  33.483  37.826  1.00  0.00     0.031 A 
ATOM     52  C   UNL A   1      40.237  35.339  36.597  1.00  0.00     0.131 A 
ATOM     53  C   UNL A   1      39.069  34.356  38.895  1.00  0.00     0.055 A 
ATOM     54  C   UNL A   1      40.049  36.187  37.687  1.00  0.00     0.041 A 
ATOM     55  F   UNL A   1      40.787  35.863  35.490  1.00  0.00    -0.206 F 
ATOM     56  C   UNL A   1      39.444  35.701  38.841  1.00  0.00     0.022 A 
BRANCH  53  57
ATOM     57  S   UNL A   1      38.135  33.731  40.318  1.00  0.00     0.124 S 
ATOM     58  O   UNL A   1      36.996  33.091  39.668  1.00  0.00    -0.237 OA
ATOM     59  O   UNL A   1      39.102  32.836  40.944  1.00  0.00    -0.237 OA
ATOM     60  O   UNL A   1      37.823  34.941  41.076  1.00  0.00    -0.744 OA
ENDBRANCH  53  57
ENDBRANCH  26  50
BRANCH  38  61
ATOM     61  C   UNL A   1      44.156  28.669  35.205  1.00  0.00     0.023 A 
ATOM     62  C   UNL A   1      43.933  27.614  36.107  1.00  0.00     0.031 A 
ATOM     63  C   UNL A   1      45.462  29.173  35.081  1.00  0.00     0.131 A 
ATOM     64  C   UNL A   1      44.987  27.141  36.900  1.00  0.00     0.055 A 
ATOM     65  C   UNL A   1      46.520  28.654  35.826  1.00  0.00     0.041 A 
ATOM     66  F   UNL A   1      45.728  30.184  34.239  1.00  0.00    -0.206 F 
ATOM     67  C   UNL A   1      46.283  27.642  36.753  1.00  0.00     0.022 A 
BRANCH  64  68
ATOM     68  S   UNL A   1      44.619  25.933  38.201  1.00  0.00     0.124 S 
ATOM     69  O   UNL A   1      43.950  24.874  37.451  1.00  0.00    -0.237 OA
ATOM     70  O   UNL A   1      45.946  25.611  38.714  1.00  0.00    -0.237 OA
ATOM     71  O   UNL A   1      43.762  26.675  39.124  1.00  0.00    -0.744 OA
ENDBRANCH  64  68
ENDBRANCH  38  61
ENDBRANCH  12  13
ENDBRANCH   5   7
ENDBRANCH   2   3
ENDBRANCH   1   2
BRANCH   1  72
ATOM     72  C   UNL A   1      31.841  30.193  26.342  1.00  0.00     0.023 C 
BRANCH  72  73
ATOM     73  C   UNL A   1      33.231  29.561  26.395  1.00  0.00     0.116 C 
BRANCH  73  74
ATOM     74  N   UNL A   1      33.842  29.104  25.169  1.00  0.00    -0.356 N 
ATOM     75  C   UNL A   1      33.635  28.025  24.373  1.00  0.00     0.224 C 
ATOM     76  H   UNL A   1      34.557  29.698  24.844  1.00  0.00     0.163 HD
ATOM     77  O   UNL A   1      34.109  28.110  23.230  1.00  0.00    -0.275 OA
BRANCH  75  78
ATOM     78  C   UNL A   1      32.840  26.772  24.732  1.00  0.00     0.098 C 
ATOM     79  C   UNL A   1      32.019  25.985  23.687  1.00  0.00     0.100 C 
ATOM     80  C   UNL A   1      33.678  25.787  25.611  1.00  0.00     0.025 C 
ATOM     81  C   UNL A   1      32.564  24.493  23.654  1.00  0.00     0.025 C 
ATOM     82  C   UNL A   1      34.659  25.062  24.724  1.00  0.00    -0.027 C 
ATOM     83  C   UNL A   1      32.740  24.675  26.164  1.00  0.00     0.009 C 
ATOM     84  C   UNL A   1      34.083  24.411  23.697  1.00  0.00    -0.027 C 
ATOM     85  C   UNL A   1      32.159  23.834  24.995  1.00  0.00     0.009 C 
BRANCH  79  86
ATOM     86  C   UNL A   1      31.640  26.524  22.299  1.00  0.00     0.238 C 
ATOM     87  O   UNL A   1      32.033  25.928  21.286  1.00  0.00    -0.273 OA
ATOM     88  N   UNL A   1      30.738  27.544  22.086  1.00  0.00    -0.288 N 
ATOM     89  H   UNL A   1      30.381  27.630  21.172  1.00  0.00     0.185 HD
BRANCH  88  90
ATOM     90  N   UNL A   1      30.271  28.472  23.027  1.00  0.00    -0.217 NA
ATOM     91  C   UNL A   1      28.881  28.234  23.466  1.00  0.00     0.136 C 
ATOM     92  C   UNL A   1      30.353  29.873  22.523  1.00  0.00     0.136 C 
ATOM     93  C   UNL A   1      27.796  28.718  22.485  1.00  0.00     0.177 C 
ATOM     94  C   UNL A   1      29.252  30.291  21.543  1.00  0.00     0.177 C 
ATOM     95  O   UNL A   1      27.968  30.091  22.131  1.00  0.00    -0.379 OA
ENDBRANCH  88  90
ENDBRANCH  79  86
ENDBRANCH  75  78
ENDBRANCH  73  74
ENDBRANCH  72  73
ENDBRANCH   1  72
TORSDOF 16
ENDMDL
MODEL 3
REMARK VINA RESULT:     -12.6      6.396     12.304
REMARK SMILES O=C(NCCCCNC(=O)[C@H]1[C@@H](C(=O)NN2CCOCC2)[C@H]2C=C[C@@H]1CC2)c1ccc(-c2c3nc(c(-c4cc(S(=O)(=O)[O-])ccc4F)c4ccc([nH]4)c(-c4cc(S(=O)(=O)[O-])ccc4F)c4nc(c(-c5cc(S(=O)(=O)[O-])ccc5F)c5ccc2[nH]5)C=C4)C=C3)cc1
REMARK SMILES IDX 5 1 4 2 3 3 1 4 2 5 28 7 29 8 90 9 30 10 89 11 31 12 32 13
REMARK SMILES IDX 33 14 83 15 34 16 88 17 82 18 84 19 35 20 87 21 81 22 80 23
REMARK SMILES IDX 36 25 68 26 48 27 67 28 49 29 52 30 66 31 85 32 50 33 51 34
REMARK SMILES IDX 65 36 86 37 53 38 37 39 38 40 46 41 39 42 45 43 47 44 44 45
REMARK SMILES IDX 40 46 41 47 42 48 43 49 69 50 70 51 78 52 71 53 77 54 79 55
REMARK SMILES IDX 76 56 72 57 73 58 74 59 75 60 54 61 55 62 63 63 56 64 62 65
REMARK SMILES IDX 64 66 61 67 57 68 58 69 59 70 60 71 6 72 7 73 8 74 9 75
REMARK SMILES IDX 10 77 11 78 12 79 25 80 22 81 24 82 26 83 23 84 27 85 13 86
REMARK SMILES IDX 14 87 15 88 16 90 17 91 21 92 18 93 20 94 19 95
REMARK H PARENT 3 6 84 24 52 35 8 76 15 89
REMARK Flexibility Score: inf
ROOT
ATOM      1  C   UNL A   1      38.536  19.687  25.277  1.00  0.00     0.023 C 
ENDROOT
BRANCH   1   2
ATOM      2  C   UNL A   1      39.688  20.137  26.134  1.00  0.00     0.116 C 
BRANCH   2   3
ATOM      3  N   UNL A   1      40.766  19.160  26.151  1.00  0.00    -0.352 N 
ATOM      4  O   UNL A   1      42.944  18.542  26.060  1.00  0.00    -0.269 OA
ATOM      5  C   UNL A   1      42.110  19.425  26.221  1.00  0.00     0.251 C 
ATOM      6  H   UNL A   1      40.504  18.211  26.105  1.00  0.00     0.163 HD
BRANCH   5   7
ATOM      7  C   UNL A   1      42.504  20.822  26.468  1.00  0.00     0.039 A 
ATOM      8  C   UNL A   1      42.642  21.261  27.790  1.00  0.00     0.014 A 
ATOM      9  C   UNL A   1      42.610  21.708  25.397  1.00  0.00     0.014 A 
ATOM     10  C   UNL A   1      42.768  22.615  28.045  1.00  0.00     0.010 A 
ATOM     11  C   UNL A   1      42.857  23.056  25.655  1.00  0.00     0.010 A 
ATOM     12  C   UNL A   1      42.939  23.515  26.980  1.00  0.00    -0.014 A 
BRANCH  12  13
ATOM     13  C   UNL A   1      43.384  24.892  27.290  1.00  0.00     0.031 A 
ATOM     14  C   UNL A   1      42.446  25.921  27.845  1.00  0.00     0.074 A 
ATOM     15  C   UNL A   1      44.678  25.183  27.047  1.00  0.00     0.049 A 
ATOM     16  N   UNL A   1      42.685  27.177  28.118  1.00  0.00    -0.248 NA
ATOM     17  C   UNL A   1      41.067  25.496  28.121  1.00  0.00     0.031 C 
ATOM     18  C   UNL A   1      45.660  24.239  26.495  1.00  0.00     0.029 A 
ATOM     19  N   UNL A   1      45.399  26.330  27.235  1.00  0.00    -0.354 N 
ATOM     20  C   UNL A   1      41.483  27.705  28.574  1.00  0.00     0.074 A 
ATOM     21  C   UNL A   1      40.511  26.631  28.531  1.00  0.00     0.031 C 
ATOM     22  C   UNL A   1      46.860  24.828  26.441  1.00  0.00     0.029 A 
ATOM     23  C   UNL A   1      46.715  26.217  26.850  1.00  0.00     0.049 A 
ATOM     24  H   UNL A   1      45.015  27.155  27.609  1.00  0.00     0.167 HD
ATOM     25  C   UNL A   1      41.228  28.972  28.983  1.00  0.00     0.034 A 
ATOM     26  C   UNL A   1      47.690  27.140  26.785  1.00  0.00     0.034 A 
ATOM     27  C   UNL A   1      42.226  30.017  29.018  1.00  0.00     0.049 A 
ATOM     28  C   UNL A   1      47.359  28.542  27.209  1.00  0.00     0.074 A 
ATOM     29  C   UNL A   1      42.090  31.323  29.457  1.00  0.00     0.029 A 
ATOM     30  N   UNL A   1      43.541  29.881  28.586  1.00  0.00    -0.354 N 
ATOM     31  N   UNL A   1      46.222  29.019  27.661  1.00  0.00    -0.248 NA
ATOM     32  C   UNL A   1      48.438  29.530  27.113  1.00  0.00     0.031 C 
ATOM     33  C   UNL A   1      43.296  31.993  29.223  1.00  0.00     0.029 A 
ATOM     34  C   UNL A   1      44.213  31.088  28.711  1.00  0.00     0.049 A 
ATOM     35  H   UNL A   1      43.937  29.048  28.240  1.00  0.00     0.167 HD
ATOM     36  C   UNL A   1      46.454  30.364  27.918  1.00  0.00     0.074 A 
ATOM     37  C   UNL A   1      47.848  30.610  27.601  1.00  0.00     0.031 C 
ATOM     38  C   UNL A   1      45.597  31.314  28.368  1.00  0.00     0.034 A 
BRANCH  25  39
ATOM     39  C   UNL A   1      39.813  29.321  29.373  1.00  0.00     0.023 A 
ATOM     40  C   UNL A   1      39.409  29.426  30.714  1.00  0.00     0.031 A 
ATOM     41  C   UNL A   1      38.855  29.584  28.375  1.00  0.00     0.131 A 
ATOM     42  C   UNL A   1      38.078  29.749  31.022  1.00  0.00     0.055 A 
ATOM     43  C   UNL A   1      37.549  29.967  28.687  1.00  0.00     0.041 A 
ATOM     44  F   UNL A   1      39.177  29.479  27.076  1.00  0.00    -0.206 F 
ATOM     45  C   UNL A   1      37.151  30.044  30.018  1.00  0.00     0.022 A 
BRANCH  42  46
ATOM     46  S   UNL A   1      37.543  29.689  32.755  1.00  0.00     0.124 S 
ATOM     47  O   UNL A   1      36.281  30.424  32.700  1.00  0.00    -0.237 OA
ATOM     48  O   UNL A   1      37.436  28.257  33.004  1.00  0.00    -0.237 OA
ATOM     49  O   UNL A   1      38.620  30.369  33.471  1.00  0.00    -0.744 OA
ENDBRANCH  42  46
ENDBRANCH  25  39
BRANCH  26  50
ATOM     50  C   UNL A   1      49.031  26.784  26.246  1.00  0.00     0.023 A 
ATOM     51  C   UNL A   1      49.456  27.258  24.996  1.00  0.00     0.031 A 
ATOM     52  C   UNL A   1      49.897  25.932  26.958  1.00  0.00     0.131 A 
ATOM     53  C   UNL A   1      50.685  26.833  24.472  1.00  0.00     0.055 A 
ATOM     54  C   UNL A   1      51.149  25.569  26.462  1.00  0.00     0.041 A 
ATOM     55  F   UNL A   1      49.543  25.453  28.161  1.00  0.00    -0.206 F 
ATOM     56  C   UNL A   1      51.543  26.006  25.202  1.00  0.00     0.022 A 
BRANCH  53  57
ATOM     57  S   UNL A   1      51.098  27.287  22.766  1.00  0.00     0.124 S 
ATOM     58  O   UNL A   1      51.150  28.743  22.850  1.00  0.00    -0.237 OA
ATOM     59  O   UNL A   1      52.375  26.610  22.573  1.00  0.00    -0.237 OA
ATOM     60  O   UNL A   1      49.982  26.746  21.992  1.00  0.00    -0.744 OA
ENDBRANCH  53  57
ENDBRANCH  26  50
BRANCH  38  61
ATOM     61  C   UNL A   1      46.172  32.692  28.566  1.00  0.00     0.023 A 
ATOM     62  C   UNL A   1      46.361  33.569  27.483  1.00  0.00     0.031 A 
ATOM     63  C   UNL A   1      46.573  33.116  29.844  1.00  0.00     0.131 A 
ATOM     64  C   UNL A   1      47.000  34.800  27.688  1.00  0.00     0.055 A 
ATOM     65  C   UNL A   1      47.149  34.369  30.052  1.00  0.00     0.041 A 
ATOM     66  F   UNL A   1      46.420  32.314  30.909  1.00  0.00    -0.206 F 
ATOM     67  C   UNL A   1      47.379  35.213  28.968  1.00  0.00     0.022 A 
BRANCH  64  68
ATOM     68  S   UNL A   1      47.423  35.809  26.242  1.00  0.00     0.124 S 
ATOM     69  O   UNL A   1      46.406  36.855  26.295  1.00  0.00    -0.237 OA
ATOM     70  O   UNL A   1      48.787  36.230  26.542  1.00  0.00    -0.237 OA
ATOM     71  O   UNL A   1      47.295  34.876  25.125  1.00  0.00    -0.744 OA
ENDBRANCH  64  68
ENDBRANCH  38  61
ENDBRANCH  12  13
ENDBRANCH   5   7
ENDBRANCH   2   3
ENDBRANCH   1   2
BRANCH   1  72
ATOM     72  C   UNL A   1      37.519  20.765  24.957  1.00  0.00     0.023 C 
BRANCH  72  73
ATOM     73  C   UNL A   1      37.791  22.206  25.383  1.00  0.00     0.116 C 
BRANCH  73  74
ATOM     74  N   UNL A   1      36.726  22.973  25.986  1.00  0.00    -0.356 N 
ATOM     75  C   UNL A   1      35.395  23.071  25.737  1.00  0.00     0.224 C 
ATOM     76  H   UNL A   1      37.027  23.542  26.731  1.00  0.00     0.163 HD
ATOM     77  O   UNL A   1      34.721  23.572  26.650  1.00  0.00    -0.275 OA
BRANCH  75  78
ATOM     78  C   UNL A   1      34.666  22.580  24.489  1.00  0.00     0.098 C 
ATOM     79  C   UNL A   1      33.709  21.369  24.513  1.00  0.00     0.100 C 
ATOM     80  C   UNL A   1      34.020  23.762  23.694  1.00  0.00     0.025 C 
ATOM     81  C   UNL A   1      32.283  21.858  24.012  1.00  0.00     0.025 C 
ATOM     82  C   UNL A   1      32.765  24.196  24.408  1.00  0.00    -0.027 C 
ATOM     83  C   UNL A   1      33.534  23.238  22.311  1.00  0.00     0.009 C 
ATOM     84  C   UNL A   1      31.875  23.204  24.593  1.00  0.00    -0.027 C 
ATOM     85  C   UNL A   1      32.418  22.176  22.503  1.00  0.00     0.009 C 
BRANCH  79  86
ATOM     86  C   UNL A   1      33.633  20.348  25.658  1.00  0.00     0.238 C 
ATOM     87  O   UNL A   1      33.351  20.734  26.802  1.00  0.00    -0.273 OA
ATOM     88  N   UNL A   1      33.688  18.981  25.480  1.00  0.00    -0.288 N 
ATOM     89  H   UNL A   1      33.375  18.428  26.232  1.00  0.00     0.185 HD
BRANCH  88  90
ATOM     90  N   UNL A   1      34.141  18.293  24.346  1.00  0.00    -0.217 NA
ATOM     91  C   UNL A   1      33.157  17.340  23.790  1.00  0.00     0.136 C 
ATOM     92  C   UNL A   1      35.400  17.541  24.611  1.00  0.00     0.136 C 
ATOM     93  C   UNL A   1      33.058  15.997  24.538  1.00  0.00     0.177 C 
ATOM     94  C   UNL A   1      35.236  16.217  25.367  1.00  0.00     0.177 C 
ATOM     95  O   UNL A   1      34.331  15.362  24.672  1.00  0.00    -0.379 OA
ENDBRANCH  88  90
ENDBRANCH  79  86
ENDBRANCH  75  78
ENDBRANCH  73  74
ENDBRANCH  72  73
ENDBRANCH   1  72
TORSDOF 16
ENDMDL
