MODEL 1
REMARK VINA RESULT:     -11.2      0.000      0.000
REMARK SMILES CN(C)Nc1ncnc(Nc2ccc(C(=O)NCCCCNC(=O)c3ccc(-c4c5nc(c(-c6cc(S(=O)(=O)[O-])ccc6F)c6ccc([nH]6)c(-c6cc(S(=O)(=O)[O-])ccc6F)c6nc(c(-c7cc(S(=O)(=O)[O-])ccc7F)c7ccc4[nH]7)C=C6)C=C5)cc3)cc2)c1[N+](=O)[O-]
REMARK SMILES IDX 19 1 18 2 17 3 15 4 16 5 14 7 11 8 12 9 89 10 13 11 88 12
REMARK SMILES IDX 10 13 9 15 5 16 6 17 90 18 7 19 8 20 4 21 2 23 1 24 3 25
REMARK SMILES IDX 91 26 92 27 93 28 20 29 21 30 22 31 23 32 24 34 25 35 26 36
REMARK SMILES IDX 87 37 27 38 86 39 28 40 29 41 30 42 80 43 31 44 85 45 79 46
REMARK SMILES IDX 81 47 32 48 84 49 78 50 77 51 33 53 65 54 45 55 64 56 46 57
REMARK SMILES IDX 49 58 63 59 82 60 47 61 48 62 62 64 83 65 50 66 34 67 35 68
REMARK SMILES IDX 43 69 36 70 42 71 44 72 41 73 37 74 38 75 39 76 40 77 66 78
REMARK SMILES IDX 67 79 75 80 68 81 74 82 76 83 73 84 69 85 70 86 71 87 72 88
REMARK SMILES IDX 51 89 52 90 60 91 53 92 59 93 61 94 58 95 54 96 55 97 56 98
REMARK SMILES IDX 57 99
REMARK H PARENT 17 6 10 14 4 22 22 33 81 52 49 63
REMARK Flexibility Score: inf
ROOT
ATOM      1  C   UNL A   1      32.504  29.670  25.029  1.00  0.00     0.023 C 
ENDROOT
BRANCH   1   2
ATOM      2  C   UNL A   1      31.033  30.094  25.012  1.00  0.00     0.116 C 
BRANCH   2   3
ATOM      3  N   UNL A   1      30.549  30.191  23.649  1.00  0.00    -0.352 N 
ATOM      4  C   UNL A   1      30.272  29.243  22.696  1.00  0.00     0.251 C 
ATOM      5  O   UNL A   1      29.851  29.631  21.606  1.00  0.00    -0.269 OA
ATOM      6  H   UNL A   1      30.387  31.115  23.349  1.00  0.00     0.163 HD
BRANCH   4   7
ATOM      7  C   UNL A   1      30.395  27.778  22.936  1.00  0.00     0.039 A 
ATOM      8  C   UNL A   1      30.559  25.045  23.631  1.00  0.00     0.040 A 
ATOM      9  C   UNL A   1      29.523  25.834  24.125  1.00  0.00     0.027 A 
ATOM     10  C   UNL A   1      31.438  25.603  22.694  1.00  0.00     0.027 A 
ATOM     11  C   UNL A   1      29.455  27.194  23.800  1.00  0.00     0.016 A 
ATOM     12  C   UNL A   1      31.346  26.953  22.336  1.00  0.00     0.016 A 
BRANCH   8  13
ATOM     13  N   UNL A   1      30.643  23.684  23.989  1.00  0.00    -0.334 N 
ATOM     14  H   UNL A   1      29.964  23.071  23.623  1.00  0.00     0.168 HD
BRANCH  13  15
ATOM     15  C   UNL A   1      31.633  23.141  24.832  1.00  0.00     0.215 A 
ATOM     16  C   UNL A   1      33.727  22.110  25.277  1.00  0.00     0.225 A 
ATOM     17  N   UNL A   1      33.471  22.135  26.603  1.00  0.00    -0.212 NA
ATOM     18  C   UNL A   1      32.779  22.520  24.361  1.00  0.00     0.354 A 
ATOM     19  C   UNL A   1      32.310  22.669  26.984  1.00  0.00     0.227 A 
ATOM     20  N   UNL A   1      31.403  23.202  26.164  1.00  0.00    -0.212 NA
BRANCH  16  21
ATOM     21  N   UNL A   1      35.054  21.761  25.008  1.00  0.00    -0.298 N 
ATOM     22  H   UNL A   1      35.213  21.031  24.367  1.00  0.00     0.184 HD
BRANCH  21  23
ATOM     23  N   UNL A   1      36.190  22.384  25.587  1.00  0.00    -0.228 NA
ATOM     24  C   UNL A   1      37.427  21.640  25.286  1.00  0.00     0.130 C 
ATOM     25  C   UNL A   1      36.307  23.720  24.972  1.00  0.00     0.130 C 
ENDBRANCH  21  23
ENDBRANCH  16  21
BRANCH  18  26
ATOM     26  N   UNL A   1      32.952  22.288  22.960  1.00  0.00     0.070 N 
ATOM     27  O   UNL A   1      33.821  22.960  22.380  1.00  0.00    -0.258 OA
ATOM     28  O   UNL A   1      32.158  21.521  22.400  1.00  0.00    -0.258 OA
ENDBRANCH  18  26
ENDBRANCH  13  15
ENDBRANCH   8  13
ENDBRANCH   4   7
ENDBRANCH   2   3
ENDBRANCH   1   2
BRANCH   1  29
ATOM     29  C   UNL A   1      32.802  28.477  25.944  1.00  0.00     0.023 C 
BRANCH  29  30
ATOM     30  C   UNL A   1      33.793  28.760  27.070  1.00  0.00     0.116 C 
BRANCH  30  31
ATOM     31  N   UNL A   1      33.741  30.136  27.538  1.00  0.00    -0.352 N 
ATOM     32  C   UNL A   1      34.679  30.827  28.272  1.00  0.00     0.251 C 
ATOM     33  H   UNL A   1      32.929  30.639  27.301  1.00  0.00     0.163 HD
ATOM     34  O   UNL A   1      34.425  31.948  28.689  1.00  0.00    -0.269 OA
BRANCH  32  35
ATOM     35  C   UNL A   1      35.971  30.178  28.584  1.00  0.00     0.039 A 
ATOM     36  C   UNL A   1      37.037  30.341  27.697  1.00  0.00     0.014 A 
ATOM     37  C   UNL A   1      36.137  29.441  29.761  1.00  0.00     0.014 A 
ATOM     38  C   UNL A   1      38.292  29.822  28.023  1.00  0.00     0.010 A 
ATOM     39  C   UNL A   1      37.403  28.983  30.114  1.00  0.00     0.010 A 
ATOM     40  C   UNL A   1      38.493  29.171  29.251  1.00  0.00    -0.014 A 
BRANCH  40  41
ATOM     41  C   UNL A   1      39.836  28.678  29.650  1.00  0.00     0.031 A 
ATOM     42  C   UNL A   1      40.611  29.393  30.721  1.00  0.00     0.074 A 
ATOM     43  C   UNL A   1      40.382  27.631  29.001  1.00  0.00     0.049 A 
ATOM     44  N   UNL A   1      41.823  29.168  31.159  1.00  0.00    -0.248 NA
ATOM     45  C   UNL A   1      39.941  30.534  31.363  1.00  0.00     0.031 C 
ATOM     46  C   UNL A   1      39.743  26.881  27.918  1.00  0.00     0.029 A 
ATOM     47  N   UNL A   1      41.601  27.019  29.152  1.00  0.00    -0.354 N 
ATOM     48  C   UNL A   1      42.066  30.145  32.120  1.00  0.00     0.074 A 
ATOM     49  C   UNL A   1      40.899  31.002  32.147  1.00  0.00     0.031 C 
ATOM     50  C   UNL A   1      40.563  25.895  27.521  1.00  0.00     0.029 A 
ATOM     51  C   UNL A   1      41.803  25.967  28.288  1.00  0.00     0.049 A 
ATOM     52  H   UNL A   1      42.269  27.306  29.816  1.00  0.00     0.167 HD
ATOM     53  C   UNL A   1      43.151  30.296  32.921  1.00  0.00     0.034 A 
ATOM     54  C   UNL A   1      42.870  25.159  28.129  1.00  0.00     0.034 A 
ATOM     55  C   UNL A   1      44.302  29.428  32.883  1.00  0.00     0.049 A 
ATOM     56  C   UNL A   1      44.077  25.367  29.006  1.00  0.00     0.074 A 
ATOM     57  C   UNL A   1      45.433  29.457  33.679  1.00  0.00     0.029 A 
ATOM     58  N   UNL A   1      44.475  28.376  31.991  1.00  0.00    -0.354 N 
ATOM     59  N   UNL A   1      44.273  26.265  29.945  1.00  0.00    -0.248 NA
ATOM     60  C   UNL A   1      45.204  24.447  28.807  1.00  0.00     0.031 C 
ATOM     61  C   UNL A   1      46.315  28.467  33.228  1.00  0.00     0.029 A 
ATOM     62  C   UNL A   1      45.705  27.770  32.198  1.00  0.00     0.049 A 
ATOM     63  H   UNL A   1      43.819  28.102  31.309  1.00  0.00     0.167 HD
ATOM     64  C   UNL A   1      45.533  25.992  30.471  1.00  0.00     0.074 A 
ATOM     65  C   UNL A   1      46.044  24.843  29.752  1.00  0.00     0.031 C 
ATOM     66  C   UNL A   1      46.205  26.631  31.463  1.00  0.00     0.034 A 
BRANCH  53  67
ATOM     67  C   UNL A   1      43.138  31.462  33.883  1.00  0.00     0.023 A 
ATOM     68  C   UNL A   1      42.581  31.350  35.169  1.00  0.00     0.031 A 
ATOM     69  C   UNL A   1      43.644  32.715  33.496  1.00  0.00     0.131 A 
ATOM     70  C   UNL A   1      42.456  32.485  35.982  1.00  0.00     0.055 A 
ATOM     71  C   UNL A   1      43.599  33.822  34.345  1.00  0.00     0.041 A 
ATOM     72  F   UNL A   1      44.172  32.892  32.274  1.00  0.00    -0.206 F 
ATOM     73  C   UNL A   1      42.985  33.717  35.590  1.00  0.00     0.022 A 
BRANCH  70  74
ATOM     74  S   UNL A   1      41.446  32.366  37.484  1.00  0.00     0.124 S 
ATOM     75  O   UNL A   1      41.296  33.774  37.850  1.00  0.00    -0.237 OA
ATOM     76  O   UNL A   1      40.242  31.700  37.003  1.00  0.00    -0.237 OA
ATOM     77  O   UNL A   1      42.274  31.579  38.394  1.00  0.00    -0.744 OA
ENDBRANCH  70  74
ENDBRANCH  53  67
BRANCH  54  78
ATOM     78  C   UNL A   1      42.852  24.079  27.102  1.00  0.00     0.023 A 
ATOM     79  C   UNL A   1      42.208  22.858  27.356  1.00  0.00     0.031 A 
ATOM     80  C   UNL A   1      43.512  24.234  25.870  1.00  0.00     0.131 A 
ATOM     81  C   UNL A   1      42.275  21.823  26.411  1.00  0.00     0.055 A 
ATOM     82  C   UNL A   1      43.534  23.219  24.913  1.00  0.00     0.041 A 
ATOM     83  F   UNL A   1      44.138  25.385  25.576  1.00  0.00    -0.206 F 
ATOM     84  C   UNL A   1      42.923  21.998  25.186  1.00  0.00     0.022 A 
BRANCH  81  85
ATOM     85  S   UNL A   1      41.565  20.209  26.840  1.00  0.00     0.124 S 
ATOM     86  O   UNL A   1      40.401  20.597  27.629  1.00  0.00    -0.237 OA
ATOM     87  O   UNL A   1      41.288  19.641  25.524  1.00  0.00    -0.237 OA
ATOM     88  O   UNL A   1      42.636  19.554  27.587  1.00  0.00    -0.744 OA
ENDBRANCH  81  85
ENDBRANCH  54  78
BRANCH  66  89
ATOM     89  C   UNL A   1      47.545  26.061  31.856  1.00  0.00     0.023 A 
ATOM     90  C   UNL A   1      47.676  25.118  32.891  1.00  0.00     0.031 A 
ATOM     91  C   UNL A   1      48.713  26.481  31.192  1.00  0.00     0.131 A 
ATOM     92  C   UNL A   1      48.950  24.668  33.270  1.00  0.00     0.055 A 
ATOM     93  C   UNL A   1      49.971  25.985  31.534  1.00  0.00     0.041 A 
ATOM     94  F   UNL A   1      48.646  27.381  30.198  1.00  0.00    -0.206 F 
ATOM     95  C   UNL A   1      50.097  25.085  32.587  1.00  0.00     0.022 A 
BRANCH  92  96
ATOM     96  S   UNL A   1      49.099  23.599  34.727  1.00  0.00     0.124 S 
ATOM     97  O   UNL A   1      49.809  22.445  34.185  1.00  0.00    -0.237 OA
ATOM     98  O   UNL A   1      49.856  24.436  35.653  1.00  0.00    -0.237 OA
ATOM     99  O   UNL A   1      47.711  23.348  35.113  1.00  0.00    -0.744 OA
ENDBRANCH  92  96
ENDBRANCH  66  89
ENDBRANCH  40  41
ENDBRANCH  32  35
ENDBRANCH  30  31
ENDBRANCH  29  30
ENDBRANCH   1  29
TORSDOF 19
ENDMDL
MODEL 2
REMARK VINA RESULT:     -11.2      3.028      8.190
REMARK SMILES CN(C)Nc1ncnc(Nc2ccc(C(=O)NCCCCNC(=O)c3ccc(-c4c5nc(c(-c6cc(S(=O)(=O)[O-])ccc6F)c6ccc([nH]6)c(-c6cc(S(=O)(=O)[O-])ccc6F)c6nc(c(-c7cc(S(=O)(=O)[O-])ccc7F)c7ccc4[nH]7)C=C6)C=C5)cc3)cc2)c1[N+](=O)[O-]
REMARK SMILES IDX 19 1 18 2 17 3 15 4 16 5 14 7 11 8 12 9 89 10 13 11 88 12
REMARK SMILES IDX 10 13 9 15 5 16 6 17 90 18 7 19 8 20 4 21 2 23 1 24 3 25
REMARK SMILES IDX 91 26 92 27 93 28 20 29 21 30 22 31 23 32 24 34 25 35 26 36
REMARK SMILES IDX 87 37 27 38 86 39 28 40 29 41 30 42 80 43 31 44 85 45 79 46
REMARK SMILES IDX 81 47 32 48 84 49 78 50 77 51 33 53 65 54 45 55 64 56 46 57
REMARK SMILES IDX 49 58 63 59 82 60 47 61 48 62 62 64 83 65 50 66 34 67 35 68
REMARK SMILES IDX 43 69 36 70 42 71 44 72 41 73 37 74 38 75 39 76 40 77 66 78
REMARK SMILES IDX 67 79 75 80 68 81 74 82 76 83 73 84 69 85 70 86 71 87 72 88
REMARK SMILES IDX 51 89 52 90 60 91 53 92 59 93 61 94 58 95 54 96 55 97 56 98
REMARK SMILES IDX 57 99
REMARK H PARENT 17 6 10 14 4 22 22 33 81 52 49 63
REMARK Flexibility Score: inf
ROOT
ATOM      1  C   UNL A   1      30.903  31.310  25.108  1.00  0.00     0.023 C 
ENDROOT
BRANCH   1   2
ATOM      2  C   UNL A   1      29.502  31.465  24.510  1.00  0.00     0.116 C 
BRANCH   2   3
ATOM      3  N   UNL A   1      29.513  31.131  23.099  1.00  0.00    -0.352 N 
ATOM      4  C   UNL A   1      29.554  29.933  22.433  1.00  0.00     0.251 C 
ATOM      5  O   UNL A   1      29.538  29.960  21.202  1.00  0.00    -0.269 OA
ATOM      6  H   UNL A   1      29.485  31.916  22.505  1.00  0.00     0.163 HD
BRANCH   4   7
ATOM      7  C   UNL A   1      29.553  28.611  23.120  1.00  0.00     0.039 A 
ATOM      8  C   UNL A   1      29.777  26.061  24.314  1.00  0.00     0.040 A 
ATOM      9  C   UNL A   1      30.893  26.889  24.213  1.00  0.00     0.027 A 
ATOM     10  C   UNL A   1      28.530  26.566  23.925  1.00  0.00     0.027 A 
ATOM     11  C   UNL A   1      30.787  28.143  23.601  1.00  0.00     0.016 A 
ATOM     12  C   UNL A   1      28.416  27.836  23.350  1.00  0.00     0.016 A 
BRANCH   8  13
ATOM     13  N   UNL A   1      29.896  24.785  24.901  1.00  0.00    -0.334 N 
ATOM     14  H   UNL A   1      29.225  24.525  25.573  1.00  0.00     0.168 HD
BRANCH  13  15
ATOM     15  C   UNL A   1      30.908  23.855  24.590  1.00  0.00     0.215 A 
ATOM     16  C   UNL A   1      32.671  22.357  25.133  1.00  0.00     0.225 A 
ATOM     17  N   UNL A   1      32.828  22.049  23.828  1.00  0.00    -0.212 NA
ATOM     18  C   UNL A   1      31.780  23.333  25.532  1.00  0.00     0.354 A 
ATOM     19  C   UNL A   1      32.012  22.653  22.962  1.00  0.00     0.227 A 
ATOM     20  N   UNL A   1      31.043  23.509  23.289  1.00  0.00    -0.212 NA
BRANCH  16  21
ATOM     21  N   UNL A   1      33.397  21.497  25.964  1.00  0.00    -0.298 N 
ATOM     22  H   UNL A   1      32.914  20.741  26.370  1.00  0.00     0.184 HD
BRANCH  21  23
ATOM     23  N   UNL A   1      34.777  21.632  26.263  1.00  0.00    -0.228 NA
ATOM     24  C   UNL A   1      35.610  20.838  25.341  1.00  0.00     0.130 C 
ATOM     25  C   UNL A   1      35.121  23.054  26.070  1.00  0.00     0.130 C 
ENDBRANCH  21  23
ENDBRANCH  16  21
BRANCH  18  26
ATOM     26  N   UNL A   1      31.768  23.822  26.877  1.00  0.00     0.070 N 
ATOM     27  O   UNL A   1      31.770  25.054  27.030  1.00  0.00    -0.258 OA
ATOM     28  O   UNL A   1      31.867  22.993  27.793  1.00  0.00    -0.258 OA
ENDBRANCH  18  26
ENDBRANCH  13  15
ENDBRANCH   8  13
ENDBRANCH   4   7
ENDBRANCH   2   3
ENDBRANCH   1   2
BRANCH   1  29
ATOM     29  C   UNL A   1      31.034  31.833  26.543  1.00  0.00     0.023 C 
BRANCH  29  30
ATOM     30  C   UNL A   1      32.398  32.421  26.892  1.00  0.00     0.116 C 
BRANCH  30  31
ATOM     31  N   UNL A   1      32.317  33.782  27.399  1.00  0.00    -0.352 N 
ATOM     32  C   UNL A   1      33.126  34.400  28.326  1.00  0.00     0.251 C 
ATOM     33  H   UNL A   1      31.588  34.332  27.033  1.00  0.00     0.163 HD
ATOM     34  O   UNL A   1      32.846  35.518  28.733  1.00  0.00    -0.269 OA
BRANCH  32  35
ATOM     35  C   UNL A   1      34.305  33.676  28.850  1.00  0.00     0.039 A 
ATOM     36  C   UNL A   1      35.578  34.195  28.600  1.00  0.00     0.014 A 
ATOM     37  C   UNL A   1      34.152  32.513  29.610  1.00  0.00     0.014 A 
ATOM     38  C   UNL A   1      36.696  33.584  29.172  1.00  0.00     0.010 A 
ATOM     39  C   UNL A   1      35.261  31.946  30.232  1.00  0.00     0.010 A 
ATOM     40  C   UNL A   1      36.543  32.476  30.022  1.00  0.00    -0.014 A 
BRANCH  40  41
ATOM     41  C   UNL A   1      37.711  31.859  30.700  1.00  0.00     0.031 A 
ATOM     42  C   UNL A   1      38.526  30.814  29.991  1.00  0.00     0.074 A 
ATOM     43  C   UNL A   1      37.993  32.191  31.975  1.00  0.00     0.049 A 
ATOM     44  N   UNL A   1      39.532  30.105  30.434  1.00  0.00    -0.248 NA
ATOM     45  C   UNL A   1      38.134  30.506  28.607  1.00  0.00     0.031 C 
ATOM     46  C   UNL A   1      37.250  33.162  32.780  1.00  0.00     0.029 A 
ATOM     47  N   UNL A   1      38.976  31.743  32.821  1.00  0.00    -0.354 N 
ATOM     48  C   UNL A   1      39.888  29.259  29.388  1.00  0.00     0.074 A 
ATOM     49  C   UNL A   1      38.943  29.500  28.317  1.00  0.00     0.031 C 
ATOM     50  C   UNL A   1      37.819  33.257  33.993  1.00  0.00     0.029 A 
ATOM     51  C   UNL A   1      38.939  32.324  34.068  1.00  0.00     0.049 A 
ATOM     52  H   UNL A   1      39.645  31.070  32.561  1.00  0.00     0.167 HD
ATOM     53  C   UNL A   1      40.921  28.381  29.319  1.00  0.00     0.034 A 
ATOM     54  C   UNL A   1      39.715  32.119  35.151  1.00  0.00     0.034 A 
ATOM     55  C   UNL A   1      41.855  28.159  30.396  1.00  0.00     0.049 A 
ATOM     56  C   UNL A   1      40.835  31.115  35.064  1.00  0.00     0.074 A 
ATOM     57  C   UNL A   1      42.966  27.335  30.420  1.00  0.00     0.029 A 
ATOM     58  N   UNL A   1      41.784  28.761  31.647  1.00  0.00    -0.354 N 
ATOM     59  N   UNL A   1      41.191  30.358  34.051  1.00  0.00    -0.248 NA
ATOM     60  C   UNL A   1      41.665  30.946  36.264  1.00  0.00     0.031 C 
ATOM     61  C   UNL A   1      43.527  27.387  31.702  1.00  0.00     0.029 A 
ATOM     62  C   UNL A   1      42.811  28.301  32.458  1.00  0.00     0.049 A 
ATOM     63  H   UNL A   1      41.101  29.416  31.919  1.00  0.00     0.167 HD
ATOM     64  C   UNL A   1      42.308  29.648  34.484  1.00  0.00     0.074 A 
ATOM     65  C   UNL A   1      42.571  30.075  35.843  1.00  0.00     0.031 C 
ATOM     66  C   UNL A   1      43.053  28.729  33.816  1.00  0.00     0.034 A 
BRANCH  53  67
ATOM     67  C   UNL A   1      41.065  27.587  28.042  1.00  0.00     0.023 A 
ATOM     68  C   UNL A   1      40.695  26.231  27.973  1.00  0.00     0.031 A 
ATOM     69  C   UNL A   1      41.623  28.172  26.893  1.00  0.00     0.131 A 
ATOM     70  C   UNL A   1      40.974  25.486  26.819  1.00  0.00     0.055 A 
ATOM     71  C   UNL A   1      41.815  27.447  25.715  1.00  0.00     0.041 A 
ATOM     72  F   UNL A   1      42.015  29.457  26.901  1.00  0.00    -0.206 F 
ATOM     73  C   UNL A   1      41.508  26.089  25.679  1.00  0.00     0.022 A 
BRANCH  70  74
ATOM     74  S   UNL A   1      40.784  23.682  26.888  1.00  0.00     0.124 S 
ATOM     75  O   UNL A   1      41.828  23.242  25.964  1.00  0.00    -0.237 OA
ATOM     76  O   UNL A   1      41.017  23.394  28.297  1.00  0.00    -0.237 OA
ATOM     77  O   UNL A   1      39.417  23.463  26.422  1.00  0.00    -0.744 OA
ENDBRANCH  70  74
ENDBRANCH  53  67
BRANCH  54  78
ATOM     78  C   UNL A   1      39.467  32.875  36.412  1.00  0.00     0.023 A 
ATOM     79  C   UNL A   1      38.580  32.382  37.382  1.00  0.00     0.031 A 
ATOM     80  C   UNL A   1      40.080  34.118  36.647  1.00  0.00     0.131 A 
ATOM     81  C   UNL A   1      38.296  33.148  38.522  1.00  0.00     0.055 A 
ATOM     82  C   UNL A   1      39.831  34.853  37.808  1.00  0.00     0.041 A 
ATOM     83  F   UNL A   1      40.941  34.631  35.754  1.00  0.00    -0.206 F 
ATOM     84  C   UNL A   1      38.923  34.375  38.748  1.00  0.00     0.022 A 
BRANCH  81  85
ATOM     85  S   UNL A   1      37.029  32.550  39.675  1.00  0.00     0.124 S 
ATOM     86  O   UNL A   1      37.516  31.211  39.984  1.00  0.00    -0.237 OA
ATOM     87  O   UNL A   1      37.115  33.529  40.754  1.00  0.00    -0.237 OA
ATOM     88  O   UNL A   1      35.800  32.602  38.886  1.00  0.00    -0.744 OA
ENDBRANCH  81  85
ENDBRANCH  54  78
BRANCH  66  89
ATOM     89  C   UNL A   1      44.251  28.168  34.540  1.00  0.00     0.023 A 
ATOM     90  C   UNL A   1      44.148  27.060  35.400  1.00  0.00     0.031 A 
ATOM     91  C   UNL A   1      45.516  28.763  34.377  1.00  0.00     0.131 A 
ATOM     92  C   UNL A   1      45.275  26.617  36.108  1.00  0.00     0.055 A 
ATOM     93  C   UNL A   1      46.645  28.281  35.039  1.00  0.00     0.041 A 
ATOM     94  F   UNL A   1      45.672  29.825  33.571  1.00  0.00    -0.206 F 
ATOM     95  C   UNL A   1      46.526  27.211  35.920  1.00  0.00     0.022 A 
BRANCH  92  96
ATOM     96  S   UNL A   1      45.067  25.308  37.346  1.00  0.00     0.124 S 
ATOM     97  O   UNL A   1      46.320  25.394  38.091  1.00  0.00    -0.237 OA
ATOM     98  O   UNL A   1      43.871  25.741  38.060  1.00  0.00    -0.237 OA
ATOM     99  O   UNL A   1      44.905  24.097  36.543  1.00  0.00    -0.744 OA
ENDBRANCH  92  96
ENDBRANCH  66  89
ENDBRANCH  40  41
ENDBRANCH  32  35
ENDBRANCH  30  31
ENDBRANCH  29  30
ENDBRANCH   1  29
TORSDOF 19
ENDMDL
MODEL 3
REMARK VINA RESULT:     -11.0      4.858      8.593
REMARK SMILES CN(C)Nc1ncnc(Nc2ccc(C(=O)NCCCCNC(=O)c3ccc(-c4c5nc(c(-c6cc(S(=O)(=O)[O-])ccc6F)c6ccc([nH]6)c(-c6cc(S(=O)(=O)[O-])ccc6F)c6nc(c(-c7cc(S(=O)(=O)[O-])ccc7F)c7ccc4[nH]7)C=C6)C=C5)cc3)cc2)c1[N+](=O)[O-]
REMARK SMILES IDX 19 1 18 2 17 3 15 4 16 5 14 7 11 8 12 9 89 10 13 11 88 12
REMARK SMILES IDX 10 13 9 15 5 16 6 17 90 18 7 19 8 20 4 21 2 23 1 24 3 25
REMARK SMILES IDX 91 26 92 27 93 28 20 29 21 30 22 31 23 32 24 34 25 35 26 36
REMARK SMILES IDX 87 37 27 38 86 39 28 40 29 41 30 42 80 43 31 44 85 45 79 46
REMARK SMILES IDX 81 47 32 48 84 49 78 50 77 51 33 53 65 54 45 55 64 56 46 57
REMARK SMILES IDX 49 58 63 59 82 60 47 61 48 62 62 64 83 65 50 66 34 67 35 68
REMARK SMILES IDX 43 69 36 70 42 71 44 72 41 73 37 74 38 75 39 76 40 77 66 78
REMARK SMILES IDX 67 79 75 80 68 81 74 82 76 83 73 84 69 85 70 86 71 87 72 88
REMARK SMILES IDX 51 89 52 90 60 91 53 92 59 93 61 94 58 95 54 96 55 97 56 98
REMARK SMILES IDX 57 99
REMARK H PARENT 17 6 10 14 4 22 22 33 81 52 49 63
REMARK Flexibility Score: inf
ROOT
ATOM      1  C   UNL A   1      36.743  21.374  24.815  1.00  0.00     0.023 C 
ENDROOT
BRANCH   1   2
ATOM      2  C   UNL A   1      35.747  21.469  25.973  1.00  0.00     0.116 C 
BRANCH   2   3
ATOM      3  N   UNL A   1      34.676  20.507  25.802  1.00  0.00    -0.352 N 
ATOM      4  C   UNL A   1      33.469  20.573  25.153  1.00  0.00     0.251 C 
ATOM      5  O   UNL A   1      32.754  19.571  25.167  1.00  0.00    -0.269 OA
ATOM      6  H   UNL A   1      34.847  19.640  26.235  1.00  0.00     0.163 HD
BRANCH   4   7
ATOM      7  C   UNL A   1      33.013  21.767  24.387  1.00  0.00     0.039 A 
ATOM      8  C   UNL A   1      31.988  24.078  23.126  1.00  0.00     0.040 A 
ATOM      9  C   UNL A   1      32.220  24.072  24.500  1.00  0.00     0.027 A 
ATOM     10  C   UNL A   1      32.386  22.965  22.375  1.00  0.00     0.027 A 
ATOM     11  C   UNL A   1      32.706  22.919  25.128  1.00  0.00     0.016 A 
ATOM     12  C   UNL A   1      32.910  21.826  22.997  1.00  0.00     0.016 A 
BRANCH   8  13
ATOM     13  N   UNL A   1      31.466  25.229  22.503  1.00  0.00    -0.334 N 
ATOM     14  H   UNL A   1      30.713  25.112  21.880  1.00  0.00     0.168 HD
BRANCH  13  15
ATOM     15  C   UNL A   1      31.949  26.537  22.712  1.00  0.00     0.215 A 
ATOM     16  C   UNL A   1      31.831  28.740  23.594  1.00  0.00     0.225 A 
ATOM     17  N   UNL A   1      33.028  29.038  23.044  1.00  0.00    -0.212 NA
ATOM     18  C   UNL A   1      31.223  27.523  23.361  1.00  0.00     0.354 A 
ATOM     19  C   UNL A   1      33.634  28.068  22.357  1.00  0.00     0.227 A 
ATOM     20  N   UNL A   1      33.166  26.830  22.199  1.00  0.00    -0.212 NA
BRANCH  16  21
ATOM     21  N   UNL A   1      31.404  29.731  24.484  1.00  0.00    -0.298 N 
ATOM     22  H   UNL A   1      30.578  30.217  24.263  1.00  0.00     0.184 HD
BRANCH  21  23
ATOM     23  N   UNL A   1      32.073  30.086  25.684  1.00  0.00    -0.228 NA
ATOM     24  C   UNL A   1      31.510  31.314  26.274  1.00  0.00     0.130 C 
ATOM     25  C   UNL A   1      31.851  28.983  26.641  1.00  0.00     0.130 C 
ENDBRANCH  21  23
ENDBRANCH  16  21
BRANCH  18  26
ATOM     26  N   UNL A   1      29.866  27.284  23.750  1.00  0.00     0.070 N 
ATOM     27  O   UNL A   1      29.671  26.403  24.603  1.00  0.00    -0.258 OA
ATOM     28  O   UNL A   1      28.976  27.888  23.136  1.00  0.00    -0.258 OA
ENDBRANCH  18  26
ENDBRANCH  13  15
ENDBRANCH   8  13
ENDBRANCH   4   7
ENDBRANCH   2   3
ENDBRANCH   1   2
BRANCH   1  29
ATOM     29  C   UNL A   1      37.768  20.244  24.960  1.00  0.00     0.023 C 
BRANCH  29  30
ATOM     30  C   UNL A   1      38.961  20.568  25.854  1.00  0.00     0.116 C 
BRANCH  30  31
ATOM     31  N   UNL A   1      39.928  19.484  25.926  1.00  0.00    -0.352 N 
ATOM     32  C   UNL A   1      41.285  19.560  26.149  1.00  0.00     0.251 C 
ATOM     33  H   UNL A   1      39.566  18.578  25.798  1.00  0.00     0.163 HD
ATOM     34  O   UNL A   1      41.976  18.555  26.058  1.00  0.00    -0.269 OA
BRANCH  32  35
ATOM     35  C   UNL A   1      41.894  20.874  26.452  1.00  0.00     0.039 A 
ATOM     36  C   UNL A   1      42.174  21.744  25.396  1.00  0.00     0.014 A 
ATOM     37  C   UNL A   1      42.155  21.255  27.771  1.00  0.00     0.014 A 
ATOM     38  C   UNL A   1      42.653  23.027  25.669  1.00  0.00     0.010 A 
ATOM     39  C   UNL A   1      42.569  22.555  28.043  1.00  0.00     0.010 A 
ATOM     40  C   UNL A   1      42.820  23.455  26.996  1.00  0.00    -0.014 A 
BRANCH  40  41
ATOM     41  C   UNL A   1      43.256  24.840  27.309  1.00  0.00     0.031 A 
ATOM     42  C   UNL A   1      42.288  25.812  27.923  1.00  0.00     0.074 A 
ATOM     43  C   UNL A   1      44.501  25.237  26.979  1.00  0.00     0.049 A 
ATOM     44  N   UNL A   1      42.450  27.080  28.201  1.00  0.00    -0.248 NA
ATOM     45  C   UNL A   1      40.948  25.293  28.236  1.00  0.00     0.031 C 
ATOM     46  C   UNL A   1      45.516  24.395  26.343  1.00  0.00     0.029 A 
ATOM     47  N   UNL A   1      45.122  26.452  27.124  1.00  0.00    -0.354 N 
ATOM     48  C   UNL A   1      41.231  27.514  28.713  1.00  0.00     0.074 A 
ATOM     49  C   UNL A   1      40.323  26.388  28.639  1.00  0.00     0.031 C 
ATOM     50  C   UNL A   1      46.641  25.110  26.178  1.00  0.00     0.029 A 
ATOM     51  C   UNL A   1      46.415  26.471  26.654  1.00  0.00     0.049 A 
ATOM     52  H   UNL A   1      44.684  27.236  27.527  1.00  0.00     0.167 HD
ATOM     53  C   UNL A   1      40.907  28.731  29.219  1.00  0.00     0.034 A 
ATOM     54  C   UNL A   1      47.313  27.476  26.606  1.00  0.00     0.034 A 
ATOM     55  C   UNL A   1      41.827  29.839  29.289  1.00  0.00     0.049 A 
ATOM     56  C   UNL A   1      46.921  28.828  27.142  1.00  0.00     0.074 A 
ATOM     57  C   UNL A   1      41.625  31.099  29.825  1.00  0.00     0.029 A 
ATOM     58  N   UNL A   1      43.128  29.825  28.798  1.00  0.00    -0.354 N 
ATOM     59  N   UNL A   1      45.779  29.211  27.669  1.00  0.00    -0.248 NA
ATOM     60  C   UNL A   1      47.942  29.882  27.086  1.00  0.00     0.031 C 
ATOM     61  C   UNL A   1      42.776  31.864  29.601  1.00  0.00     0.029 A 
ATOM     62  C   UNL A   1      43.726  31.061  28.992  1.00  0.00     0.049 A 
ATOM     63  H   UNL A   1      43.561  29.050  28.372  1.00  0.00     0.167 HD
ATOM     64  C   UNL A   1      45.960  30.541  28.037  1.00  0.00     0.074 A 
ATOM     65  C   UNL A   1      47.320  30.889  27.682  1.00  0.00     0.031 C 
ATOM     66  C   UNL A   1      45.081  31.397  28.621  1.00  0.00     0.034 A 
BRANCH  53  67
ATOM     67  C   UNL A   1      39.489  28.917  29.708  1.00  0.00     0.023 A 
ATOM     68  C   UNL A   1      38.522  29.576  28.927  1.00  0.00     0.031 A 
ATOM     69  C   UNL A   1      39.109  28.477  30.987  1.00  0.00     0.131 A 
ATOM     70  C   UNL A   1      37.259  29.859  29.466  1.00  0.00     0.055 A 
ATOM     71  C   UNL A   1      37.820  28.681  31.484  1.00  0.00     0.041 A 
ATOM     72  F   UNL A   1      39.991  27.858  31.788  1.00  0.00    -0.206 F 
ATOM     73  C   UNL A   1      36.891  29.394  30.730  1.00  0.00     0.022 A 
BRANCH  70  74
ATOM     74  S   UNL A   1      36.165  30.987  28.558  1.00  0.00     0.124 S 
ATOM     75  O   UNL A   1      35.167  31.310  29.576  1.00  0.00    -0.237 OA
ATOM     76  O   UNL A   1      37.067  32.069  28.184  1.00  0.00    -0.237 OA
ATOM     77  O   UNL A   1      35.673  30.171  27.451  1.00  0.00    -0.744 OA
ENDBRANCH  70  74
ENDBRANCH  53  67
BRANCH  54  78
ATOM     78  C   UNL A   1      48.669  27.250  26.032  1.00  0.00     0.023 A 
ATOM     79  C   UNL A   1      48.928  27.505  24.676  1.00  0.00     0.031 A 
ATOM     80  C   UNL A   1      49.716  26.736  26.818  1.00  0.00     0.131 A 
ATOM     81  C   UNL A   1      50.187  27.206  24.135  1.00  0.00     0.055 A 
ATOM     82  C   UNL A   1      50.983  26.487  26.286  1.00  0.00     0.041 A 
ATOM     83  F   UNL A   1      49.523  26.480  28.122  1.00  0.00    -0.206 F 
ATOM     84  C   UNL A   1      51.220  26.710  24.933  1.00  0.00     0.022 A 
BRANCH  81  85
ATOM     85  S   UNL A   1      50.433  27.403  22.349  1.00  0.00     0.124 S 
ATOM     86  O   UNL A   1      49.361  26.575  21.808  1.00  0.00    -0.237 OA
ATOM     87  O   UNL A   1      50.278  28.845  22.179  1.00  0.00    -0.237 OA
ATOM     88  O   UNL A   1      51.785  26.895  22.133  1.00  0.00    -0.744 OA
ENDBRANCH  81  85
ENDBRANCH  54  78
BRANCH  66  89
ATOM     89  C   UNL A   1      45.593  32.776  28.955  1.00  0.00     0.023 A 
ATOM     90  C   UNL A   1      45.496  33.844  28.045  1.00  0.00     0.031 A 
ATOM     91  C   UNL A   1      46.203  33.020  30.199  1.00  0.00     0.131 A 
ATOM     92  C   UNL A   1      46.050  35.091  28.369  1.00  0.00     0.055 A 
ATOM     93  C   UNL A   1      46.699  34.278  30.539  1.00  0.00     0.041 A 
ATOM     94  F   UNL A   1      46.324  32.036  31.104  1.00  0.00    -0.206 F 
ATOM     95  C   UNL A   1      46.637  35.319  29.617  1.00  0.00     0.022 A 
BRANCH  92  96
ATOM     96  S   UNL A   1      46.073  36.390  27.104  1.00  0.00     0.124 S 
ATOM     97  O   UNL A   1      44.714  36.915  27.183  1.00  0.00    -0.237 OA
ATOM     98  O   UNL A   1      47.128  37.276  27.586  1.00  0.00    -0.237 OA
ATOM     99  O   UNL A   1      46.388  35.666  25.873  1.00  0.00    -0.744 OA
ENDBRANCH  92  96
ENDBRANCH  66  89
ENDBRANCH  40  41
ENDBRANCH  32  35
ENDBRANCH  30  31
ENDBRANCH  29  30
ENDBRANCH   1  29
TORSDOF 19
ENDMDL
