MODEL 1
REMARK VINA RESULT:     -12.3      0.000      0.000
REMARK SMILES CC(C)c1cc2c(cc1Cl)C=C(C(=O)NCCCCNC(=O)c1ccc(-c3c4nc(c(-c5cc(S(=O)(=O)[O-])ccc5F)c5ccc([nH]5)c(-c5cc(S(=O)(=O)[O-])ccc5F)c5nc(c(-c6cc(S(=O)(=O)[O-])ccc6F)c6ccc3[nH]6)C=C5)C=C4)cc1)[C@@H](C(F)(F)F)O2
REMARK SMILES IDX 18 1 17 2 16 3 15 4 13 5 14 6 12 8 4 9 5 10 9 11 6 12 8 13
REMARK SMILES IDX 10 14 7 15 91 16 11 17 86 18 2 19 1 20 3 21 87 22 88 23
REMARK SMILES IDX 89 24 90 25 19 26 20 27 21 28 22 30 23 31 24 32 85 33 25 34
REMARK SMILES IDX 84 35 26 36 27 37 28 38 78 39 29 40 83 41 77 42 79 43 30 44
REMARK SMILES IDX 82 45 76 46 75 47 31 49 63 50 43 51 62 52 44 53 47 54 61 55
REMARK SMILES IDX 80 56 45 57 46 58 60 60 81 61 48 62 32 63 33 64 41 65 34 66
REMARK SMILES IDX 40 67 42 68 39 69 35 70 36 71 37 72 38 73 64 74 65 75 73 76
REMARK SMILES IDX 66 77 72 78 74 79 71 80 67 81 68 82 69 83 70 84 49 85 50 86
REMARK SMILES IDX 58 87 51 88 57 89 59 90 56 91 52 92 53 93 54 94 55 95
REMARK H PARENT 15 7 20 29 79 48 47 59
REMARK Flexibility Score: inf
ROOT
ATOM      1  C   UNL A   1      31.402  32.160  26.900  1.00  0.00     0.023 C 
ENDROOT
BRANCH   1   2
ATOM      2  C   UNL A   1      31.758  30.671  26.871  1.00  0.00     0.023 C 
BRANCH   2   3
ATOM      3  C   UNL A   1      32.142  30.143  25.492  1.00  0.00     0.116 C 
BRANCH   3   4
ATOM      4  N   UNL A   1      31.022  30.155  24.568  1.00  0.00    -0.352 N 
ATOM      5  C   UNL A   1      30.436  29.280  23.717  1.00  0.00     0.251 C 
ATOM      6  O   UNL A   1      29.464  29.717  23.094  1.00  0.00    -0.270 OA
ATOM      7  H   UNL A   1      30.569  31.029  24.558  1.00  0.00     0.163 HD
BRANCH   5   8
ATOM      8  C   UNL A   1      30.878  27.872  23.491  1.00  0.00     0.067 C 
ATOM      9  C   UNL A   1      31.561  22.864  23.861  1.00  0.00    -0.023 A 
ATOM     10  C   UNL A   1      31.814  23.835  22.875  1.00  0.00     0.052 A 
ATOM     11  C   UNL A   1      30.942  23.290  25.053  1.00  0.00     0.045 A 
ATOM     12  C   UNL A   1      31.455  25.168  23.068  1.00  0.00     0.128 A 
ATOM     13  C   UNL A   1      30.571  24.631  25.234  1.00  0.00     0.032 A 
ATOM     14  Cl  UNL A   1      30.606  22.206  26.359  1.00  0.00    -0.084 Cl
ATOM     15  C   UNL A   1      30.825  25.575  24.238  1.00  0.00     0.019 A 
ATOM     16  O   UNL A   1      31.718  26.026  22.038  1.00  0.00    -0.475 OA
ATOM     17  C   UNL A   1      30.417  26.967  24.378  1.00  0.00     0.025 C 
ATOM     18  C   UNL A   1      31.810  27.436  22.395  1.00  0.00     0.314 C 
BRANCH   9  19
ATOM     19  C   UNL A   1      31.984  21.422  23.614  1.00  0.00     0.014 C 
ATOM     20  C   UNL A   1      31.999  21.068  22.121  1.00  0.00     0.012 C 
ATOM     21  C   UNL A   1      33.349  21.142  24.248  1.00  0.00     0.012 C 
ENDBRANCH   9  19
BRANCH  18  22
ATOM     22  C   UNL A   1      33.279  27.786  22.693  1.00  0.00     0.429 C 
ATOM     23  F   UNL A   1      34.109  27.050  21.910  1.00  0.00    -0.167 F 
ATOM     24  F   UNL A   1      33.567  29.085  22.445  1.00  0.00    -0.167 F 
ATOM     25  F   UNL A   1      33.622  27.545  23.979  1.00  0.00    -0.167 F 
ENDBRANCH  18  22
ENDBRANCH   5   8
ENDBRANCH   3   4
ENDBRANCH   2   3
ENDBRANCH   1   2
BRANCH   1  26
ATOM     26  C   UNL A   1      32.590  33.120  26.921  1.00  0.00     0.116 C 
BRANCH  26  27
ATOM     27  N   UNL A   1      32.456  34.223  27.864  1.00  0.00    -0.352 N 
ATOM     28  C   UNL A   1      33.300  34.537  28.908  1.00  0.00     0.251 C 
ATOM     29  H   UNL A   1      31.676  34.810  27.740  1.00  0.00     0.163 HD
ATOM     30  O   UNL A   1      33.035  35.460  29.672  1.00  0.00    -0.269 OA
BRANCH  28  31
ATOM     31  C   UNL A   1      34.492  33.692  29.117  1.00  0.00     0.039 A 
ATOM     32  C   UNL A   1      34.363  32.456  29.754  1.00  0.00     0.014 A 
ATOM     33  C   UNL A   1      35.752  34.205  28.802  1.00  0.00     0.014 A 
ATOM     34  C   UNL A   1      35.498  31.823  30.242  1.00  0.00     0.010 A 
ATOM     35  C   UNL A   1      36.894  33.523  29.225  1.00  0.00     0.010 A 
ATOM     36  C   UNL A   1      36.774  32.361  30.005  1.00  0.00    -0.014 A 
BRANCH  36  37
ATOM     37  C   UNL A   1      37.962  31.705  30.607  1.00  0.00     0.031 A 
ATOM     38  C   UNL A   1      38.361  31.989  32.030  1.00  0.00     0.074 A 
ATOM     39  C   UNL A   1      38.637  30.791  29.885  1.00  0.00     0.049 A 
ATOM     40  N   UNL A   1      39.334  31.465  32.731  1.00  0.00    -0.248 NA
ATOM     41  C   UNL A   1      37.570  32.992  32.763  1.00  0.00     0.031 C 
ATOM     42  C   UNL A   1      38.326  30.430  28.502  1.00  0.00     0.029 A 
ATOM     43  N   UNL A   1      39.695  29.981  30.213  1.00  0.00    -0.354 N 
ATOM     44  C   UNL A   1      39.285  32.082  33.977  1.00  0.00     0.074 A 
ATOM     45  C   UNL A   1      38.205  33.043  33.927  1.00  0.00     0.031 C 
ATOM     46  C   UNL A   1      39.131  29.430  28.121  1.00  0.00     0.029 A 
ATOM     47  C   UNL A   1      40.062  29.123  29.204  1.00  0.00     0.049 A 
ATOM     48  H   UNL A   1      40.147  30.012  31.087  1.00  0.00     0.167 HD
ATOM     49  C   UNL A   1      40.061  31.856  35.063  1.00  0.00     0.034 A 
ATOM     50  C   UNL A   1      41.039  28.196  29.150  1.00  0.00     0.034 A 
ATOM     51  C   UNL A   1      41.119  30.879  35.105  1.00  0.00     0.049 A 
ATOM     52  C   UNL A   1      41.904  27.980  30.363  1.00  0.00     0.074 A 
ATOM     53  C   UNL A   1      41.945  30.559  36.169  1.00  0.00     0.029 A 
ATOM     54  N   UNL A   1      41.493  30.061  34.049  1.00  0.00    -0.354 N 
ATOM     55  N   UNL A   1      41.824  28.551  31.542  1.00  0.00    -0.248 NA
ATOM     56  C   UNL A   1      42.992  27.001  30.244  1.00  0.00     0.031 C 
ATOM     57  C   UNL A   1      42.849  29.584  35.741  1.00  0.00     0.029 A 
ATOM     58  C   UNL A   1      42.553  29.254  34.428  1.00  0.00     0.049 A 
ATOM     59  H   UNL A   1      41.068  30.056  33.161  1.00  0.00     0.167 HD
ATOM     60  C   UNL A   1      42.846  27.998  32.306  1.00  0.00     0.074 A 
ATOM     61  C   UNL A   1      43.510  27.023  31.465  1.00  0.00     0.031 C 
ATOM     62  C   UNL A   1      43.207  28.283  33.583  1.00  0.00     0.034 A 
BRANCH  49  63
ATOM     63  C   UNL A   1      39.804  32.663  36.311  1.00  0.00     0.023 A 
ATOM     64  C   UNL A   1      38.865  32.217  37.259  1.00  0.00     0.031 A 
ATOM     65  C   UNL A   1      40.401  33.922  36.505  1.00  0.00     0.131 A 
ATOM     66  C   UNL A   1      38.532  33.034  38.348  1.00  0.00     0.055 A 
ATOM     67  C   UNL A   1      40.088  34.719  37.608  1.00  0.00     0.041 A 
ATOM     68  F   UNL A   1      41.305  34.389  35.630  1.00  0.00    -0.206 F 
ATOM     69  C   UNL A   1      39.142  34.280  38.529  1.00  0.00     0.022 A 
BRANCH  66  70
ATOM     70  S   UNL A   1      37.261  32.539  39.543  1.00  0.00     0.124 S 
ATOM     71  O   UNL A   1      37.334  33.622  40.522  1.00  0.00    -0.237 OA
ATOM     72  O   UNL A   1      36.056  32.522  38.719  1.00  0.00    -0.237 OA
ATOM     73  O   UNL A   1      37.716  31.238  40.021  1.00  0.00    -0.744 OA
ENDBRANCH  66  70
ENDBRANCH  49  63
BRANCH  50  74
ATOM     74  C   UNL A   1      41.194  27.387  27.907  1.00  0.00     0.023 A 
ATOM     75  C   UNL A   1      40.814  26.032  27.877  1.00  0.00     0.031 A 
ATOM     76  C   UNL A   1      41.853  27.915  26.785  1.00  0.00     0.131 A 
ATOM     77  C   UNL A   1      41.175  25.232  26.786  1.00  0.00     0.055 A 
ATOM     78  C   UNL A   1      42.144  27.131  25.667  1.00  0.00     0.041 A 
ATOM     79  F   UNL A   1      42.244  29.199  26.773  1.00  0.00    -0.206 F 
ATOM     80  C   UNL A   1      41.824  25.776  25.674  1.00  0.00     0.022 A 
BRANCH  77  81
ATOM     81  S   UNL A   1      40.958  23.431  26.846  1.00  0.00     0.124 S 
ATOM     82  O   UNL A   1      39.529  23.289  26.582  1.00  0.00    -0.237 OA
ATOM     83  O   UNL A   1      41.845  22.988  25.774  1.00  0.00    -0.237 OA
ATOM     84  O   UNL A   1      41.389  23.077  28.194  1.00  0.00    -0.744 OA
ENDBRANCH  77  81
ENDBRANCH  50  74
BRANCH  62  85
ATOM     85  C   UNL A   1      44.387  27.551  34.171  1.00  0.00     0.023 A 
ATOM     86  C   UNL A   1      44.214  26.284  34.758  1.00  0.00     0.031 A 
ATOM     87  C   UNL A   1      45.643  28.171  34.279  1.00  0.00     0.131 A 
ATOM     88  C   UNL A   1      45.272  25.692  35.458  1.00  0.00     0.055 A 
ATOM     89  C   UNL A   1      46.706  27.559  34.944  1.00  0.00     0.041 A 
ATOM     90  F   UNL A   1      45.853  29.384  33.742  1.00  0.00    -0.206 F 
ATOM     91  C   UNL A   1      46.519  26.320  35.549  1.00  0.00     0.022 A 
BRANCH  88  92
ATOM     92  S   UNL A   1      45.049  24.124  36.344  1.00  0.00     0.124 S 
ATOM     93  O   UNL A   1      45.010  24.569  37.736  1.00  0.00    -0.237 OA
ATOM     94  O   UNL A   1      43.779  23.644  35.806  1.00  0.00    -0.237 OA
ATOM     95  O   UNL A   1      46.223  23.341  35.976  1.00  0.00    -0.744 OA
ENDBRANCH  88  92
ENDBRANCH  62  85
ENDBRANCH  36  37
ENDBRANCH  28  31
ENDBRANCH  26  27
ENDBRANCH   1  26
TORSDOF 16
ENDMDL
MODEL 2
REMARK VINA RESULT:     -12.3      1.762      2.157
REMARK SMILES CC(C)c1cc2c(cc1Cl)C=C(C(=O)NCCCCNC(=O)c1ccc(-c3c4nc(c(-c5cc(S(=O)(=O)[O-])ccc5F)c5ccc([nH]5)c(-c5cc(S(=O)(=O)[O-])ccc5F)c5nc(c(-c6cc(S(=O)(=O)[O-])ccc6F)c6ccc3[nH]6)C=C5)C=C4)cc1)[C@@H](C(F)(F)F)O2
REMARK SMILES IDX 18 1 17 2 16 3 15 4 13 5 14 6 12 8 4 9 5 10 9 11 6 12 8 13
REMARK SMILES IDX 10 14 7 15 91 16 11 17 86 18 2 19 1 20 3 21 87 22 88 23
REMARK SMILES IDX 89 24 90 25 19 26 20 27 21 28 22 30 23 31 24 32 85 33 25 34
REMARK SMILES IDX 84 35 26 36 27 37 28 38 78 39 29 40 83 41 77 42 79 43 30 44
REMARK SMILES IDX 82 45 76 46 75 47 31 49 63 50 43 51 62 52 44 53 47 54 61 55
REMARK SMILES IDX 80 56 45 57 46 58 60 60 81 61 48 62 32 63 33 64 41 65 34 66
REMARK SMILES IDX 40 67 42 68 39 69 35 70 36 71 37 72 38 73 64 74 65 75 73 76
REMARK SMILES IDX 66 77 72 78 74 79 71 80 67 81 68 82 69 83 70 84 49 85 50 86
REMARK SMILES IDX 58 87 51 88 57 89 59 90 56 91 52 92 53 93 54 94 55 95
REMARK H PARENT 15 7 20 29 79 48 47 59
REMARK Flexibility Score: inf
ROOT
ATOM      1  C   UNL A   1      31.385  30.383  25.581  1.00  0.00     0.023 C 
ENDROOT
BRANCH   1   2
ATOM      2  C   UNL A   1      31.704  29.016  24.971  1.00  0.00     0.023 C 
BRANCH   2   3
ATOM      3  C   UNL A   1      31.076  28.776  23.601  1.00  0.00     0.116 C 
BRANCH   3   4
ATOM      4  N   UNL A   1      29.775  28.138  23.697  1.00  0.00    -0.352 N 
ATOM      5  C   UNL A   1      29.303  26.877  23.836  1.00  0.00     0.251 C 
ATOM      6  O   UNL A   1      28.074  26.773  23.877  1.00  0.00    -0.270 OA
ATOM      7  H   UNL A   1      29.044  28.796  23.648  1.00  0.00     0.163 HD
BRANCH   5   8
ATOM      8  C   UNL A   1      30.146  25.648  23.938  1.00  0.00     0.067 C 
ATOM      9  C   UNL A   1      32.840  21.721  25.668  1.00  0.00    -0.023 A 
ATOM     10  C   UNL A   1      32.296  22.086  24.423  1.00  0.00     0.052 A 
ATOM     11  C   UNL A   1      32.602  22.577  26.761  1.00  0.00     0.045 A 
ATOM     12  C   UNL A   1      31.540  23.249  24.280  1.00  0.00     0.128 A 
ATOM     13  C   UNL A   1      31.828  23.739  26.612  1.00  0.00     0.032 A 
ATOM     14  Cl  UNL A   1      33.241  22.265  28.338  1.00  0.00    -0.084 Cl
ATOM     15  C   UNL A   1      31.292  24.076  25.369  1.00  0.00     0.019 A 
ATOM     16  O   UNL A   1      31.033  23.498  23.037  1.00  0.00    -0.475 OA
ATOM     17  C   UNL A   1      30.452  25.253  25.189  1.00  0.00     0.025 C 
ATOM     18  C   UNL A   1      30.686  24.885  22.760  1.00  0.00     0.314 C 
BRANCH   9  19
ATOM     19  C   UNL A   1      33.672  20.450  25.775  1.00  0.00     0.014 C 
ATOM     20  C   UNL A   1      32.897  19.207  25.316  1.00  0.00     0.012 C 
ATOM     21  C   UNL A   1      34.979  20.591  24.989  1.00  0.00     0.012 C 
ENDBRANCH   9  19
BRANCH  18  22
ATOM     22  C   UNL A   1      31.890  25.586  22.104  1.00  0.00     0.429 C 
ATOM     23  F   UNL A   1      31.468  26.574  21.274  1.00  0.00    -0.167 F 
ATOM     24  F   UNL A   1      32.712  26.167  23.008  1.00  0.00    -0.167 F 
ATOM     25  F   UNL A   1      32.647  24.741  21.367  1.00  0.00    -0.167 F 
ENDBRANCH  18  22
ENDBRANCH   5   8
ENDBRANCH   3   4
ENDBRANCH   2   3
ENDBRANCH   1   2
BRANCH   1  26
ATOM     26  C   UNL A   1      32.273  30.805  26.749  1.00  0.00     0.116 C 
BRANCH  26  27
ATOM     27  N   UNL A   1      32.189  32.220  27.089  1.00  0.00    -0.352 N 
ATOM     28  C   UNL A   1      33.165  32.999  27.672  1.00  0.00     0.251 C 
ATOM     29  H   UNL A   1      31.340  32.670  26.877  1.00  0.00     0.163 HD
ATOM     30  O   UNL A   1      32.941  34.168  27.968  1.00  0.00    -0.269 OA
BRANCH  28  31
ATOM     31  C   UNL A   1      34.462  32.368  27.991  1.00  0.00     0.039 A 
ATOM     32  C   UNL A   1      34.502  31.031  28.393  1.00  0.00     0.014 A 
ATOM     33  C   UNL A   1      35.613  33.158  28.021  1.00  0.00     0.014 A 
ATOM     34  C   UNL A   1      35.649  30.540  29.000  1.00  0.00     0.010 A 
ATOM     35  C   UNL A   1      36.789  32.633  28.561  1.00  0.00     0.010 A 
ATOM     36  C   UNL A   1      36.797  31.343  29.113  1.00  0.00    -0.014 A 
BRANCH  36  37
ATOM     37  C   UNL A   1      37.982  30.818  29.839  1.00  0.00     0.031 A 
ATOM     38  C   UNL A   1      38.234  31.190  31.275  1.00  0.00     0.074 A 
ATOM     39  C   UNL A   1      38.790  29.940  29.216  1.00  0.00     0.049 A 
ATOM     40  N   UNL A   1      39.184  30.782  32.076  1.00  0.00    -0.248 NA
ATOM     41  C   UNL A   1      37.302  32.147  31.895  1.00  0.00     0.031 C 
ATOM     42  C   UNL A   1      38.629  29.500  27.830  1.00  0.00     0.029 A 
ATOM     43  N   UNL A   1      39.882  29.240  29.666  1.00  0.00    -0.354 N 
ATOM     44  C   UNL A   1      38.979  31.440  33.284  1.00  0.00     0.074 A 
ATOM     45  C   UNL A   1      37.829  32.299  33.103  1.00  0.00     0.031 C 
ATOM     46  C   UNL A   1      39.544  28.560  27.562  1.00  0.00     0.029 A 
ATOM     47  C   UNL A   1      40.403  28.379  28.729  1.00  0.00     0.049 A 
ATOM     48  H   UNL A   1      40.254  29.344  30.571  1.00  0.00     0.167 HD
ATOM     49  C   UNL A   1      39.677  31.325  34.439  1.00  0.00     0.034 A 
ATOM     50  C   UNL A   1      41.457  27.540  28.797  1.00  0.00     0.034 A 
ATOM     51  C   UNL A   1      40.806  30.448  34.610  1.00  0.00     0.049 A 
ATOM     52  C   UNL A   1      42.231  27.449  30.085  1.00  0.00     0.074 A 
ATOM     53  C   UNL A   1      41.564  30.243  35.750  1.00  0.00     0.029 A 
ATOM     54  N   UNL A   1      41.336  29.626  33.626  1.00  0.00    -0.354 N 
ATOM     55  N   UNL A   1      42.004  28.055  31.225  1.00  0.00    -0.248 NA
ATOM     56  C   UNL A   1      43.405  26.565  30.098  1.00  0.00     0.031 C 
ATOM     57  C   UNL A   1      42.580  29.336  35.442  1.00  0.00     0.029 A 
ATOM     58  C   UNL A   1      42.425  28.930  34.126  1.00  0.00     0.049 A 
ATOM     59  H   UNL A   1      40.990  29.549  32.708  1.00  0.00     0.167 HD
ATOM     60  C   UNL A   1      43.002  27.625  32.094  1.00  0.00     0.074 A 
ATOM     61  C   UNL A   1      43.814  26.680  31.355  1.00  0.00     0.031 C 
ATOM     62  C   UNL A   1      43.228  27.989  33.382  1.00  0.00     0.034 A 
BRANCH  49  63
ATOM     63  C   UNL A   1      39.248  32.154  35.623  1.00  0.00     0.023 A 
ATOM     64  C   UNL A   1      39.758  33.455  35.796  1.00  0.00     0.031 A 
ATOM     65  C   UNL A   1      38.428  31.620  36.633  1.00  0.00     0.131 A 
ATOM     66  C   UNL A   1      39.462  34.169  36.964  1.00  0.00     0.055 A 
ATOM     67  C   UNL A   1      38.111  32.348  37.781  1.00  0.00     0.041 A 
ATOM     68  F   UNL A   1      37.915  30.386  36.512  1.00  0.00    -0.206 F 
ATOM     69  C   UNL A   1      38.638  33.624  37.955  1.00  0.00     0.022 A 
BRANCH  66  70
ATOM     70  S   UNL A   1      40.172  35.810  37.270  1.00  0.00     0.124 S 
ATOM     71  O   UNL A   1      41.605  35.528  37.224  1.00  0.00    -0.237 OA
ATOM     72  O   UNL A   1      39.652  36.583  36.145  1.00  0.00    -0.237 OA
ATOM     73  O   UNL A   1      39.653  36.179  38.582  1.00  0.00    -0.744 OA
ENDBRANCH  66  70
ENDBRANCH  49  63
BRANCH  50  74
ATOM     74  C   UNL A   1      41.785  26.701  27.609  1.00  0.00     0.023 A 
ATOM     75  C   UNL A   1      41.371  25.357  27.540  1.00  0.00     0.031 A 
ATOM     76  C   UNL A   1      42.631  27.185  26.599  1.00  0.00     0.131 A 
ATOM     77  C   UNL A   1      41.878  24.524  26.535  1.00  0.00     0.055 A 
ATOM     78  C   UNL A   1      43.073  26.370  25.557  1.00  0.00     0.041 A 
ATOM     79  F   UNL A   1      43.060  28.457  26.630  1.00  0.00    -0.206 F 
ATOM     80  C   UNL A   1      42.715  25.026  25.534  1.00  0.00     0.022 A 
BRANCH  77  81
ATOM     81  S   UNL A   1      41.596  22.732  26.589  1.00  0.00     0.124 S 
ATOM     82  O   UNL A   1      40.140  22.652  26.536  1.00  0.00    -0.237 OA
ATOM     83  O   UNL A   1      42.298  22.284  25.389  1.00  0.00    -0.237 OA
ATOM     84  O   UNL A   1      42.206  22.325  27.851  1.00  0.00    -0.744 OA
ENDBRANCH  77  81
ENDBRANCH  50  74
BRANCH  62  85
ATOM     85  C   UNL A   1      44.412  27.388  34.096  1.00  0.00     0.023 A 
ATOM     86  C   UNL A   1      44.264  26.201  34.837  1.00  0.00     0.031 A 
ATOM     87  C   UNL A   1      45.640  28.066  34.160  1.00  0.00     0.131 A 
ATOM     88  C   UNL A   1      45.317  25.747  35.640  1.00  0.00     0.055 A 
ATOM     89  C   UNL A   1      46.700  27.589  34.931  1.00  0.00     0.041 A 
ATOM     90  F   UNL A   1      45.825  29.207  33.477  1.00  0.00    -0.206 F 
ATOM     91  C   UNL A   1      46.536  26.431  35.687  1.00  0.00     0.022 A 
BRANCH  88  92
ATOM     92  S   UNL A   1      45.119  24.300  36.717  1.00  0.00     0.124 S 
ATOM     93  O   UNL A   1      44.439  24.876  37.875  1.00  0.00    -0.237 OA
ATOM     94  O   UNL A   1      44.305  23.411  35.892  1.00  0.00    -0.237 OA
ATOM     95  O   UNL A   1      46.487  23.852  36.960  1.00  0.00    -0.744 OA
ENDBRANCH  88  92
ENDBRANCH  62  85
ENDBRANCH  36  37
ENDBRANCH  28  31
ENDBRANCH  26  27
ENDBRANCH   1  26
TORSDOF 16
ENDMDL
MODEL 3
REMARK VINA RESULT:     -12.1      2.031      2.630
REMARK SMILES CC(C)c1cc2c(cc1Cl)C=C(C(=O)NCCCCNC(=O)c1ccc(-c3c4nc(c(-c5cc(S(=O)(=O)[O-])ccc5F)c5ccc([nH]5)c(-c5cc(S(=O)(=O)[O-])ccc5F)c5nc(c(-c6cc(S(=O)(=O)[O-])ccc6F)c6ccc3[nH]6)C=C5)C=C4)cc1)[C@@H](C(F)(F)F)O2
REMARK SMILES IDX 18 1 17 2 16 3 15 4 13 5 14 6 12 8 4 9 5 10 9 11 6 12 8 13
REMARK SMILES IDX 10 14 7 15 91 16 11 17 86 18 2 19 1 20 3 21 87 22 88 23
REMARK SMILES IDX 89 24 90 25 19 26 20 27 21 28 22 30 23 31 24 32 85 33 25 34
REMARK SMILES IDX 84 35 26 36 27 37 28 38 78 39 29 40 83 41 77 42 79 43 30 44
REMARK SMILES IDX 82 45 76 46 75 47 31 49 63 50 43 51 62 52 44 53 47 54 61 55
REMARK SMILES IDX 80 56 45 57 46 58 60 60 81 61 48 62 32 63 33 64 41 65 34 66
REMARK SMILES IDX 40 67 42 68 39 69 35 70 36 71 37 72 38 73 64 74 65 75 73 76
REMARK SMILES IDX 66 77 72 78 74 79 71 80 67 81 68 82 69 83 70 84 49 85 50 86
REMARK SMILES IDX 58 87 51 88 57 89 59 90 56 91 52 92 53 93 54 94 55 95
REMARK H PARENT 15 7 20 29 79 48 47 59
REMARK Flexibility Score: inf
ROOT
ATOM      1  C   UNL A   1      31.392  30.480  25.461  1.00  0.00     0.023 C 
ENDROOT
BRANCH   1   2
ATOM      2  C   UNL A   1      31.872  29.231  24.718  1.00  0.00     0.023 C 
BRANCH   2   3
ATOM      3  C   UNL A   1      31.174  28.987  23.383  1.00  0.00     0.116 C 
BRANCH   3   4
ATOM      4  N   UNL A   1      30.191  27.920  23.465  1.00  0.00    -0.352 N 
ATOM      5  C   UNL A   1      30.156  26.644  23.915  1.00  0.00     0.251 C 
ATOM      6  O   UNL A   1      29.072  26.067  23.790  1.00  0.00    -0.270 OA
ATOM      7  H   UNL A   1      29.322  28.199  23.096  1.00  0.00     0.163 HD
BRANCH   5   8
ATOM      8  C   UNL A   1      31.305  25.916  24.531  1.00  0.00     0.067 C 
ATOM      9  C   UNL A   1      35.706  23.523  25.298  1.00  0.00    -0.023 A 
ATOM     10  C   UNL A   1      34.719  24.088  26.127  1.00  0.00     0.052 A 
ATOM     11  C   UNL A   1      35.526  23.629  23.905  1.00  0.00     0.045 A 
ATOM     12  C   UNL A   1      33.610  24.737  25.589  1.00  0.00     0.128 A 
ATOM     13  C   UNL A   1      34.414  24.297  23.370  1.00  0.00     0.032 A 
ATOM     14  Cl  UNL A   1      36.644  22.950  22.774  1.00  0.00    -0.084 Cl
ATOM     15  C   UNL A   1      33.453  24.857  24.213  1.00  0.00     0.019 A 
ATOM     16  O   UNL A   1      32.726  25.276  26.479  1.00  0.00    -0.475 OA
ATOM     17  C   UNL A   1      32.307  25.590  23.690  1.00  0.00     0.025 C 
ATOM     18  C   UNL A   1      31.378  25.505  25.976  1.00  0.00     0.314 C 
BRANCH   9  19
ATOM     19  C   UNL A   1      36.893  22.809  25.931  1.00  0.00     0.014 C 
ATOM     20  C   UNL A   1      37.204  21.474  25.242  1.00  0.00     0.012 C 
ATOM     21  C   UNL A   1      38.128  23.714  25.936  1.00  0.00     0.012 C 
ENDBRANCH   9  19
BRANCH  18  22
ATOM     22  C   UNL A   1      30.508  24.272  26.284  1.00  0.00     0.429 C 
ATOM     23  F   UNL A   1      29.256  24.655  26.641  1.00  0.00    -0.167 F 
ATOM     24  F   UNL A   1      30.370  23.451  25.217  1.00  0.00    -0.167 F 
ATOM     25  F   UNL A   1      31.004  23.524  27.296  1.00  0.00    -0.167 F 
ENDBRANCH  18  22
ENDBRANCH   5   8
ENDBRANCH   3   4
ENDBRANCH   2   3
ENDBRANCH   1   2
BRANCH   1  26
ATOM     26  C   UNL A   1      32.190  30.850  26.710  1.00  0.00     0.116 C 
BRANCH  26  27
ATOM     27  N   UNL A   1      32.083  32.250  27.101  1.00  0.00    -0.352 N 
ATOM     28  C   UNL A   1      33.047  33.024  27.710  1.00  0.00     0.251 C 
ATOM     29  H   UNL A   1      31.225  32.693  26.907  1.00  0.00     0.163 HD
ATOM     30  O   UNL A   1      32.804  34.178  28.048  1.00  0.00    -0.269 OA
BRANCH  28  31
ATOM     31  C   UNL A   1      34.355  32.404  28.003  1.00  0.00     0.039 A 
ATOM     32  C   UNL A   1      34.416  31.060  28.379  1.00  0.00     0.014 A 
ATOM     33  C   UNL A   1      35.496  33.208  28.037  1.00  0.00     0.014 A 
ATOM     34  C   UNL A   1      35.577  30.572  28.965  1.00  0.00     0.010 A 
ATOM     35  C   UNL A   1      36.684  32.689  28.554  1.00  0.00     0.010 A 
ATOM     36  C   UNL A   1      36.715  31.388  29.082  1.00  0.00    -0.014 A 
BRANCH  36  37
ATOM     37  C   UNL A   1      37.914  30.865  29.785  1.00  0.00     0.031 A 
ATOM     38  C   UNL A   1      38.174  31.210  31.226  1.00  0.00     0.074 A 
ATOM     39  C   UNL A   1      38.729  30.013  29.136  1.00  0.00     0.049 A 
ATOM     40  N   UNL A   1      39.138  30.799  32.009  1.00  0.00    -0.248 NA
ATOM     41  C   UNL A   1      37.234  32.139  31.876  1.00  0.00     0.031 C 
ATOM     42  C   UNL A   1      38.561  29.600  27.742  1.00  0.00     0.029 A 
ATOM     43  N   UNL A   1      39.835  29.320  29.560  1.00  0.00    -0.354 N 
ATOM     44  C   UNL A   1      38.934  31.427  33.233  1.00  0.00     0.074 A 
ATOM     45  C   UNL A   1      37.771  32.273  33.081  1.00  0.00     0.031 C 
ATOM     46  C   UNL A   1      39.488  28.681  27.445  1.00  0.00     0.029 A 
ATOM     47  C   UNL A   1      40.360  28.487  28.600  1.00  0.00     0.049 A 
ATOM     48  H   UNL A   1      40.214  29.410  30.463  1.00  0.00     0.167 HD
ATOM     49  C   UNL A   1      39.645  31.298  34.379  1.00  0.00     0.034 A 
ATOM     50  C   UNL A   1      41.426  27.662  28.639  1.00  0.00     0.034 A 
ATOM     51  C   UNL A   1      40.789  30.433  34.520  1.00  0.00     0.049 A 
ATOM     52  C   UNL A   1      42.214  27.554  29.918  1.00  0.00     0.074 A 
ATOM     53  C   UNL A   1      41.560  30.215  35.649  1.00  0.00     0.029 A 
ATOM     54  N   UNL A   1      41.321  29.641  33.514  1.00  0.00    -0.354 N 
ATOM     55  N   UNL A   1      41.989  28.133  31.074  1.00  0.00    -0.248 NA
ATOM     56  C   UNL A   1      43.400  26.688  29.902  1.00  0.00     0.031 C 
ATOM     57  C   UNL A   1      42.586  29.330  35.312  1.00  0.00     0.029 A 
ATOM     58  C   UNL A   1      42.425  28.951  33.989  1.00  0.00     0.049 A 
ATOM     59  H   UNL A   1      40.967  29.579  32.597  1.00  0.00     0.167 HD
ATOM     60  C   UNL A   1      43.001  27.698  31.924  1.00  0.00     0.074 A 
ATOM     61  C   UNL A   1      43.820  26.782  31.157  1.00  0.00     0.031 C 
ATOM     62  C   UNL A   1      43.234  28.038  33.217  1.00  0.00     0.034 A 
BRANCH  49  63
ATOM     63  C   UNL A   1      39.215  32.094  35.585  1.00  0.00     0.023 A 
ATOM     64  C   UNL A   1      38.494  31.472  36.621  1.00  0.00     0.031 A 
ATOM     65  C   UNL A   1      39.419  33.484  35.656  1.00  0.00     0.131 A 
ATOM     66  C   UNL A   1      37.982  32.244  37.673  1.00  0.00     0.055 A 
ATOM     67  C   UNL A   1      38.934  34.243  36.722  1.00  0.00     0.041 A 
ATOM     68  F   UNL A   1      40.105  34.121  34.693  1.00  0.00    -0.206 F 
ATOM     69  C   UNL A   1      38.202  33.624  37.731  1.00  0.00     0.022 A 
BRANCH  66  70
ATOM     70  S   UNL A   1      36.970  31.498  38.981  1.00  0.00     0.124 S 
ATOM     71  O   UNL A   1      35.783  32.350  38.961  1.00  0.00    -0.237 OA
ATOM     72  O   UNL A   1      36.772  30.142  38.479  1.00  0.00    -0.237 OA
ATOM     73  O   UNL A   1      37.798  31.614  40.175  1.00  0.00    -0.744 OA
ENDBRANCH  66  70
ENDBRANCH  49  63
BRANCH  50  74
ATOM     74  C   UNL A   1      41.755  26.854  27.431  1.00  0.00     0.023 A 
ATOM     75  C   UNL A   1      41.602  25.455  27.437  1.00  0.00     0.031 A 
ATOM     76  C   UNL A   1      42.357  27.449  26.311  1.00  0.00     0.131 A 
ATOM     77  C   UNL A   1      42.126  24.693  26.385  1.00  0.00     0.055 A 
ATOM     78  C   UNL A   1      42.811  26.692  25.231  1.00  0.00     0.041 A 
ATOM     79  F   UNL A   1      42.535  28.779  26.267  1.00  0.00    -0.206 F 
ATOM     80  C   UNL A   1      42.717  25.304  25.274  1.00  0.00     0.022 A 
BRANCH  77  81
ATOM     81  S   UNL A   1      42.203  22.884  26.501  1.00  0.00     0.124 S 
ATOM     82  O   UNL A   1      42.486  22.503  25.121  1.00  0.00    -0.237 OA
ATOM     83  O   UNL A   1      43.299  22.692  27.447  1.00  0.00    -0.237 OA
ATOM     84  O   UNL A   1      40.882  22.514  27.000  1.00  0.00    -0.744 OA
ENDBRANCH  77  81
ENDBRANCH  50  74
BRANCH  62  85
ATOM     85  C   UNL A   1      44.433  27.438  33.907  1.00  0.00     0.023 A 
ATOM     86  C   UNL A   1      44.296  26.270  34.678  1.00  0.00     0.031 A 
ATOM     87  C   UNL A   1      45.670  28.105  33.918  1.00  0.00     0.131 A 
ATOM     88  C   UNL A   1      45.369  25.821  35.458  1.00  0.00     0.055 A 
ATOM     89  C   UNL A   1      46.749  27.632  34.666  1.00  0.00     0.041 A 
ATOM     90  F   UNL A   1      45.845  29.228  33.205  1.00  0.00    -0.206 F 
ATOM     91  C   UNL A   1      46.596  26.493  35.451  1.00  0.00     0.022 A 
BRANCH  88  92
ATOM     92  S   UNL A   1      45.189  24.400  36.571  1.00  0.00     0.124 S 
ATOM     93  O   UNL A   1      46.565  24.190  37.016  1.00  0.00    -0.237 OA
ATOM     94  O   UNL A   1      44.276  24.917  37.587  1.00  0.00    -0.237 OA
ATOM     95  O   UNL A   1      44.647  23.349  35.716  1.00  0.00    -0.744 OA
ENDBRANCH  88  92
ENDBRANCH  62  85
ENDBRANCH  36  37
ENDBRANCH  28  31
ENDBRANCH  26  27
ENDBRANCH   1  26
TORSDOF 16
ENDMDL
