MODEL 1
REMARK VINA RESULT:     -10.1      0.000      0.000
REMARK SMILES COc1cc(C(=O)CCC(=O)NCCCCNC(=O)c2ccc(-c3c4nc(c(-c5cc(S(=O)(=O)[O-])ccc5F)c5ccc([nH]5)c(-c5cc(S(=O)(=O)[O-])ccc5F)c5nc(c(-c6cc(S(=O)(=O)[O-])ccc6F)c6ccc3[nH]6)C=C5)C=C4)cc2)cc(OC)c1OC
REMARK SMILES IDX 14 1 13 2 12 3 10 4 11 5 9 7 8 8 6 9 7 10 5 11 3 12 4 13
REMARK SMILES IDX 87 14 84 15 83 16 2 17 1 18 88 19 89 20 85 21 86 22 15 23
REMARK SMILES IDX 16 24 17 25 18 26 19 28 20 29 21 30 82 31 22 32 81 33 23 34
REMARK SMILES IDX 24 35 25 36 75 37 26 38 80 39 74 40 76 41 27 42 79 43 73 44
REMARK SMILES IDX 72 45 28 47 60 48 40 49 59 50 41 51 44 52 58 53 77 54 42 55
REMARK SMILES IDX 43 56 57 58 78 59 45 60 29 61 30 62 38 63 31 64 37 65 39 66
REMARK SMILES IDX 36 67 32 68 33 69 34 70 35 71 61 72 62 73 70 74 63 75 69 76
REMARK SMILES IDX 71 77 68 78 64 79 65 80 66 81 67 82 46 83 47 84 55 85 48 86
REMARK SMILES IDX 54 87 56 88 53 89 49 90 50 91 51 92 52 93
REMARK H PARENT 12 6 17 27 76 46 44 57
REMARK Flexibility Score: inf
ROOT
ATOM      1  C   UNL A   1      33.114  27.062  26.193  1.00  0.00     0.023 C 
ENDROOT
BRANCH   1   2
ATOM      2  C   UNL A   1      31.649  26.733  25.925  1.00  0.00     0.116 C 
BRANCH   2   3
ATOM      3  N   UNL A   1      30.994  27.777  25.154  1.00  0.00    -0.356 N 
ATOM      4  C   UNL A   1      31.218  28.178  23.872  1.00  0.00     0.220 C 
ATOM      5  O   UNL A   1      30.561  29.117  23.421  1.00  0.00    -0.275 OA
ATOM      6  H   UNL A   1      30.283  28.265  25.627  1.00  0.00     0.163 HD
BRANCH   4   7
ATOM      7  C   UNL A   1      32.261  27.480  23.024  1.00  0.00     0.108 C 
BRANCH   7   8
ATOM      8  C   UNL A   1      31.656  26.340  22.206  1.00  0.00     0.091 C 
BRANCH   8   9
ATOM      9  C   UNL A   1      32.708  25.311  21.830  1.00  0.00     0.163 C 
ATOM     10  O   UNL A   1      33.165  25.292  20.685  1.00  0.00    -0.294 OA
BRANCH   9  11
ATOM     11  C   UNL A   1      33.130  24.248  22.802  1.00  0.00     0.025 A 
ATOM     12  C   UNL A   1      34.869  22.754  23.620  1.00  0.00     0.165 A 
ATOM     13  C   UNL A   1      34.469  23.821  22.804  1.00  0.00     0.062 A 
ATOM     14  C   UNL A   1      33.940  22.101  24.446  1.00  0.00     0.203 A 
ATOM     15  C   UNL A   1      32.613  22.547  24.460  1.00  0.00     0.165 A 
ATOM     16  C   UNL A   1      32.219  23.620  23.653  1.00  0.00     0.062 A 
BRANCH  12  17
ATOM     17  O   UNL A   1      36.203  22.451  23.706  1.00  0.00    -0.493 OA
ATOM     18  C   UNL A   1      36.894  23.266  24.654  1.00  0.00     0.278 C 
ENDBRANCH  12  17
BRANCH  14  19
ATOM     19  O   UNL A   1      34.331  21.126  25.325  1.00  0.00    -0.490 OA
ATOM     20  C   UNL A   1      34.074  19.808  24.839  1.00  0.00     0.278 C 
ENDBRANCH  14  19
BRANCH  15  21
ATOM     21  O   UNL A   1      31.610  22.070  25.264  1.00  0.00    -0.493 OA
ATOM     22  C   UNL A   1      30.760  23.066  25.821  1.00  0.00     0.278 C 
ENDBRANCH  15  21
ENDBRANCH   9  11
ENDBRANCH   8   9
ENDBRANCH   7   8
ENDBRANCH   4   7
ENDBRANCH   2   3
ENDBRANCH   1   2
BRANCH   1  23
ATOM     23  C   UNL A   1      33.300  28.327  27.030  1.00  0.00     0.023 C 
BRANCH  23  24
ATOM     24  C   UNL A   1      33.960  29.455  26.250  1.00  0.00     0.116 C 
BRANCH  24  25
ATOM     25  N   UNL A   1      33.825  30.742  26.925  1.00  0.00    -0.352 N 
ATOM     26  C   UNL A   1      34.527  31.333  27.951  1.00  0.00     0.251 C 
ATOM     27  H   UNL A   1      33.090  31.295  26.577  1.00  0.00     0.163 HD
ATOM     28  O   UNL A   1      34.068  32.350  28.456  1.00  0.00    -0.269 OA
BRANCH  26  29
ATOM     29  C   UNL A   1      35.781  30.748  28.487  1.00  0.00     0.039 A 
ATOM     30  C   UNL A   1      35.703  29.850  29.561  1.00  0.00     0.014 A 
ATOM     31  C   UNL A   1      37.032  31.090  27.984  1.00  0.00     0.014 A 
ATOM     32  C   UNL A   1      36.865  29.253  30.067  1.00  0.00     0.010 A 
ATOM     33  C   UNL A   1      38.166  30.395  28.390  1.00  0.00     0.010 A 
ATOM     34  C   UNL A   1      38.105  29.488  29.457  1.00  0.00    -0.014 A 
BRANCH  34  35
ATOM     35  C   UNL A   1      39.371  28.870  29.941  1.00  0.00     0.031 A 
ATOM     36  C   UNL A   1      40.111  29.512  31.091  1.00  0.00     0.074 A 
ATOM     37  C   UNL A   1      39.912  27.820  29.291  1.00  0.00     0.049 A 
ATOM     38  N   UNL A   1      41.326  29.297  31.524  1.00  0.00    -0.248 NA
ATOM     39  C   UNL A   1      39.405  30.588  31.806  1.00  0.00     0.031 C 
ATOM     40  C   UNL A   1      39.322  27.135  28.139  1.00  0.00     0.029 A 
ATOM     41  N   UNL A   1      41.097  27.158  29.494  1.00  0.00    -0.354 N 
ATOM     42  C   UNL A   1      41.550  30.251  32.513  1.00  0.00     0.074 A 
ATOM     43  C   UNL A   1      40.368  31.082  32.568  1.00  0.00     0.031 C 
ATOM     44  C   UNL A   1      40.138  26.142  27.750  1.00  0.00     0.029 A 
ATOM     45  C   UNL A   1      41.333  26.150  28.586  1.00  0.00     0.049 A 
ATOM     46  H   UNL A   1      41.722  27.383  30.222  1.00  0.00     0.167 HD
ATOM     47  C   UNL A   1      42.631  30.405  33.317  1.00  0.00     0.034 A 
ATOM     48  C   UNL A   1      42.399  25.338  28.435  1.00  0.00     0.034 A 
ATOM     49  C   UNL A   1      43.763  29.512  33.304  1.00  0.00     0.049 A 
ATOM     50  C   UNL A   1      43.565  25.489  29.380  1.00  0.00     0.074 A 
ATOM     51  C   UNL A   1      44.863  29.503  34.143  1.00  0.00     0.029 A 
ATOM     52  N   UNL A   1      43.931  28.460  32.414  1.00  0.00    -0.354 N 
ATOM     53  N   UNL A   1      43.742  26.367  30.342  1.00  0.00    -0.248 NA
ATOM     54  C   UNL A   1      44.671  24.534  29.228  1.00  0.00     0.031 C 
ATOM     55  C   UNL A   1      45.722  28.481  33.726  1.00  0.00     0.029 A 
ATOM     56  C   UNL A   1      45.126  27.809  32.670  1.00  0.00     0.049 A 
ATOM     57  H   UNL A   1      43.294  28.214  31.704  1.00  0.00     0.167 HD
ATOM     58  C   UNL A   1      44.964  26.047  30.927  1.00  0.00     0.074 A 
ATOM     59  C   UNL A   1      45.472  24.888  30.221  1.00  0.00     0.031 C 
ATOM     60  C   UNL A   1      45.611  26.652  31.955  1.00  0.00     0.034 A 
BRANCH  47  61
ATOM     61  C   UNL A   1      42.642  31.583  34.263  1.00  0.00     0.023 A 
ATOM     62  C   UNL A   1      42.060  31.515  35.542  1.00  0.00     0.031 A 
ATOM     63  C   UNL A   1      43.216  32.804  33.870  1.00  0.00     0.131 A 
ATOM     64  C   UNL A   1      41.984  32.667  36.339  1.00  0.00     0.055 A 
ATOM     65  C   UNL A   1      43.218  33.924  34.706  1.00  0.00     0.041 A 
ATOM     66  F   UNL A   1      43.771  32.938  32.654  1.00  0.00    -0.206 F 
ATOM     67  C   UNL A   1      42.583  33.864  35.943  1.00  0.00     0.022 A 
BRANCH  64  68
ATOM     68  S   UNL A   1      40.955  32.615  37.833  1.00  0.00     0.124 S 
ATOM     69  O   UNL A   1      39.774  31.904  37.349  1.00  0.00    -0.237 OA
ATOM     70  O   UNL A   1      41.799  31.887  38.772  1.00  0.00    -0.237 OA
ATOM     71  O   UNL A   1      40.739  34.026  38.149  1.00  0.00    -0.744 OA
ENDBRANCH  64  68
ENDBRANCH  47  61
BRANCH  48  72
ATOM     72  C   UNL A   1      42.429  24.319  27.347  1.00  0.00     0.023 A 
ATOM     73  C   UNL A   1      41.747  23.100  27.484  1.00  0.00     0.031 A 
ATOM     74  C   UNL A   1      43.178  24.526  26.176  1.00  0.00     0.131 A 
ATOM     75  C   UNL A   1      41.871  22.112  26.494  1.00  0.00     0.055 A 
ATOM     76  C   UNL A   1      43.255  23.562  25.169  1.00  0.00     0.041 A 
ATOM     77  F   UNL A   1      43.842  25.679  25.989  1.00  0.00    -0.206 F 
ATOM     78  C   UNL A   1      42.611  22.339  25.333  1.00  0.00     0.022 A 
BRANCH  75  79
ATOM     79  S   UNL A   1      41.128  20.485  26.797  1.00  0.00     0.124 S 
ATOM     80  O   UNL A   1      40.897  20.527  28.237  1.00  0.00    -0.237 OA
ATOM     81  O   UNL A   1      39.937  20.537  25.956  1.00  0.00    -0.237 OA
ATOM     82  O   UNL A   1      42.162  19.551  26.357  1.00  0.00    -0.744 OA
ENDBRANCH  75  79
ENDBRANCH  48  72
BRANCH  60  83
ATOM     83  C   UNL A   1      46.909  26.035  32.408  1.00  0.00     0.023 A 
ATOM     84  C   UNL A   1      46.949  25.053  33.411  1.00  0.00     0.031 A 
ATOM     85  C   UNL A   1      48.122  26.436  31.821  1.00  0.00     0.131 A 
ATOM     86  C   UNL A   1      48.184  24.540  33.836  1.00  0.00     0.055 A 
ATOM     87  C   UNL A   1      49.342  25.881  32.206  1.00  0.00     0.041 A 
ATOM     88  F   UNL A   1      48.139  27.369  30.856  1.00  0.00    -0.206 F 
ATOM     89  C   UNL A   1      49.379  24.935  33.227  1.00  0.00     0.022 A 
BRANCH  86  90
ATOM     90  S   UNL A   1      48.215  23.404  35.248  1.00  0.00     0.124 S 
ATOM     91  O   UNL A   1      49.469  23.765  35.900  1.00  0.00    -0.237 OA
ATOM     92  O   UNL A   1      46.997  23.765  35.966  1.00  0.00    -0.237 OA
ATOM     93  O   UNL A   1      48.197  22.082  34.625  1.00  0.00    -0.744 OA
ENDBRANCH  86  90
ENDBRANCH  60  83
ENDBRANCH  34  35
ENDBRANCH  26  29
ENDBRANCH  24  25
ENDBRANCH  23  24
ENDBRANCH   1  23
TORSDOF 20
ENDMDL
MODEL 2
REMARK VINA RESULT:     -10.0      3.494      5.131
REMARK SMILES COc1cc(C(=O)CCC(=O)NCCCCNC(=O)c2ccc(-c3c4nc(c(-c5cc(S(=O)(=O)[O-])ccc5F)c5ccc([nH]5)c(-c5cc(S(=O)(=O)[O-])ccc5F)c5nc(c(-c6cc(S(=O)(=O)[O-])ccc6F)c6ccc3[nH]6)C=C5)C=C4)cc2)cc(OC)c1OC
REMARK SMILES IDX 14 1 13 2 12 3 10 4 11 5 9 7 8 8 6 9 7 10 5 11 3 12 4 13
REMARK SMILES IDX 87 14 84 15 83 16 2 17 1 18 88 19 89 20 85 21 86 22 15 23
REMARK SMILES IDX 16 24 17 25 18 26 19 28 20 29 21 30 82 31 22 32 81 33 23 34
REMARK SMILES IDX 24 35 25 36 75 37 26 38 80 39 74 40 76 41 27 42 79 43 73 44
REMARK SMILES IDX 72 45 28 47 60 48 40 49 59 50 41 51 44 52 58 53 77 54 42 55
REMARK SMILES IDX 43 56 57 58 78 59 45 60 29 61 30 62 38 63 31 64 37 65 39 66
REMARK SMILES IDX 36 67 32 68 33 69 34 70 35 71 61 72 62 73 70 74 63 75 69 76
REMARK SMILES IDX 71 77 68 78 64 79 65 80 66 81 67 82 46 83 47 84 55 85 48 86
REMARK SMILES IDX 54 87 56 88 53 89 49 90 50 91 51 92 52 93
REMARK H PARENT 12 6 17 27 76 46 44 57
REMARK Flexibility Score: inf
ROOT
ATOM      1  C   UNL A   1      35.321  33.856  28.172  1.00  0.00     0.023 C 
ENDROOT
BRANCH   1   2
ATOM      2  C   UNL A   1      34.566  32.533  28.232  1.00  0.00     0.116 C 
BRANCH   2   3
ATOM      3  N   UNL A   1      35.447  31.399  28.003  1.00  0.00    -0.356 N 
ATOM      4  C   UNL A   1      35.140  30.119  27.654  1.00  0.00     0.220 C 
ATOM      5  O   UNL A   1      36.052  29.300  27.543  1.00  0.00    -0.275 OA
ATOM      6  H   UNL A   1      36.407  31.583  28.117  1.00  0.00     0.163 HD
BRANCH   4   7
ATOM      7  C   UNL A   1      33.700  29.718  27.410  1.00  0.00     0.108 C 
BRANCH   7   8
ATOM      8  C   UNL A   1      33.591  28.297  26.861  1.00  0.00     0.091 C 
BRANCH   8   9
ATOM      9  C   UNL A   1      33.511  28.295  25.344  1.00  0.00     0.163 C 
ATOM     10  O   UNL A   1      33.176  29.321  24.747  1.00  0.00    -0.294 OA
BRANCH   9  11
ATOM     11  C   UNL A   1      33.734  27.035  24.561  1.00  0.00     0.025 A 
ATOM     12  C   UNL A   1      33.529  25.836  22.452  1.00  0.00     0.165 A 
ATOM     13  C   UNL A   1      33.438  27.026  23.187  1.00  0.00     0.062 A 
ATOM     14  C   UNL A   1      33.916  24.641  23.077  1.00  0.00     0.203 A 
ATOM     15  C   UNL A   1      34.234  24.659  24.440  1.00  0.00     0.165 A 
ATOM     16  C   UNL A   1      34.155  25.851  25.169  1.00  0.00     0.062 A 
BRANCH  12  17
ATOM     17  O   UNL A   1      33.372  25.886  21.091  1.00  0.00    -0.493 OA
ATOM     18  C   UNL A   1      32.002  25.830  20.692  1.00  0.00     0.278 C 
ENDBRANCH  12  17
BRANCH  14  19
ATOM     19  O   UNL A   1      34.110  23.492  22.357  1.00  0.00    -0.490 OA
ATOM     20  C   UNL A   1      32.970  22.631  22.373  1.00  0.00     0.278 C 
ENDBRANCH  14  19
BRANCH  15  21
ATOM     21  O   UNL A   1      34.702  23.600  25.174  1.00  0.00    -0.493 OA
ATOM     22  C   UNL A   1      36.088  23.321  25.015  1.00  0.00     0.278 C 
ENDBRANCH  15  21
ENDBRANCH   9  11
ENDBRANCH   8   9
ENDBRANCH   7   8
ENDBRANCH   4   7
ENDBRANCH   2   3
ENDBRANCH   1   2
BRANCH   1  23
ATOM     23  C   UNL A   1      34.429  35.066  28.443  1.00  0.00     0.023 C 
BRANCH  23  24
ATOM     24  C   UNL A   1      33.103  34.686  29.086  1.00  0.00     0.116 C 
BRANCH  24  25
ATOM     25  N   UNL A   1      32.789  35.527  30.236  1.00  0.00    -0.352 N 
ATOM     26  C   UNL A   1      33.252  35.543  31.533  1.00  0.00     0.251 C 
ATOM     27  H   UNL A   1      32.115  36.218  30.048  1.00  0.00     0.163 HD
ATOM     28  O   UNL A   1      32.664  36.240  32.350  1.00  0.00    -0.269 OA
BRANCH  26  29
ATOM     29  C   UNL A   1      34.397  34.706  31.970  1.00  0.00     0.039 A 
ATOM     30  C   UNL A   1      34.153  33.394  32.398  1.00  0.00     0.014 A 
ATOM     31  C   UNL A   1      35.700  35.194  32.003  1.00  0.00     0.014 A 
ATOM     32  C   UNL A   1      35.216  32.568  32.783  1.00  0.00     0.010 A 
ATOM     33  C   UNL A   1      36.765  34.335  32.249  1.00  0.00     0.010 A 
ATOM     34  C   UNL A   1      36.539  33.017  32.671  1.00  0.00    -0.014 A 
BRANCH  34  35
ATOM     35  C   UNL A   1      37.710  32.179  33.051  1.00  0.00     0.031 A 
ATOM     36  C   UNL A   1      38.406  32.438  34.366  1.00  0.00     0.074 A 
ATOM     37  C   UNL A   1      38.216  31.278  32.185  1.00  0.00     0.049 A 
ATOM     38  N   UNL A   1      39.562  32.006  34.797  1.00  0.00    -0.248 NA
ATOM     39  C   UNL A   1      37.733  33.364  35.293  1.00  0.00     0.031 C 
ATOM     40  C   UNL A   1      37.666  30.963  30.864  1.00  0.00     0.029 A 
ATOM     41  N   UNL A   1      39.326  30.475  32.278  1.00  0.00    -0.354 N 
ATOM     42  C   UNL A   1      39.782  32.656  36.008  1.00  0.00     0.074 A 
ATOM     43  C   UNL A   1      38.669  33.557  36.209  1.00  0.00     0.031 C 
ATOM     44  C   UNL A   1      38.429  30.025  30.280  1.00  0.00     0.029 A 
ATOM     45  C   UNL A   1      39.551  29.708  31.156  1.00  0.00     0.049 A 
ATOM     46  H   UNL A   1      39.906  30.450  33.073  1.00  0.00     0.167 HD
ATOM     47  C   UNL A   1      40.806  32.498  36.884  1.00  0.00     0.034 A 
ATOM     48  C   UNL A   1      40.559  28.861  30.862  1.00  0.00     0.034 A 
ATOM     49  C   UNL A   1      41.860  31.532  36.707  1.00  0.00     0.049 A 
ATOM     50  C   UNL A   1      41.655  28.658  31.878  1.00  0.00     0.074 A 
ATOM     51  C   UNL A   1      42.887  31.208  37.575  1.00  0.00     0.029 A 
ATOM     52  N   UNL A   1      42.014  30.725  35.588  1.00  0.00    -0.354 N 
ATOM     53  N   UNL A   1      41.824  29.246  33.041  1.00  0.00    -0.248 NA
ATOM     54  C   UNL A   1      42.690  27.669  31.548  1.00  0.00     0.031 C 
ATOM     55  C   UNL A   1      43.692  30.244  36.959  1.00  0.00     0.029 A 
ATOM     56  C   UNL A   1      43.131  29.918  35.735  1.00  0.00     0.049 A 
ATOM     57  H   UNL A   1      41.418  30.727  34.804  1.00  0.00     0.167 HD
ATOM     58  C   UNL A   1      42.968  28.673  33.592  1.00  0.00     0.074 A 
ATOM     59  C   UNL A   1      43.436  27.684  32.643  1.00  0.00     0.031 C 
ATOM     60  C   UNL A   1      43.577  28.936  34.775  1.00  0.00     0.034 A 
BRANCH  47  61
ATOM     61  C   UNL A   1      40.835  33.395  38.100  1.00  0.00     0.023 A 
ATOM     62  C   UNL A   1      40.195  33.041  39.302  1.00  0.00     0.031 A 
ATOM     63  C   UNL A   1      41.487  34.640  38.048  1.00  0.00     0.131 A 
ATOM     64  C   UNL A   1      40.143  33.956  40.364  1.00  0.00     0.055 A 
ATOM     65  C   UNL A   1      41.509  35.508  39.142  1.00  0.00     0.041 A 
ATOM     66  F   UNL A   1      42.100  35.043  36.924  1.00  0.00    -0.206 F 
ATOM     67  C   UNL A   1      40.819  35.176  40.304  1.00  0.00     0.022 A 
BRANCH  64  68
ATOM     68  S   UNL A   1      39.049  33.590  41.764  1.00  0.00     0.124 S 
ATOM     69  O   UNL A   1      39.841  34.081  42.890  1.00  0.00    -0.237 OA
ATOM     70  O   UNL A   1      37.853  34.359  41.440  1.00  0.00    -0.237 OA
ATOM     71  O   UNL A   1      38.894  32.137  41.707  1.00  0.00    -0.744 OA
ENDBRANCH  64  68
ENDBRANCH  47  61
BRANCH  48  72
ATOM     72  C   UNL A   1      40.593  28.149  29.553  1.00  0.00     0.023 A 
ATOM     73  C   UNL A   1      41.556  28.470  28.583  1.00  0.00     0.031 A 
ATOM     74  C   UNL A   1      39.636  27.171  29.231  1.00  0.00     0.131 A 
ATOM     75  C   UNL A   1      41.508  27.861  27.319  1.00  0.00     0.055 A 
ATOM     76  C   UNL A   1      39.625  26.528  27.991  1.00  0.00     0.041 A 
ATOM     77  F   UNL A   1      38.698  26.818  30.126  1.00  0.00    -0.206 F 
ATOM     78  C   UNL A   1      40.557  26.885  27.021  1.00  0.00     0.022 A 
BRANCH  75  79
ATOM     79  S   UNL A   1      42.653  28.440  26.036  1.00  0.00     0.124 S 
ATOM     80  O   UNL A   1      43.926  27.908  26.512  1.00  0.00    -0.237 OA
ATOM     81  O   UNL A   1      42.105  27.813  24.838  1.00  0.00    -0.237 OA
ATOM     82  O   UNL A   1      42.523  29.894  26.095  1.00  0.00    -0.744 OA
ENDBRANCH  75  79
ENDBRANCH  48  72
BRANCH  60  83
ATOM     83  C   UNL A   1      44.782  28.103  35.127  1.00  0.00     0.023 A 
ATOM     84  C   UNL A   1      44.667  26.911  35.861  1.00  0.00     0.031 A 
ATOM     85  C   UNL A   1      46.065  28.511  34.716  1.00  0.00     0.131 A 
ATOM     86  C   UNL A   1      45.821  26.192  36.207  1.00  0.00     0.055 A 
ATOM     87  C   UNL A   1      47.202  27.761  35.014  1.00  0.00     0.041 A 
ATOM     88  F   UNL A   1      46.229  29.641  34.011  1.00  0.00    -0.206 F 
ATOM     89  C   UNL A   1      47.085  26.600  35.774  1.00  0.00     0.022 A 
BRANCH  86  90
ATOM     90  S   UNL A   1      45.655  24.754  37.298  1.00  0.00     0.124 S 
ATOM     91  O   UNL A   1      44.626  25.199  38.232  1.00  0.00    -0.237 OA
ATOM     92  O   UNL A   1      45.259  23.701  36.369  1.00  0.00    -0.237 OA
ATOM     93  O   UNL A   1      46.991  24.602  37.872  1.00  0.00    -0.744 OA
ENDBRANCH  86  90
ENDBRANCH  60  83
ENDBRANCH  34  35
ENDBRANCH  26  29
ENDBRANCH  24  25
ENDBRANCH  23  24
ENDBRANCH   1  23
TORSDOF 20
ENDMDL
MODEL 3
REMARK VINA RESULT:      -9.9      2.738      8.041
REMARK SMILES COc1cc(C(=O)CCC(=O)NCCCCNC(=O)c2ccc(-c3c4nc(c(-c5cc(S(=O)(=O)[O-])ccc5F)c5ccc([nH]5)c(-c5cc(S(=O)(=O)[O-])ccc5F)c5nc(c(-c6cc(S(=O)(=O)[O-])ccc6F)c6ccc3[nH]6)C=C5)C=C4)cc2)cc(OC)c1OC
REMARK SMILES IDX 14 1 13 2 12 3 10 4 11 5 9 7 8 8 6 9 7 10 5 11 3 12 4 13
REMARK SMILES IDX 87 14 84 15 83 16 2 17 1 18 88 19 89 20 85 21 86 22 15 23
REMARK SMILES IDX 16 24 17 25 18 26 19 28 20 29 21 30 82 31 22 32 81 33 23 34
REMARK SMILES IDX 24 35 25 36 75 37 26 38 80 39 74 40 76 41 27 42 79 43 73 44
REMARK SMILES IDX 72 45 28 47 60 48 40 49 59 50 41 51 44 52 58 53 77 54 42 55
REMARK SMILES IDX 43 56 57 58 78 59 45 60 29 61 30 62 38 63 31 64 37 65 39 66
REMARK SMILES IDX 36 67 32 68 33 69 34 70 35 71 61 72 62 73 70 74 63 75 69 76
REMARK SMILES IDX 71 77 68 78 64 79 65 80 66 81 67 82 46 83 47 84 55 85 48 86
REMARK SMILES IDX 54 87 56 88 53 89 49 90 50 91 51 92 52 93
REMARK H PARENT 12 6 17 27 76 46 44 57
REMARK Flexibility Score: inf
ROOT
ATOM      1  C   UNL A   1      32.416  27.450  27.043  1.00  0.00     0.023 C 
ENDROOT
BRANCH   1   2
ATOM      2  C   UNL A   1      31.984  26.092  26.502  1.00  0.00     0.116 C 
BRANCH   2   3
ATOM      3  N   UNL A   1      30.812  26.200  25.648  1.00  0.00    -0.356 N 
ATOM      4  C   UNL A   1      30.710  26.079  24.296  1.00  0.00     0.220 C 
ATOM      5  O   UNL A   1      29.610  26.243  23.767  1.00  0.00    -0.275 OA
ATOM      6  H   UNL A   1      29.967  26.388  26.117  1.00  0.00     0.163 HD
BRANCH   4   7
ATOM      7  C   UNL A   1      31.932  25.753  23.464  1.00  0.00     0.108 C 
BRANCH   7   8
ATOM      8  C   UNL A   1      31.705  24.530  22.577  1.00  0.00     0.091 C 
BRANCH   8   9
ATOM      9  C   UNL A   1      33.021  23.958  22.077  1.00  0.00     0.163 C 
ATOM     10  O   UNL A   1      33.332  24.083  20.890  1.00  0.00    -0.294 OA
BRANCH   9  11
ATOM     11  C   UNL A   1      33.905  23.152  22.983  1.00  0.00     0.025 A 
ATOM     12  C   UNL A   1      34.182  21.209  24.423  1.00  0.00     0.165 A 
ATOM     13  C   UNL A   1      33.428  21.930  23.487  1.00  0.00     0.062 A 
ATOM     14  C   UNL A   1      35.422  21.696  24.866  1.00  0.00     0.203 A 
ATOM     15  C   UNL A   1      35.905  22.900  24.341  1.00  0.00     0.165 A 
ATOM     16  C   UNL A   1      35.156  23.612  23.398  1.00  0.00     0.062 A 
BRANCH  12  17
ATOM     17  O   UNL A   1      33.759  19.958  24.790  1.00  0.00    -0.493 OA
ATOM     18  C   UNL A   1      32.453  19.651  24.302  1.00  0.00     0.278 C 
ENDBRANCH  12  17
BRANCH  14  19
ATOM     19  O   UNL A   1      36.219  20.957  25.699  1.00  0.00    -0.490 OA
ATOM     20  C   UNL A   1      37.208  20.205  24.995  1.00  0.00     0.278 C 
ENDBRANCH  14  19
BRANCH  15  21
ATOM     21  O   UNL A   1      37.125  23.466  24.610  1.00  0.00    -0.493 OA
ATOM     22  C   UNL A   1      37.268  23.990  25.926  1.00  0.00     0.278 C 
ENDBRANCH  15  21
ENDBRANCH   9  11
ENDBRANCH   8   9
ENDBRANCH   7   8
ENDBRANCH   4   7
ENDBRANCH   2   3
ENDBRANCH   1   2
BRANCH   1  23
ATOM     23  C   UNL A   1      31.633  28.613  26.436  1.00  0.00     0.023 C 
BRANCH  23  24
ATOM     24  C   UNL A   1      32.531  29.626  25.742  1.00  0.00     0.116 C 
BRANCH  24  25
ATOM     25  N   UNL A   1      32.206  30.998  26.119  1.00  0.00    -0.352 N 
ATOM     26  C   UNL A   1      32.774  31.879  27.011  1.00  0.00     0.251 C 
ATOM     27  H   UNL A   1      31.429  31.365  25.640  1.00  0.00     0.163 HD
ATOM     28  O   UNL A   1      32.170  32.911  27.272  1.00  0.00    -0.269 OA
BRANCH  26  29
ATOM     29  C   UNL A   1      34.059  31.587  27.695  1.00  0.00     0.039 A 
ATOM     30  C   UNL A   1      34.949  32.642  27.943  1.00  0.00     0.014 A 
ATOM     31  C   UNL A   1      34.425  30.297  28.064  1.00  0.00     0.014 A 
ATOM     32  C   UNL A   1      36.153  32.406  28.616  1.00  0.00     0.010 A 
ATOM     33  C   UNL A   1      35.550  30.085  28.854  1.00  0.00     0.010 A 
ATOM     34  C   UNL A   1      36.446  31.130  29.118  1.00  0.00    -0.014 A 
BRANCH  34  35
ATOM     35  C   UNL A   1      37.703  30.823  29.855  1.00  0.00     0.031 A 
ATOM     36  C   UNL A   1      38.741  29.940  29.205  1.00  0.00     0.074 A 
ATOM     37  C   UNL A   1      37.866  31.231  31.130  1.00  0.00     0.049 A 
ATOM     38  N   UNL A   1      39.786  29.354  29.731  1.00  0.00    -0.248 NA
ATOM     39  C   UNL A   1      38.534  29.622  27.782  1.00  0.00     0.031 C 
ATOM     40  C   UNL A   1      36.919  32.051  31.890  1.00  0.00     0.029 A 
ATOM     41  N   UNL A   1      38.881  30.990  32.023  1.00  0.00    -0.354 N 
ATOM     42  C   UNL A   1      40.317  28.553  28.724  1.00  0.00     0.074 A 
ATOM     43  C   UNL A   1      39.443  28.682  27.580  1.00  0.00     0.031 C 
ATOM     44  C   UNL A   1      37.406  32.257  33.124  1.00  0.00     0.029 A 
ATOM     45  C   UNL A   1      38.669  31.543  33.266  1.00  0.00     0.049 A 
ATOM     46  H   UNL A   1      39.684  30.468  31.795  1.00  0.00     0.167 HD
ATOM     47  C   UNL A   1      41.444  27.798  28.744  1.00  0.00     0.034 A 
ATOM     48  C   UNL A   1      39.403  31.467  34.395  1.00  0.00     0.034 A 
ATOM     49  C   UNL A   1      42.349  27.752  29.866  1.00  0.00     0.049 A 
ATOM     50  C   UNL A   1      40.684  30.670  34.376  1.00  0.00     0.074 A 
ATOM     51  C   UNL A   1      43.571  27.112  29.961  1.00  0.00     0.029 A 
ATOM     52  N   UNL A   1      42.133  28.384  31.083  1.00  0.00    -0.354 N 
ATOM     53  N   UNL A   1      41.198  29.955  33.400  1.00  0.00    -0.248 NA
ATOM     54  C   UNL A   1      41.489  30.678  35.604  1.00  0.00     0.031 C 
ATOM     55  C   UNL A   1      44.068  27.311  31.254  1.00  0.00     0.029 A 
ATOM     56  C   UNL A   1      43.189  28.131  31.943  1.00  0.00     0.049 A 
ATOM     57  H   UNL A   1      41.343  28.930  31.304  1.00  0.00     0.167 HD
ATOM     58  C   UNL A   1      42.402  29.456  33.890  1.00  0.00     0.074 A 
ATOM     59  C   UNL A   1      42.543  29.964  35.240  1.00  0.00     0.031 C 
ATOM     60  C   UNL A   1      43.311  28.652  33.283  1.00  0.00     0.034 A 
BRANCH  47  61
ATOM     61  C   UNL A   1      41.751  26.960  27.525  1.00  0.00     0.023 A 
ATOM     62  C   UNL A   1      41.477  25.581  27.482  1.00  0.00     0.031 A 
ATOM     63  C   UNL A   1      42.354  27.542  26.396  1.00  0.00     0.131 A 
ATOM     64  C   UNL A   1      41.890  24.819  26.379  1.00  0.00     0.055 A 
ATOM     65  C   UNL A   1      42.679  26.794  25.263  1.00  0.00     0.041 A 
ATOM     66  F   UNL A   1      42.657  28.851  26.383  1.00  0.00    -0.206 F 
ATOM     67  C   UNL A   1      42.463  25.419  25.257  1.00  0.00     0.022 A 
BRANCH  64  68
ATOM     68  S   UNL A   1      41.804  23.010  26.500  1.00  0.00     0.124 S 
ATOM     69  O   UNL A   1      42.625  22.758  27.682  1.00  0.00    -0.237 OA
ATOM     70  O   UNL A   1      40.374  22.772  26.653  1.00  0.00    -0.237 OA
ATOM     71  O   UNL A   1      42.383  22.555  25.238  1.00  0.00    -0.744 OA
ENDBRANCH  64  68
ENDBRANCH  47  61
BRANCH  48  72
ATOM     72  C   UNL A   1      38.950  32.148  35.641  1.00  0.00     0.023 A 
ATOM     73  C   UNL A   1      38.323  31.427  36.669  1.00  0.00     0.031 A 
ATOM     74  C   UNL A   1      39.093  33.537  35.805  1.00  0.00     0.131 A 
ATOM     75  C   UNL A   1      37.812  32.103  37.789  1.00  0.00     0.055 A 
ATOM     76  C   UNL A   1      38.631  34.198  36.945  1.00  0.00     0.041 A 
ATOM     77  F   UNL A   1      39.695  34.274  34.857  1.00  0.00    -0.206 F 
ATOM     78  C   UNL A   1      37.972  33.481  37.939  1.00  0.00     0.022 A 
BRANCH  75  79
ATOM     79  S   UNL A   1      36.846  31.160  39.001  1.00  0.00     0.124 S 
ATOM     80  O   UNL A   1      35.616  31.943  39.075  1.00  0.00    -0.237 OA
ATOM     81  O   UNL A   1      36.738  29.857  38.354  1.00  0.00    -0.237 OA
ATOM     82  O   UNL A   1      37.680  31.194  40.201  1.00  0.00    -0.744 OA
ENDBRANCH  75  79
ENDBRANCH  48  72
BRANCH  60  83
ATOM     83  C   UNL A   1      44.560  28.322  34.058  1.00  0.00     0.023 A 
ATOM     84  C   UNL A   1      45.685  29.162  34.039  1.00  0.00     0.031 A 
ATOM     85  C   UNL A   1      44.621  27.147  34.830  1.00  0.00     0.131 A 
ATOM     86  C   UNL A   1      46.844  28.792  34.736  1.00  0.00     0.055 A 
ATOM     87  C   UNL A   1      45.756  26.812  35.568  1.00  0.00     0.041 A 
ATOM     88  F   UNL A   1      43.573  26.310  34.884  1.00  0.00    -0.206 F 
ATOM     89  C   UNL A   1      46.880  27.631  35.514  1.00  0.00     0.022 A 
BRANCH  86  90
ATOM     90  S   UNL A   1      48.333  29.809  34.552  1.00  0.00     0.124 S 
ATOM     91  O   UNL A   1      49.101  29.440  35.737  1.00  0.00    -0.237 OA
ATOM     92  O   UNL A   1      48.870  29.349  33.276  1.00  0.00    -0.237 OA
ATOM     93  O   UNL A   1      47.816  31.177  34.548  1.00  0.00    -0.744 OA
ENDBRANCH  86  90
ENDBRANCH  60  83
ENDBRANCH  34  35
ENDBRANCH  26  29
ENDBRANCH  24  25
ENDBRANCH  23  24
ENDBRANCH   1  23
TORSDOF 20
ENDMDL
