MODEL 1
REMARK VINA RESULT:     -14.0      0.000      0.000
REMARK SMILES Cc1ccccc1[C@@H]1[NH2+][C@@H](C(=O)NCCCCNC(=O)c2ccc(-c3c4nc(c(-c5cc(S(=O)(=O)[O-])ccc5F)c5ccc([nH]5)c(-c5cc(S(=O)(=O)[O-])ccc5F)c5nc(c(-c6cc(S(=O)(=O)[O-])ccc6F)c6ccc3[nH]6)C=C5)C=C4)cc2)CC2=c3ccccc3=N[C@@H]21
REMARK SMILES IDX 16 1 15 2 14 3 13 4 11 5 12 6 10 8 8 9 9 10 93 11 85 14
REMARK SMILES IDX 92 15 84 16 86 17 91 18 87 19 90 20 88 21 89 22 7 23 1 24
REMARK SMILES IDX 2 25 3 26 4 27 6 28 5 29 17 30 18 31 19 32 20 34 21 35 22 36
REMARK SMILES IDX 83 37 23 38 82 39 24 40 25 41 26 42 76 43 27 44 81 45 75 46
REMARK SMILES IDX 77 47 28 48 80 49 74 50 73 51 29 53 61 54 41 55 60 56 42 57
REMARK SMILES IDX 45 58 59 59 78 60 43 61 44 62 58 64 79 65 46 66 30 67 31 68
REMARK SMILES IDX 39 69 32 70 38 71 40 72 37 73 33 74 34 75 35 76 36 77 62 78
REMARK SMILES IDX 63 79 71 80 64 81 70 82 72 83 69 84 65 85 66 86 67 87 68 88
REMARK SMILES IDX 47 89 48 90 56 91 49 92 55 93 57 94 54 95 50 96 51 97 52 98
REMARK SMILES IDX 53 99
REMARK H PARENT 13 7 9 12 9 13 18 33 77 52 45 63
REMARK Flexibility Score: inf
ROOT
ATOM      1  C   UNL A   1      40.621  22.045  27.264  1.00  0.00     0.023 C 
ENDROOT
BRANCH   1   2
ATOM      2  C   UNL A   1      39.737  21.177  26.329  1.00  0.00     0.023 C 
BRANCH   2   3
ATOM      3  C   UNL A   1      38.313  21.537  25.748  1.00  0.00     0.116 C 
BRANCH   3   4
ATOM      4  N   UNL A   1      37.930  22.421  24.598  1.00  0.00    -0.351 N 
ATOM      5  C   UNL A   1      36.686  22.693  24.004  1.00  0.00     0.278 C 
ATOM      6  O   UNL A   1      36.523  23.662  23.265  1.00  0.00    -0.268 OA
ATOM      7  H   UNL A   1      38.687  22.896  24.185  1.00  0.00     0.163 HD
BRANCH   5   8
ATOM      8  C   UNL A   1      35.613  21.637  24.263  1.00  0.00     0.277 C 
ATOM      9  C   UNL A   1      33.506  22.897  24.379  1.00  0.00     0.243 C 
ATOM     10  N   UNL A   1      34.474  22.210  23.531  1.00  0.00    -0.327 N 
ATOM     11  C   UNL A   1      32.667  21.620  24.868  1.00  0.00     0.196 C 
ATOM     12  H   UNL A   1      34.835  22.878  22.850  1.00  0.00     0.347 HD
ATOM     13  H   UNL A   1      33.982  21.430  23.096  1.00  0.00     0.347 HD
ATOM     14  C   UNL A   1      33.728  20.600  25.410  1.00  0.00    -0.024 C 
ATOM     15  N   UNL A   1      32.022  20.834  23.750  1.00  0.00    -0.270 NA
ATOM     16  C   UNL A   1      35.137  21.167  25.676  1.00  0.00     0.109 C 
ATOM     17  C   UNL A   1      33.595  19.394  24.836  1.00  0.00     0.002 A 
ATOM     18  C   UNL A   1      32.563  19.644  23.797  1.00  0.00     0.066 A 
ATOM     19  C   UNL A   1      34.520  18.299  24.699  1.00  0.00     0.010 A 
ATOM     20  C   UNL A   1      32.348  18.526  22.833  1.00  0.00     0.028 A 
ATOM     21  C   UNL A   1      34.308  17.369  23.755  1.00  0.00     0.001 A 
ATOM     22  C   UNL A   1      33.164  17.455  22.869  1.00  0.00     0.002 A 
BRANCH   9  23
ATOM     23  C   UNL A   1      33.208  24.278  23.742  1.00  0.00     0.015 A 
ATOM     24  C   UNL A   1      34.114  25.662  25.660  1.00  0.00     0.045 C 
ATOM     25  C   UNL A   1      33.548  25.521  24.285  1.00  0.00    -0.042 A 
ATOM     26  C   UNL A   1      33.536  26.691  23.467  1.00  0.00     0.004 A 
ATOM     27  C   UNL A   1      33.201  26.665  22.113  1.00  0.00     0.000 A 
ATOM     28  C   UNL A   1      32.909  24.324  22.351  1.00  0.00     0.010 A 
ATOM     29  C   UNL A   1      32.879  25.461  21.544  1.00  0.00     0.001 A 
ENDBRANCH   9  23
ENDBRANCH   5   8
ENDBRANCH   3   4
ENDBRANCH   2   3
ENDBRANCH   1   2
BRANCH   1  30
ATOM     30  C   UNL A   1      40.583  23.507  26.864  1.00  0.00     0.116 C 
BRANCH  30  31
ATOM     31  N   UNL A   1      41.749  24.092  26.201  1.00  0.00    -0.352 N 
ATOM     32  C   UNL A   1      41.896  25.423  25.812  1.00  0.00     0.251 C 
ATOM     33  H   UNL A   1      42.503  23.488  26.012  1.00  0.00     0.163 HD
ATOM     34  O   UNL A   1      42.915  25.855  25.278  1.00  0.00    -0.269 OA
BRANCH  32  35
ATOM     35  C   UNL A   1      40.826  26.381  26.217  1.00  0.00     0.039 A 
ATOM     36  C   UNL A   1      41.051  27.707  25.835  1.00  0.00     0.014 A 
ATOM     37  C   UNL A   1      40.095  26.089  27.362  1.00  0.00     0.014 A 
ATOM     38  C   UNL A   1      40.897  28.709  26.785  1.00  0.00     0.010 A 
ATOM     39  C   UNL A   1      40.104  27.048  28.357  1.00  0.00     0.010 A 
ATOM     40  C   UNL A   1      40.582  28.336  28.089  1.00  0.00    -0.014 A 
BRANCH  40  41
ATOM     41  C   UNL A   1      40.604  29.270  29.207  1.00  0.00     0.031 A 
ATOM     42  C   UNL A   1      39.456  30.188  29.257  1.00  0.00     0.074 A 
ATOM     43  C   UNL A   1      41.643  29.414  30.058  1.00  0.00     0.049 A 
ATOM     44  N   UNL A   1      39.530  31.445  29.513  1.00  0.00    -0.248 NA
ATOM     45  C   UNL A   1      38.123  29.750  28.854  1.00  0.00     0.031 C 
ATOM     46  C   UNL A   1      41.710  30.290  31.229  1.00  0.00     0.029 A 
ATOM     47  N   UNL A   1      42.947  28.964  29.897  1.00  0.00    -0.354 N 
ATOM     48  C   UNL A   1      38.241  31.926  29.549  1.00  0.00     0.074 A 
ATOM     49  C   UNL A   1      37.421  30.868  29.021  1.00  0.00     0.031 C 
ATOM     50  C   UNL A   1      43.000  30.503  31.543  1.00  0.00     0.029 A 
ATOM     51  C   UNL A   1      43.812  29.889  30.506  1.00  0.00     0.049 A 
ATOM     52  H   UNL A   1      43.219  28.137  29.437  1.00  0.00     0.167 HD
ATOM     53  C   UNL A   1      37.978  33.107  30.168  1.00  0.00     0.034 A 
ATOM     54  C   UNL A   1      44.787  30.523  29.787  1.00  0.00     0.034 A 
ATOM     55  C   UNL A   1      39.212  33.712  30.665  1.00  0.00     0.049 A 
ATOM     56  C   UNL A   1      44.612  32.014  29.727  1.00  0.00     0.074 A 
ATOM     57  C   UNL A   1      39.843  33.630  31.896  1.00  0.00     0.029 A 
ATOM     58  N   UNL A   1      40.154  34.204  29.769  1.00  0.00    -0.354 N 
ATOM     59  N   UNL A   1      43.501  32.633  30.019  1.00  0.00    -0.248 NA
ATOM     60  C   UNL A   1      45.667  32.911  29.272  1.00  0.00     0.031 C 
ATOM     61  C   UNL A   1      41.200  33.998  31.712  1.00  0.00     0.029 A 
ATOM     62  C   UNL A   1      41.384  34.349  30.384  1.00  0.00     0.049 A 
ATOM     63  H   UNL A   1      39.970  34.419  28.826  1.00  0.00     0.167 HD
ATOM     64  C   UNL A   1      43.628  33.950  29.668  1.00  0.00     0.074 A 
ATOM     65  C   UNL A   1      45.027  34.088  29.295  1.00  0.00     0.031 C 
ATOM     66  C   UNL A   1      42.553  34.795  29.636  1.00  0.00     0.034 A 
BRANCH  53  67
ATOM     67  C   UNL A   1      36.596  33.487  30.645  1.00  0.00     0.023 A 
ATOM     68  C   UNL A   1      35.749  34.173  29.756  1.00  0.00     0.031 A 
ATOM     69  C   UNL A   1      36.075  33.284  31.939  1.00  0.00     0.131 A 
ATOM     70  C   UNL A   1      34.523  34.712  30.180  1.00  0.00     0.055 A 
ATOM     71  C   UNL A   1      34.888  33.880  32.384  1.00  0.00     0.041 A 
ATOM     72  F   UNL A   1      36.655  32.454  32.814  1.00  0.00    -0.206 F 
ATOM     73  C   UNL A   1      34.106  34.610  31.503  1.00  0.00     0.022 A 
BRANCH  70  74
ATOM     74  S   UNL A   1      33.467  35.535  28.961  1.00  0.00     0.124 S 
ATOM     75  O   UNL A   1      34.447  36.130  28.059  1.00  0.00    -0.237 OA
ATOM     76  O   UNL A   1      32.690  34.423  28.427  1.00  0.00    -0.237 OA
ATOM     77  O   UNL A   1      32.705  36.490  29.764  1.00  0.00    -0.744 OA
ENDBRANCH  70  74
ENDBRANCH  53  67
BRANCH  54  78
ATOM     78  C   UNL A   1      45.279  29.714  28.634  1.00  0.00     0.023 A 
ATOM     79  C   UNL A   1      46.190  28.689  28.931  1.00  0.00     0.031 A 
ATOM     80  C   UNL A   1      44.530  29.618  27.455  1.00  0.00     0.131 A 
ATOM     81  C   UNL A   1      46.142  27.494  28.203  1.00  0.00     0.055 A 
ATOM     82  C   UNL A   1      44.537  28.445  26.696  1.00  0.00     0.041 A 
ATOM     83  F   UNL A   1      43.669  30.585  27.106  1.00  0.00    -0.206 F 
ATOM     84  C   UNL A   1      45.280  27.344  27.117  1.00  0.00     0.022 A 
BRANCH  81  85
ATOM     85  S   UNL A   1      47.024  26.065  28.865  1.00  0.00     0.124 S 
ATOM     86  O   UNL A   1      48.333  26.198  28.236  1.00  0.00    -0.237 OA
ATOM     87  O   UNL A   1      46.986  26.323  30.304  1.00  0.00    -0.237 OA
ATOM     88  O   UNL A   1      46.223  24.924  28.425  1.00  0.00    -0.744 OA
ENDBRANCH  81  85
ENDBRANCH  54  78
BRANCH  66  89
ATOM     89  C   UNL A   1      42.574  36.141  28.951  1.00  0.00     0.023 A 
ATOM     90  C   UNL A   1      43.180  37.265  29.529  1.00  0.00     0.031 A 
ATOM     91  C   UNL A   1      42.015  36.343  27.671  1.00  0.00     0.131 A 
ATOM     92  C   UNL A   1      43.050  38.539  28.961  1.00  0.00     0.055 A 
ATOM     93  C   UNL A   1      42.003  37.592  27.040  1.00  0.00     0.041 A 
ATOM     94  F   UNL A   1      41.461  35.339  26.977  1.00  0.00    -0.206 F 
ATOM     95  C   UNL A   1      42.484  38.712  27.704  1.00  0.00     0.022 A 
BRANCH  92  96
ATOM     96  S   UNL A   1      43.493  39.960  29.992  1.00  0.00     0.124 S 
ATOM     97  O   UNL A   1      43.632  39.339  31.308  1.00  0.00    -0.237 OA
ATOM     98  O   UNL A   1      44.734  40.421  29.378  1.00  0.00    -0.237 OA
ATOM     99  O   UNL A   1      42.351  40.858  29.848  1.00  0.00    -0.744 OA
ENDBRANCH  92  96
ENDBRANCH  66  89
ENDBRANCH  40  41
ENDBRANCH  32  35
ENDBRANCH  30  31
ENDBRANCH   1  30
TORSDOF 15
ENDMDL
MODEL 2
REMARK VINA RESULT:     -14.0      4.584     10.253
REMARK SMILES Cc1ccccc1[C@@H]1[NH2+][C@@H](C(=O)NCCCCNC(=O)c2ccc(-c3c4nc(c(-c5cc(S(=O)(=O)[O-])ccc5F)c5ccc([nH]5)c(-c5cc(S(=O)(=O)[O-])ccc5F)c5nc(c(-c6cc(S(=O)(=O)[O-])ccc6F)c6ccc3[nH]6)C=C5)C=C4)cc2)CC2=c3ccccc3=N[C@@H]21
REMARK SMILES IDX 16 1 15 2 14 3 13 4 11 5 12 6 10 8 8 9 9 10 93 11 85 14
REMARK SMILES IDX 92 15 84 16 86 17 91 18 87 19 90 20 88 21 89 22 7 23 1 24
REMARK SMILES IDX 2 25 3 26 4 27 6 28 5 29 17 30 18 31 19 32 20 34 21 35 22 36
REMARK SMILES IDX 83 37 23 38 82 39 24 40 25 41 26 42 76 43 27 44 81 45 75 46
REMARK SMILES IDX 77 47 28 48 80 49 74 50 73 51 29 53 61 54 41 55 60 56 42 57
REMARK SMILES IDX 45 58 59 59 78 60 43 61 44 62 58 64 79 65 46 66 30 67 31 68
REMARK SMILES IDX 39 69 32 70 38 71 40 72 37 73 33 74 34 75 35 76 36 77 62 78
REMARK SMILES IDX 63 79 71 80 64 81 70 82 72 83 69 84 65 85 66 86 67 87 68 88
REMARK SMILES IDX 47 89 48 90 56 91 49 92 55 93 57 94 54 95 50 96 51 97 52 98
REMARK SMILES IDX 53 99
REMARK H PARENT 13 7 9 12 9 13 18 33 77 52 45 63
REMARK Flexibility Score: inf
ROOT
ATOM      1  C   UNL A   1      33.531  31.552  27.764  1.00  0.00     0.023 C 
ENDROOT
BRANCH   1   2
ATOM      2  C   UNL A   1      32.699  30.739  26.736  1.00  0.00     0.023 C 
BRANCH   2   3
ATOM      3  C   UNL A   1      33.154  29.455  25.935  1.00  0.00     0.116 C 
BRANCH   3   4
ATOM      4  N   UNL A   1      33.760  29.328  24.569  1.00  0.00    -0.351 N 
ATOM      5  C   UNL A   1      33.721  28.290  23.624  1.00  0.00     0.278 C 
ATOM      6  O   UNL A   1      34.028  28.477  22.448  1.00  0.00    -0.268 OA
ATOM      7  H   UNL A   1      34.279  30.114  24.284  1.00  0.00     0.163 HD
BRANCH   5   8
ATOM      8  C   UNL A   1      33.382  26.916  24.201  1.00  0.00     0.277 C 
ATOM      9  C   UNL A   1      30.932  26.904  24.394  1.00  0.00     0.243 C 
ATOM     10  N   UNL A   1      32.092  26.649  23.547  1.00  0.00    -0.327 N 
ATOM     11  C   UNL A   1      30.915  25.516  25.199  1.00  0.00     0.196 C 
ATOM     12  H   UNL A   1      32.024  27.244  22.721  1.00  0.00     0.347 HD
ATOM     13  H   UNL A   1      32.079  25.656  23.320  1.00  0.00     0.347 HD
ATOM     14  C   UNL A   1      32.371  25.332  25.753  1.00  0.00    -0.024 C 
ATOM     15  N   UNL A   1      30.755  24.292  24.328  1.00  0.00    -0.270 NA
ATOM     16  C   UNL A   1      33.269  26.585  25.724  1.00  0.00     0.109 C 
ATOM     17  C   UNL A   1      32.883  24.139  25.412  1.00  0.00     0.002 A 
ATOM     18  C   UNL A   1      31.848  23.593  24.498  1.00  0.00     0.066 A 
ATOM     19  C   UNL A   1      34.245  23.677  25.334  1.00  0.00     0.010 A 
ATOM     20  C   UNL A   1      32.234  22.347  23.774  1.00  0.00     0.028 A 
ATOM     21  C   UNL A   1      34.533  22.593  24.597  1.00  0.00     0.001 A 
ATOM     22  C   UNL A   1      33.495  21.886  23.875  1.00  0.00     0.002 A 
BRANCH   9  23
ATOM     23  C   UNL A   1      29.928  27.760  23.582  1.00  0.00     0.015 A 
ATOM     24  C   UNL A   1      27.893  26.336  24.082  1.00  0.00     0.045 C 
ATOM     25  C   UNL A   1      28.548  27.547  23.501  1.00  0.00    -0.042 A 
ATOM     26  C   UNL A   1      27.687  28.578  23.016  1.00  0.00     0.004 A 
ATOM     27  C   UNL A   1      28.157  29.829  22.612  1.00  0.00     0.000 A 
ATOM     28  C   UNL A   1      30.328  29.066  23.182  1.00  0.00     0.010 A 
ATOM     29  C   UNL A   1      29.501  30.077  22.694  1.00  0.00     0.001 A 
ENDBRANCH   9  23
ENDBRANCH   5   8
ENDBRANCH   3   4
ENDBRANCH   2   3
ENDBRANCH   1   2
BRANCH   1  30
ATOM     30  C   UNL A   1      34.998  31.178  27.711  1.00  0.00     0.116 C 
BRANCH  30  31
ATOM     31  N   UNL A   1      35.925  31.806  28.654  1.00  0.00    -0.352 N 
ATOM     32  C   UNL A   1      37.040  31.206  29.240  1.00  0.00     0.251 C 
ATOM     33  H   UNL A   1      35.745  32.743  28.899  1.00  0.00     0.163 HD
ATOM     34  O   UNL A   1      37.792  31.800  30.009  1.00  0.00    -0.269 OA
BRANCH  32  35
ATOM     35  C   UNL A   1      37.409  29.838  28.773  1.00  0.00     0.039 A 
ATOM     36  C   UNL A   1      37.742  28.941  29.793  1.00  0.00     0.014 A 
ATOM     37  C   UNL A   1      37.975  29.714  27.510  1.00  0.00     0.014 A 
ATOM     38  C   UNL A   1      38.908  28.195  29.670  1.00  0.00     0.010 A 
ATOM     39  C   UNL A   1      39.218  29.111  27.451  1.00  0.00     0.010 A 
ATOM     40  C   UNL A   1      39.718  28.420  28.560  1.00  0.00    -0.014 A 
BRANCH  40  41
ATOM     41  C   UNL A   1      41.056  27.858  28.431  1.00  0.00     0.031 A 
ATOM     42  C   UNL A   1      41.089  26.397  28.257  1.00  0.00     0.074 A 
ATOM     43  C   UNL A   1      42.196  28.560  28.600  1.00  0.00     0.049 A 
ATOM     44  N   UNL A   1      41.906  25.604  28.852  1.00  0.00    -0.248 NA
ATOM     45  C   UNL A   1      40.059  25.706  27.487  1.00  0.00     0.031 C 
ATOM     46  C   UNL A   1      43.566  28.073  28.431  1.00  0.00     0.029 A 
ATOM     47  N   UNL A   1      42.351  29.807  29.192  1.00  0.00    -0.354 N 
ATOM     48  C   UNL A   1      41.671  24.340  28.361  1.00  0.00     0.074 A 
ATOM     49  C   UNL A   1      40.448  24.440  27.611  1.00  0.00     0.031 C 
ATOM     50  C   UNL A   1      44.405  28.882  29.104  1.00  0.00     0.029 A 
ATOM     51  C   UNL A   1      43.595  29.836  29.844  1.00  0.00     0.049 A 
ATOM     52  H   UNL A   1      41.701  30.546  29.158  1.00  0.00     0.167 HD
ATOM     53  C   UNL A   1      42.617  23.375  28.504  1.00  0.00     0.034 A 
ATOM     54  C   UNL A   1      43.682  30.070  31.188  1.00  0.00     0.034 A 
ATOM     55  C   UNL A   1      43.762  23.884  29.254  1.00  0.00     0.049 A 
ATOM     56  C   UNL A   1      44.262  28.919  31.960  1.00  0.00     0.074 A 
ATOM     57  C   UNL A   1      44.948  24.465  28.836  1.00  0.00     0.029 A 
ATOM     58  N   UNL A   1      43.629  24.182  30.605  1.00  0.00    -0.354 N 
ATOM     59  N   UNL A   1      44.363  27.704  31.496  1.00  0.00    -0.248 NA
ATOM     60  C   UNL A   1      44.713  29.046  33.340  1.00  0.00     0.031 C 
ATOM     61  C   UNL A   1      45.485  25.189  29.931  1.00  0.00     0.029 A 
ATOM     62  C   UNL A   1      44.655  25.010  31.026  1.00  0.00     0.049 A 
ATOM     63  H   UNL A   1      42.905  23.849  31.183  1.00  0.00     0.167 HD
ATOM     64  C   UNL A   1      44.743  26.875  32.517  1.00  0.00     0.074 A 
ATOM     65  C   UNL A   1      45.037  27.776  33.619  1.00  0.00     0.031 C 
ATOM     66  C   UNL A   1      44.704  25.514  32.393  1.00  0.00     0.034 A 
BRANCH  53  67
ATOM     67  C   UNL A   1      42.654  22.136  27.639  1.00  0.00     0.023 A 
ATOM     68  C   UNL A   1      43.699  22.006  26.706  1.00  0.00     0.031 A 
ATOM     69  C   UNL A   1      41.694  21.104  27.617  1.00  0.00     0.131 A 
ATOM     70  C   UNL A   1      43.704  20.976  25.751  1.00  0.00     0.055 A 
ATOM     71  C   UNL A   1      41.658  20.119  26.622  1.00  0.00     0.041 A 
ATOM     72  F   UNL A   1      40.782  20.964  28.587  1.00  0.00    -0.206 F 
ATOM     73  C   UNL A   1      42.664  20.055  25.672  1.00  0.00     0.022 A 
BRANCH  70  74
ATOM     74  S   UNL A   1      45.112  20.847  24.620  1.00  0.00     0.124 S 
ATOM     75  O   UNL A   1      44.621  21.546  23.437  1.00  0.00    -0.237 OA
ATOM     76  O   UNL A   1      46.171  21.512  25.370  1.00  0.00    -0.237 OA
ATOM     77  O   UNL A   1      45.285  19.404  24.459  1.00  0.00    -0.744 OA
ENDBRANCH  70  74
ENDBRANCH  53  67
BRANCH  54  78
ATOM     78  C   UNL A   1      42.570  30.919  31.704  1.00  0.00     0.023 A 
ATOM     79  C   UNL A   1      41.543  30.257  32.392  1.00  0.00     0.031 A 
ATOM     80  C   UNL A   1      42.765  32.283  31.953  1.00  0.00     0.131 A 
ATOM     81  C   UNL A   1      40.926  30.886  33.481  1.00  0.00     0.055 A 
ATOM     82  C   UNL A   1      42.098  32.923  33.000  1.00  0.00     0.041 A 
ATOM     83  F   UNL A   1      43.711  32.973  31.299  1.00  0.00    -0.206 F 
ATOM     84  C   UNL A   1      41.237  32.201  33.825  1.00  0.00     0.022 A 
BRANCH  81  85
ATOM     85  S   UNL A   1      39.922  29.873  34.587  1.00  0.00     0.124 S 
ATOM     86  O   UNL A   1      39.657  30.794  35.685  1.00  0.00    -0.237 OA
ATOM     87  O   UNL A   1      38.772  29.550  33.743  1.00  0.00    -0.237 OA
ATOM     88  O   UNL A   1      40.787  28.739  34.904  1.00  0.00    -0.744 OA
ENDBRANCH  81  85
ENDBRANCH  54  78
BRANCH  66  89
ATOM     89  C   UNL A   1      44.790  24.569  33.570  1.00  0.00     0.023 A 
ATOM     90  C   UNL A   1      45.959  23.862  33.878  1.00  0.00     0.031 A 
ATOM     91  C   UNL A   1      43.707  24.368  34.453  1.00  0.00     0.131 A 
ATOM     92  C   UNL A   1      45.975  22.871  34.867  1.00  0.00     0.055 A 
ATOM     93  C   UNL A   1      43.765  23.473  35.527  1.00  0.00     0.041 A 
ATOM     94  F   UNL A   1      42.549  25.029  34.312  1.00  0.00    -0.206 F 
ATOM     95  C   UNL A   1      44.891  22.683  35.715  1.00  0.00     0.022 A 
BRANCH  92  96
ATOM     96  S   UNL A   1      47.388  21.740  34.890  1.00  0.00     0.124 S 
ATOM     97  O   UNL A   1      48.459  22.591  34.376  1.00  0.00    -0.237 OA
ATOM     98  O   UNL A   1      47.488  21.386  36.303  1.00  0.00    -0.237 OA
ATOM     99  O   UNL A   1      46.976  20.657  34.001  1.00  0.00    -0.744 OA
ENDBRANCH  92  96
ENDBRANCH  66  89
ENDBRANCH  40  41
ENDBRANCH  32  35
ENDBRANCH  30  31
ENDBRANCH   1  30
TORSDOF 15
ENDMDL
MODEL 3
REMARK VINA RESULT:     -13.8      4.723     10.967
REMARK SMILES Cc1ccccc1[C@@H]1[NH2+][C@@H](C(=O)NCCCCNC(=O)c2ccc(-c3c4nc(c(-c5cc(S(=O)(=O)[O-])ccc5F)c5ccc([nH]5)c(-c5cc(S(=O)(=O)[O-])ccc5F)c5nc(c(-c6cc(S(=O)(=O)[O-])ccc6F)c6ccc3[nH]6)C=C5)C=C4)cc2)CC2=c3ccccc3=N[C@@H]21
REMARK SMILES IDX 16 1 15 2 14 3 13 4 11 5 12 6 10 8 8 9 9 10 93 11 85 14
REMARK SMILES IDX 92 15 84 16 86 17 91 18 87 19 90 20 88 21 89 22 7 23 1 24
REMARK SMILES IDX 2 25 3 26 4 27 6 28 5 29 17 30 18 31 19 32 20 34 21 35 22 36
REMARK SMILES IDX 83 37 23 38 82 39 24 40 25 41 26 42 76 43 27 44 81 45 75 46
REMARK SMILES IDX 77 47 28 48 80 49 74 50 73 51 29 53 61 54 41 55 60 56 42 57
REMARK SMILES IDX 45 58 59 59 78 60 43 61 44 62 58 64 79 65 46 66 30 67 31 68
REMARK SMILES IDX 39 69 32 70 38 71 40 72 37 73 33 74 34 75 35 76 36 77 62 78
REMARK SMILES IDX 63 79 71 80 64 81 70 82 72 83 69 84 65 85 66 86 67 87 68 88
REMARK SMILES IDX 47 89 48 90 56 91 49 92 55 93 57 94 54 95 50 96 51 97 52 98
REMARK SMILES IDX 53 99
REMARK H PARENT 13 7 9 12 9 13 18 33 77 52 45 63
REMARK Flexibility Score: inf
ROOT
ATOM      1  C   UNL A   1      35.298  32.679  28.008  1.00  0.00     0.023 C 
ENDROOT
BRANCH   1   2
ATOM      2  C   UNL A   1      33.880  32.164  27.643  1.00  0.00     0.023 C 
BRANCH   2   3
ATOM      3  C   UNL A   1      33.491  30.737  27.087  1.00  0.00     0.116 C 
BRANCH   3   4
ATOM      4  N   UNL A   1      32.847  29.570  27.776  1.00  0.00    -0.351 N 
ATOM      5  C   UNL A   1      32.076  28.505  27.282  1.00  0.00     0.278 C 
ATOM      6  O   UNL A   1      31.880  27.489  27.946  1.00  0.00    -0.268 OA
ATOM      7  H   UNL A   1      32.989  29.548  28.750  1.00  0.00     0.163 HD
BRANCH   5   8
ATOM      8  C   UNL A   1      31.425  28.766  25.924  1.00  0.00     0.277 C 
ATOM      9  C   UNL A   1      31.657  26.648  24.699  1.00  0.00     0.243 C 
ATOM     10  N   UNL A   1      30.858  27.442  25.627  1.00  0.00    -0.327 N 
ATOM     11  C   UNL A   1      31.129  27.285  23.324  1.00  0.00     0.196 C 
ATOM     12  H   UNL A   1      30.775  26.926  26.503  1.00  0.00     0.347 HD
ATOM     13  H   UNL A   1      29.958  27.603  25.177  1.00  0.00     0.347 HD
ATOM     14  C   UNL A   1      31.281  28.837  23.492  1.00  0.00    -0.024 C 
ATOM     15  N   UNL A   1      29.642  27.139  23.101  1.00  0.00    -0.270 NA
ATOM     16  C   UNL A   1      32.170  29.307  24.661  1.00  0.00     0.109 C 
ATOM     17  C   UNL A   1      30.130  29.478  23.233  1.00  0.00     0.002 A 
ATOM     18  C   UNL A   1      29.171  28.359  23.054  1.00  0.00     0.066 A 
ATOM     19  C   UNL A   1      29.665  30.787  23.613  1.00  0.00     0.010 A 
ATOM     20  C   UNL A   1      27.737  28.760  22.962  1.00  0.00     0.028 A 
ATOM     21  C   UNL A   1      28.350  31.055  23.583  1.00  0.00     0.001 A 
ATOM     22  C   UNL A   1      27.393  30.044  23.179  1.00  0.00     0.002 A 
BRANCH   9  23
ATOM     23  C   UNL A   1      31.825  25.233  25.306  1.00  0.00     0.015 A 
ATOM     24  C   UNL A   1      34.345  25.338  25.542  1.00  0.00     0.045 C 
ATOM     25  C   UNL A   1      33.026  24.671  25.753  1.00  0.00    -0.042 A 
ATOM     26  C   UNL A   1      33.011  23.518  26.596  1.00  0.00     0.004 A 
ATOM     27  C   UNL A   1      31.831  22.904  27.019  1.00  0.00     0.000 A 
ATOM     28  C   UNL A   1      30.666  24.573  25.802  1.00  0.00     0.010 A 
ATOM     29  C   UNL A   1      30.637  23.439  26.614  1.00  0.00     0.001 A 
ENDBRANCH   9  23
ENDBRANCH   5   8
ENDBRANCH   3   4
ENDBRANCH   2   3
ENDBRANCH   1   2
BRANCH   1  30
ATOM     30  C   UNL A   1      36.132  31.595  28.660  1.00  0.00     0.116 C 
BRANCH  30  31
ATOM     31  N   UNL A   1      36.218  31.546  30.121  1.00  0.00    -0.352 N 
ATOM     32  C   UNL A   1      36.644  30.461  30.887  1.00  0.00     0.251 C 
ATOM     33  H   UNL A   1      35.949  32.357  30.609  1.00  0.00     0.163 HD
ATOM     34  O   UNL A   1      36.713  30.496  32.113  1.00  0.00    -0.269 OA
BRANCH  32  35
ATOM     35  C   UNL A   1      37.188  29.277  30.160  1.00  0.00     0.039 A 
ATOM     36  C   UNL A   1      37.689  28.264  30.984  1.00  0.00     0.014 A 
ATOM     37  C   UNL A   1      37.714  29.481  28.891  1.00  0.00     0.014 A 
ATOM     38  C   UNL A   1      38.945  27.739  30.705  1.00  0.00     0.010 A 
ATOM     39  C   UNL A   1      39.027  29.094  28.701  1.00  0.00     0.010 A 
ATOM     40  C   UNL A   1      39.668  28.289  29.649  1.00  0.00    -0.014 A 
BRANCH  40  41
ATOM     41  C   UNL A   1      41.066  27.968  29.398  1.00  0.00     0.031 A 
ATOM     42  C   UNL A   1      41.293  26.629  28.832  1.00  0.00     0.074 A 
ATOM     43  C   UNL A   1      42.105  28.745  29.774  1.00  0.00     0.049 A 
ATOM     44  N   UNL A   1      42.221  25.822  29.204  1.00  0.00    -0.248 NA
ATOM     45  C   UNL A   1      40.352  26.043  27.883  1.00  0.00     0.031 C 
ATOM     46  C   UNL A   1      43.525  28.512  29.506  1.00  0.00     0.029 A 
ATOM     47  N   UNL A   1      42.101  29.792  30.687  1.00  0.00    -0.354 N 
ATOM     48  C   UNL A   1      42.149  24.720  28.381  1.00  0.00     0.074 A 
ATOM     49  C   UNL A   1      40.910  24.855  27.664  1.00  0.00     0.031 C 
ATOM     50  C   UNL A   1      44.259  29.212  30.389  1.00  0.00     0.029 A 
ATOM     51  C   UNL A   1      43.341  29.809  31.346  1.00  0.00     0.049 A 
ATOM     52  H   UNL A   1      41.356  30.417  30.844  1.00  0.00     0.167 HD
ATOM     53  C   UNL A   1      43.219  23.889  28.274  1.00  0.00     0.034 A 
ATOM     54  C   UNL A   1      43.420  29.677  32.704  1.00  0.00     0.034 A 
ATOM     55  C   UNL A   1      44.299  24.323  29.157  1.00  0.00     0.049 A 
ATOM     56  C   UNL A   1      44.164  28.448  33.144  1.00  0.00     0.074 A 
ATOM     57  C   UNL A   1      45.388  25.151  28.937  1.00  0.00     0.029 A 
ATOM     58  N   UNL A   1      44.151  24.220  30.536  1.00  0.00    -0.354 N 
ATOM     59  N   UNL A   1      44.420  27.431  32.368  1.00  0.00    -0.248 NA
ATOM     60  C   UNL A   1      44.619  28.253  34.515  1.00  0.00     0.031 C 
ATOM     61  C   UNL A   1      45.841  25.614  30.198  1.00  0.00     0.029 A 
ATOM     62  C   UNL A   1      45.063  25.033  31.186  1.00  0.00     0.049 A 
ATOM     63  H   UNL A   1      43.489  23.648  30.986  1.00  0.00     0.167 HD
ATOM     64  C   UNL A   1      44.927  26.413  33.131  1.00  0.00     0.074 A 
ATOM     65  C   UNL A   1      45.117  27.010  34.443  1.00  0.00     0.031 C 
ATOM     66  C   UNL A   1      45.069  25.145  32.640  1.00  0.00     0.034 A 
BRANCH  53  67
ATOM     67  C   UNL A   1      43.407  22.950  27.105  1.00  0.00     0.023 A 
ATOM     68  C   UNL A   1      42.810  21.678  27.169  1.00  0.00     0.031 A 
ATOM     69  C   UNL A   1      44.190  23.191  25.958  1.00  0.00     0.131 A 
ATOM     70  C   UNL A   1      43.082  20.691  26.207  1.00  0.00     0.055 A 
ATOM     71  C   UNL A   1      44.521  22.189  25.037  1.00  0.00     0.041 A 
ATOM     72  F   UNL A   1      44.624  24.417  25.642  1.00  0.00    -0.206 F 
ATOM     73  C   UNL A   1      43.973  20.923  25.164  1.00  0.00     0.022 A 
BRANCH  70  74
ATOM     74  S   UNL A   1      42.233  19.097  26.333  1.00  0.00     0.124 S 
ATOM     75  O   UNL A   1      42.288  18.832  27.767  1.00  0.00    -0.237 OA
ATOM     76  O   UNL A   1      40.919  19.405  25.783  1.00  0.00    -0.237 OA
ATOM     77  O   UNL A   1      43.054  18.211  25.509  1.00  0.00    -0.744 OA
ENDBRANCH  70  74
ENDBRANCH  53  67
BRANCH  54  78
ATOM     78  C   UNL A   1      42.213  30.195  33.411  1.00  0.00     0.023 A 
ATOM     79  C   UNL A   1      42.127  31.586  33.569  1.00  0.00     0.031 A 
ATOM     80  C   UNL A   1      41.030  29.446  33.449  1.00  0.00     0.131 A 
ATOM     81  C   UNL A   1      40.876  32.210  33.496  1.00  0.00     0.055 A 
ATOM     82  C   UNL A   1      39.783  30.077  33.442  1.00  0.00     0.041 A 
ATOM     83  F   UNL A   1      41.058  28.111  33.336  1.00  0.00    -0.206 F 
ATOM     84  C   UNL A   1      39.703  31.466  33.378  1.00  0.00     0.022 A 
BRANCH  81  85
ATOM     85  S   UNL A   1      40.837  34.003  33.288  1.00  0.00     0.124 S 
ATOM     86  O   UNL A   1      40.103  34.430  34.473  1.00  0.00    -0.237 OA
ATOM     87  O   UNL A   1      42.260  34.339  33.272  1.00  0.00    -0.237 OA
ATOM     88  O   UNL A   1      40.149  34.193  32.013  1.00  0.00    -0.744 OA
ENDBRANCH  81  85
ENDBRANCH  54  78
BRANCH  66  89
ATOM     89  C   UNL A   1      45.303  23.936  33.515  1.00  0.00     0.023 A 
ATOM     90  C   UNL A   1      46.571  23.607  34.014  1.00  0.00     0.031 A 
ATOM     91  C   UNL A   1      44.252  23.081  33.913  1.00  0.00     0.131 A 
ATOM     92  C   UNL A   1      46.801  22.400  34.684  1.00  0.00     0.055 A 
ATOM     93  C   UNL A   1      44.462  21.943  34.698  1.00  0.00     0.041 A 
ATOM     94  F   UNL A   1      42.980  23.315  33.560  1.00  0.00    -0.206 F 
ATOM     95  C   UNL A   1      45.751  21.569  35.054  1.00  0.00     0.022 A 
BRANCH  92  96
ATOM     96  S   UNL A   1      48.523  21.884  34.902  1.00  0.00     0.124 S 
ATOM     97  O   UNL A   1      48.555  21.549  36.325  1.00  0.00    -0.237 OA
ATOM     98  O   UNL A   1      48.633  20.754  33.986  1.00  0.00    -0.237 OA
ATOM     99  O   UNL A   1      49.288  23.071  34.528  1.00  0.00    -0.744 OA
ENDBRANCH  92  96
ENDBRANCH  66  89
ENDBRANCH  40  41
ENDBRANCH  32  35
ENDBRANCH  30  31
ENDBRANCH   1  30
TORSDOF 15
ENDMDL
