MODEL 1
REMARK VINA RESULT:     -11.6      0.000      0.000
REMARK SMILES COc1ccc(C(=O)N[C@H](C(=O)NCCCCNC(=O)c2ccc(-c3c4nc(c(-c5cc(S(=O)(=O)[O-])ccc5F)c5ccc([nH]5)c(-c5cc(S(=O)(=O)[O-])ccc5F)c5nc(c(-c6cc(S(=O)(=O)[O-])ccc6F)c6ccc3[nH]6)C=C5)C=C4)cc2)C2=C(C)N=N[C@H]2C)c(F)c1F
REMARK SMILES IDX 15 1 14 2 13 3 11 4 12 5 10 7 9 8 7 9 8 10 6 12 3 13 4 14
REMARK SMILES IDX 93 15 5 16 91 17 94 18 92 19 2 20 1 21 84 22 85 23 89 24
REMARK SMILES IDX 86 25 87 26 88 27 90 28 16 29 17 30 18 31 19 32 20 34 21 35
REMARK SMILES IDX 22 36 83 37 23 38 82 39 24 40 25 41 26 42 76 43 27 44 81 45
REMARK SMILES IDX 75 46 77 47 28 48 80 49 74 50 73 51 29 53 61 54 41 55 60 56
REMARK SMILES IDX 42 57 45 58 59 59 78 60 43 61 44 62 58 64 79 65 46 66 30 67
REMARK SMILES IDX 31 68 39 69 32 70 38 71 40 72 37 73 33 74 34 75 35 76 36 77
REMARK SMILES IDX 62 78 63 79 71 80 64 81 70 82 72 83 69 84 65 85 66 86 67 87
REMARK SMILES IDX 68 88 47 89 48 90 56 91 49 92 55 93 57 94 54 95 50 96 51 97
REMARK SMILES IDX 52 98 53 99
REMARK H PARENT 13 6 9 11 18 33 77 52 45 63
REMARK Flexibility Score: inf
ROOT
ATOM      1  C   UNL A   1      31.061  26.619  26.151  1.00  0.00     0.023 C 
ENDROOT
BRANCH   1   2
ATOM      2  C   UNL A   1      31.834  25.307  26.255  1.00  0.00     0.116 C 
BRANCH   2   3
ATOM      3  N   UNL A   1      33.242  25.517  25.961  1.00  0.00    -0.354 N 
ATOM      4  C   UNL A   1      34.073  24.794  25.146  1.00  0.00     0.247 C 
ATOM      5  O   UNL A   1      35.278  25.059  25.142  1.00  0.00    -0.272 OA
ATOM      6  H   UNL A   1      33.657  26.289  26.410  1.00  0.00     0.163 HD
BRANCH   4   7
ATOM      7  C   UNL A   1      33.475  23.708  24.217  1.00  0.00     0.202 C 
BRANCH   7   8
ATOM      8  N   UNL A   1      33.685  24.142  22.839  1.00  0.00    -0.336 N 
ATOM      9  C   UNL A   1      33.155  25.112  22.038  1.00  0.00     0.255 C 
ATOM     10  O   UNL A   1      33.344  24.967  20.825  1.00  0.00    -0.269 OA
ATOM     11  H   UNL A   1      34.372  23.609  22.378  1.00  0.00     0.165 HD
BRANCH   9  12
ATOM     12  C   UNL A   1      32.486  26.368  22.487  1.00  0.00     0.078 A 
ATOM     13  C   UNL A   1      30.938  28.675  23.010  1.00  0.00     0.157 A 
ATOM     14  C   UNL A   1      30.305  27.502  22.628  1.00  0.00     0.050 A 
ATOM     15  C   UNL A   1      32.319  28.690  23.168  1.00  0.00     0.201 A 
ATOM     16  C   UNL A   1      31.075  26.364  22.370  1.00  0.00     0.021 A 
ATOM     17  C   UNL A   1      33.079  27.541  22.949  1.00  0.00     0.175 A 
ATOM     18  F   UNL A   1      32.934  29.822  23.547  1.00  0.00    -0.200 F 
ATOM     19  F   UNL A   1      34.377  27.620  23.257  1.00  0.00    -0.203 F 
BRANCH  13  20
ATOM     20  O   UNL A   1      30.212  29.824  23.150  1.00  0.00    -0.494 OA
ATOM     21  C   UNL A   1      29.567  30.162  21.924  1.00  0.00     0.278 C 
ENDBRANCH  13  20
ENDBRANCH   9  12
ENDBRANCH   7   8
BRANCH   7  22
ATOM     22  C   UNL A   1      34.106  22.355  24.388  1.00  0.00     0.011 C 
ATOM     23  C   UNL A   1      33.648  21.098  24.270  1.00  0.00     0.064 C 
ATOM     24  C   UNL A   1      35.504  22.175  24.900  1.00  0.00     0.156 C 
ATOM     25  C   UNL A   1      32.383  20.564  23.693  1.00  0.00     0.069 C 
ATOM     26  N   UNL A   1      34.501  20.177  24.834  1.00  0.00    -0.160 NA
ATOM     27  N   UNL A   1      35.497  20.757  25.338  1.00  0.00    -0.181 NA
ATOM     28  C   UNL A   1      36.569  22.260  23.807  1.00  0.00     0.040 C 
ENDBRANCH   7  22
ENDBRANCH   4   7
ENDBRANCH   2   3
ENDBRANCH   1   2
BRANCH   1  29
ATOM     29  C   UNL A   1      31.502  27.693  27.125  1.00  0.00     0.023 C 
BRANCH  29  30
ATOM     30  C   UNL A   1      32.549  28.632  26.559  1.00  0.00     0.116 C 
BRANCH  30  31
ATOM     31  N   UNL A   1      32.117  30.025  26.532  1.00  0.00    -0.352 N 
ATOM     32  C   UNL A   1      32.751  31.144  27.028  1.00  0.00     0.251 C 
ATOM     33  H   UNL A   1      31.248  30.189  26.098  1.00  0.00     0.163 HD
ATOM     34  O   UNL A   1      32.175  32.220  27.059  1.00  0.00    -0.269 OA
BRANCH  32  35
ATOM     35  C   UNL A   1      34.125  30.999  27.555  1.00  0.00     0.039 A 
ATOM     36  C   UNL A   1      34.881  32.136  27.838  1.00  0.00     0.014 A 
ATOM     37  C   UNL A   1      34.616  29.728  27.853  1.00  0.00     0.014 A 
ATOM     38  C   UNL A   1      36.101  31.996  28.504  1.00  0.00     0.010 A 
ATOM     39  C   UNL A   1      35.748  29.605  28.641  1.00  0.00     0.010 A 
ATOM     40  C   UNL A   1      36.521  30.733  28.953  1.00  0.00    -0.014 A 
BRANCH  40  41
ATOM     41  C   UNL A   1      37.795  30.534  29.690  1.00  0.00     0.031 A 
ATOM     42  C   UNL A   1      38.894  29.731  29.039  1.00  0.00     0.074 A 
ATOM     43  C   UNL A   1      37.933  30.982  30.953  1.00  0.00     0.049 A 
ATOM     44  N   UNL A   1      40.012  29.285  29.547  1.00  0.00    -0.248 NA
ATOM     45  C   UNL A   1      38.663  29.316  27.645  1.00  0.00     0.031 C 
ATOM     46  C   UNL A   1      36.917  31.717  31.712  1.00  0.00     0.029 A 
ATOM     47  N   UNL A   1      38.983  30.877  31.830  1.00  0.00    -0.354 N 
ATOM     48  C   UNL A   1      40.590  28.504  28.551  1.00  0.00     0.074 A 
ATOM     49  C   UNL A   1      39.653  28.462  27.451  1.00  0.00     0.031 C 
ATOM     50  C   UNL A   1      37.410  32.029  32.922  1.00  0.00     0.029 A 
ATOM     51  C   UNL A   1      38.755  31.478  33.046  1.00  0.00     0.049 A 
ATOM     52  H   UNL A   1      39.824  30.412  31.608  1.00  0.00     0.167 HD
ATOM     53  C   UNL A   1      41.808  27.909  28.536  1.00  0.00     0.034 A 
ATOM     54  C   UNL A   1      39.544  31.569  34.135  1.00  0.00     0.034 A 
ATOM     55  C   UNL A   1      42.751  28.020  29.621  1.00  0.00     0.049 A 
ATOM     56  C   UNL A   1      40.916  30.941  34.084  1.00  0.00     0.074 A 
ATOM     57  C   UNL A   1      44.040  27.525  29.700  1.00  0.00     0.029 A 
ATOM     58  N   UNL A   1      42.505  28.689  30.814  1.00  0.00    -0.354 N 
ATOM     59  N   UNL A   1      41.468  30.240  33.118  1.00  0.00    -0.248 NA
ATOM     60  C   UNL A   1      41.775  31.130  35.259  1.00  0.00     0.031 C 
ATOM     61  C   UNL A   1      44.555  27.851  30.959  1.00  0.00     0.029 A 
ATOM     62  C   UNL A   1      43.615  28.609  31.639  1.00  0.00     0.049 A 
ATOM     63  H   UNL A   1      41.666  29.151  31.040  1.00  0.00     0.167 HD
ATOM     64  C   UNL A   1      42.754  29.937  33.558  1.00  0.00     0.074 A 
ATOM     65  C   UNL A   1      42.896  30.542  34.867  1.00  0.00     0.031 C 
ATOM     66  C   UNL A   1      43.732  29.228  32.939  1.00  0.00     0.034 A 
BRANCH  53  67
ATOM     67  C   UNL A   1      42.169  27.094  27.316  1.00  0.00     0.023 A 
ATOM     68  C   UNL A   1      41.895  25.716  27.241  1.00  0.00     0.031 A 
ATOM     69  C   UNL A   1      42.851  27.684  26.237  1.00  0.00     0.131 A 
ATOM     70  C   UNL A   1      42.392  24.958  26.170  1.00  0.00     0.055 A 
ATOM     71  C   UNL A   1      43.256  26.942  25.126  1.00  0.00     0.041 A 
ATOM     72  F   UNL A   1      43.160  28.991  26.257  1.00  0.00    -0.206 F 
ATOM     73  C   UNL A   1      43.046  25.566  25.097  1.00  0.00     0.022 A 
BRANCH  70  74
ATOM     74  S   UNL A   1      42.323  23.149  26.289  1.00  0.00     0.124 S 
ATOM     75  O   UNL A   1      43.188  22.898  27.440  1.00  0.00    -0.237 OA
ATOM     76  O   UNL A   1      40.901  22.900  26.493  1.00  0.00    -0.237 OA
ATOM     77  O   UNL A   1      42.859  22.701  25.006  1.00  0.00    -0.744 OA
ENDBRANCH  70  74
ENDBRANCH  53  67
BRANCH  54  78
ATOM     78  C   UNL A   1      39.080  32.291  35.354  1.00  0.00     0.023 A 
ATOM     79  C   UNL A   1      38.490  31.598  36.423  1.00  0.00     0.031 A 
ATOM     80  C   UNL A   1      39.182  33.690  35.456  1.00  0.00     0.131 A 
ATOM     81  C   UNL A   1      37.980  32.303  37.523  1.00  0.00     0.055 A 
ATOM     82  C   UNL A   1      38.720  34.385  36.576  1.00  0.00     0.041 A 
ATOM     83  F   UNL A   1      39.748  34.404  34.469  1.00  0.00    -0.206 F 
ATOM     84  C   UNL A   1      38.102  33.692  37.612  1.00  0.00     0.022 A 
BRANCH  81  85
ATOM     85  S   UNL A   1      37.078  31.386  38.802  1.00  0.00     0.124 S 
ATOM     86  O   UNL A   1      35.842  32.154  38.903  1.00  0.00    -0.237 OA
ATOM     87  O   UNL A   1      36.963  30.062  38.200  1.00  0.00    -0.237 OA
ATOM     88  O   UNL A   1      37.959  31.466  39.965  1.00  0.00    -0.744 OA
ENDBRANCH  81  85
ENDBRANCH  54  78
BRANCH  66  89
ATOM     89  C   UNL A   1      45.058  29.127  33.648  1.00  0.00     0.023 A 
ATOM     90  C   UNL A   1      45.345  28.075  34.534  1.00  0.00     0.031 A 
ATOM     91  C   UNL A   1      46.045  30.103  33.432  1.00  0.00     0.131 A 
ATOM     92  C   UNL A   1      46.571  28.053  35.214  1.00  0.00     0.055 A 
ATOM     93  C   UNL A   1      47.287  30.045  34.066  1.00  0.00     0.041 A 
ATOM     94  F   UNL A   1      45.821  31.129  32.594  1.00  0.00    -0.206 F 
ATOM     95  C   UNL A   1      47.549  29.022  34.973  1.00  0.00     0.022 A 
BRANCH  92  96
ATOM     96  S   UNL A   1      46.835  26.792  36.489  1.00  0.00     0.124 S 
ATOM     97  O   UNL A   1      45.821  25.799  36.148  1.00  0.00    -0.237 OA
ATOM     98  O   UNL A   1      48.220  26.396  36.253  1.00  0.00    -0.237 OA
ATOM     99  O   UNL A   1      46.601  27.514  37.739  1.00  0.00    -0.744 OA
ENDBRANCH  92  96
ENDBRANCH  66  89
ENDBRANCH  40  41
ENDBRANCH  32  35
ENDBRANCH  30  31
ENDBRANCH  29  30
ENDBRANCH   1  29
TORSDOF 18
ENDMDL
MODEL 2
REMARK VINA RESULT:     -11.6      2.515      7.720
REMARK SMILES COc1ccc(C(=O)N[C@H](C(=O)NCCCCNC(=O)c2ccc(-c3c4nc(c(-c5cc(S(=O)(=O)[O-])ccc5F)c5ccc([nH]5)c(-c5cc(S(=O)(=O)[O-])ccc5F)c5nc(c(-c6cc(S(=O)(=O)[O-])ccc6F)c6ccc3[nH]6)C=C5)C=C4)cc2)C2=C(C)N=N[C@H]2C)c(F)c1F
REMARK SMILES IDX 15 1 14 2 13 3 11 4 12 5 10 7 9 8 7 9 8 10 6 12 3 13 4 14
REMARK SMILES IDX 93 15 5 16 91 17 94 18 92 19 2 20 1 21 84 22 85 23 89 24
REMARK SMILES IDX 86 25 87 26 88 27 90 28 16 29 17 30 18 31 19 32 20 34 21 35
REMARK SMILES IDX 22 36 83 37 23 38 82 39 24 40 25 41 26 42 76 43 27 44 81 45
REMARK SMILES IDX 75 46 77 47 28 48 80 49 74 50 73 51 29 53 61 54 41 55 60 56
REMARK SMILES IDX 42 57 45 58 59 59 78 60 43 61 44 62 58 64 79 65 46 66 30 67
REMARK SMILES IDX 31 68 39 69 32 70 38 71 40 72 37 73 33 74 34 75 35 76 36 77
REMARK SMILES IDX 62 78 63 79 71 80 64 81 70 82 72 83 69 84 65 85 66 86 67 87
REMARK SMILES IDX 68 88 47 89 48 90 56 91 49 92 55 93 57 94 54 95 50 96 51 97
REMARK SMILES IDX 52 98 53 99
REMARK H PARENT 13 6 9 11 18 33 77 52 45 63
REMARK Flexibility Score: inf
ROOT
ATOM      1  C   UNL A   1      32.416  27.744  26.447  1.00  0.00     0.023 C 
ENDROOT
BRANCH   1   2
ATOM      2  C   UNL A   1      32.619  26.298  26.002  1.00  0.00     0.116 C 
BRANCH   2   3
ATOM      3  N   UNL A   1      34.036  25.989  25.897  1.00  0.00    -0.354 N 
ATOM      4  C   UNL A   1      34.641  24.848  25.438  1.00  0.00     0.247 C 
ATOM      5  O   UNL A   1      35.863  24.733  25.562  1.00  0.00    -0.272 OA
ATOM      6  H   UNL A   1      34.648  26.701  26.196  1.00  0.00     0.163 HD
BRANCH   4   7
ATOM      7  C   UNL A   1      33.789  23.764  24.731  1.00  0.00     0.202 C 
BRANCH   7   8
ATOM      8  N   UNL A   1      33.875  24.003  23.294  1.00  0.00    -0.336 N 
ATOM      9  C   UNL A   1      33.064  24.574  22.356  1.00  0.00     0.255 C 
ATOM     10  O   UNL A   1      33.328  24.300  21.180  1.00  0.00    -0.269 OA
ATOM     11  H   UNL A   1      34.719  23.674  22.908  1.00  0.00     0.165 HD
BRANCH   9  12
ATOM     12  C   UNL A   1      31.984  25.573  22.606  1.00  0.00     0.078 A 
ATOM     13  C   UNL A   1      30.260  27.734  23.198  1.00  0.00     0.157 A 
ATOM     14  C   UNL A   1      31.478  27.983  22.584  1.00  0.00     0.050 A 
ATOM     15  C   UNL A   1      29.887  26.425  23.479  1.00  0.00     0.201 A 
ATOM     16  C   UNL A   1      32.327  26.910  22.293  1.00  0.00     0.021 A 
ATOM     17  C   UNL A   1      30.720  25.355  23.150  1.00  0.00     0.175 A 
ATOM     18  F   UNL A   1      28.704  26.180  24.065  1.00  0.00    -0.200 F 
ATOM     19  F   UNL A   1      30.216  24.132  23.337  1.00  0.00    -0.203 F 
BRANCH  13  20
ATOM     20  O   UNL A   1      29.474  28.779  23.595  1.00  0.00    -0.494 OA
ATOM     21  C   UNL A   1      29.555  29.852  22.658  1.00  0.00     0.278 C 
ENDBRANCH  13  20
ENDBRANCH   9  12
ENDBRANCH   7   8
BRANCH   7  22
ATOM     22  C   UNL A   1      34.251  22.361  25.006  1.00  0.00     0.011 C 
ATOM     23  C   UNL A   1      35.307  21.638  24.600  1.00  0.00     0.064 C 
ATOM     24  C   UNL A   1      33.432  21.380  25.790  1.00  0.00     0.156 C 
ATOM     25  C   UNL A   1      36.558  22.036  23.896  1.00  0.00     0.069 C 
ATOM     26  N   UNL A   1      35.148  20.295  24.853  1.00  0.00    -0.160 NA
ATOM     27  N   UNL A   1      34.032  20.082  25.392  1.00  0.00    -0.181 NA
ATOM     28  C   UNL A   1      33.641  21.481  27.301  1.00  0.00     0.040 C 
ENDBRANCH   7  22
ENDBRANCH   4   7
ENDBRANCH   2   3
ENDBRANCH   1   2
BRANCH   1  29
ATOM     29  C   UNL A   1      33.577  28.338  27.220  1.00  0.00     0.023 C 
BRANCH  29  30
ATOM     30  C   UNL A   1      34.314  29.427  26.464  1.00  0.00     0.116 C 
BRANCH  30  31
ATOM     31  N   UNL A   1      33.963  30.771  26.909  1.00  0.00    -0.352 N 
ATOM     32  C   UNL A   1      34.527  31.533  27.910  1.00  0.00     0.251 C 
ATOM     33  H   UNL A   1      33.216  31.195  26.425  1.00  0.00     0.163 HD
ATOM     34  O   UNL A   1      34.008  32.582  28.256  1.00  0.00    -0.269 OA
BRANCH  32  35
ATOM     35  C   UNL A   1      35.746  31.028  28.576  1.00  0.00     0.039 A 
ATOM     36  C   UNL A   1      35.642  30.030  29.546  1.00  0.00     0.014 A 
ATOM     37  C   UNL A   1      36.996  31.485  28.161  1.00  0.00     0.014 A 
ATOM     38  C   UNL A   1      36.805  29.431  30.036  1.00  0.00     0.010 A 
ATOM     39  C   UNL A   1      38.133  30.790  28.536  1.00  0.00     0.010 A 
ATOM     40  C   UNL A   1      38.057  29.773  29.500  1.00  0.00    -0.014 A 
BRANCH  40  41
ATOM     41  C   UNL A   1      39.320  29.145  29.966  1.00  0.00     0.031 A 
ATOM     42  C   UNL A   1      40.032  29.742  31.155  1.00  0.00     0.074 A 
ATOM     43  C   UNL A   1      39.869  28.122  29.283  1.00  0.00     0.049 A 
ATOM     44  N   UNL A   1      41.219  29.476  31.634  1.00  0.00    -0.248 NA
ATOM     45  C   UNL A   1      39.335  30.833  31.856  1.00  0.00     0.031 C 
ATOM     46  C   UNL A   1      39.306  27.502  28.080  1.00  0.00     0.029 A 
ATOM     47  N   UNL A   1      41.033  27.427  29.496  1.00  0.00    -0.354 N 
ATOM     48  C   UNL A   1      41.424  30.398  32.656  1.00  0.00     0.074 A 
ATOM     49  C   UNL A   1      40.282  31.283  32.662  1.00  0.00     0.031 C 
ATOM     50  C   UNL A   1      40.105  26.494  27.689  1.00  0.00     0.029 A 
ATOM     51  C   UNL A   1      41.258  26.426  28.580  1.00  0.00     0.049 A 
ATOM     52  H   UNL A   1      41.650  27.626  30.238  1.00  0.00     0.167 HD
ATOM     53  C   UNL A   1      42.451  30.475  33.537  1.00  0.00     0.034 A 
ATOM     54  C   UNL A   1      42.282  25.556  28.473  1.00  0.00     0.034 A 
ATOM     55  C   UNL A   1      43.548  29.539  33.551  1.00  0.00     0.049 A 
ATOM     56  C   UNL A   1      43.394  25.626  29.492  1.00  0.00     0.074 A 
ATOM     57  C   UNL A   1      44.610  29.466  34.433  1.00  0.00     0.029 A 
ATOM     58  N   UNL A   1      43.711  28.501  32.642  1.00  0.00    -0.354 N 
ATOM     59  N   UNL A   1      43.556  26.476  30.481  1.00  0.00    -0.248 NA
ATOM     60  C   UNL A   1      44.450  24.612  29.390  1.00  0.00     0.031 C 
ATOM     61  C   UNL A   1      45.442  28.417  34.028  1.00  0.00     0.029 A 
ATOM     62  C   UNL A   1      44.862  27.790  32.935  1.00  0.00     0.049 A 
ATOM     63  H   UNL A   1      43.098  28.301  31.899  1.00  0.00     0.167 HD
ATOM     64  C   UNL A   1      44.713  26.074  31.142  1.00  0.00     0.074 A 
ATOM     65  C   UNL A   1      45.199  24.900  30.444  1.00  0.00     0.031 C 
ATOM     66  C   UNL A   1      45.321  26.619  32.227  1.00  0.00     0.034 A 
BRANCH  53  67
ATOM     67  C   UNL A   1      42.424  31.606  34.540  1.00  0.00     0.023 A 
ATOM     68  C   UNL A   1      41.603  31.561  35.681  1.00  0.00     0.031 A 
ATOM     69  C   UNL A   1      43.179  32.772  34.323  1.00  0.00     0.131 A 
ATOM     70  C   UNL A   1      41.475  32.693  36.500  1.00  0.00     0.055 A 
ATOM     71  C   UNL A   1      43.123  33.859  35.198  1.00  0.00     0.041 A 
ATOM     72  F   UNL A   1      43.967  32.885  33.242  1.00  0.00    -0.206 F 
ATOM     73  C   UNL A   1      42.251  33.833  36.283  1.00  0.00     0.022 A 
BRANCH  70  74
ATOM     74  S   UNL A   1      40.153  32.713  37.742  1.00  0.00     0.124 S 
ATOM     75  O   UNL A   1      39.732  34.112  37.699  1.00  0.00    -0.237 OA
ATOM     76  O   UNL A   1      39.203  31.744  37.209  1.00  0.00    -0.237 OA
ATOM     77  O   UNL A   1      40.833  32.312  38.972  1.00  0.00    -0.744 OA
ENDBRANCH  70  74
ENDBRANCH  53  67
BRANCH  54  78
ATOM     78  C   UNL A   1      42.305  24.536  27.387  1.00  0.00     0.023 A 
ATOM     79  C   UNL A   1      41.592  23.333  27.512  1.00  0.00     0.031 A 
ATOM     80  C   UNL A   1      43.070  24.727  26.222  1.00  0.00     0.131 A 
ATOM     81  C   UNL A   1      41.695  22.347  26.518  1.00  0.00     0.055 A 
ATOM     82  C   UNL A   1      43.129  23.765  25.211  1.00  0.00     0.041 A 
ATOM     83  F   UNL A   1      43.763  25.863  26.044  1.00  0.00    -0.206 F 
ATOM     84  C   UNL A   1      42.450  22.560  25.362  1.00  0.00     0.022 A 
BRANCH  81  85
ATOM     85  S   UNL A   1      40.894  20.744  26.797  1.00  0.00     0.124 S 
ATOM     86  O   UNL A   1      39.657  20.893  26.039  1.00  0.00    -0.237 OA
ATOM     87  O   UNL A   1      41.875  19.815  26.248  1.00  0.00    -0.237 OA
ATOM     88  O   UNL A   1      40.733  20.692  28.249  1.00  0.00    -0.744 OA
ENDBRANCH  81  85
ENDBRANCH  54  78
BRANCH  66  89
ATOM     89  C   UNL A   1      46.539  25.908  32.757  1.00  0.00     0.023 A 
ATOM     90  C   UNL A   1      47.817  26.124  32.214  1.00  0.00     0.031 A 
ATOM     91  C   UNL A   1      46.414  25.000  33.823  1.00  0.00     0.131 A 
ATOM     92  C   UNL A   1      48.913  25.398  32.703  1.00  0.00     0.055 A 
ATOM     93  C   UNL A   1      47.517  24.325  34.345  1.00  0.00     0.041 A 
ATOM     94  F   UNL A   1      45.216  24.759  34.378  1.00  0.00    -0.206 F 
ATOM     95  C   UNL A   1      48.773  24.512  33.776  1.00  0.00     0.022 A 
BRANCH  92  96
ATOM     96  S   UNL A   1      50.508  25.557  31.857  1.00  0.00     0.124 S 
ATOM     97  O   UNL A   1      50.671  24.233  31.265  1.00  0.00    -0.237 OA
ATOM     98  O   UNL A   1      50.256  26.647  30.919  1.00  0.00    -0.237 OA
ATOM     99  O   UNL A   1      51.439  25.873  32.938  1.00  0.00    -0.744 OA
ENDBRANCH  92  96
ENDBRANCH  66  89
ENDBRANCH  40  41
ENDBRANCH  32  35
ENDBRANCH  30  31
ENDBRANCH  29  30
ENDBRANCH   1  29
TORSDOF 18
ENDMDL
MODEL 3
REMARK VINA RESULT:     -11.5      2.512      4.311
REMARK SMILES COc1ccc(C(=O)N[C@H](C(=O)NCCCCNC(=O)c2ccc(-c3c4nc(c(-c5cc(S(=O)(=O)[O-])ccc5F)c5ccc([nH]5)c(-c5cc(S(=O)(=O)[O-])ccc5F)c5nc(c(-c6cc(S(=O)(=O)[O-])ccc6F)c6ccc3[nH]6)C=C5)C=C4)cc2)C2=C(C)N=N[C@H]2C)c(F)c1F
REMARK SMILES IDX 15 1 14 2 13 3 11 4 12 5 10 7 9 8 7 9 8 10 6 12 3 13 4 14
REMARK SMILES IDX 93 15 5 16 91 17 94 18 92 19 2 20 1 21 84 22 85 23 89 24
REMARK SMILES IDX 86 25 87 26 88 27 90 28 16 29 17 30 18 31 19 32 20 34 21 35
REMARK SMILES IDX 22 36 83 37 23 38 82 39 24 40 25 41 26 42 76 43 27 44 81 45
REMARK SMILES IDX 75 46 77 47 28 48 80 49 74 50 73 51 29 53 61 54 41 55 60 56
REMARK SMILES IDX 42 57 45 58 59 59 78 60 43 61 44 62 58 64 79 65 46 66 30 67
REMARK SMILES IDX 31 68 39 69 32 70 38 71 40 72 37 73 33 74 34 75 35 76 36 77
REMARK SMILES IDX 62 78 63 79 71 80 64 81 70 82 72 83 69 84 65 85 66 86 67 87
REMARK SMILES IDX 68 88 47 89 48 90 56 91 49 92 55 93 57 94 54 95 50 96 51 97
REMARK SMILES IDX 52 98 53 99
REMARK H PARENT 13 6 9 11 18 33 77 52 45 63
REMARK Flexibility Score: inf
ROOT
ATOM      1  C   UNL A   1      34.810  30.250  27.820  1.00  0.00     0.023 C 
ENDROOT
BRANCH   1   2
ATOM      2  C   UNL A   1      34.231  28.973  27.217  1.00  0.00     0.116 C 
BRANCH   2   3
ATOM      3  N   UNL A   1      32.882  28.740  27.708  1.00  0.00    -0.354 N 
ATOM      4  C   UNL A   1      31.985  27.769  27.346  1.00  0.00     0.247 C 
ATOM      5  O   UNL A   1      30.834  27.831  27.786  1.00  0.00    -0.272 OA
ATOM      6  H   UNL A   1      32.570  29.368  28.400  1.00  0.00     0.163 HD
BRANCH   4   7
ATOM      7  C   UNL A   1      32.450  26.598  26.445  1.00  0.00     0.202 C 
BRANCH   7   8
ATOM      8  N   UNL A   1      31.809  25.383  26.937  1.00  0.00    -0.336 N 
ATOM      9  C   UNL A   1      31.890  24.054  26.632  1.00  0.00     0.255 C 
ATOM     10  O   UNL A   1      30.953  23.354  27.033  1.00  0.00    -0.269 OA
ATOM     11  H   UNL A   1      31.167  25.562  27.660  1.00  0.00     0.165 HD
BRANCH   9  12
ATOM     12  C   UNL A   1      33.037  23.361  25.977  1.00  0.00     0.078 A 
ATOM     13  C   UNL A   1      35.447  22.189  25.075  1.00  0.00     0.157 A 
ATOM     14  C   UNL A   1      35.147  22.174  26.428  1.00  0.00     0.050 A 
ATOM     15  C   UNL A   1      34.543  22.744  24.177  1.00  0.00     0.201 A 
ATOM     16  C   UNL A   1      33.954  22.755  26.870  1.00  0.00     0.021 A 
ATOM     17  C   UNL A   1      33.335  23.287  24.618  1.00  0.00     0.175 A 
ATOM     18  F   UNL A   1      34.826  22.752  22.865  1.00  0.00    -0.200 F 
ATOM     19  F   UNL A   1      32.477  23.673  23.669  1.00  0.00    -0.203 F 
BRANCH  13  20
ATOM     20  O   UNL A   1      36.660  21.732  24.643  1.00  0.00    -0.494 OA
ATOM     21  C   UNL A   1      37.709  22.237  25.467  1.00  0.00     0.278 C 
ENDBRANCH  13  20
ENDBRANCH   9  12
ENDBRANCH   7   8
BRANCH   7  22
ATOM     22  C   UNL A   1      32.086  26.772  24.997  1.00  0.00     0.011 C 
ATOM     23  C   UNL A   1      30.954  26.586  24.299  1.00  0.00     0.064 C 
ATOM     24  C   UNL A   1      33.097  27.114  23.945  1.00  0.00     0.156 C 
ATOM     25  C   UNL A   1      29.551  26.354  24.744  1.00  0.00     0.069 C 
ATOM     26  N   UNL A   1      31.177  26.566  22.941  1.00  0.00    -0.160 NA
ATOM     27  N   UNL A   1      32.402  26.711  22.698  1.00  0.00    -0.181 NA
ATOM     28  C   UNL A   1      33.348  28.615  23.807  1.00  0.00     0.040 C 
ENDBRANCH   7  22
ENDBRANCH   4   7
ENDBRANCH   2   3
ENDBRANCH   1   2
BRANCH   1  29
ATOM     29  C   UNL A   1      34.283  31.534  27.210  1.00  0.00     0.023 C 
BRANCH  29  30
ATOM     30  C   UNL A   1      32.914  31.932  27.725  1.00  0.00     0.116 C 
BRANCH  30  31
ATOM     31  N   UNL A   1      32.693  33.374  27.713  1.00  0.00    -0.352 N 
ATOM     32  C   UNL A   1      33.277  34.351  28.492  1.00  0.00     0.251 C 
ATOM     33  H   UNL A   1      32.034  33.695  27.056  1.00  0.00     0.163 HD
ATOM     34  O   UNL A   1      32.862  35.499  28.458  1.00  0.00    -0.269 OA
BRANCH  32  35
ATOM     35  C   UNL A   1      34.384  33.965  29.392  1.00  0.00     0.039 A 
ATOM     36  C   UNL A   1      34.126  33.150  30.495  1.00  0.00     0.014 A 
ATOM     37  C   UNL A   1      35.689  34.340  29.078  1.00  0.00     0.014 A 
ATOM     38  C   UNL A   1      35.198  32.641  31.232  1.00  0.00     0.010 A 
ATOM     39  C   UNL A   1      36.748  33.717  29.716  1.00  0.00     0.010 A 
ATOM     40  C   UNL A   1      36.519  32.882  30.819  1.00  0.00    -0.014 A 
BRANCH  40  41
ATOM     41  C   UNL A   1      37.693  32.341  31.552  1.00  0.00     0.031 A 
ATOM     42  C   UNL A   1      38.498  31.235  30.917  1.00  0.00     0.074 A 
ATOM     43  C   UNL A   1      37.976  32.764  32.799  1.00  0.00     0.049 A 
ATOM     44  N   UNL A   1      39.448  30.497  31.429  1.00  0.00    -0.248 NA
ATOM     45  C   UNL A   1      38.134  30.868  29.538  1.00  0.00     0.031 C 
ATOM     46  C   UNL A   1      37.230  33.784  33.543  1.00  0.00     0.029 A 
ATOM     47  N   UNL A   1      38.964  32.381  33.670  1.00  0.00    -0.354 N 
ATOM     48  C   UNL A   1      39.756  29.554  30.454  1.00  0.00     0.074 A 
ATOM     49  C   UNL A   1      38.830  29.757  29.364  1.00  0.00     0.031 C 
ATOM     50  C   UNL A   1      37.813  33.972  34.738  1.00  0.00     0.029 A 
ATOM     51  C   UNL A   1      38.942  33.056  34.868  1.00  0.00     0.049 A 
ATOM     52  H   UNL A   1      39.630  31.687  33.456  1.00  0.00     0.167 HD
ATOM     53  C   UNL A   1      40.748  28.630  30.448  1.00  0.00     0.034 A 
ATOM     54  C   UNL A   1      39.741  32.943  35.948  1.00  0.00     0.034 A 
ATOM     55  C   UNL A   1      41.700  28.492  31.521  1.00  0.00     0.049 A 
ATOM     56  C   UNL A   1      40.869  31.942  35.905  1.00  0.00     0.074 A 
ATOM     57  C   UNL A   1      42.791  27.646  31.605  1.00  0.00     0.029 A 
ATOM     58  N   UNL A   1      41.680  29.236  32.694  1.00  0.00    -0.354 N 
ATOM     59  N   UNL A   1      41.177  31.084  34.958  1.00  0.00    -0.248 NA
ATOM     60  C   UNL A   1      41.766  31.905  37.067  1.00  0.00     0.031 C 
ATOM     61  C   UNL A   1      43.400  27.841  32.849  1.00  0.00     0.029 A 
ATOM     62  C   UNL A   1      42.732  28.859  33.513  1.00  0.00     0.049 A 
ATOM     63  H   UNL A   1      41.016  29.928  32.913  1.00  0.00     0.167 HD
ATOM     64  C   UNL A   1      42.327  30.432  35.396  1.00  0.00     0.074 A 
ATOM     65  C   UNL A   1      42.660  31.005  36.684  1.00  0.00     0.031 C 
ATOM     66  C   UNL A   1      43.046  29.452  34.791  1.00  0.00     0.034 A 
BRANCH  53  67
ATOM     67  C   UNL A   1      40.836  27.712  29.251  1.00  0.00     0.023 A 
ATOM     68  C   UNL A   1      41.785  27.914  28.233  1.00  0.00     0.031 A 
ATOM     69  C   UNL A   1      39.919  26.658  29.090  1.00  0.00     0.131 A 
ATOM     70  C   UNL A   1      41.731  27.148  27.059  1.00  0.00     0.055 A 
ATOM     71  C   UNL A   1      39.934  25.834  27.962  1.00  0.00     0.041 A 
ATOM     72  F   UNL A   1      38.975  26.425  30.015  1.00  0.00    -0.206 F 
ATOM     73  C   UNL A   1      40.831  26.090  26.927  1.00  0.00     0.022 A 
BRANCH  70  74
ATOM     74  S   UNL A   1      42.736  27.671  25.642  1.00  0.00     0.124 S 
ATOM     75  O   UNL A   1      44.013  27.974  26.284  1.00  0.00    -0.237 OA
ATOM     76  O   UNL A   1      42.716  26.490  24.787  1.00  0.00    -0.237 OA
ATOM     77  O   UNL A   1      42.017  28.832  25.122  1.00  0.00    -0.744 OA
ENDBRANCH  70  74
ENDBRANCH  53  67
BRANCH  54  78
ATOM     78  C   UNL A   1      39.527  33.803  37.147  1.00  0.00     0.023 A 
ATOM     79  C   UNL A   1      38.867  33.306  38.282  1.00  0.00     0.031 A 
ATOM     80  C   UNL A   1      39.945  35.146  37.166  1.00  0.00     0.131 A 
ATOM     81  C   UNL A   1      38.598  34.155  39.367  1.00  0.00     0.055 A 
ATOM     82  C   UNL A   1      39.720  35.973  38.268  1.00  0.00     0.041 A 
ATOM     83  F   UNL A   1      40.591  35.671  36.112  1.00  0.00    -0.206 F 
ATOM     84  C   UNL A   1      39.031  35.483  39.373  1.00  0.00     0.022 A 
BRANCH  81  85
ATOM     85  S   UNL A   1      37.597  33.519  40.740  1.00  0.00     0.124 S 
ATOM     86  O   UNL A   1      37.337  34.733  41.506  1.00  0.00    -0.237 OA
ATOM     87  O   UNL A   1      36.453  32.945  40.040  1.00  0.00    -0.237 OA
ATOM     88  O   UNL A   1      38.481  32.551  41.386  1.00  0.00    -0.744 OA
ENDBRANCH  81  85
ENDBRANCH  54  78
BRANCH  66  89
ATOM     89  C   UNL A   1      44.297  28.989  35.493  1.00  0.00     0.023 A 
ATOM     90  C   UNL A   1      44.269  27.971  36.461  1.00  0.00     0.031 A 
ATOM     91  C   UNL A   1      45.534  29.581  35.185  1.00  0.00     0.131 A 
ATOM     92  C   UNL A   1      45.449  27.613  37.128  1.00  0.00     0.055 A 
ATOM     93  C   UNL A   1      46.715  29.178  35.809  1.00  0.00     0.041 A 
ATOM     94  F   UNL A   1      45.615  30.557  34.267  1.00  0.00    -0.206 F 
ATOM     95  C   UNL A   1      46.674  28.198  36.796  1.00  0.00     0.022 A 
BRANCH  92  96
ATOM     96  S   UNL A   1      45.347  26.434  38.502  1.00  0.00     0.124 S 
ATOM     97  O   UNL A   1      45.052  27.310  39.632  1.00  0.00    -0.237 OA
ATOM     98  O   UNL A   1      44.262  25.555  38.078  1.00  0.00    -0.237 OA
ATOM     99  O   UNL A   1      46.672  25.818  38.523  1.00  0.00    -0.744 OA
ENDBRANCH  92  96
ENDBRANCH  66  89
ENDBRANCH  40  41
ENDBRANCH  32  35
ENDBRANCH  30  31
ENDBRANCH  29  30
ENDBRANCH   1  29
TORSDOF 18
ENDMDL
