MODEL 1
REMARK VINA RESULT:     -11.2      0.000      0.000
REMARK SMILES CC[C@]1(C(=O)NCCCCNC(=O)c2ccc(-c3c4nc(c(-c5cc(S(=O)(=O)[O-])ccc5F)c5ccc([nH]5)c(-c5cc(S(=O)(=O)[O-])ccc5F)c5nc(c(-c6cc(S(=O)(=O)[O-])ccc6F)c6ccc3[nH]6)C=C5)C=C4)cc2)CCC[N@@H+](Cc2cc(OC)ccc2F)C1
REMARK SMILES IDX 8 1 7 2 6 3 4 4 5 5 3 7 77 8 91 9 78 10 80 11 79 12 2 14
REMARK SMILES IDX 1 15 81 16 82 17 83 18 89 19 84 20 88 21 90 22 87 23 85 24
REMARK SMILES IDX 86 25 9 26 10 27 11 28 12 29 13 31 14 32 15 33 76 34 16 35
REMARK SMILES IDX 75 36 17 37 18 38 19 39 69 40 20 41 74 42 68 43 70 44 21 45
REMARK SMILES IDX 73 46 67 47 66 48 22 50 54 51 34 52 53 53 35 54 38 55 52 56
REMARK SMILES IDX 71 57 36 58 37 59 51 61 72 62 39 63 23 64 24 65 32 66 25 67
REMARK SMILES IDX 31 68 33 69 30 70 26 71 27 72 28 73 29 74 55 75 56 76 64 77
REMARK SMILES IDX 57 78 63 79 65 80 62 81 58 82 59 83 60 84 61 85 40 86 41 87
REMARK SMILES IDX 49 88 42 89 48 90 50 91 47 92 43 93 44 94 45 95 46 96
REMARK H PARENT 6 6 80 13 11 30 70 49 38 60
REMARK Flexibility Score: inf
ROOT
ATOM      1  C   UNL A   1      32.174  27.589  27.173  1.00  0.00     0.023 C 
ENDROOT
BRANCH   1   2
ATOM      2  C   UNL A   1      31.439  26.675  26.197  1.00  0.00     0.116 C 
BRANCH   2   3
ATOM      3  N   UNL A   1      31.015  25.432  26.823  1.00  0.00    -0.355 N 
ATOM      4  C   UNL A   1      31.377  24.131  26.627  1.00  0.00     0.231 C 
ATOM      5  O   UNL A   1      30.839  23.311  27.380  1.00  0.00    -0.274 OA
ATOM      6  H   UNL A   1      30.335  25.553  27.525  1.00  0.00     0.163 HD
BRANCH   4   7
ATOM      7  C   UNL A   1      32.421  23.691  25.558  1.00  0.00     0.098 C 
ATOM      8  C   UNL A   1      32.271  22.180  25.263  1.00  0.00     0.028 C 
ATOM      9  C   UNL A   1      32.181  24.591  24.317  1.00  0.00     0.279 C 
ATOM     10  C   UNL A   1      32.708  21.758  23.860  1.00  0.00     0.063 C 
ATOM     11  N   UNL A   1      32.690  24.083  23.036  1.00  0.00    -0.330 N 
ATOM     12  C   UNL A   1      32.240  22.717  22.769  1.00  0.00     0.262 C 
ATOM     13  H   UNL A   1      33.705  24.033  23.111  1.00  0.00     0.348 HD
BRANCH   7  14
ATOM     14  C   UNL A   1      33.841  23.981  26.160  1.00  0.00     0.019 C 
ATOM     15  C   UNL A   1      34.637  25.139  25.579  1.00  0.00     0.005 C 
ENDBRANCH   7  14
BRANCH  11  16
ATOM     16  C   UNL A   1      32.402  25.017  21.923  1.00  0.00     0.302 C 
BRANCH  16  17
ATOM     17  C   UNL A   1      32.123  26.461  22.288  1.00  0.00     0.046 A 
ATOM     18  C   UNL A   1      30.800  26.919  22.421  1.00  0.00     0.059 A 
ATOM     19  C   UNL A   1      33.154  27.376  22.514  1.00  0.00     0.132 A 
ATOM     20  C   UNL A   1      30.525  28.237  22.800  1.00  0.00     0.119 A 
ATOM     21  C   UNL A   1      32.893  28.671  22.952  1.00  0.00     0.043 A 
ATOM     22  F   UNL A   1      34.432  27.016  22.326  1.00  0.00    -0.206 F 
ATOM     23  C   UNL A   1      31.576  29.102  23.106  1.00  0.00     0.049 A 
BRANCH  20  24
ATOM     24  O   UNL A   1      29.195  28.560  22.846  1.00  0.00    -0.497 OA
ATOM     25  C   UNL A   1      28.336  27.581  23.423  1.00  0.00     0.278 C 
ENDBRANCH  20  24
ENDBRANCH  16  17
ENDBRANCH  11  16
ENDBRANCH   4   7
ENDBRANCH   2   3
ENDBRANCH   1   2
BRANCH   1  26
ATOM     26  C   UNL A   1      32.131  29.074  26.817  1.00  0.00     0.023 C 
BRANCH  26  27
ATOM     27  C   UNL A   1      33.484  29.778  26.781  1.00  0.00     0.116 C 
BRANCH  27  28
ATOM     28  N   UNL A   1      33.463  31.091  27.407  1.00  0.00    -0.352 N 
ATOM     29  C   UNL A   1      34.365  31.652  28.281  1.00  0.00     0.251 C 
ATOM     30  H   UNL A   1      32.694  31.659  27.172  1.00  0.00     0.163 HD
ATOM     31  O   UNL A   1      34.114  32.735  28.802  1.00  0.00    -0.269 OA
BRANCH  29  32
ATOM     32  C   UNL A   1      35.614  30.932  28.614  1.00  0.00     0.039 A 
ATOM     33  C   UNL A   1      36.818  31.375  28.061  1.00  0.00     0.014 A 
ATOM     34  C   UNL A   1      35.602  29.840  29.486  1.00  0.00     0.014 A 
ATOM     35  C   UNL A   1      38.019  30.771  28.445  1.00  0.00     0.010 A 
ATOM     36  C   UNL A   1      36.804  29.289  29.922  1.00  0.00     0.010 A 
ATOM     37  C   UNL A   1      38.026  29.752  29.410  1.00  0.00    -0.014 A 
BRANCH  37  38
ATOM     38  C   UNL A   1      39.299  29.160  29.904  1.00  0.00     0.031 A 
ATOM     39  C   UNL A   1      40.037  29.804  31.046  1.00  0.00     0.074 A 
ATOM     40  C   UNL A   1      39.830  28.094  29.271  1.00  0.00     0.049 A 
ATOM     41  N   UNL A   1      41.204  29.502  31.553  1.00  0.00    -0.248 NA
ATOM     42  C   UNL A   1      39.389  30.963  31.680  1.00  0.00     0.031 C 
ATOM     43  C   UNL A   1      39.235  27.411  28.119  1.00  0.00     0.029 A 
ATOM     44  N   UNL A   1      40.997  27.405  29.492  1.00  0.00    -0.354 N 
ATOM     45  C   UNL A   1      41.442  30.445  32.549  1.00  0.00     0.074 A 
ATOM     46  C   UNL A   1      40.319  31.358  32.537  1.00  0.00     0.031 C 
ATOM     47  C   UNL A   1      40.033  26.398  27.745  1.00  0.00     0.029 A 
ATOM     48  C   UNL A   1      41.218  26.383  28.596  1.00  0.00     0.049 A 
ATOM     49  H   UNL A   1      41.619  27.622  30.223  1.00  0.00     0.167 HD
ATOM     50  C   UNL A   1      42.491  30.530  33.403  1.00  0.00     0.034 A 
ATOM     51  C   UNL A   1      42.263  25.541  28.463  1.00  0.00     0.034 A 
ATOM     52  C   UNL A   1      43.591  29.595  33.419  1.00  0.00     0.049 A 
ATOM     53  C   UNL A   1      43.415  25.653  29.431  1.00  0.00     0.074 A 
ATOM     54  C   UNL A   1      44.662  29.542  34.294  1.00  0.00     0.029 A 
ATOM     55  N   UNL A   1      43.766  28.556  32.516  1.00  0.00    -0.354 N 
ATOM     56  N   UNL A   1      43.590  26.510  30.411  1.00  0.00    -0.248 NA
ATOM     57  C   UNL A   1      44.503  24.677  29.284  1.00  0.00     0.031 C 
ATOM     58  C   UNL A   1      45.517  28.516  33.880  1.00  0.00     0.029 A 
ATOM     59  C   UNL A   1      44.943  27.877  32.793  1.00  0.00     0.049 A 
ATOM     60  H   UNL A   1      43.145  28.332  31.785  1.00  0.00     0.167 HD
ATOM     61  C   UNL A   1      44.794  26.153  31.014  1.00  0.00     0.074 A 
ATOM     62  C   UNL A   1      45.291  24.996  30.300  1.00  0.00     0.031 C 
ATOM     63  C   UNL A   1      45.429  26.728  32.067  1.00  0.00     0.034 A 
BRANCH  50  64
ATOM     64  C   UNL A   1      42.512  31.686  34.373  1.00  0.00     0.023 A 
ATOM     65  C   UNL A   1      41.907  31.603  35.639  1.00  0.00     0.031 A 
ATOM     66  C   UNL A   1      43.144  32.893  34.024  1.00  0.00     0.131 A 
ATOM     67  C   UNL A   1      41.888  32.726  36.481  1.00  0.00     0.055 A 
ATOM     68  C   UNL A   1      43.189  33.981  34.897  1.00  0.00     0.041 A 
ATOM     69  F   UNL A   1      43.722  33.038  32.821  1.00  0.00    -0.206 F 
ATOM     70  C   UNL A   1      42.547  33.906  36.130  1.00  0.00     0.022 A 
BRANCH  67  71
ATOM     71  S   UNL A   1      40.881  32.662  37.989  1.00  0.00     0.124 S 
ATOM     72  O   UNL A   1      40.728  34.081  38.301  1.00  0.00    -0.237 OA
ATOM     73  O   UNL A   1      39.678  31.973  37.536  1.00  0.00    -0.237 OA
ATOM     74  O   UNL A   1      41.714  31.911  38.926  1.00  0.00    -0.744 OA
ENDBRANCH  67  71
ENDBRANCH  50  64
BRANCH  51  75
ATOM     75  C   UNL A   1      42.290  24.531  27.366  1.00  0.00     0.023 A 
ATOM     76  C   UNL A   1      41.559  23.335  27.462  1.00  0.00     0.031 A 
ATOM     77  C   UNL A   1      43.093  24.722  26.227  1.00  0.00     0.131 A 
ATOM     78  C   UNL A   1      41.689  22.354  26.467  1.00  0.00     0.055 A 
ATOM     79  C   UNL A   1      43.175  23.766  25.212  1.00  0.00     0.041 A 
ATOM     80  F   UNL A   1      43.807  25.849  26.081  1.00  0.00    -0.206 F 
ATOM     81  C   UNL A   1      42.482  22.566  25.337  1.00  0.00     0.022 A 
BRANCH  78  82
ATOM     82  S   UNL A   1      40.882  20.748  26.721  1.00  0.00     0.124 S 
ATOM     83  O   UNL A   1      40.844  20.662  28.177  1.00  0.00    -0.237 OA
ATOM     84  O   UNL A   1      39.599  20.948  26.056  1.00  0.00    -0.237 OA
ATOM     85  O   UNL A   1      41.784  19.807  26.062  1.00  0.00    -0.744 OA
ENDBRANCH  78  82
ENDBRANCH  51  75
BRANCH  63  86
ATOM     86  C   UNL A   1      46.709  26.078  32.535  1.00  0.00     0.023 A 
ATOM     87  C   UNL A   1      47.957  26.414  31.983  1.00  0.00     0.031 A 
ATOM     88  C   UNL A   1      46.673  25.098  33.544  1.00  0.00     0.131 A 
ATOM     89  C   UNL A   1      49.112  25.738  32.404  1.00  0.00     0.055 A 
ATOM     90  C   UNL A   1      47.832  24.472  34.002  1.00  0.00     0.041 A 
ATOM     91  F   UNL A   1      45.508  24.737  34.105  1.00  0.00    -0.206 F 
ATOM     92  C   UNL A   1      49.059  24.781  33.422  1.00  0.00     0.022 A 
BRANCH  89  93
ATOM     93  S   UNL A   1      50.674  26.062  31.543  1.00  0.00     0.124 S 
ATOM     94  O   UNL A   1      50.480  27.428  31.066  1.00  0.00    -0.237 OA
ATOM     95  O   UNL A   1      51.659  25.892  32.607  1.00  0.00    -0.237 OA
ATOM     96  O   UNL A   1      50.709  25.040  30.499  1.00  0.00    -0.744 OA
ENDBRANCH  89  93
ENDBRANCH  63  86
ENDBRANCH  37  38
ENDBRANCH  29  32
ENDBRANCH  27  28
ENDBRANCH  26  27
ENDBRANCH   1  26
TORSDOF 18
ENDMDL
MODEL 2
REMARK VINA RESULT:     -11.2      3.065      8.541
REMARK SMILES CC[C@]1(C(=O)NCCCCNC(=O)c2ccc(-c3c4nc(c(-c5cc(S(=O)(=O)[O-])ccc5F)c5ccc([nH]5)c(-c5cc(S(=O)(=O)[O-])ccc5F)c5nc(c(-c6cc(S(=O)(=O)[O-])ccc6F)c6ccc3[nH]6)C=C5)C=C4)cc2)CCC[N@@H+](Cc2cc(OC)ccc2F)C1
REMARK SMILES IDX 8 1 7 2 6 3 4 4 5 5 3 7 77 8 91 9 78 10 80 11 79 12 2 14
REMARK SMILES IDX 1 15 81 16 82 17 83 18 89 19 84 20 88 21 90 22 87 23 85 24
REMARK SMILES IDX 86 25 9 26 10 27 11 28 12 29 13 31 14 32 15 33 76 34 16 35
REMARK SMILES IDX 75 36 17 37 18 38 19 39 69 40 20 41 74 42 68 43 70 44 21 45
REMARK SMILES IDX 73 46 67 47 66 48 22 50 54 51 34 52 53 53 35 54 38 55 52 56
REMARK SMILES IDX 71 57 36 58 37 59 51 61 72 62 39 63 23 64 24 65 32 66 25 67
REMARK SMILES IDX 31 68 33 69 30 70 26 71 27 72 28 73 29 74 55 75 56 76 64 77
REMARK SMILES IDX 57 78 63 79 65 80 62 81 58 82 59 83 60 84 61 85 40 86 41 87
REMARK SMILES IDX 49 88 42 89 48 90 50 91 47 92 43 93 44 94 45 95 46 96
REMARK H PARENT 6 6 80 13 11 30 70 49 38 60
REMARK Flexibility Score: inf
ROOT
ATOM      1  C   UNL A   1      31.665  30.556  26.570  1.00  0.00     0.023 C 
ENDROOT
BRANCH   1   2
ATOM      2  C   UNL A   1      31.221  30.032  25.206  1.00  0.00     0.116 C 
BRANCH   2   3
ATOM      3  N   UNL A   1      32.351  29.713  24.348  1.00  0.00    -0.355 N 
ATOM      4  C   UNL A   1      33.012  28.547  24.090  1.00  0.00     0.231 C 
ATOM      5  O   UNL A   1      33.920  28.625  23.255  1.00  0.00    -0.274 OA
ATOM      6  H   UNL A   1      32.707  30.488  23.856  1.00  0.00     0.163 HD
BRANCH   4   7
ATOM      7  C   UNL A   1      32.642  27.193  24.765  1.00  0.00     0.098 C 
ATOM      8  C   UNL A   1      31.103  27.029  24.810  1.00  0.00     0.028 C 
ATOM      9  C   UNL A   1      33.358  26.086  23.948  1.00  0.00     0.279 C 
ATOM     10  C   UNL A   1      30.617  25.579  24.809  1.00  0.00     0.063 C 
ATOM     11  N   UNL A   1      32.811  24.728  24.071  1.00  0.00    -0.330 N 
ATOM     12  C   UNL A   1      31.370  24.692  23.823  1.00  0.00     0.262 C 
ATOM     13  H   UNL A   1      32.935  24.437  25.041  1.00  0.00     0.348 HD
BRANCH   7  14
ATOM     14  C   UNL A   1      33.219  27.237  26.224  1.00  0.00     0.019 C 
ATOM     15  C   UNL A   1      34.374  28.187  26.503  1.00  0.00     0.005 C 
ENDBRANCH   7  14
BRANCH  11  16
ATOM     16  C   UNL A   1      33.567  23.756  23.247  1.00  0.00     0.302 C 
BRANCH  16  17
ATOM     17  C   UNL A   1      34.296  22.649  23.981  1.00  0.00     0.046 A 
ATOM     18  C   UNL A   1      33.707  21.381  24.125  1.00  0.00     0.059 A 
ATOM     19  C   UNL A   1      35.570  22.840  24.523  1.00  0.00     0.132 A 
ATOM     20  C   UNL A   1      34.384  20.335  24.762  1.00  0.00     0.119 A 
ATOM     21  C   UNL A   1      36.278  21.791  25.103  1.00  0.00     0.043 A 
ATOM     22  F   UNL A   1      36.149  24.048  24.484  1.00  0.00    -0.206 F 
ATOM     23  C   UNL A   1      35.689  20.531  25.214  1.00  0.00     0.049 A 
BRANCH  20  24
ATOM     24  O   UNL A   1      33.673  19.170  24.874  1.00  0.00    -0.497 OA
ATOM     25  C   UNL A   1      32.529  19.055  24.032  1.00  0.00     0.278 C 
ENDBRANCH  20  24
ENDBRANCH  16  17
ENDBRANCH  11  16
ENDBRANCH   4   7
ENDBRANCH   2   3
ENDBRANCH   1   2
BRANCH   1  26
ATOM     26  C   UNL A   1      31.443  32.052  26.785  1.00  0.00     0.023 C 
BRANCH  26  27
ATOM     27  C   UNL A   1      32.710  32.899  26.851  1.00  0.00     0.116 C 
BRANCH  27  28
ATOM     28  N   UNL A   1      32.546  34.115  27.632  1.00  0.00    -0.352 N 
ATOM     29  C   UNL A   1      33.253  34.547  28.729  1.00  0.00     0.251 C 
ATOM     30  H   UNL A   1      31.825  34.715  27.332  1.00  0.00     0.163 HD
ATOM     31  O   UNL A   1      32.887  35.552  29.333  1.00  0.00    -0.269 OA
BRANCH  29  32
ATOM     32  C   UNL A   1      34.429  33.780  29.196  1.00  0.00     0.039 A 
ATOM     33  C   UNL A   1      35.707  34.206  28.823  1.00  0.00     0.014 A 
ATOM     34  C   UNL A   1      34.275  32.659  30.018  1.00  0.00     0.014 A 
ATOM     35  C   UNL A   1      36.831  33.555  29.338  1.00  0.00     0.010 A 
ATOM     36  C   UNL A   1      35.396  32.059  30.587  1.00  0.00     0.010 A 
ATOM     37  C   UNL A   1      36.686  32.503  30.257  1.00  0.00    -0.014 A 
BRANCH  37  38
ATOM     38  C   UNL A   1      37.868  31.858  30.890  1.00  0.00     0.031 A 
ATOM     39  C   UNL A   1      38.636  30.797  30.148  1.00  0.00     0.074 A 
ATOM     40  C   UNL A   1      38.197  32.167  32.161  1.00  0.00     0.049 A 
ATOM     41  N   UNL A   1      39.626  30.050  30.561  1.00  0.00    -0.248 NA
ATOM     42  C   UNL A   1      38.210  30.520  28.767  1.00  0.00     0.031 C 
ATOM     43  C   UNL A   1      37.498  33.142  33.002  1.00  0.00     0.029 A 
ATOM     44  N   UNL A   1      39.191  31.684  32.976  1.00  0.00    -0.354 N 
ATOM     45  C   UNL A   1      39.928  29.198  29.503  1.00  0.00     0.074 A 
ATOM     46  C   UNL A   1      38.981  29.490  28.448  1.00  0.00     0.031 C 
ATOM     47  C   UNL A   1      38.091  33.192  34.205  1.00  0.00     0.029 A 
ATOM     48  C   UNL A   1      39.183  32.225  34.242  1.00  0.00     0.049 A 
ATOM     49  H   UNL A   1      39.849  31.013  32.682  1.00  0.00     0.167 HD
ATOM     50  C   UNL A   1      40.914  28.272  29.415  1.00  0.00     0.034 A 
ATOM     51  C   UNL A   1      39.954  31.959  35.316  1.00  0.00     0.034 A 
ATOM     52  C   UNL A   1      41.867  28.012  30.466  1.00  0.00     0.049 A 
ATOM     53  C   UNL A   1      41.048  30.928  35.189  1.00  0.00     0.074 A 
ATOM     54  C   UNL A   1      42.954  27.154  30.450  1.00  0.00     0.029 A 
ATOM     55  N   UNL A   1      41.846  28.599  31.724  1.00  0.00    -0.354 N 
ATOM     56  N   UNL A   1      41.362  30.180  34.156  1.00  0.00    -0.248 NA
ATOM     57  C   UNL A   1      41.900  30.715  36.367  1.00  0.00     0.031 C 
ATOM     58  C   UNL A   1      43.547  27.172  31.716  1.00  0.00     0.029 A 
ATOM     59  C   UNL A   1      42.879  28.098  32.501  1.00  0.00     0.049 A 
ATOM     60  H   UNL A   1      41.192  29.273  32.021  1.00  0.00     0.167 HD
ATOM     61  C   UNL A   1      42.468  29.432  34.553  1.00  0.00     0.074 A 
ATOM     62  C   UNL A   1      42.774  29.831  35.910  1.00  0.00     0.031 C 
ATOM     63  C   UNL A   1      43.169  28.501  33.857  1.00  0.00     0.034 A 
BRANCH  50  64
ATOM     64  C   UNL A   1      40.995  27.455  28.148  1.00  0.00     0.023 A 
ATOM     65  C   UNL A   1      40.570  26.116  28.101  1.00  0.00     0.031 A 
ATOM     66  C   UNL A   1      41.510  28.023  26.970  1.00  0.00     0.131 A 
ATOM     67  C   UNL A   1      40.729  25.371  26.922  1.00  0.00     0.055 A 
ATOM     68  C   UNL A   1      41.594  27.300  25.778  1.00  0.00     0.041 A 
ATOM     69  F   UNL A   1      41.950  29.291  26.958  1.00  0.00    -0.206 F 
ATOM     70  C   UNL A   1      41.214  25.961  25.752  1.00  0.00     0.022 A 
BRANCH  67  71
ATOM     71  S   UNL A   1      40.410  23.586  26.974  1.00  0.00     0.124 S 
ATOM     72  O   UNL A   1      39.027  23.521  26.507  1.00  0.00    -0.237 OA
ATOM     73  O   UNL A   1      41.419  23.058  26.063  1.00  0.00    -0.237 OA
ATOM     74  O   UNL A   1      40.601  23.245  28.382  1.00  0.00    -0.744 OA
ENDBRANCH  67  71
ENDBRANCH  50  64
BRANCH  51  75
ATOM     75  C   UNL A   1      39.717  32.656  36.613  1.00  0.00     0.023 A 
ATOM     76  C   UNL A   1      38.790  32.161  37.544  1.00  0.00     0.031 A 
ATOM     77  C   UNL A   1      40.373  33.863  36.916  1.00  0.00     0.131 A 
ATOM     78  C   UNL A   1      38.505  32.895  38.707  1.00  0.00     0.055 A 
ATOM     79  C   UNL A   1      40.127  34.561  38.100  1.00  0.00     0.041 A 
ATOM     80  F   UNL A   1      41.273  34.379  36.064  1.00  0.00    -0.206 F 
ATOM     81  C   UNL A   1      39.175  34.085  38.997  1.00  0.00     0.022 A 
BRANCH  78  82
ATOM     82  S   UNL A   1      37.166  32.321  39.789  1.00  0.00     0.124 S 
ATOM     83  O   UNL A   1      37.747  31.112  40.363  1.00  0.00    -0.237 OA
ATOM     84  O   UNL A   1      37.008  33.451  40.697  1.00  0.00    -0.237 OA
ATOM     85  O   UNL A   1      36.054  32.103  38.867  1.00  0.00    -0.744 OA
ENDBRANCH  78  82
ENDBRANCH  51  75
BRANCH  63  86
ATOM     86  C   UNL A   1      44.367  27.890  34.542  1.00  0.00     0.023 A 
ATOM     87  C   UNL A   1      44.271  26.695  35.277  1.00  0.00     0.031 A 
ATOM     88  C   UNL A   1      45.621  28.521  34.464  1.00  0.00     0.131 A 
ATOM     89  C   UNL A   1      45.397  26.198  35.950  1.00  0.00     0.055 A 
ATOM     90  C   UNL A   1      46.751  27.989  35.086  1.00  0.00     0.041 A 
ATOM     91  F   UNL A   1      45.769  29.665  33.777  1.00  0.00    -0.206 F 
ATOM     92  C   UNL A   1      46.640  26.828  35.845  1.00  0.00     0.022 A 
BRANCH  89  93
ATOM     93  S   UNL A   1      45.198  24.761  37.039  1.00  0.00     0.124 S 
ATOM     94  O   UNL A   1      44.541  23.801  36.156  1.00  0.00    -0.237 OA
ATOM     95  O   UNL A   1      46.576  24.452  37.405  1.00  0.00    -0.237 OA
ATOM     96  O   UNL A   1      44.367  25.269  38.129  1.00  0.00    -0.744 OA
ENDBRANCH  89  93
ENDBRANCH  63  86
ENDBRANCH  37  38
ENDBRANCH  29  32
ENDBRANCH  27  28
ENDBRANCH  26  27
ENDBRANCH   1  26
TORSDOF 18
ENDMDL
MODEL 3
REMARK VINA RESULT:     -11.2      3.165      8.429
REMARK SMILES CC[C@]1(C(=O)NCCCCNC(=O)c2ccc(-c3c4nc(c(-c5cc(S(=O)(=O)[O-])ccc5F)c5ccc([nH]5)c(-c5cc(S(=O)(=O)[O-])ccc5F)c5nc(c(-c6cc(S(=O)(=O)[O-])ccc6F)c6ccc3[nH]6)C=C5)C=C4)cc2)CCC[N@@H+](Cc2cc(OC)ccc2F)C1
REMARK SMILES IDX 8 1 7 2 6 3 4 4 5 5 3 7 77 8 91 9 78 10 80 11 79 12 2 14
REMARK SMILES IDX 1 15 81 16 82 17 83 18 89 19 84 20 88 21 90 22 87 23 85 24
REMARK SMILES IDX 86 25 9 26 10 27 11 28 12 29 13 31 14 32 15 33 76 34 16 35
REMARK SMILES IDX 75 36 17 37 18 38 19 39 69 40 20 41 74 42 68 43 70 44 21 45
REMARK SMILES IDX 73 46 67 47 66 48 22 50 54 51 34 52 53 53 35 54 38 55 52 56
REMARK SMILES IDX 71 57 36 58 37 59 51 61 72 62 39 63 23 64 24 65 32 66 25 67
REMARK SMILES IDX 31 68 33 69 30 70 26 71 27 72 28 73 29 74 55 75 56 76 64 77
REMARK SMILES IDX 57 78 63 79 65 80 62 81 58 82 59 83 60 84 61 85 40 86 41 87
REMARK SMILES IDX 49 88 42 89 48 90 50 91 47 92 43 93 44 94 45 95 46 96
REMARK H PARENT 6 6 80 13 11 30 70 49 38 60
REMARK Flexibility Score: inf
ROOT
ATOM      1  C   UNL A   1      34.903  30.974  27.973  1.00  0.00     0.023 C 
ENDROOT
BRANCH   1   2
ATOM      2  C   UNL A   1      34.807  29.496  27.606  1.00  0.00     0.116 C 
BRANCH   2   3
ATOM      3  N   UNL A   1      33.511  28.930  27.944  1.00  0.00    -0.355 N 
ATOM      4  C   UNL A   1      32.609  28.196  27.228  1.00  0.00     0.231 C 
ATOM      5  O   UNL A   1      31.606  27.833  27.851  1.00  0.00    -0.274 OA
ATOM      6  H   UNL A   1      33.229  29.109  28.870  1.00  0.00     0.163 HD
BRANCH   4   7
ATOM      7  C   UNL A   1      32.828  27.805  25.736  1.00  0.00     0.098 C 
ATOM      8  C   UNL A   1      33.873  26.668  25.636  1.00  0.00     0.028 C 
ATOM      9  C   UNL A   1      31.434  27.414  25.178  1.00  0.00     0.279 C 
ATOM     10  C   UNL A   1      33.715  25.762  24.415  1.00  0.00     0.063 C 
ATOM     11  N   UNL A   1      31.427  26.572  23.974  1.00  0.00    -0.330 N 
ATOM     12  C   UNL A   1      32.265  25.383  24.130  1.00  0.00     0.262 C 
ATOM     13  H   UNL A   1      31.850  27.114  23.221  1.00  0.00     0.348 HD
BRANCH   7  14
ATOM     14  C   UNL A   1      33.357  29.086  25.000  1.00  0.00     0.019 C 
ATOM     15  C   UNL A   1      33.646  28.982  23.511  1.00  0.00     0.005 C 
ENDBRANCH   7  14
BRANCH  11  16
ATOM     16  C   UNL A   1      30.048  26.257  23.533  1.00  0.00     0.302 C 
BRANCH  16  17
ATOM     17  C   UNL A   1      29.111  27.427  23.307  1.00  0.00     0.046 A 
ATOM     18  C   UNL A   1      29.560  28.579  22.639  1.00  0.00     0.059 A 
ATOM     19  C   UNL A   1      27.782  27.399  23.736  1.00  0.00     0.132 A 
ATOM     20  C   UNL A   1      28.697  29.650  22.382  1.00  0.00     0.119 A 
ATOM     21  C   UNL A   1      26.899  28.431  23.432  1.00  0.00     0.043 A 
ATOM     22  F   UNL A   1      27.321  26.360  24.445  1.00  0.00    -0.206 F 
ATOM     23  C   UNL A   1      27.353  29.556  22.744  1.00  0.00     0.049 A 
BRANCH  20  24
ATOM     24  O   UNL A   1      29.279  30.726  21.767  1.00  0.00    -0.497 OA
ATOM     25  C   UNL A   1      28.400  31.575  21.035  1.00  0.00     0.278 C 
ENDBRANCH  20  24
ENDBRANCH  16  17
ENDBRANCH  11  16
ENDBRANCH   4   7
ENDBRANCH   2   3
ENDBRANCH   1   2
BRANCH   1  26
ATOM     26  C   UNL A   1      33.620  31.774  27.756  1.00  0.00     0.023 C 
BRANCH  26  27
ATOM     27  C   UNL A   1      33.816  33.229  27.345  1.00  0.00     0.116 C 
BRANCH  27  28
ATOM     28  N   UNL A   1      33.085  34.165  28.185  1.00  0.00    -0.352 N 
ATOM     29  C   UNL A   1      33.330  34.542  29.485  1.00  0.00     0.251 C 
ATOM     30  H   UNL A   1      32.303  34.590  27.763  1.00  0.00     0.163 HD
ATOM     31  O   UNL A   1      32.524  35.261  30.072  1.00  0.00    -0.269 OA
BRANCH  29  32
ATOM     32  C   UNL A   1      34.542  34.054  30.177  1.00  0.00     0.039 A 
ATOM     33  C   UNL A   1      34.400  33.160  31.242  1.00  0.00     0.014 A 
ATOM     34  C   UNL A   1      35.816  34.456  29.764  1.00  0.00     0.014 A 
ATOM     35  C   UNL A   1      35.537  32.610  31.841  1.00  0.00     0.010 A 
ATOM     36  C   UNL A   1      36.944  33.851  30.313  1.00  0.00     0.010 A 
ATOM     37  C   UNL A   1      36.817  32.918  31.354  1.00  0.00    -0.014 A 
BRANCH  37  38
ATOM     38  C   UNL A   1      38.036  32.273  31.913  1.00  0.00     0.031 A 
ATOM     39  C   UNL A   1      38.713  31.161  31.158  1.00  0.00     0.074 A 
ATOM     40  C   UNL A   1      38.482  32.632  33.133  1.00  0.00     0.049 A 
ATOM     41  N   UNL A   1      39.719  30.408  31.519  1.00  0.00    -0.248 NA
ATOM     42  C   UNL A   1      38.162  30.831  29.834  1.00  0.00     0.031 C 
ATOM     43  C   UNL A   1      37.880  33.661  33.985  1.00  0.00     0.029 A 
ATOM     44  N   UNL A   1      39.533  32.161  33.882  1.00  0.00    -0.354 N 
ATOM     45  C   UNL A   1      39.909  29.501  30.480  1.00  0.00     0.074 A 
ATOM     46  C   UNL A   1      38.879  29.769  29.499  1.00  0.00     0.031 C 
ATOM     47  C   UNL A   1      38.578  33.751  35.128  1.00  0.00     0.029 A 
ATOM     48  C   UNL A   1      39.648  32.759  35.116  1.00  0.00     0.049 A 
ATOM     49  H   UNL A   1      40.148  31.461  33.564  1.00  0.00     0.167 HD
ATOM     50  C   UNL A   1      40.863  28.547  30.351  1.00  0.00     0.034 A 
ATOM     51  C   UNL A   1      40.504  32.523  36.131  1.00  0.00     0.034 A 
ATOM     52  C   UNL A   1      41.900  28.311  31.327  1.00  0.00     0.049 A 
ATOM     53  C   UNL A   1      41.560  31.460  35.959  1.00  0.00     0.074 A 
ATOM     54  C   UNL A   1      42.962  27.426  31.258  1.00  0.00     0.029 A 
ATOM     55  N   UNL A   1      42.001  28.956  32.553  1.00  0.00    -0.354 N 
ATOM     56  N   UNL A   1      41.767  30.658  34.940  1.00  0.00    -0.248 NA
ATOM     57  C   UNL A   1      42.508  31.279  37.068  1.00  0.00     0.031 C 
ATOM     58  C   UNL A   1      43.664  27.487  32.466  1.00  0.00     0.029 A 
ATOM     59  C   UNL A   1      43.088  28.464  33.261  1.00  0.00     0.049 A 
ATOM     60  H   UNL A   1      41.390  29.659  32.874  1.00  0.00     0.167 HD
ATOM     61  C   UNL A   1      42.887  29.900  35.275  1.00  0.00     0.074 A 
ATOM     62  C   UNL A   1      43.319  30.353  36.580  1.00  0.00     0.031 C 
ATOM     63  C   UNL A   1      43.504  28.922  34.565  1.00  0.00     0.034 A 
BRANCH  50  64
ATOM     64  C   UNL A   1      40.816  27.671  29.123  1.00  0.00     0.023 A 
ATOM     65  C   UNL A   1      41.737  27.818  28.071  1.00  0.00     0.031 A 
ATOM     66  C   UNL A   1      39.830  26.676  29.000  1.00  0.00     0.131 A 
ATOM     67  C   UNL A   1      41.612  27.030  26.916  1.00  0.00     0.055 A 
ATOM     68  C   UNL A   1      39.758  25.843  27.882  1.00  0.00     0.041 A 
ATOM     69  F   UNL A   1      38.911  26.502  29.963  1.00  0.00    -0.206 F 
ATOM     70  C   UNL A   1      40.645  26.026  26.825  1.00  0.00     0.022 A 
BRANCH  67  71
ATOM     71  S   UNL A   1      42.653  27.423  25.483  1.00  0.00     0.124 S 
ATOM     72  O   UNL A   1      43.914  27.786  26.126  1.00  0.00    -0.237 OA
ATOM     73  O   UNL A   1      42.653  26.168  24.740  1.00  0.00    -0.237 OA
ATOM     74  O   UNL A   1      41.948  28.529  24.840  1.00  0.00    -0.744 OA
ENDBRANCH  67  71
ENDBRANCH  50  64
BRANCH  51  75
ATOM     75  C   UNL A   1      40.396  33.285  37.409  1.00  0.00     0.023 A 
ATOM     76  C   UNL A   1      39.671  32.776  38.498  1.00  0.00     0.031 A 
ATOM     77  C   UNL A   1      40.971  34.562  37.540  1.00  0.00     0.131 A 
ATOM     78  C   UNL A   1      39.492  33.561  39.648  1.00  0.00     0.055 A 
ATOM     79  C   UNL A   1      40.838  35.316  38.708  1.00  0.00     0.041 A 
ATOM     80  F   UNL A   1      41.681  35.094  36.532  1.00  0.00    -0.206 F 
ATOM     81  C   UNL A   1      40.081  34.822  39.766  1.00  0.00     0.022 A 
BRANCH  78  82
ATOM     82  S   UNL A   1      38.391  32.949  40.954  1.00  0.00     0.124 S 
ATOM     83  O   UNL A   1      38.867  33.693  42.116  1.00  0.00    -0.237 OA
ATOM     84  O   UNL A   1      37.079  33.327  40.444  1.00  0.00    -0.237 OA
ATOM     85  O   UNL A   1      38.660  31.513  40.979  1.00  0.00    -0.744 OA
ENDBRANCH  78  82
ENDBRANCH  51  75
BRANCH  63  86
ATOM     86  C   UNL A   1      44.744  28.312  35.173  1.00  0.00     0.023 A 
ATOM     87  C   UNL A   1      46.029  28.804  34.889  1.00  0.00     0.031 A 
ATOM     88  C   UNL A   1      44.634  27.212  36.043  1.00  0.00     0.131 A 
ATOM     89  C   UNL A   1      47.157  28.166  35.426  1.00  0.00     0.055 A 
ATOM     90  C   UNL A   1      45.755  26.618  36.622  1.00  0.00     0.041 A 
ATOM     91  F   UNL A   1      43.431  26.699  36.348  1.00  0.00    -0.206 F 
ATOM     92  C   UNL A   1      47.027  27.086  36.304  1.00  0.00     0.022 A 
BRANCH  89  93
ATOM     93  S   UNL A   1      48.803  28.709  34.893  1.00  0.00     0.124 S 
ATOM     94  O   UNL A   1      48.479  29.755  33.928  1.00  0.00    -0.237 OA
ATOM     95  O   UNL A   1      49.404  29.160  36.144  1.00  0.00    -0.237 OA
ATOM     96  O   UNL A   1      49.395  27.501  34.322  1.00  0.00    -0.744 OA
ENDBRANCH  89  93
ENDBRANCH  63  86
ENDBRANCH  37  38
ENDBRANCH  29  32
ENDBRANCH  27  28
ENDBRANCH  26  27
ENDBRANCH   1  26
TORSDOF 18
ENDMDL
