MODEL 1
REMARK VINA RESULT:     -12.1      0.000      0.000
REMARK SMILES O=C(NCCCCNC(=O)[C@@H]1CCCC[C@@H]1C(=O)Nc1cccc(C(F)(F)F)c1)c1ccc(-c2c3nc(c(-c4cc(S(=O)(=O)[O-])ccc4F)c4ccc([nH]4)c(-c4cc(S(=O)(=O)[O-])ccc4F)c4nc(c(-c5cc(S(=O)(=O)[O-])ccc5F)c5ccc2[nH]5)C=C4)C=C3)cc1
REMARK SMILES IDX 5 1 4 2 3 3 1 4 2 5 30 7 31 8 92 9 32 10 91 11 33 12 34 13
REMARK SMILES IDX 35 14 85 15 36 16 90 17 84 18 86 19 37 20 89 21 83 22 82 23
REMARK SMILES IDX 38 25 70 26 50 27 69 28 51 29 54 30 68 31 87 32 52 33 53 34
REMARK SMILES IDX 67 36 88 37 55 38 39 39 40 40 48 41 41 42 47 43 49 44 46 45
REMARK SMILES IDX 42 46 43 47 44 48 45 49 71 50 72 51 80 52 73 53 79 54 81 55
REMARK SMILES IDX 78 56 74 57 75 58 76 59 77 60 56 61 57 62 65 63 58 64 64 65
REMARK SMILES IDX 66 66 63 67 59 68 60 69 61 70 62 71 6 72 7 73 8 74 9 75
REMARK SMILES IDX 10 77 11 78 12 79 16 80 13 81 15 82 14 83 17 84 18 85 19 86
REMARK SMILES IDX 20 88 21 89 29 90 22 91 24 92 23 93 25 94 26 95 27 96 28 97
REMARK H PARENT 3 6 86 24 54 35 8 76 19 87
REMARK Flexibility Score: inf
ROOT
ATOM      1  C   UNL A   1      36.551  23.461  24.351  1.00  0.00     0.023 C 
ENDROOT
BRANCH   1   2
ATOM      2  C   UNL A   1      36.795  23.205  25.835  1.00  0.00     0.116 C 
BRANCH   2   3
ATOM      3  N   UNL A   1      37.866  22.248  26.066  1.00  0.00    -0.352 N 
ATOM      4  O   UNL A   1      39.984  21.577  26.439  1.00  0.00    -0.269 OA
ATOM      5  C   UNL A   1      39.166  22.485  26.446  1.00  0.00     0.251 C 
ATOM      6  H   UNL A   1      37.628  21.303  25.930  1.00  0.00     0.163 HD
BRANCH   5   7
ATOM      7  C   UNL A   1      39.564  23.853  26.841  1.00  0.00     0.039 A 
ATOM      8  C   UNL A   1      39.999  24.774  25.884  1.00  0.00     0.014 A 
ATOM      9  C   UNL A   1      39.505  24.210  28.189  1.00  0.00     0.014 A 
ATOM     10  C   UNL A   1      40.487  26.013  26.286  1.00  0.00     0.010 A 
ATOM     11  C   UNL A   1      39.928  25.480  28.583  1.00  0.00     0.010 A 
ATOM     12  C   UNL A   1      40.445  26.383  27.638  1.00  0.00    -0.014 A 
BRANCH  12  13
ATOM     13  C   UNL A   1      40.902  27.730  28.063  1.00  0.00     0.031 A 
ATOM     14  C   UNL A   1      42.367  28.055  28.121  1.00  0.00     0.074 A 
ATOM     15  C   UNL A   1      39.988  28.644  28.437  1.00  0.00     0.049 A 
ATOM     16  N   UNL A   1      42.959  29.125  28.586  1.00  0.00    -0.248 NA
ATOM     17  C   UNL A   1      43.285  27.033  27.601  1.00  0.00     0.031 C 
ATOM     18  C   UNL A   1      38.538  28.443  28.409  1.00  0.00     0.029 A 
ATOM     19  N   UNL A   1      40.140  29.916  28.930  1.00  0.00    -0.354 N 
ATOM     20  C   UNL A   1      44.324  28.899  28.437  1.00  0.00     0.074 A 
ATOM     21  C   UNL A   1      44.465  27.571  27.873  1.00  0.00     0.031 C 
ATOM     22  C   UNL A   1      37.934  29.550  28.864  1.00  0.00     0.029 A 
ATOM     23  C   UNL A   1      38.951  30.507  29.286  1.00  0.00     0.049 A 
ATOM     24  H   UNL A   1      41.013  30.361  29.020  1.00  0.00     0.167 HD
ATOM     25  C   UNL A   1      45.357  29.725  28.742  1.00  0.00     0.034 A 
ATOM     26  C   UNL A   1      38.703  31.666  29.927  1.00  0.00     0.034 A 
ATOM     27  C   UNL A   1      45.183  31.040  29.319  1.00  0.00     0.049 A 
ATOM     28  C   UNL A   1      39.861  32.537  30.329  1.00  0.00     0.074 A 
ATOM     29  C   UNL A   1      46.153  31.976  29.637  1.00  0.00     0.029 A 
ATOM     30  N   UNL A   1      43.963  31.597  29.685  1.00  0.00    -0.354 N 
ATOM     31  N   UNL A   1      41.147  32.320  30.175  1.00  0.00    -0.248 NA
ATOM     32  C   UNL A   1      39.538  33.810  30.987  1.00  0.00     0.031 C 
ATOM     33  C   UNL A   1      45.529  33.055  30.274  1.00  0.00     0.029 A 
ATOM     34  C   UNL A   1      44.160  32.843  30.263  1.00  0.00     0.049 A 
ATOM     35  H   UNL A   1      43.086  31.169  29.553  1.00  0.00     0.167 HD
ATOM     36  C   UNL A   1      41.786  33.447  30.685  1.00  0.00     0.074 A 
ATOM     37  C   UNL A   1      40.743  34.336  31.156  1.00  0.00     0.031 C 
ATOM     38  C   UNL A   1      43.113  33.722  30.738  1.00  0.00     0.034 A 
BRANCH  25  39
ATOM     39  C   UNL A   1      46.757  29.199  28.518  1.00  0.00     0.023 A 
ATOM     40  C   UNL A   1      47.283  29.014  27.227  1.00  0.00     0.031 A 
ATOM     41  C   UNL A   1      47.559  28.820  29.610  1.00  0.00     0.131 A 
ATOM     42  C   UNL A   1      48.519  28.372  27.058  1.00  0.00     0.055 A 
ATOM     43  C   UNL A   1      48.832  28.273  29.437  1.00  0.00     0.041 A 
ATOM     44  F   UNL A   1      47.109  28.951  30.868  1.00  0.00    -0.206 F 
ATOM     45  C   UNL A   1      49.311  28.024  28.155  1.00  0.00     0.022 A 
BRANCH  42  46
ATOM     46  S   UNL A   1      48.983  27.818  25.393  1.00  0.00     0.124 S 
ATOM     47  O   UNL A   1      50.226  28.554  25.172  1.00  0.00    -0.237 OA
ATOM     48  O   UNL A   1      49.116  26.377  25.567  1.00  0.00    -0.237 OA
ATOM     49  O   UNL A   1      47.859  28.249  24.563  1.00  0.00    -0.744 OA
ENDBRANCH  42  46
ENDBRANCH  25  39
BRANCH  26  50
ATOM     50  C   UNL A   1      37.299  32.026  30.267  1.00  0.00     0.023 A 
ATOM     51  C   UNL A   1      36.414  32.511  29.294  1.00  0.00     0.031 A 
ATOM     52  C   UNL A   1      36.815  31.860  31.579  1.00  0.00     0.131 A 
ATOM     53  C   UNL A   1      35.095  32.833  29.650  1.00  0.00     0.055 A 
ATOM     54  C   UNL A   1      35.490  32.135  31.917  1.00  0.00     0.041 A 
ATOM     55  F   UNL A   1      37.621  31.392  32.545  1.00  0.00    -0.206 F 
ATOM     56  C   UNL A   1      34.623  32.632  30.950  1.00  0.00     0.022 A 
BRANCH  53  57
ATOM     57  S   UNL A   1      34.011  33.570  28.397  1.00  0.00     0.124 S 
ATOM     58  O   UNL A   1      33.412  32.386  27.792  1.00  0.00    -0.237 OA
ATOM     59  O   UNL A   1      33.124  34.395  29.210  1.00  0.00    -0.237 OA
ATOM     60  O   UNL A   1      34.935  34.309  27.540  1.00  0.00    -0.744 OA
ENDBRANCH  53  57
ENDBRANCH  26  50
BRANCH  38  61
ATOM     61  C   UNL A   1      43.522  35.077  31.264  1.00  0.00     0.023 A 
ATOM     62  C   UNL A   1      43.662  36.199  30.428  1.00  0.00     0.031 A 
ATOM     63  C   UNL A   1      43.739  35.248  32.644  1.00  0.00     0.131 A 
ATOM     64  C   UNL A   1      44.037  37.436  30.978  1.00  0.00     0.055 A 
ATOM     65  C   UNL A   1      44.056  36.491  33.191  1.00  0.00     0.041 A 
ATOM     66  F   UNL A   1      43.626  34.209  33.486  1.00  0.00    -0.206 F 
ATOM     67  C   UNL A   1      44.214  37.593  32.356  1.00  0.00     0.022 A 
BRANCH  64  68
ATOM     68  S   UNL A   1      44.350  38.833  29.865  1.00  0.00     0.124 S 
ATOM     69  O   UNL A   1      44.302  38.193  28.554  1.00  0.00    -0.237 OA
ATOM     70  O   UNL A   1      43.247  39.735  30.175  1.00  0.00    -0.237 OA
ATOM     71  O   UNL A   1      45.671  39.309  30.274  1.00  0.00    -0.744 OA
ENDBRANCH  64  68
ENDBRANCH  38  61
ENDBRANCH  12  13
ENDBRANCH   5   7
ENDBRANCH   2   3
ENDBRANCH   1   2
BRANCH   1  72
ATOM     72  C   UNL A   1      35.110  23.224  23.888  1.00  0.00     0.023 C 
BRANCH  72  73
ATOM     73  C   UNL A   1      34.283  24.504  23.753  1.00  0.00     0.116 C 
BRANCH  73  74
ATOM     74  N   UNL A   1      34.204  25.219  25.018  1.00  0.00    -0.356 N 
ATOM     75  C   UNL A   1      33.367  26.230  25.408  1.00  0.00     0.223 C 
ATOM     76  H   UNL A   1      34.854  24.933  25.699  1.00  0.00     0.163 HD
ATOM     77  O   UNL A   1      33.672  26.909  26.385  1.00  0.00    -0.275 OA
BRANCH  75  78
ATOM     78  C   UNL A   1      32.121  26.501  24.587  1.00  0.00     0.091 C 
ATOM     79  C   UNL A   1      31.482  27.842  24.951  1.00  0.00     0.014 C 
ATOM     80  C   UNL A   1      31.085  25.347  24.514  1.00  0.00     0.091 C 
ATOM     81  C   UNL A   1      30.489  28.241  23.860  1.00  0.00     0.001 C 
ATOM     82  C   UNL A   1      30.123  25.769  23.389  1.00  0.00     0.014 C 
ATOM     83  C   UNL A   1      29.469  27.139  23.601  1.00  0.00     0.001 C 
BRANCH  80  84
ATOM     84  C   UNL A   1      30.581  24.882  25.918  1.00  0.00     0.228 C 
ATOM     85  O   UNL A   1      29.885  25.648  26.594  1.00  0.00    -0.274 OA
ATOM     86  N   UNL A   1      30.765  23.632  26.436  1.00  0.00    -0.326 N 
ATOM     87  H   UNL A   1      29.989  23.268  26.920  1.00  0.00     0.169 HD
BRANCH  86  88
ATOM     88  C   UNL A   1      31.877  22.787  26.391  1.00  0.00     0.041 A 
ATOM     89  C   UNL A   1      32.840  22.893  27.395  1.00  0.00     0.026 A 
ATOM     90  C   UNL A   1      32.009  21.810  25.409  1.00  0.00     0.039 A 
ATOM     91  C   UNL A   1      33.807  21.894  27.529  1.00  0.00     0.003 A 
ATOM     92  C   UNL A   1      32.939  20.772  25.560  1.00  0.00     0.058 A 
ATOM     93  C   UNL A   1      33.831  20.817  26.640  1.00  0.00     0.013 A 
BRANCH  92  94
ATOM     94  C   UNL A   1      32.891  19.570  24.650  1.00  0.00     0.416 C 
ATOM     95  F   UNL A   1      34.124  19.106  24.316  1.00  0.00    -0.166 F 
ATOM     96  F   UNL A   1      32.240  18.520  25.227  1.00  0.00    -0.166 F 
ATOM     97  F   UNL A   1      32.242  19.800  23.474  1.00  0.00    -0.166 F 
ENDBRANCH  92  94
ENDBRANCH  86  88
ENDBRANCH  80  84
ENDBRANCH  75  78
ENDBRANCH  73  74
ENDBRANCH  72  73
ENDBRANCH   1  72
TORSDOF 17
ENDMDL
MODEL 2
REMARK VINA RESULT:     -12.0      1.397      1.616
REMARK SMILES O=C(NCCCCNC(=O)[C@@H]1CCCC[C@@H]1C(=O)Nc1cccc(C(F)(F)F)c1)c1ccc(-c2c3nc(c(-c4cc(S(=O)(=O)[O-])ccc4F)c4ccc([nH]4)c(-c4cc(S(=O)(=O)[O-])ccc4F)c4nc(c(-c5cc(S(=O)(=O)[O-])ccc5F)c5ccc2[nH]5)C=C4)C=C3)cc1
REMARK SMILES IDX 5 1 4 2 3 3 1 4 2 5 30 7 31 8 92 9 32 10 91 11 33 12 34 13
REMARK SMILES IDX 35 14 85 15 36 16 90 17 84 18 86 19 37 20 89 21 83 22 82 23
REMARK SMILES IDX 38 25 70 26 50 27 69 28 51 29 54 30 68 31 87 32 52 33 53 34
REMARK SMILES IDX 67 36 88 37 55 38 39 39 40 40 48 41 41 42 47 43 49 44 46 45
REMARK SMILES IDX 42 46 43 47 44 48 45 49 71 50 72 51 80 52 73 53 79 54 81 55
REMARK SMILES IDX 78 56 74 57 75 58 76 59 77 60 56 61 57 62 65 63 58 64 64 65
REMARK SMILES IDX 66 66 63 67 59 68 60 69 61 70 62 71 6 72 7 73 8 74 9 75
REMARK SMILES IDX 10 77 11 78 12 79 16 80 13 81 15 82 14 83 17 84 18 85 19 86
REMARK SMILES IDX 20 88 21 89 29 90 22 91 24 92 23 93 25 94 26 95 27 96 28 97
REMARK H PARENT 3 6 86 24 54 35 8 76 19 87
REMARK Flexibility Score: inf
ROOT
ATOM      1  C   UNL A   1      36.434  23.599  24.473  1.00  0.00     0.023 C 
ENDROOT
BRANCH   1   2
ATOM      2  C   UNL A   1      36.747  23.350  25.945  1.00  0.00     0.116 C 
BRANCH   2   3
ATOM      3  N   UNL A   1      37.837  22.405  26.130  1.00  0.00    -0.352 N 
ATOM      4  O   UNL A   1      39.972  21.759  26.444  1.00  0.00    -0.269 OA
ATOM      5  C   UNL A   1      39.141  22.653  26.491  1.00  0.00     0.251 C 
ATOM      6  H   UNL A   1      37.612  21.459  25.974  1.00  0.00     0.163 HD
BRANCH   5   7
ATOM      7  C   UNL A   1      39.524  24.017  26.914  1.00  0.00     0.039 A 
ATOM      8  C   UNL A   1      40.043  24.931  25.991  1.00  0.00     0.014 A 
ATOM      9  C   UNL A   1      39.366  24.378  28.253  1.00  0.00     0.014 A 
ATOM     10  C   UNL A   1      40.515  26.164  26.428  1.00  0.00     0.010 A 
ATOM     11  C   UNL A   1      39.774  25.643  28.676  1.00  0.00     0.010 A 
ATOM     12  C   UNL A   1      40.373  26.538  27.773  1.00  0.00    -0.014 A 
BRANCH  12  13
ATOM     13  C   UNL A   1      40.814  27.879  28.230  1.00  0.00     0.031 A 
ATOM     14  C   UNL A   1      42.274  28.189  28.393  1.00  0.00     0.074 A 
ATOM     15  C   UNL A   1      39.885  28.804  28.538  1.00  0.00     0.049 A 
ATOM     16  N   UNL A   1      42.843  29.252  28.900  1.00  0.00    -0.248 NA
ATOM     17  C   UNL A   1      43.215  27.156  27.940  1.00  0.00     0.031 C 
ATOM     18  C   UNL A   1      38.438  28.619  28.406  1.00  0.00     0.029 A 
ATOM     19  N   UNL A   1      40.015  30.074  29.040  1.00  0.00    -0.354 N 
ATOM     20  C   UNL A   1      44.212  29.011  28.849  1.00  0.00     0.074 A 
ATOM     21  C   UNL A   1      44.378  27.682  28.296  1.00  0.00     0.031 C 
ATOM     22  C   UNL A   1      37.815  29.733  28.817  1.00  0.00     0.029 A 
ATOM     23  C   UNL A   1      38.810  30.678  29.311  1.00  0.00     0.049 A 
ATOM     24  H   UNL A   1      40.884  30.509  29.193  1.00  0.00     0.167 HD
ATOM     25  C   UNL A   1      45.229  29.827  29.228  1.00  0.00     0.034 A 
ATOM     26  C   UNL A   1      38.529  31.840  29.933  1.00  0.00     0.034 A 
ATOM     27  C   UNL A   1      45.030  31.143  29.791  1.00  0.00     0.049 A 
ATOM     28  C   UNL A   1      39.665  32.699  30.417  1.00  0.00     0.074 A 
ATOM     29  C   UNL A   1      45.984  32.068  30.178  1.00  0.00     0.029 A 
ATOM     30  N   UNL A   1      43.792  31.714  30.068  1.00  0.00    -0.354 N 
ATOM     31  N   UNL A   1      40.956  32.468  30.355  1.00  0.00    -0.248 NA
ATOM     32  C   UNL A   1      39.310  33.975  31.051  1.00  0.00     0.031 C 
ATOM     33  C   UNL A   1      45.328  33.155  30.769  1.00  0.00     0.029 A 
ATOM     34  C   UNL A   1      43.960  32.957  30.659  1.00  0.00     0.049 A 
ATOM     35  H   UNL A   1      42.923  31.295  29.874  1.00  0.00     0.167 HD
ATOM     36  C   UNL A   1      41.569  33.587  30.911  1.00  0.00     0.074 A 
ATOM     37  C   UNL A   1      40.506  34.489  31.306  1.00  0.00     0.031 C 
ATOM     38  C   UNL A   1      42.893  33.849  31.058  1.00  0.00     0.034 A 
BRANCH  25  39
ATOM     39  C   UNL A   1      46.636  29.284  29.104  1.00  0.00     0.023 A 
ATOM     40  C   UNL A   1      47.331  29.294  27.881  1.00  0.00     0.031 A 
ATOM     41  C   UNL A   1      47.273  28.697  30.212  1.00  0.00     0.131 A 
ATOM     42  C   UNL A   1      48.566  28.636  27.771  1.00  0.00     0.055 A 
ATOM     43  C   UNL A   1      48.547  28.131  30.119  1.00  0.00     0.041 A 
ATOM     44  F   UNL A   1      46.657  28.637  31.404  1.00  0.00    -0.206 F 
ATOM     45  C   UNL A   1      49.192  28.078  28.887  1.00  0.00     0.022 A 
BRANCH  42  46
ATOM     46  S   UNL A   1      49.242  28.345  26.112  1.00  0.00     0.124 S 
ATOM     47  O   UNL A   1      50.150  29.480  25.960  1.00  0.00    -0.237 OA
ATOM     48  O   UNL A   1      49.871  27.038  26.253  1.00  0.00    -0.237 OA
ATOM     49  O   UNL A   1      48.063  28.384  25.249  1.00  0.00    -0.744 OA
ENDBRANCH  42  46
ENDBRANCH  25  39
BRANCH  26  50
ATOM     50  C   UNL A   1      37.109  32.216  30.172  1.00  0.00     0.023 A 
ATOM     51  C   UNL A   1      36.357  32.884  29.195  1.00  0.00     0.031 A 
ATOM     52  C   UNL A   1      36.473  31.881  31.383  1.00  0.00     0.131 A 
ATOM     53  C   UNL A   1      35.018  33.216  29.453  1.00  0.00     0.055 A 
ATOM     54  C   UNL A   1      35.128  32.168  31.615  1.00  0.00     0.041 A 
ATOM     55  F   UNL A   1      37.148  31.234  32.346  1.00  0.00    -0.206 F 
ATOM     56  C   UNL A   1      34.394  32.847  30.648  1.00  0.00     0.022 A 
BRANCH  53  57
ATOM     57  S   UNL A   1      34.108  34.185  28.219  1.00  0.00     0.124 S 
ATOM     58  O   UNL A   1      33.648  35.318  29.014  1.00  0.00    -0.237 OA
ATOM     59  O   UNL A   1      35.145  34.471  27.233  1.00  0.00    -0.237 OA
ATOM     60  O   UNL A   1      33.062  33.269  27.771  1.00  0.00    -0.744 OA
ENDBRANCH  53  57
ENDBRANCH  26  50
BRANCH  38  61
ATOM     61  C   UNL A   1      43.277  35.199  31.613  1.00  0.00     0.023 A 
ATOM     62  C   UNL A   1      43.320  35.462  32.993  1.00  0.00     0.031 A 
ATOM     63  C   UNL A   1      43.643  36.232  30.730  1.00  0.00     0.131 A 
ATOM     64  C   UNL A   1      43.694  36.737  33.448  1.00  0.00     0.055 A 
ATOM     65  C   UNL A   1      44.066  37.479  31.190  1.00  0.00     0.041 A 
ATOM     66  F   UNL A   1      43.612  36.037  29.402  1.00  0.00    -0.206 F 
ATOM     67  C   UNL A   1      44.087  37.740  32.556  1.00  0.00     0.022 A 
BRANCH  64  68
ATOM     68  S   UNL A   1      43.606  37.097  35.224  1.00  0.00     0.124 S 
ATOM     69  O   UNL A   1      44.059  38.483  35.276  1.00  0.00    -0.237 OA
ATOM     70  O   UNL A   1      42.194  36.876  35.519  1.00  0.00    -0.237 OA
ATOM     71  O   UNL A   1      44.521  36.122  35.817  1.00  0.00    -0.744 OA
ENDBRANCH  64  68
ENDBRANCH  38  61
ENDBRANCH  12  13
ENDBRANCH   5   7
ENDBRANCH   2   3
ENDBRANCH   1   2
BRANCH   1  72
ATOM     72  C   UNL A   1      34.944  23.559  24.118  1.00  0.00     0.023 C 
BRANCH  72  73
ATOM     73  C   UNL A   1      34.310  24.941  23.947  1.00  0.00     0.116 C 
BRANCH  73  74
ATOM     74  N   UNL A   1      34.077  25.580  25.234  1.00  0.00    -0.356 N 
ATOM     75  C   UNL A   1      33.154  26.524  25.595  1.00  0.00     0.223 C 
ATOM     76  H   UNL A   1      34.677  25.289  25.958  1.00  0.00     0.163 HD
ATOM     77  O   UNL A   1      33.330  27.162  26.629  1.00  0.00    -0.275 OA
BRANCH  75  78
ATOM     78  C   UNL A   1      31.974  26.778  24.675  1.00  0.00     0.091 C 
ATOM     79  C   UNL A   1      31.237  28.067  25.041  1.00  0.00     0.014 C 
ATOM     80  C   UNL A   1      31.010  25.581  24.453  1.00  0.00     0.091 C 
ATOM     81  C   UNL A   1      30.326  28.474  23.882  1.00  0.00     0.001 C 
ATOM     82  C   UNL A   1      30.133  26.014  23.265  1.00  0.00     0.014 C 
ATOM     83  C   UNL A   1      29.393  27.339  23.479  1.00  0.00     0.001 C 
BRANCH  80  84
ATOM     84  C   UNL A   1      30.406  25.022  25.781  1.00  0.00     0.228 C 
ATOM     85  O   UNL A   1      29.652  25.737  26.449  1.00  0.00    -0.274 OA
ATOM     86  N   UNL A   1      30.564  23.742  26.230  1.00  0.00    -0.326 N 
ATOM     87  H   UNL A   1      29.758  23.341  26.628  1.00  0.00     0.169 HD
BRANCH  86  88
ATOM     88  C   UNL A   1      31.686  22.908  26.215  1.00  0.00     0.041 A 
ATOM     89  C   UNL A   1      32.615  23.017  27.251  1.00  0.00     0.026 A 
ATOM     90  C   UNL A   1      31.860  21.940  25.231  1.00  0.00     0.039 A 
ATOM     91  C   UNL A   1      33.588  22.028  27.410  1.00  0.00     0.003 A 
ATOM     92  C   UNL A   1      32.797  20.911  25.405  1.00  0.00     0.058 A 
ATOM     93  C   UNL A   1      33.652  20.958  26.514  1.00  0.00     0.013 A 
BRANCH  92  94
ATOM     94  C   UNL A   1      32.791  19.715  24.486  1.00  0.00     0.416 C 
ATOM     95  F   UNL A   1      34.038  19.245  24.218  1.00  0.00    -0.166 F 
ATOM     96  F   UNL A   1      32.102  18.666  25.020  1.00  0.00    -0.166 F 
ATOM     97  F   UNL A   1      32.210  19.957  23.278  1.00  0.00    -0.166 F 
ENDBRANCH  92  94
ENDBRANCH  86  88
ENDBRANCH  80  84
ENDBRANCH  75  78
ENDBRANCH  73  74
ENDBRANCH  72  73
ENDBRANCH   1  72
TORSDOF 17
ENDMDL
MODEL 3
REMARK VINA RESULT:     -12.0      5.330      8.348
REMARK SMILES O=C(NCCCCNC(=O)[C@@H]1CCCC[C@@H]1C(=O)Nc1cccc(C(F)(F)F)c1)c1ccc(-c2c3nc(c(-c4cc(S(=O)(=O)[O-])ccc4F)c4ccc([nH]4)c(-c4cc(S(=O)(=O)[O-])ccc4F)c4nc(c(-c5cc(S(=O)(=O)[O-])ccc5F)c5ccc2[nH]5)C=C4)C=C3)cc1
REMARK SMILES IDX 5 1 4 2 3 3 1 4 2 5 30 7 31 8 92 9 32 10 91 11 33 12 34 13
REMARK SMILES IDX 35 14 85 15 36 16 90 17 84 18 86 19 37 20 89 21 83 22 82 23
REMARK SMILES IDX 38 25 70 26 50 27 69 28 51 29 54 30 68 31 87 32 52 33 53 34
REMARK SMILES IDX 67 36 88 37 55 38 39 39 40 40 48 41 41 42 47 43 49 44 46 45
REMARK SMILES IDX 42 46 43 47 44 48 45 49 71 50 72 51 80 52 73 53 79 54 81 55
REMARK SMILES IDX 78 56 74 57 75 58 76 59 77 60 56 61 57 62 65 63 58 64 64 65
REMARK SMILES IDX 66 66 63 67 59 68 60 69 61 70 62 71 6 72 7 73 8 74 9 75
REMARK SMILES IDX 10 77 11 78 12 79 16 80 13 81 15 82 14 83 17 84 18 85 19 86
REMARK SMILES IDX 20 88 21 89 29 90 22 91 24 92 23 93 25 94 26 95 27 96 28 97
REMARK H PARENT 3 6 86 24 54 35 8 76 19 87
REMARK Flexibility Score: inf
ROOT
ATOM      1  C   UNL A   1      31.677  30.202  26.321  1.00  0.00     0.023 C 
ENDROOT
BRANCH   1   2
ATOM      2  C   UNL A   1      32.891  30.921  26.901  1.00  0.00     0.116 C 
BRANCH   2   3
ATOM      3  N   UNL A   1      32.651  32.341  27.107  1.00  0.00    -0.352 N 
ATOM      4  O   UNL A   1      32.891  34.348  28.102  1.00  0.00    -0.269 OA
ATOM      5  C   UNL A   1      33.324  33.219  27.924  1.00  0.00     0.251 C 
ATOM      6  H   UNL A   1      31.905  32.726  26.593  1.00  0.00     0.163 HD
BRANCH   5   7
ATOM      7  C   UNL A   1      34.563  32.773  28.597  1.00  0.00     0.039 A 
ATOM      8  C   UNL A   1      35.816  33.061  28.048  1.00  0.00     0.014 A 
ATOM      9  C   UNL A   1      34.461  32.051  29.787  1.00  0.00     0.014 A 
ATOM     10  C   UNL A   1      36.964  32.526  28.625  1.00  0.00     0.010 A 
ATOM     11  C   UNL A   1      35.619  31.576  30.404  1.00  0.00     0.010 A 
ATOM     12  C   UNL A   1      36.878  31.789  29.816  1.00  0.00    -0.014 A 
BRANCH  12  13
ATOM     13  C   UNL A   1      38.106  31.275  30.471  1.00  0.00     0.031 A 
ATOM     14  C   UNL A   1      38.949  30.230  29.799  1.00  0.00     0.074 A 
ATOM     15  C   UNL A   1      38.433  31.728  31.696  1.00  0.00     0.049 A 
ATOM     16  N   UNL A   1      39.978  29.570  30.267  1.00  0.00    -0.248 NA
ATOM     17  C   UNL A   1      38.572  29.870  28.426  1.00  0.00     0.031 C 
ATOM     18  C   UNL A   1      37.696  32.752  32.438  1.00  0.00     0.029 A 
ATOM     19  N   UNL A   1      39.457  31.375  32.540  1.00  0.00    -0.354 N 
ATOM     20  C   UNL A   1      40.361  28.697  29.254  1.00  0.00     0.074 A 
ATOM     21  C   UNL A   1      39.426  28.891  28.164  1.00  0.00     0.031 C 
ATOM     22  C   UNL A   1      38.289  32.944  33.625  1.00  0.00     0.029 A 
ATOM     23  C   UNL A   1      39.399  32.007  33.759  1.00  0.00     0.049 A 
ATOM     24  H   UNL A   1      40.161  30.732  32.296  1.00  0.00     0.167 HD
ATOM     25  C   UNL A   1      41.398  27.822  29.240  1.00  0.00     0.034 A 
ATOM     26  C   UNL A   1      40.123  31.822  34.880  1.00  0.00     0.034 A 
ATOM     27  C   UNL A   1      42.306  27.641  30.350  1.00  0.00     0.049 A 
ATOM     28  C   UNL A   1      41.220  30.793  34.876  1.00  0.00     0.074 A 
ATOM     29  C   UNL A   1      43.409  26.809  30.435  1.00  0.00     0.029 A 
ATOM     30  N   UNL A   1      42.204  28.286  31.578  1.00  0.00    -0.354 N 
ATOM     31  N   UNL A   1      41.582  29.980  33.911  1.00  0.00    -0.248 NA
ATOM     32  C   UNL A   1      42.009  30.657  36.107  1.00  0.00     0.031 C 
ATOM     33  C   UNL A   1      43.918  26.884  31.737  1.00  0.00     0.029 A 
ATOM     34  C   UNL A   1      43.197  27.840  32.437  1.00  0.00     0.049 A 
ATOM     35  H   UNL A   1      41.525  28.962  31.805  1.00  0.00     0.167 HD
ATOM     36  C   UNL A   1      42.665  29.260  34.406  1.00  0.00     0.074 A 
ATOM     37  C   UNL A   1      42.892  29.732  35.758  1.00  0.00     0.031 C 
ATOM     38  C   UNL A   1      43.412  28.311  33.788  1.00  0.00     0.034 A 
BRANCH  25  39
ATOM     39  C   UNL A   1      41.556  26.953  28.011  1.00  0.00     0.023 A 
ATOM     40  C   UNL A   1      41.052  25.641  27.960  1.00  0.00     0.031 A 
ATOM     41  C   UNL A   1      42.272  27.422  26.894  1.00  0.00     0.131 A 
ATOM     42  C   UNL A   1      41.360  24.813  26.869  1.00  0.00     0.055 A 
ATOM     43  C   UNL A   1      42.489  26.624  25.768  1.00  0.00     0.041 A 
ATOM     44  F   UNL A   1      42.797  28.657  26.886  1.00  0.00    -0.206 F 
ATOM     45  C   UNL A   1      42.052  25.303  25.760  1.00  0.00     0.022 A 
BRANCH  42  46
ATOM     46  S   UNL A   1      41.018  23.036  27.012  1.00  0.00     0.124 S 
ATOM     47  O   UNL A   1      41.579  22.732  28.327  1.00  0.00    -0.237 OA
ATOM     48  O   UNL A   1      39.565  22.986  26.910  1.00  0.00    -0.237 OA
ATOM     49  O   UNL A   1      41.747  22.455  25.886  1.00  0.00    -0.744 OA
ENDBRANCH  42  46
ENDBRANCH  25  39
BRANCH  26  50
ATOM     50  C   UNL A   1      39.785  32.598  36.104  1.00  0.00     0.023 A 
ATOM     51  C   UNL A   1      38.808  32.150  37.005  1.00  0.00     0.031 A 
ATOM     52  C   UNL A   1      40.462  33.795  36.403  1.00  0.00     0.131 A 
ATOM     53  C   UNL A   1      38.521  32.905  38.153  1.00  0.00     0.055 A 
ATOM     54  C   UNL A   1      40.208  34.516  37.570  1.00  0.00     0.041 A 
ATOM     55  F   UNL A   1      41.411  34.263  35.576  1.00  0.00    -0.206 F 
ATOM     56  C   UNL A   1      39.226  34.074  38.450  1.00  0.00     0.022 A 
BRANCH  53  57
ATOM     57  S   UNL A   1      37.171  32.362  39.236  1.00  0.00     0.124 S 
ATOM     58  O   UNL A   1      37.441  33.125  40.449  1.00  0.00    -0.237 OA
ATOM     59  O   UNL A   1      35.992  32.761  38.474  1.00  0.00    -0.237 OA
ATOM     60  O   UNL A   1      37.381  30.921  39.345  1.00  0.00    -0.744 OA
ENDBRANCH  53  57
ENDBRANCH  26  50
BRANCH  38  61
ATOM     61  C   UNL A   1      44.599  27.760  34.542  1.00  0.00     0.023 A 
ATOM     62  C   UNL A   1      44.518  26.601  35.332  1.00  0.00     0.031 A 
ATOM     63  C   UNL A   1      45.848  28.400  34.431  1.00  0.00     0.131 A 
ATOM     64  C   UNL A   1      45.660  26.132  36.003  1.00  0.00     0.055 A 
ATOM     65  C   UNL A   1      46.990  27.899  35.054  1.00  0.00     0.041 A 
ATOM     66  F   UNL A   1      45.980  29.515  33.696  1.00  0.00    -0.206 F 
ATOM     67  C   UNL A   1      46.899  26.762  35.851  1.00  0.00     0.022 A 
BRANCH  64  68
ATOM     68  S   UNL A   1      45.500  24.719  37.128  1.00  0.00     0.124 S 
ATOM     69  O   UNL A   1      44.398  25.140  37.988  1.00  0.00    -0.237 OA
ATOM     70  O   UNL A   1      45.210  23.620  36.213  1.00  0.00    -0.237 OA
ATOM     71  O   UNL A   1      46.806  24.651  37.782  1.00  0.00    -0.744 OA
ENDBRANCH  64  68
ENDBRANCH  38  61
ENDBRANCH  12  13
ENDBRANCH   5   7
ENDBRANCH   2   3
ENDBRANCH   1   2
BRANCH   1  72
ATOM     72  C   UNL A   1      31.603  28.707  26.642  1.00  0.00     0.023 C 
BRANCH  72  73
ATOM     73  C   UNL A   1      32.958  28.074  26.968  1.00  0.00     0.116 C 
BRANCH  73  74
ATOM     74  N   UNL A   1      33.559  27.471  25.787  1.00  0.00    -0.356 N 
ATOM     75  C   UNL A   1      33.649  26.156  25.418  1.00  0.00     0.223 C 
ATOM     76  H   UNL A   1      33.964  28.108  25.155  1.00  0.00     0.163 HD
ATOM     77  O   UNL A   1      34.468  25.835  24.561  1.00  0.00    -0.275 OA
BRANCH  75  78
ATOM     78  C   UNL A   1      32.768  25.141  26.120  1.00  0.00     0.091 C 
ATOM     79  C   UNL A   1      33.415  23.756  26.157  1.00  0.00     0.014 C 
ATOM     80  C   UNL A   1      31.283  25.093  25.665  1.00  0.00     0.091 C 
ATOM     81  C   UNL A   1      32.691  22.887  27.186  1.00  0.00     0.001 C 
ATOM     82  C   UNL A   1      30.584  24.238  26.737  1.00  0.00     0.014 C 
ATOM     83  C   UNL A   1      31.191  22.843  26.924  1.00  0.00     0.001 C 
BRANCH  80  84
ATOM     84  C   UNL A   1      31.115  24.823  24.136  1.00  0.00     0.228 C 
ATOM     85  O   UNL A   1      31.553  23.770  23.658  1.00  0.00    -0.274 OA
ATOM     86  N   UNL A   1      30.422  25.624  23.275  1.00  0.00    -0.326 N 
ATOM     87  H   UNL A   1      29.880  25.143  22.609  1.00  0.00     0.169 HD
BRANCH  86  88
ATOM     88  C   UNL A   1      30.358  27.018  23.187  1.00  0.00     0.041 A 
ATOM     89  C   UNL A   1      31.511  27.720  22.833  1.00  0.00     0.026 A 
ATOM     90  C   UNL A   1      29.164  27.705  23.382  1.00  0.00     0.039 A 
ATOM     91  C   UNL A   1      31.414  29.066  22.474  1.00  0.00     0.003 A 
ATOM     92  C   UNL A   1      29.039  29.041  22.975  1.00  0.00     0.058 A 
ATOM     93  C   UNL A   1      30.176  29.712  22.506  1.00  0.00     0.013 A 
BRANCH  92  94
ATOM     94  C   UNL A   1      27.682  29.696  22.924  1.00  0.00     0.416 C 
ATOM     95  F   UNL A   1      26.662  28.822  23.141  1.00  0.00    -0.166 F 
ATOM     96  F   UNL A   1      27.549  30.669  23.869  1.00  0.00    -0.166 F 
ATOM     97  F   UNL A   1      27.412  30.303  21.734  1.00  0.00    -0.166 F 
ENDBRANCH  92  94
ENDBRANCH  86  88
ENDBRANCH  80  84
ENDBRANCH  75  78
ENDBRANCH  73  74
ENDBRANCH  72  73
ENDBRANCH   1  72
TORSDOF 17
ENDMDL
