MODEL 1
REMARK VINA RESULT:     -12.9      0.000      0.000
REMARK SMILES O=C(NCCCCNC(=O)[C@@H]1CCCC[C@H]1C(=O)Nc1cccc(O)c1)c1ccc(-c2c3nc(c(-c4cc(S(=O)(=O)[O-])ccc4F)c4ccc([nH]4)c(-c4cc(S(=O)(=O)[O-])ccc4F)c4nc(c(-c5cc(S(=O)(=O)[O-])ccc5F)c5ccc2[nH]5)C=C4)C=C3)cc1
REMARK SMILES IDX 5 1 4 2 3 3 1 4 2 5 27 7 28 8 89 9 29 10 88 11 30 12 31 13
REMARK SMILES IDX 32 14 82 15 33 16 87 17 81 18 83 19 34 20 86 21 80 22 79 23
REMARK SMILES IDX 35 25 67 26 47 27 66 28 48 29 51 30 65 31 84 32 49 33 50 34
REMARK SMILES IDX 64 36 85 37 52 38 36 39 37 40 45 41 38 42 44 43 46 44 43 45
REMARK SMILES IDX 39 46 40 47 41 48 42 49 68 50 69 51 77 52 70 53 76 54 78 55
REMARK SMILES IDX 75 56 71 57 72 58 73 59 74 60 53 61 54 62 62 63 55 64 61 65
REMARK SMILES IDX 63 66 60 67 56 68 57 69 58 70 59 71 6 72 7 73 8 74 9 75
REMARK SMILES IDX 10 77 11 78 12 79 16 80 13 81 15 82 14 83 17 84 18 85 19 86
REMARK SMILES IDX 20 88 21 89 26 90 22 91 24 92 23 93 25 94
REMARK H PARENT 3 6 83 24 51 35 8 76 19 87 25 95
REMARK Flexibility Score: inf
ROOT
ATOM      1  C   UNL A   1      31.451  31.769  26.820  1.00  0.00     0.023 C 
ENDROOT
BRANCH   1   2
ATOM      2  C   UNL A   1      32.713  32.522  27.222  1.00  0.00     0.116 C 
BRANCH   2   3
ATOM      3  N   UNL A   1      32.467  33.896  27.632  1.00  0.00    -0.352 N 
ATOM      4  O   UNL A   1      32.765  35.733  28.918  1.00  0.00    -0.269 OA
ATOM      5  C   UNL A   1      33.150  34.617  28.586  1.00  0.00     0.251 C 
ATOM      6  H   UNL A   1      31.730  34.364  27.176  1.00  0.00     0.163 HD
BRANCH   5   7
ATOM      7  C   UNL A   1      34.335  34.005  29.225  1.00  0.00     0.039 A 
ATOM      8  C   UNL A   1      34.176  33.067  30.249  1.00  0.00     0.014 A 
ATOM      9  C   UNL A   1      35.613  34.396  28.815  1.00  0.00     0.014 A 
ATOM     10  C   UNL A   1      35.290  32.600  30.936  1.00  0.00     0.010 A 
ATOM     11  C   UNL A   1      36.735  33.871  29.461  1.00  0.00     0.010 A 
ATOM     12  C   UNL A   1      36.581  32.979  30.535  1.00  0.00    -0.014 A 
BRANCH  12  13
ATOM     13  C   UNL A   1      37.759  32.341  31.173  1.00  0.00     0.031 A 
ATOM     14  C   UNL A   1      38.493  31.212  30.507  1.00  0.00     0.074 A 
ATOM     15  C   UNL A   1      38.146  32.794  32.382  1.00  0.00     0.049 A 
ATOM     16  N   UNL A   1      39.508  30.518  30.953  1.00  0.00    -0.248 NA
ATOM     17  C   UNL A   1      38.028  30.806  29.172  1.00  0.00     0.031 C 
ATOM     18  C   UNL A   1      37.495  33.885  33.117  1.00  0.00     0.029 A 
ATOM     19  N   UNL A   1      39.166  32.404  33.210  1.00  0.00    -0.354 N 
ATOM     20  C   UNL A   1      39.791  29.577  29.969  1.00  0.00     0.074 A 
ATOM     21  C   UNL A   1      38.833  29.785  28.903  1.00  0.00     0.031 C 
ATOM     22  C   UNL A   1      38.137  34.081  34.276  1.00  0.00     0.029 A 
ATOM     23  C   UNL A   1      39.196  33.088  34.404  1.00  0.00     0.049 A 
ATOM     24  H   UNL A   1      39.814  31.701  32.974  1.00  0.00     0.167 HD
ATOM     25  C   UNL A   1      40.762  28.631  29.966  1.00  0.00     0.034 A 
ATOM     26  C   UNL A   1      39.956  32.907  35.500  1.00  0.00     0.034 A 
ATOM     27  C   UNL A   1      41.717  28.457  31.036  1.00  0.00     0.049 A 
ATOM     28  C   UNL A   1      40.988  31.812  35.485  1.00  0.00     0.074 A 
ATOM     29  C   UNL A   1      42.801  27.597  31.091  1.00  0.00     0.029 A 
ATOM     30  N   UNL A   1      41.690  29.135  32.248  1.00  0.00    -0.354 N 
ATOM     31  N   UNL A   1      41.285  30.974  34.518  1.00  0.00    -0.248 NA
ATOM     32  C   UNL A   1      41.783  31.633  36.705  1.00  0.00     0.031 C 
ATOM     33  C   UNL A   1      43.378  27.698  32.361  1.00  0.00     0.029 A 
ATOM     34  C   UNL A   1      42.700  28.672  33.076  1.00  0.00     0.049 A 
ATOM     35  H   UNL A   1      41.046  29.843  32.483  1.00  0.00     0.167 HD
ATOM     36  C   UNL A   1      42.307  30.174  35.013  1.00  0.00     0.074 A 
ATOM     37  C   UNL A   1      42.595  30.648  36.352  1.00  0.00     0.031 C 
ATOM     38  C   UNL A   1      42.951  29.138  34.419  1.00  0.00     0.034 A 
BRANCH  25  39
ATOM     39  C   UNL A   1      40.822  27.673  28.803  1.00  0.00     0.023 A 
ATOM     40  C   UNL A   1      41.771  27.799  27.776  1.00  0.00     0.031 A 
ATOM     41  C   UNL A   1      39.935  26.581  28.752  1.00  0.00     0.131 A 
ATOM     42  C   UNL A   1      41.789  26.870  26.723  1.00  0.00     0.055 A 
ATOM     43  C   UNL A   1      39.994  25.629  27.734  1.00  0.00     0.041 A 
ATOM     44  F   UNL A   1      38.996  26.422  29.699  1.00  0.00    -0.206 F 
ATOM     45  C   UNL A   1      40.922  25.774  26.707  1.00  0.00     0.022 A 
BRANCH  42  46
ATOM     46  S   UNL A   1      42.911  27.153  25.325  1.00  0.00     0.124 S 
ATOM     47  O   UNL A   1      42.861  25.865  24.638  1.00  0.00    -0.237 OA
ATOM     48  O   UNL A   1      42.278  28.270  24.634  1.00  0.00    -0.237 OA
ATOM     49  O   UNL A   1      44.188  27.461  25.965  1.00  0.00    -0.744 OA
ENDBRANCH  42  46
ENDBRANCH  25  39
BRANCH  26  50
ATOM     50  C   UNL A   1      39.721  33.724  36.724  1.00  0.00     0.023 A 
ATOM     51  C   UNL A   1      39.113  33.174  37.860  1.00  0.00     0.031 A 
ATOM     52  C   UNL A   1      40.062  35.090  36.754  1.00  0.00     0.131 A 
ATOM     53  C   UNL A   1      38.821  33.993  38.962  1.00  0.00     0.055 A 
ATOM     54  C   UNL A   1      39.826  35.886  37.874  1.00  0.00     0.041 A 
ATOM     55  F   UNL A   1      40.645  35.669  35.692  1.00  0.00    -0.206 F 
ATOM     56  C   UNL A   1      39.186  35.342  38.982  1.00  0.00     0.022 A 
BRANCH  53  57
ATOM     57  S   UNL A   1      37.854  33.295  40.328  1.00  0.00     0.124 S 
ATOM     58  O   UNL A   1      37.801  34.416  41.260  1.00  0.00    -0.237 OA
ATOM     59  O   UNL A   1      36.601  32.951  39.665  1.00  0.00    -0.237 OA
ATOM     60  O   UNL A   1      38.660  32.157  40.767  1.00  0.00    -0.744 OA
ENDBRANCH  53  57
ENDBRANCH  26  50
BRANCH  38  61
ATOM     61  C   UNL A   1      44.032  28.465  35.222  1.00  0.00     0.023 A 
ATOM     62  C   UNL A   1      43.773  27.295  35.956  1.00  0.00     0.031 A 
ATOM     63  C   UNL A   1      45.326  29.009  35.271  1.00  0.00     0.131 A 
ATOM     64  C   UNL A   1      44.784  26.733  36.749  1.00  0.00     0.055 A 
ATOM     65  C   UNL A   1      46.343  28.414  36.017  1.00  0.00     0.041 A 
ATOM     66  F   UNL A   1      45.623  30.128  34.591  1.00  0.00    -0.206 F 
ATOM     67  C   UNL A   1      46.071  27.275  36.771  1.00  0.00     0.022 A 
BRANCH  64  68
ATOM     68  S   UNL A   1      44.373  25.321  37.811  1.00  0.00     0.124 S 
ATOM     69  O   UNL A   1      44.651  25.852  39.142  1.00  0.00    -0.237 OA
ATOM     70  O   UNL A   1      42.966  25.091  37.498  1.00  0.00    -0.237 OA
ATOM     71  O   UNL A   1      45.286  24.274  37.357  1.00  0.00    -0.744 OA
ENDBRANCH  64  68
ENDBRANCH  38  61
ENDBRANCH  12  13
ENDBRANCH   5   7
ENDBRANCH   2   3
ENDBRANCH   1   2
BRANCH   1  72
ATOM     72  C   UNL A   1      31.692  30.489  26.022  1.00  0.00     0.023 C 
BRANCH  72  73
ATOM     73  C   UNL A   1      32.344  29.362  26.816  1.00  0.00     0.116 C 
BRANCH  73  74
ATOM     74  N   UNL A   1      31.478  28.214  27.006  1.00  0.00    -0.356 N 
ATOM     75  C   UNL A   1      31.230  27.159  26.175  1.00  0.00     0.223 C 
ATOM     76  H   UNL A   1      30.996  28.193  27.863  1.00  0.00     0.163 HD
ATOM     77  O   UNL A   1      30.519  26.241  26.583  1.00  0.00    -0.275 OA
BRANCH  75  78
ATOM     78  C   UNL A   1      31.824  27.154  24.763  1.00  0.00     0.091 C 
ATOM     79  C   UNL A   1      33.330  27.459  24.856  1.00  0.00     0.014 C 
ATOM     80  C   UNL A   1      31.076  28.141  23.842  1.00  0.00     0.091 C 
ATOM     81  C   UNL A   1      33.960  27.681  23.489  1.00  0.00     0.001 C 
ATOM     82  C   UNL A   1      31.834  28.635  22.595  1.00  0.00     0.014 C 
ATOM     83  C   UNL A   1      33.316  28.881  22.818  1.00  0.00     0.001 C 
BRANCH  80  84
ATOM     84  C   UNL A   1      29.649  27.726  23.465  1.00  0.00     0.228 C 
ATOM     85  O   UNL A   1      29.344  26.527  23.507  1.00  0.00    -0.274 OA
ATOM     86  N   UNL A   1      28.633  28.591  23.169  1.00  0.00    -0.326 N 
ATOM     87  H   UNL A   1      27.749  28.160  23.202  1.00  0.00     0.169 HD
BRANCH  86  88
ATOM     88  C   UNL A   1      28.555  29.952  22.827  1.00  0.00     0.044 A 
ATOM     89  C   UNL A   1      28.954  30.999  23.656  1.00  0.00     0.026 A 
ATOM     90  C   UNL A   1      28.122  30.263  21.536  1.00  0.00     0.072 A 
ATOM     91  C   UNL A   1      28.843  32.332  23.252  1.00  0.00     0.006 A 
ATOM     92  C   UNL A   1      28.001  31.594  21.136  1.00  0.00     0.117 A 
ATOM     93  C   UNL A   1      28.346  32.635  21.990  1.00  0.00     0.046 A 
BRANCH  92  94
ATOM     94  O   UNL A   1      27.531  31.841  19.882  1.00  0.00    -0.508 OA
ATOM     95  H   UNL A   1      26.633  32.078  19.756  1.00  0.00     0.293 HD
ENDBRANCH  92  94
ENDBRANCH  86  88
ENDBRANCH  80  84
ENDBRANCH  75  78
ENDBRANCH  73  74
ENDBRANCH  72  73
ENDBRANCH   1  72
TORSDOF 17
ENDMDL
MODEL 2
REMARK VINA RESULT:     -12.7      4.725      9.606
REMARK SMILES O=C(NCCCCNC(=O)[C@@H]1CCCC[C@H]1C(=O)Nc1cccc(O)c1)c1ccc(-c2c3nc(c(-c4cc(S(=O)(=O)[O-])ccc4F)c4ccc([nH]4)c(-c4cc(S(=O)(=O)[O-])ccc4F)c4nc(c(-c5cc(S(=O)(=O)[O-])ccc5F)c5ccc2[nH]5)C=C4)C=C3)cc1
REMARK SMILES IDX 5 1 4 2 3 3 1 4 2 5 27 7 28 8 89 9 29 10 88 11 30 12 31 13
REMARK SMILES IDX 32 14 82 15 33 16 87 17 81 18 83 19 34 20 86 21 80 22 79 23
REMARK SMILES IDX 35 25 67 26 47 27 66 28 48 29 51 30 65 31 84 32 49 33 50 34
REMARK SMILES IDX 64 36 85 37 52 38 36 39 37 40 45 41 38 42 44 43 46 44 43 45
REMARK SMILES IDX 39 46 40 47 41 48 42 49 68 50 69 51 77 52 70 53 76 54 78 55
REMARK SMILES IDX 75 56 71 57 72 58 73 59 74 60 53 61 54 62 62 63 55 64 61 65
REMARK SMILES IDX 63 66 60 67 56 68 57 69 58 70 59 71 6 72 7 73 8 74 9 75
REMARK SMILES IDX 10 77 11 78 12 79 16 80 13 81 15 82 14 83 17 84 18 85 19 86
REMARK SMILES IDX 20 88 21 89 26 90 22 91 24 92 23 93 25 94
REMARK H PARENT 3 6 83 24 51 35 8 76 19 87 25 95
REMARK Flexibility Score: inf
ROOT
ATOM      1  C   UNL A   1      33.053  27.690  26.582  1.00  0.00     0.023 C 
ENDROOT
BRANCH   1   2
ATOM      2  C   UNL A   1      34.092  28.709  26.130  1.00  0.00     0.116 C 
BRANCH   2   3
ATOM      3  N   UNL A   1      33.789  30.073  26.539  1.00  0.00    -0.352 N 
ATOM      4  O   UNL A   1      34.046  31.939  27.791  1.00  0.00    -0.269 OA
ATOM      5  C   UNL A   1      34.477  30.842  27.450  1.00  0.00     0.251 C 
ATOM      6  H   UNL A   1      33.003  30.492  26.118  1.00  0.00     0.163 HD
BRANCH   5   7
ATOM      7  C   UNL A   1      35.726  30.307  28.033  1.00  0.00     0.039 A 
ATOM      8  C   UNL A   1      35.708  29.689  29.287  1.00  0.00     0.014 A 
ATOM      9  C   UNL A   1      36.926  30.449  27.330  1.00  0.00     0.014 A 
ATOM     10  C   UNL A   1      36.904  29.312  29.887  1.00  0.00     0.010 A 
ATOM     11  C   UNL A   1      38.118  30.004  27.906  1.00  0.00     0.010 A 
ATOM     12  C   UNL A   1      38.117  29.444  29.194  1.00  0.00    -0.014 A 
BRANCH  12  13
ATOM     13  C   UNL A   1      39.358  28.884  29.785  1.00  0.00     0.031 A 
ATOM     14  C   UNL A   1      39.976  29.480  31.018  1.00  0.00     0.074 A 
ATOM     15  C   UNL A   1      39.929  27.827  29.173  1.00  0.00     0.049 A 
ATOM     16  N   UNL A   1      41.081  29.139  31.628  1.00  0.00    -0.248 NA
ATOM     17  C   UNL A   1      39.266  30.607  31.644  1.00  0.00     0.031 C 
ATOM     18  C   UNL A   1      39.409  27.177  27.964  1.00  0.00     0.029 A 
ATOM     19  N   UNL A   1      41.063  27.115  29.466  1.00  0.00    -0.354 N 
ATOM     20  C   UNL A   1      41.217  30.019  32.696  1.00  0.00     0.074 A 
ATOM     21  C   UNL A   1      40.083  30.918  32.645  1.00  0.00     0.031 C 
ATOM     22  C   UNL A   1      40.214  26.159  27.630  1.00  0.00     0.029 A 
ATOM     23  C   UNL A   1      41.343  26.127  28.551  1.00  0.00     0.049 A 
ATOM     24  H   UNL A   1      41.623  27.294  30.256  1.00  0.00     0.167 HD
ATOM     25  C   UNL A   1      42.202  30.065  33.626  1.00  0.00     0.034 A 
ATOM     26  C   UNL A   1      42.412  25.318  28.433  1.00  0.00     0.034 A 
ATOM     27  C   UNL A   1      43.314  29.144  33.664  1.00  0.00     0.049 A 
ATOM     28  C   UNL A   1      43.514  25.432  29.450  1.00  0.00     0.074 A 
ATOM     29  C   UNL A   1      44.313  29.040  34.618  1.00  0.00     0.029 A 
ATOM     30  N   UNL A   1      43.591  28.187  32.697  1.00  0.00    -0.354 N 
ATOM     31  N   UNL A   1      43.593  26.228  30.492  1.00  0.00    -0.248 NA
ATOM     32  C   UNL A   1      44.672  24.547  29.277  1.00  0.00     0.031 C 
ATOM     33  C   UNL A   1      45.233  28.078  34.188  1.00  0.00     0.029 A 
ATOM     34  C   UNL A   1      44.773  27.530  33.001  1.00  0.00     0.049 A 
ATOM     35  H   UNL A   1      43.028  28.003  31.909  1.00  0.00     0.167 HD
ATOM     36  C   UNL A   1      44.806  25.932  31.102  1.00  0.00     0.074 A 
ATOM     37  C   UNL A   1      45.410  24.866  30.329  1.00  0.00     0.031 C 
ATOM     38  C   UNL A   1      45.374  26.491  32.200  1.00  0.00     0.034 A 
BRANCH  25  39
ATOM     39  C   UNL A   1      42.164  31.169  34.653  1.00  0.00     0.023 A 
ATOM     40  C   UNL A   1      42.792  32.408  34.445  1.00  0.00     0.031 A 
ATOM     41  C   UNL A   1      41.440  30.988  35.846  1.00  0.00     0.131 A 
ATOM     42  C   UNL A   1      42.713  33.406  35.431  1.00  0.00     0.055 A 
ATOM     43  C   UNL A   1      41.318  32.002  36.797  1.00  0.00     0.041 A 
ATOM     44  F   UNL A   1      40.835  29.817  36.104  1.00  0.00    -0.206 F 
ATOM     45  C   UNL A   1      41.962  33.219  36.595  1.00  0.00     0.022 A 
BRANCH  42  46
ATOM     46  S   UNL A   1      43.673  34.930  35.211  1.00  0.00     0.124 S 
ATOM     47  O   UNL A   1      42.821  35.688  34.299  1.00  0.00    -0.237 OA
ATOM     48  O   UNL A   1      43.768  35.442  36.573  1.00  0.00    -0.237 OA
ATOM     49  O   UNL A   1      44.932  34.463  34.633  1.00  0.00    -0.744 OA
ENDBRANCH  42  46
ENDBRANCH  25  39
BRANCH  26  50
ATOM     50  C   UNL A   1      42.529  24.389  27.274  1.00  0.00     0.023 A 
ATOM     51  C   UNL A   1      42.002  23.091  27.325  1.00  0.00     0.031 A 
ATOM     52  C   UNL A   1      43.217  24.776  26.107  1.00  0.00     0.131 A 
ATOM     53  C   UNL A   1      42.210  22.210  26.252  1.00  0.00     0.055 A 
ATOM     54  C   UNL A   1      43.368  23.917  25.019  1.00  0.00     0.041 A 
ATOM     55  F   UNL A   1      43.743  26.007  26.005  1.00  0.00    -0.206 F 
ATOM     56  C   UNL A   1      42.877  22.619  25.094  1.00  0.00     0.022 A 
BRANCH  53  57
ATOM     57  S   UNL A   1      41.692  20.482  26.437  1.00  0.00     0.124 S 
ATOM     58  O   UNL A   1      42.438  19.830  25.366  1.00  0.00    -0.237 OA
ATOM     59  O   UNL A   1      42.127  20.182  27.798  1.00  0.00    -0.237 OA
ATOM     60  O   UNL A   1      40.244  20.539  26.245  1.00  0.00    -0.744 OA
ENDBRANCH  53  57
ENDBRANCH  26  50
BRANCH  38  61
ATOM     61  C   UNL A   1      46.710  25.941  32.622  1.00  0.00     0.023 A 
ATOM     62  C   UNL A   1      46.805  24.889  33.550  1.00  0.00     0.031 A 
ATOM     63  C   UNL A   1      47.899  26.486  32.110  1.00  0.00     0.131 A 
ATOM     64  C   UNL A   1      48.067  24.447  33.975  1.00  0.00     0.055 A 
ATOM     65  C   UNL A   1      49.151  26.005  32.494  1.00  0.00     0.041 A 
ATOM     66  F   UNL A   1      47.862  27.496  31.225  1.00  0.00    -0.206 F 
ATOM     67  C   UNL A   1      49.239  24.986  33.440  1.00  0.00     0.022 A 
BRANCH  64  68
ATOM     68  S   UNL A   1      48.155  23.203  35.291  1.00  0.00     0.124 S 
ATOM     69  O   UNL A   1      49.412  23.548  35.949  1.00  0.00    -0.237 OA
ATOM     70  O   UNL A   1      46.942  23.469  36.057  1.00  0.00    -0.237 OA
ATOM     71  O   UNL A   1      48.162  21.935  34.565  1.00  0.00    -0.744 OA
ENDBRANCH  64  68
ENDBRANCH  38  61
ENDBRANCH  12  13
ENDBRANCH   5   7
ENDBRANCH   2   3
ENDBRANCH   1   2
BRANCH   1  72
ATOM     72  C   UNL A   1      32.493  26.805  25.470  1.00  0.00     0.023 C 
BRANCH  72  73
ATOM     73  C   UNL A   1      32.371  25.330  25.836  1.00  0.00     0.116 C 
BRANCH  73  74
ATOM     74  N   UNL A   1      32.373  24.448  24.684  1.00  0.00    -0.356 N 
ATOM     75  C   UNL A   1      33.253  23.462  24.341  1.00  0.00     0.223 C 
ATOM     76  H   UNL A   1      31.628  24.582  24.055  1.00  0.00     0.163 HD
ATOM     77  O   UNL A   1      33.007  22.771  23.353  1.00  0.00    -0.275 OA
BRANCH  75  78
ATOM     78  C   UNL A   1      34.519  23.254  25.177  1.00  0.00     0.091 C 
ATOM     79  C   UNL A   1      35.672  24.049  24.538  1.00  0.00     0.014 C 
ATOM     80  C   UNL A   1      34.846  21.754  25.327  1.00  0.00     0.091 C 
ATOM     81  C   UNL A   1      37.016  23.735  25.179  1.00  0.00     0.001 C 
ATOM     82  C   UNL A   1      36.304  21.393  25.670  1.00  0.00     0.014 C 
ATOM     83  C   UNL A   1      37.343  22.265  24.986  1.00  0.00     0.001 C 
BRANCH  80  84
ATOM     84  C   UNL A   1      33.881  20.963  26.219  1.00  0.00     0.228 C 
ATOM     85  O   UNL A   1      33.550  21.440  27.312  1.00  0.00    -0.274 OA
ATOM     86  N   UNL A   1      33.267  19.794  25.866  1.00  0.00    -0.326 N 
ATOM     87  H   UNL A   1      32.506  19.577  26.452  1.00  0.00     0.169 HD
BRANCH  86  88
ATOM     88  C   UNL A   1      33.467  18.830  24.864  1.00  0.00     0.044 A 
ATOM     89  C   UNL A   1      34.502  17.897  24.860  1.00  0.00     0.026 A 
ATOM     90  C   UNL A   1      32.512  18.758  23.847  1.00  0.00     0.072 A 
ATOM     91  C   UNL A   1      34.643  16.969  23.825  1.00  0.00     0.006 A 
ATOM     92  C   UNL A   1      32.658  17.837  22.808  1.00  0.00     0.117 A 
ATOM     93  C   UNL A   1      33.726  16.949  22.781  1.00  0.00     0.046 A 
BRANCH  92  94
ATOM     94  O   UNL A   1      31.722  17.841  21.819  1.00  0.00    -0.508 OA
ATOM     95  H   UNL A   1      31.402  17.031  21.474  1.00  0.00     0.293 HD
ENDBRANCH  92  94
ENDBRANCH  86  88
ENDBRANCH  80  84
ENDBRANCH  75  78
ENDBRANCH  73  74
ENDBRANCH  72  73
ENDBRANCH   1  72
TORSDOF 17
ENDMDL
MODEL 3
REMARK VINA RESULT:     -12.6      1.991      3.441
REMARK SMILES O=C(NCCCCNC(=O)[C@@H]1CCCC[C@H]1C(=O)Nc1cccc(O)c1)c1ccc(-c2c3nc(c(-c4cc(S(=O)(=O)[O-])ccc4F)c4ccc([nH]4)c(-c4cc(S(=O)(=O)[O-])ccc4F)c4nc(c(-c5cc(S(=O)(=O)[O-])ccc5F)c5ccc2[nH]5)C=C4)C=C3)cc1
REMARK SMILES IDX 5 1 4 2 3 3 1 4 2 5 27 7 28 8 89 9 29 10 88 11 30 12 31 13
REMARK SMILES IDX 32 14 82 15 33 16 87 17 81 18 83 19 34 20 86 21 80 22 79 23
REMARK SMILES IDX 35 25 67 26 47 27 66 28 48 29 51 30 65 31 84 32 49 33 50 34
REMARK SMILES IDX 64 36 85 37 52 38 36 39 37 40 45 41 38 42 44 43 46 44 43 45
REMARK SMILES IDX 39 46 40 47 41 48 42 49 68 50 69 51 77 52 70 53 76 54 78 55
REMARK SMILES IDX 75 56 71 57 72 58 73 59 74 60 53 61 54 62 62 63 55 64 61 65
REMARK SMILES IDX 63 66 60 67 56 68 57 69 58 70 59 71 6 72 7 73 8 74 9 75
REMARK SMILES IDX 10 77 11 78 12 79 16 80 13 81 15 82 14 83 17 84 18 85 19 86
REMARK SMILES IDX 20 88 21 89 26 90 22 91 24 92 23 93 25 94
REMARK H PARENT 3 6 83 24 51 35 8 76 19 87 25 95
REMARK Flexibility Score: inf
ROOT
ATOM      1  C   UNL A   1      31.587  31.870  26.822  1.00  0.00     0.023 C 
ENDROOT
BRANCH   1   2
ATOM      2  C   UNL A   1      32.832  32.647  27.235  1.00  0.00     0.116 C 
BRANCH   2   3
ATOM      3  N   UNL A   1      32.550  33.999  27.695  1.00  0.00    -0.352 N 
ATOM      4  O   UNL A   1      32.794  35.792  29.052  1.00  0.00    -0.269 OA
ATOM      5  C   UNL A   1      33.208  34.698  28.681  1.00  0.00     0.251 C 
ATOM      6  H   UNL A   1      31.805  34.465  27.250  1.00  0.00     0.163 HD
BRANCH   5   7
ATOM      7  C   UNL A   1      34.402  34.091  29.307  1.00  0.00     0.039 A 
ATOM      8  C   UNL A   1      34.257  33.145  30.327  1.00  0.00     0.014 A 
ATOM      9  C   UNL A   1      35.674  34.492  28.889  1.00  0.00     0.014 A 
ATOM     10  C   UNL A   1      35.380  32.682  31.003  1.00  0.00     0.010 A 
ATOM     11  C   UNL A   1      36.804  33.970  29.523  1.00  0.00     0.010 A 
ATOM     12  C   UNL A   1      36.665  33.071  30.593  1.00  0.00    -0.014 A 
BRANCH  12  13
ATOM     13  C   UNL A   1      37.852  32.438  31.218  1.00  0.00     0.031 A 
ATOM     14  C   UNL A   1      38.567  31.294  30.556  1.00  0.00     0.074 A 
ATOM     15  C   UNL A   1      38.266  32.909  32.411  1.00  0.00     0.049 A 
ATOM     16  N   UNL A   1      39.587  30.602  30.993  1.00  0.00    -0.248 NA
ATOM     17  C   UNL A   1      38.073  30.869  29.237  1.00  0.00     0.031 C 
ATOM     18  C   UNL A   1      37.635  34.015  33.141  1.00  0.00     0.029 A 
ATOM     19  N   UNL A   1      39.301  32.526  33.225  1.00  0.00    -0.354 N 
ATOM     20  C   UNL A   1      39.846  29.643  30.020  1.00  0.00     0.074 A 
ATOM     21  C   UNL A   1      38.867  29.838  28.970  1.00  0.00     0.031 C 
ATOM     22  C   UNL A   1      38.302  34.227  34.284  1.00  0.00     0.029 A 
ATOM     23  C   UNL A   1      39.358  33.230  34.407  1.00  0.00     0.049 A 
ATOM     24  H   UNL A   1      39.940  31.816  32.988  1.00  0.00     0.167 HD
ATOM     25  C   UNL A   1      40.811  28.692  30.013  1.00  0.00     0.034 A 
ATOM     26  C   UNL A   1      40.139  33.063  35.490  1.00  0.00     0.034 A 
ATOM     27  C   UNL A   1      41.786  28.531  31.067  1.00  0.00     0.049 A 
ATOM     28  C   UNL A   1      41.164  31.962  35.472  1.00  0.00     0.074 A 
ATOM     29  C   UNL A   1      42.866  27.665  31.114  1.00  0.00     0.029 A 
ATOM     30  N   UNL A   1      41.787  29.229  32.267  1.00  0.00    -0.354 N 
ATOM     31  N   UNL A   1      41.437  31.107  34.514  1.00  0.00    -0.248 NA
ATOM     32  C   UNL A   1      41.983  31.799  36.680  1.00  0.00     0.031 C 
ATOM     33  C   UNL A   1      43.469  27.784  32.371  1.00  0.00     0.029 A 
ATOM     34  C   UNL A   1      42.812  28.773  33.083  1.00  0.00     0.049 A 
ATOM     35  H   UNL A   1      41.151  29.944  32.504  1.00  0.00     0.167 HD
ATOM     36  C   UNL A   1      42.465  30.310  35.001  1.00  0.00     0.074 A 
ATOM     37  C   UNL A   1      42.782  30.804  36.326  1.00  0.00     0.031 C 
ATOM     38  C   UNL A   1      43.091  29.260  34.412  1.00  0.00     0.034 A 
BRANCH  25  39
ATOM     39  C   UNL A   1      40.843  27.714  28.866  1.00  0.00     0.023 A 
ATOM     40  C   UNL A   1      41.789  27.802  27.832  1.00  0.00     0.031 A 
ATOM     41  C   UNL A   1      39.930  26.644  28.836  1.00  0.00     0.131 A 
ATOM     42  C   UNL A   1      41.780  26.855  26.794  1.00  0.00     0.055 A 
ATOM     43  C   UNL A   1      39.961  25.674  27.833  1.00  0.00     0.041 A 
ATOM     44  F   UNL A   1      38.992  26.521  29.789  1.00  0.00    -0.206 F 
ATOM     45  C   UNL A   1      40.887  25.780  26.799  1.00  0.00     0.022 A 
BRANCH  42  46
ATOM     46  S   UNL A   1      42.902  27.090  25.387  1.00  0.00     0.124 S 
ATOM     47  O   UNL A   1      44.162  27.395  26.060  1.00  0.00    -0.237 OA
ATOM     48  O   UNL A   1      42.834  25.800  24.710  1.00  0.00    -0.237 OA
ATOM     49  O   UNL A   1      42.308  28.208  24.656  1.00  0.00    -0.744 OA
ENDBRANCH  42  46
ENDBRANCH  25  39
BRANCH  26  50
ATOM     50  C   UNL A   1      39.932  33.902  36.704  1.00  0.00     0.023 A 
ATOM     51  C   UNL A   1      40.818  34.938  37.033  1.00  0.00     0.031 A 
ATOM     52  C   UNL A   1      38.862  33.645  37.583  1.00  0.00     0.131 A 
ATOM     53  C   UNL A   1      40.648  35.648  38.232  1.00  0.00     0.055 A 
ATOM     54  C   UNL A   1      38.661  34.395  38.742  1.00  0.00     0.041 A 
ATOM     55  F   UNL A   1      37.984  32.665  37.317  1.00  0.00    -0.206 F 
ATOM     56  C   UNL A   1      39.568  35.393  39.080  1.00  0.00     0.022 A 
BRANCH  53  57
ATOM     57  S   UNL A   1      41.925  36.838  38.722  1.00  0.00     0.124 S 
ATOM     58  O   UNL A   1      41.128  37.896  39.334  1.00  0.00    -0.237 OA
ATOM     59  O   UNL A   1      42.744  36.043  39.631  1.00  0.00    -0.237 OA
ATOM     60  O   UNL A   1      42.563  37.192  37.455  1.00  0.00    -0.744 OA
ENDBRANCH  53  57
ENDBRANCH  26  50
BRANCH  38  61
ATOM     61  C   UNL A   1      44.185  28.595  35.204  1.00  0.00     0.023 A 
ATOM     62  C   UNL A   1      43.904  27.540  36.091  1.00  0.00     0.031 A 
ATOM     63  C   UNL A   1      45.515  29.031  35.089  1.00  0.00     0.131 A 
ATOM     64  C   UNL A   1      44.935  26.989  36.865  1.00  0.00     0.055 A 
ATOM     65  C   UNL A   1      46.546  28.442  35.821  1.00  0.00     0.041 A 
ATOM     66  F   UNL A   1      45.834  30.039  34.261  1.00  0.00    -0.206 F 
ATOM     67  C   UNL A   1      46.256  27.421  36.724  1.00  0.00     0.022 A 
BRANCH  64  68
ATOM     68  S   UNL A   1      44.514  25.745  38.116  1.00  0.00     0.124 S 
ATOM     69  O   UNL A   1      43.487  24.965  37.432  1.00  0.00    -0.237 OA
ATOM     70  O   UNL A   1      45.790  25.069  38.329  1.00  0.00    -0.237 OA
ATOM     71  O   UNL A   1      44.040  26.541  39.246  1.00  0.00    -0.744 OA
ENDBRANCH  64  68
ENDBRANCH  38  61
ENDBRANCH  12  13
ENDBRANCH   5   7
ENDBRANCH   2   3
ENDBRANCH   1   2
BRANCH   1  72
ATOM     72  C   UNL A   1      31.742  30.350  26.843  1.00  0.00     0.023 C 
BRANCH  72  73
ATOM     73  C   UNL A   1      32.287  29.752  25.550  1.00  0.00     0.116 C 
BRANCH  73  74
ATOM     74  N   UNL A   1      31.387  29.897  24.423  1.00  0.00    -0.356 N 
ATOM     75  C   UNL A   1      31.058  29.000  23.447  1.00  0.00     0.223 C 
ATOM     76  H   UNL A   1      30.946  30.774  24.350  1.00  0.00     0.163 HD
ATOM     77  O   UNL A   1      30.193  29.311  22.628  1.00  0.00    -0.275 OA
BRANCH  75  78
ATOM     78  C   UNL A   1      31.781  27.652  23.385  1.00  0.00     0.091 C 
ATOM     79  C   UNL A   1      33.004  27.785  22.459  1.00  0.00     0.014 C 
ATOM     80  C   UNL A   1      30.822  26.528  22.939  1.00  0.00     0.091 C 
ATOM     81  C   UNL A   1      33.661  26.443  22.173  1.00  0.00     0.001 C 
ATOM     82  C   UNL A   1      31.467  25.264  22.340  1.00  0.00     0.014 C 
ATOM     83  C   UNL A   1      32.675  25.534  21.459  1.00  0.00     0.001 C 
BRANCH  80  84
ATOM     84  C   UNL A   1      29.752  26.139  23.968  1.00  0.00     0.228 C 
ATOM     85  O   UNL A   1      28.651  26.702  23.927  1.00  0.00    -0.274 OA
ATOM     86  N   UNL A   1      29.880  25.138  24.890  1.00  0.00    -0.326 N 
ATOM     87  H   UNL A   1      29.015  24.875  25.282  1.00  0.00     0.169 HD
BRANCH  86  88
ATOM     88  C   UNL A   1      30.954  24.397  25.411  1.00  0.00     0.044 A 
ATOM     89  C   UNL A   1      32.079  24.954  26.014  1.00  0.00     0.026 A 
ATOM     90  C   UNL A   1      30.839  23.005  25.389  1.00  0.00     0.072 A 
ATOM     91  C   UNL A   1      33.114  24.154  26.506  1.00  0.00     0.006 A 
ATOM     92  C   UNL A   1      31.877  22.207  25.872  1.00  0.00     0.117 A 
ATOM     93  C   UNL A   1      33.023  22.771  26.419  1.00  0.00     0.046 A 
BRANCH  92  94
ATOM     94  O   UNL A   1      31.732  20.855  25.785  1.00  0.00    -0.508 OA
ATOM     95  H   UNL A   1      32.412  20.290  26.095  1.00  0.00     0.293 HD
ENDBRANCH  92  94
ENDBRANCH  86  88
ENDBRANCH  80  84
ENDBRANCH  75  78
ENDBRANCH  73  74
ENDBRANCH  72  73
ENDBRANCH   1  72
TORSDOF 17
ENDMDL
