MODEL 1
REMARK VINA RESULT:      -8.7      0.000      0.000
REMARK SMILES COc1ccc(-n2c(SCC(=O)NCCCCNC(=O)c3ccc(-c4c5nc(c(-c6cc(S(=O)(=O)[O-])ccc6F)c6ccc([nH]6)c(-c6cc(S(=O)(=O)[O-])ccc6F)c6nc(c(-c7cc(S(=O)(=O)[O-])ccc7F)c7ccc4[nH]7)C=C6)C=C5)cc3)nc3sc4c(c3c2=O)CC[N@H+](C)C4)cc1
REMARK SMILES IDX 15 1 14 2 13 3 11 4 12 5 10 7 9 8 8 9 7 10 90 11 84 12 89 13
REMARK SMILES IDX 91 14 85 15 88 16 86 17 87 18 92 19 96 20 93 21 94 22 95 23
REMARK SMILES IDX 6 25 3 26 4 27 98 28 5 29 97 30 2 31 1 32 16 33 17 34 18 35
REMARK SMILES IDX 19 36 20 38 21 39 22 40 83 41 23 42 82 43 24 44 25 45 26 46
REMARK SMILES IDX 76 47 27 48 81 49 75 50 77 51 28 52 80 53 74 54 73 55 29 57
REMARK SMILES IDX 61 58 41 59 60 60 42 61 45 62 59 63 78 64 43 65 44 66 58 68
REMARK SMILES IDX 79 69 46 70 30 71 31 72 39 73 32 74 38 75 40 76 37 77 33 78
REMARK SMILES IDX 34 79 35 80 36 81 62 82 63 83 71 84 64 85 70 86 72 87 69 88
REMARK SMILES IDX 65 89 66 90 67 91 68 92 47 93 48 94 56 95 49 96 55 97 57 98
REMARK SMILES IDX 54 99 50 100 51 101 52 102 53 103
REMARK H PARENT 13 6 94 24 18 37 77 56 45 67
REMARK Flexibility Score: inf
ROOT
ATOM      1  C   UNL A   1      42.482  36.526  28.472  1.00  0.00     0.023 C 
ENDROOT
BRANCH   1   2
ATOM      2  C   UNL A   1      43.057  35.698  29.627  1.00  0.00     0.116 C 
BRANCH   2   3
ATOM      3  N   UNL A   1      43.725  36.560  30.573  1.00  0.00    -0.355 N 
ATOM      4  C   UNL A   1      43.748  36.513  31.929  1.00  0.00     0.230 C 
ATOM      5  O   UNL A   1      43.848  37.609  32.484  1.00  0.00    -0.274 OA
ATOM      6  H   UNL A   1      44.243  37.294  30.174  1.00  0.00     0.163 HD
BRANCH   4   7
ATOM      7  C   UNL A   1      43.849  35.208  32.693  1.00  0.00     0.178 C 
BRANCH   7   8
ATOM      8  S   UNL A   1      42.556  34.791  33.836  1.00  0.00    -0.077 SA
BRANCH   8   9
ATOM      9  C   UNL A   1      42.298  33.080  34.130  1.00  0.00     0.177 A 
ATOM     10  N   UNL A   1      41.071  32.437  34.355  1.00  0.00    -0.255 N 
ATOM     11  C   UNL A   1      41.003  31.052  34.634  1.00  0.00     0.267 A 
ATOM     12  N   UNL A   1      43.447  32.470  34.212  1.00  0.00    -0.212 NA
ATOM     13  C   UNL A   1      42.289  30.388  34.672  1.00  0.00     0.081 A 
ATOM     14  O   UNL A   1      39.976  30.428  34.850  1.00  0.00    -0.268 OA
ATOM     15  C   UNL A   1      43.414  31.149  34.494  1.00  0.00     0.132 A 
ATOM     16  C   UNL A   1      42.591  29.006  34.853  1.00  0.00    -0.008 A 
ATOM     17  S   UNL A   1      44.841  30.232  34.697  1.00  0.00    -0.114 S 
ATOM     18  C   UNL A   1      43.954  28.803  34.960  1.00  0.00     0.065 A 
ATOM     19  C   UNL A   1      41.632  27.859  34.975  1.00  0.00     0.099 C 
ATOM     20  C   UNL A   1      44.604  27.474  35.229  1.00  0.00     0.310 C 
ATOM     21  C   UNL A   1      42.385  26.507  34.934  1.00  0.00     0.267 C 
ATOM     22  N   UNL A   1      43.637  26.462  35.726  1.00  0.00    -0.333 N 
ATOM     23  C   UNL A   1      43.372  26.626  37.156  1.00  0.00     0.333 C 
ATOM     24  H   UNL A   1      44.055  25.540  35.605  1.00  0.00     0.348 HD
BRANCH  10  25
ATOM     25  C   UNL A   1      39.809  33.052  34.240  1.00  0.00     0.052 A 
ATOM     26  C   UNL A   1      37.351  34.379  34.110  1.00  0.00     0.119 A 
ATOM     27  C   UNL A   1      38.020  34.017  32.937  1.00  0.00     0.048 A 
ATOM     28  C   UNL A   1      37.968  34.170  35.340  1.00  0.00     0.048 A 
ATOM     29  C   UNL A   1      39.250  33.350  32.995  1.00  0.00     0.030 A 
ATOM     30  C   UNL A   1      39.205  33.532  35.402  1.00  0.00     0.030 A 
BRANCH  26  31
ATOM     31  O   UNL A   1      36.112  34.936  33.948  1.00  0.00    -0.497 OA
ATOM     32  C   UNL A   1      35.632  34.954  32.604  1.00  0.00     0.278 C 
ENDBRANCH  26  31
ENDBRANCH  10  25
ENDBRANCH   8   9
ENDBRANCH   7   8
ENDBRANCH   4   7
ENDBRANCH   2   3
ENDBRANCH   1   2
BRANCH   1  33
ATOM     33  C   UNL A   1      43.180  36.358  27.101  1.00  0.00     0.023 C 
BRANCH  33  34
ATOM     34  C   UNL A   1      44.659  36.772  27.008  1.00  0.00     0.116 C 
BRANCH  34  35
ATOM     35  N   UNL A   1      45.319  36.122  25.896  1.00  0.00    -0.352 N 
ATOM     36  C   UNL A   1      45.753  34.840  25.697  1.00  0.00     0.251 C 
ATOM     37  H   UNL A   1      45.490  36.720  25.132  1.00  0.00     0.163 HD
ATOM     38  O   UNL A   1      46.461  34.644  24.708  1.00  0.00    -0.269 OA
BRANCH  36  39
ATOM     39  C   UNL A   1      45.437  33.696  26.591  1.00  0.00     0.039 A 
ATOM     40  C   UNL A   1      46.299  33.495  27.679  1.00  0.00     0.014 A 
ATOM     41  C   UNL A   1      44.439  32.751  26.336  1.00  0.00     0.014 A 
ATOM     42  C   UNL A   1      46.158  32.382  28.513  1.00  0.00     0.010 A 
ATOM     43  C   UNL A   1      44.295  31.633  27.182  1.00  0.00     0.010 A 
ATOM     44  C   UNL A   1      45.146  31.442  28.282  1.00  0.00    -0.014 A 
BRANCH  44  45
ATOM     45  C   UNL A   1      44.948  30.386  29.308  1.00  0.00     0.031 A 
ATOM     46  C   UNL A   1      43.569  30.278  29.879  1.00  0.00     0.074 A 
ATOM     47  C   UNL A   1      45.731  29.287  29.391  1.00  0.00     0.049 A 
ATOM     48  N   UNL A   1      42.601  29.625  29.308  1.00  0.00    -0.248 NA
ATOM     49  C   UNL A   1      43.142  31.103  31.008  1.00  0.00     0.031 C 
ATOM     50  C   UNL A   1      46.171  28.533  28.213  1.00  0.00     0.029 A 
ATOM     51  N   UNL A   1      46.025  28.460  30.455  1.00  0.00    -0.354 N 
ATOM     52  C   UNL A   1      41.430  29.971  29.961  1.00  0.00     0.074 A 
ATOM     53  C   UNL A   1      41.817  30.894  31.007  1.00  0.00     0.031 C 
ATOM     54  C   UNL A   1      46.528  27.292  28.607  1.00  0.00     0.029 A 
ATOM     55  C   UNL A   1      46.497  27.202  30.070  1.00  0.00     0.049 A 
ATOM     56  H   UNL A   1      45.914  28.729  31.396  1.00  0.00     0.167 HD
ATOM     57  C   UNL A   1      40.206  29.488  29.614  1.00  0.00     0.034 A 
ATOM     58  C   UNL A   1      46.269  26.043  30.751  1.00  0.00     0.034 A 
ATOM     59  C   UNL A   1      40.205  28.493  28.581  1.00  0.00     0.049 A 
ATOM     60  C   UNL A   1      44.806  25.804  30.491  1.00  0.00     0.074 A 
ATOM     61  C   UNL A   1      40.032  28.446  27.215  1.00  0.00     0.029 A 
ATOM     62  N   UNL A   1      40.436  27.185  28.941  1.00  0.00    -0.354 N 
ATOM     63  N   UNL A   1      44.286  25.232  29.439  1.00  0.00    -0.248 NA
ATOM     64  C   UNL A   1      43.853  26.552  31.311  1.00  0.00     0.031 C 
ATOM     65  C   UNL A   1      40.624  27.213  26.795  1.00  0.00     0.029 A 
ATOM     66  C   UNL A   1      41.170  26.619  27.930  1.00  0.00     0.049 A 
ATOM     67  H   UNL A   1      40.134  26.741  29.766  1.00  0.00     0.167 HD
ATOM     68  C   UNL A   1      42.999  25.756  29.328  1.00  0.00     0.074 A 
ATOM     69  C   UNL A   1      42.784  26.535  30.530  1.00  0.00     0.031 C 
ATOM     70  C   UNL A   1      42.248  25.690  28.189  1.00  0.00     0.034 A 
BRANCH  57  71
ATOM     71  C   UNL A   1      38.926  29.840  30.270  1.00  0.00     0.023 A 
ATOM     72  C   UNL A   1      38.058  30.715  29.600  1.00  0.00     0.031 A 
ATOM     73  C   UNL A   1      38.645  29.525  31.605  1.00  0.00     0.131 A 
ATOM     74  C   UNL A   1      36.978  31.295  30.271  1.00  0.00     0.055 A 
ATOM     75  C   UNL A   1      37.551  30.090  32.270  1.00  0.00     0.041 A 
ATOM     76  F   UNL A   1      39.456  28.712  32.301  1.00  0.00    -0.206 F 
ATOM     77  C   UNL A   1      36.720  30.994  31.607  1.00  0.00     0.022 A 
BRANCH  74  78
ATOM     78  S   UNL A   1      35.993  32.528  29.381  1.00  0.00     0.124 S 
ATOM     79  O   UNL A   1      35.800  31.888  28.085  1.00  0.00    -0.237 OA
ATOM     80  O   UNL A   1      34.811  32.626  30.232  1.00  0.00    -0.237 OA
ATOM     81  O   UNL A   1      36.857  33.707  29.371  1.00  0.00    -0.744 OA
ENDBRANCH  74  78
ENDBRANCH  57  71
BRANCH  58  82
ATOM     82  C   UNL A   1      46.909  25.869  32.095  1.00  0.00     0.023 A 
ATOM     83  C   UNL A   1      46.270  25.021  33.026  1.00  0.00     0.031 A 
ATOM     84  C   UNL A   1      48.069  26.525  32.548  1.00  0.00     0.131 A 
ATOM     85  C   UNL A   1      46.814  24.804  34.306  1.00  0.00     0.055 A 
ATOM     86  C   UNL A   1      48.634  26.273  33.805  1.00  0.00     0.041 A 
ATOM     87  F   UNL A   1      48.704  27.434  31.799  1.00  0.00    -0.206 F 
ATOM     88  C   UNL A   1      48.013  25.402  34.689  1.00  0.00     0.022 A 
BRANCH  85  89
ATOM     89  S   UNL A   1      45.943  23.721  35.474  1.00  0.00     0.124 S 
ATOM     90  O   UNL A   1      46.735  22.499  35.410  1.00  0.00    -0.237 OA
ATOM     91  O   UNL A   1      46.026  24.474  36.722  1.00  0.00    -0.237 OA
ATOM     92  O   UNL A   1      44.598  23.620  34.909  1.00  0.00    -0.744 OA
ENDBRANCH  85  89
ENDBRANCH  58  82
BRANCH  70  93
ATOM     93  C   UNL A   1      42.756  24.791  27.111  1.00  0.00     0.023 A 
ATOM     94  C   UNL A   1      42.394  23.433  27.102  1.00  0.00     0.031 A 
ATOM     95  C   UNL A   1      43.565  25.269  26.067  1.00  0.00     0.131 A 
ATOM     96  C   UNL A   1      42.818  22.603  26.056  1.00  0.00     0.055 A 
ATOM     97  C   UNL A   1      43.956  24.448  25.009  1.00  0.00     0.041 A 
ATOM     98  F   UNL A   1      43.985  26.544  26.041  1.00  0.00    -0.206 F 
ATOM     99  C   UNL A   1      43.577  23.108  24.998  1.00  0.00     0.022 A 
BRANCH  96 100
ATOM    100  S   UNL A   1      42.334  20.855  26.067  1.00  0.00     0.124 S 
ATOM    101  O   UNL A   1      43.356  20.239  25.227  1.00  0.00    -0.237 OA
ATOM    102  O   UNL A   1      42.382  20.516  27.486  1.00  0.00    -0.237 OA
ATOM    103  O   UNL A   1      40.989  20.872  25.490  1.00  0.00    -0.744 OA
ENDBRANCH  96 100
ENDBRANCH  70  93
ENDBRANCH  44  45
ENDBRANCH  36  39
ENDBRANCH  34  35
ENDBRANCH  33  34
ENDBRANCH   1  33
TORSDOF 18
ENDMDL
MODEL 2
REMARK VINA RESULT:      -8.6      5.687     11.726
REMARK SMILES COc1ccc(-n2c(SCC(=O)NCCCCNC(=O)c3ccc(-c4c5nc(c(-c6cc(S(=O)(=O)[O-])ccc6F)c6ccc([nH]6)c(-c6cc(S(=O)(=O)[O-])ccc6F)c6nc(c(-c7cc(S(=O)(=O)[O-])ccc7F)c7ccc4[nH]7)C=C6)C=C5)cc3)nc3sc4c(c3c2=O)CC[N@H+](C)C4)cc1
REMARK SMILES IDX 15 1 14 2 13 3 11 4 12 5 10 7 9 8 8 9 7 10 90 11 84 12 89 13
REMARK SMILES IDX 91 14 85 15 88 16 86 17 87 18 92 19 96 20 93 21 94 22 95 23
REMARK SMILES IDX 6 25 3 26 4 27 98 28 5 29 97 30 2 31 1 32 16 33 17 34 18 35
REMARK SMILES IDX 19 36 20 38 21 39 22 40 83 41 23 42 82 43 24 44 25 45 26 46
REMARK SMILES IDX 76 47 27 48 81 49 75 50 77 51 28 52 80 53 74 54 73 55 29 57
REMARK SMILES IDX 61 58 41 59 60 60 42 61 45 62 59 63 78 64 43 65 44 66 58 68
REMARK SMILES IDX 79 69 46 70 30 71 31 72 39 73 32 74 38 75 40 76 37 77 33 78
REMARK SMILES IDX 34 79 35 80 36 81 62 82 63 83 71 84 64 85 70 86 72 87 69 88
REMARK SMILES IDX 65 89 66 90 67 91 68 92 47 93 48 94 56 95 49 96 55 97 57 98
REMARK SMILES IDX 54 99 50 100 51 101 52 102 53 103
REMARK H PARENT 13 6 94 24 18 37 77 56 45 67
REMARK Flexibility Score: inf
ROOT
ATOM      1  C   UNL A   1      35.314  31.690  28.008  1.00  0.00     0.023 C 
ENDROOT
BRANCH   1   2
ATOM      2  C   UNL A   1      34.816  30.241  27.976  1.00  0.00     0.116 C 
BRANCH   2   3
ATOM      3  N   UNL A   1      33.423  30.202  27.596  1.00  0.00    -0.355 N 
ATOM      4  C   UNL A   1      32.762  29.327  26.797  1.00  0.00     0.230 C 
ATOM      5  O   UNL A   1      31.816  29.808  26.172  1.00  0.00    -0.274 OA
ATOM      6  H   UNL A   1      32.868  30.920  27.974  1.00  0.00     0.163 HD
BRANCH   4   7
ATOM      7  C   UNL A   1      33.037  27.837  26.827  1.00  0.00     0.178 C 
BRANCH   7   8
ATOM      8  S   UNL A   1      34.023  27.129  25.531  1.00  0.00    -0.077 SA
BRANCH   8   9
ATOM      9  C   UNL A   1      33.560  25.525  24.988  1.00  0.00     0.177 A 
ATOM     10  N   UNL A   1      32.382  25.168  24.313  1.00  0.00    -0.255 N 
ATOM     11  C   UNL A   1      32.102  23.823  23.976  1.00  0.00     0.267 A 
ATOM     12  N   UNL A   1      34.440  24.653  25.392  1.00  0.00    -0.212 NA
ATOM     13  C   UNL A   1      33.119  22.880  24.394  1.00  0.00     0.081 A 
ATOM     14  O   UNL A   1      31.097  23.437  23.400  1.00  0.00    -0.268 OA
ATOM     15  C   UNL A   1      34.192  23.358  25.099  1.00  0.00     0.132 A 
ATOM     16  C   UNL A   1      33.202  21.475  24.164  1.00  0.00    -0.008 A 
ATOM     17  S   UNL A   1      35.222  22.098  25.620  1.00  0.00    -0.114 S 
ATOM     18  C   UNL A   1      34.266  20.920  24.847  1.00  0.00     0.065 A 
ATOM     19  C   UNL A   1      32.279  20.616  23.352  1.00  0.00     0.099 C 
ATOM     20  C   UNL A   1      34.594  19.452  24.880  1.00  0.00     0.310 C 
ATOM     21  C   UNL A   1      32.860  19.192  23.184  1.00  0.00     0.267 C 
ATOM     22  N   UNL A   1      33.464  18.611  24.407  1.00  0.00    -0.333 N 
ATOM     23  C   UNL A   1      32.462  18.415  25.457  1.00  0.00     0.333 C 
ATOM     24  H   UNL A   1      33.833  17.690  24.172  1.00  0.00     0.348 HD
BRANCH  10  25
ATOM     25  C   UNL A   1      31.426  26.082  23.829  1.00  0.00     0.052 A 
ATOM     26  C   UNL A   1      29.522  27.957  23.007  1.00  0.00     0.119 A 
ATOM     27  C   UNL A   1      30.685  27.757  22.256  1.00  0.00     0.048 A 
ATOM     28  C   UNL A   1      29.371  27.295  24.221  1.00  0.00     0.048 A 
ATOM     29  C   UNL A   1      31.641  26.817  22.661  1.00  0.00     0.030 A 
ATOM     30  C   UNL A   1      30.333  26.380  24.643  1.00  0.00     0.030 A 
BRANCH  26  31
ATOM     31  O   UNL A   1      28.606  28.824  22.475  1.00  0.00    -0.497 OA
ATOM     32  C   UNL A   1      29.127  30.103  22.113  1.00  0.00     0.278 C 
ENDBRANCH  26  31
ENDBRANCH  10  25
ENDBRANCH   8   9
ENDBRANCH   7   8
ENDBRANCH   4   7
ENDBRANCH   2   3
ENDBRANCH   1   2
BRANCH   1  33
ATOM     33  C   UNL A   1      34.245  32.771  28.301  1.00  0.00     0.023 C 
BRANCH  33  34
ATOM     34  C   UNL A   1      34.736  34.110  28.877  1.00  0.00     0.116 C 
BRANCH  34  35
ATOM     35  N   UNL A   1      34.239  34.319  30.220  1.00  0.00    -0.352 N 
ATOM     36  C   UNL A   1      34.541  33.739  31.421  1.00  0.00     0.251 C 
ATOM     37  H   UNL A   1      33.546  35.017  30.282  1.00  0.00     0.163 HD
ATOM     38  O   UNL A   1      33.795  34.003  32.366  1.00  0.00    -0.269 OA
BRANCH  36  39
ATOM     39  C   UNL A   1      35.685  32.818  31.647  1.00  0.00     0.039 A 
ATOM     40  C   UNL A   1      36.965  33.392  31.619  1.00  0.00     0.014 A 
ATOM     41  C   UNL A   1      35.570  31.428  31.740  1.00  0.00     0.014 A 
ATOM     42  C   UNL A   1      38.112  32.597  31.706  1.00  0.00     0.010 A 
ATOM     43  C   UNL A   1      36.728  30.630  31.834  1.00  0.00     0.010 A 
ATOM     44  C   UNL A   1      38.008  31.206  31.826  1.00  0.00    -0.014 A 
BRANCH  44  45
ATOM     45  C   UNL A   1      39.258  30.448  32.089  1.00  0.00     0.031 A 
ATOM     46  C   UNL A   1      40.378  30.678  31.124  1.00  0.00     0.074 A 
ATOM     47  C   UNL A   1      39.592  29.985  33.314  1.00  0.00     0.049 A 
ATOM     48  N   UNL A   1      41.205  31.679  31.205  1.00  0.00    -0.248 NA
ATOM     49  C   UNL A   1      40.480  29.924  29.876  1.00  0.00     0.031 C 
ATOM     50  C   UNL A   1      39.414  30.773  34.538  1.00  0.00     0.029 A 
ATOM     51  N   UNL A   1      40.400  28.935  33.699  1.00  0.00    -0.354 N 
ATOM     52  C   UNL A   1      41.912  31.725  30.015  1.00  0.00     0.074 A 
ATOM     53  C   UNL A   1      41.424  30.617  29.220  1.00  0.00     0.031 C 
ATOM     54  C   UNL A   1      40.223  30.269  35.494  1.00  0.00     0.029 A 
ATOM     55  C   UNL A   1      40.856  29.036  35.016  1.00  0.00     0.049 A 
ATOM     56  H   UNL A   1      40.632  28.185  33.105  1.00  0.00     0.167 HD
ATOM     57  C   UNL A   1      42.857  32.663  29.739  1.00  0.00     0.034 A 
ATOM     58  C   UNL A   1      42.067  28.589  35.457  1.00  0.00     0.034 A 
ATOM     59  C   UNL A   1      43.169  33.560  30.814  1.00  0.00     0.049 A 
ATOM     60  C   UNL A   1      43.017  29.575  34.832  1.00  0.00     0.074 A 
ATOM     61  C   UNL A   1      42.790  34.818  31.231  1.00  0.00     0.029 A 
ATOM     62  N   UNL A   1      44.087  33.151  31.754  1.00  0.00    -0.354 N 
ATOM     63  N   UNL A   1      43.335  30.752  35.299  1.00  0.00    -0.248 NA
ATOM     64  C   UNL A   1      43.372  29.359  33.429  1.00  0.00     0.031 C 
ATOM     65  C   UNL A   1      43.144  34.886  32.615  1.00  0.00     0.029 A 
ATOM     66  C   UNL A   1      43.662  33.641  32.963  1.00  0.00     0.049 A 
ATOM     67  H   UNL A   1      44.893  32.610  31.591  1.00  0.00     0.167 HD
ATOM     68  C   UNL A   1      43.698  31.509  34.186  1.00  0.00     0.074 A 
ATOM     69  C   UNL A   1      43.732  30.583  33.072  1.00  0.00     0.031 C 
ATOM     70  C   UNL A   1      43.767  32.873  34.184  1.00  0.00     0.034 A 
BRANCH  57  71
ATOM     71  C   UNL A   1      43.627  32.764  28.477  1.00  0.00     0.023 A 
ATOM     72  C   UNL A   1      44.512  31.724  28.157  1.00  0.00     0.031 A 
ATOM     73  C   UNL A   1      43.679  33.935  27.711  1.00  0.00     0.131 A 
ATOM     74  C   UNL A   1      45.455  31.882  27.138  1.00  0.00     0.055 A 
ATOM     75  C   UNL A   1      44.610  34.084  26.677  1.00  0.00     0.041 A 
ATOM     76  F   UNL A   1      42.871  34.971  27.990  1.00  0.00    -0.206 F 
ATOM     77  C   UNL A   1      45.516  33.061  26.397  1.00  0.00     0.022 A 
BRANCH  74  78
ATOM     78  S   UNL A   1      46.659  30.553  26.886  1.00  0.00     0.124 S 
ATOM     79  O   UNL A   1      46.186  29.531  27.813  1.00  0.00    -0.237 OA
ATOM     80  O   UNL A   1      46.481  30.263  25.466  1.00  0.00    -0.237 OA
ATOM     81  O   UNL A   1      47.931  31.178  27.243  1.00  0.00    -0.744 OA
ENDBRANCH  74  78
ENDBRANCH  57  71
BRANCH  58  82
ATOM     82  C   UNL A   1      42.312  27.111  35.488  1.00  0.00     0.023 A 
ATOM     83  C   UNL A   1      43.178  26.565  34.516  1.00  0.00     0.031 A 
ATOM     84  C   UNL A   1      41.707  26.192  36.365  1.00  0.00     0.131 A 
ATOM     85  C   UNL A   1      43.461  25.186  34.485  1.00  0.00     0.055 A 
ATOM     86  C   UNL A   1      42.024  24.828  36.364  1.00  0.00     0.041 A 
ATOM     87  F   UNL A   1      40.786  26.572  37.261  1.00  0.00    -0.206 F 
ATOM     88  C   UNL A   1      42.912  24.318  35.427  1.00  0.00     0.022 A 
BRANCH  85  89
ATOM     89  S   UNL A   1      44.565  24.529  33.203  1.00  0.00     0.124 S 
ATOM     90  O   UNL A   1      44.225  25.357  32.051  1.00  0.00    -0.237 OA
ATOM     91  O   UNL A   1      45.886  24.749  33.782  1.00  0.00    -0.237 OA
ATOM     92  O   UNL A   1      44.169  23.125  33.097  1.00  0.00    -0.744 OA
ENDBRANCH  85  89
ENDBRANCH  58  82
BRANCH  70  93
ATOM     93  C   UNL A   1      43.687  33.542  35.516  1.00  0.00     0.023 A 
ATOM     94  C   UNL A   1      42.442  33.958  36.017  1.00  0.00     0.031 A 
ATOM     95  C   UNL A   1      44.825  33.739  36.317  1.00  0.00     0.131 A 
ATOM     96  C   UNL A   1      42.357  34.528  37.294  1.00  0.00     0.055 A 
ATOM     97  C   UNL A   1      44.731  34.274  37.601  1.00  0.00     0.041 A 
ATOM     98  F   UNL A   1      46.049  33.406  35.877  1.00  0.00    -0.206 F 
ATOM     99  C   UNL A   1      43.491  34.667  38.098  1.00  0.00     0.022 A 
BRANCH  96 100
ATOM    100  S   UNL A   1      40.738  35.054  37.918  1.00  0.00     0.124 S 
ATOM    101  O   UNL A   1      39.815  34.255  37.120  1.00  0.00    -0.237 OA
ATOM    102  O   UNL A   1      40.814  34.717  39.337  1.00  0.00    -0.237 OA
ATOM    103  O   UNL A   1      40.716  36.490  37.635  1.00  0.00    -0.744 OA
ENDBRANCH  96 100
ENDBRANCH  70  93
ENDBRANCH  44  45
ENDBRANCH  36  39
ENDBRANCH  34  35
ENDBRANCH  33  34
ENDBRANCH   1  33
TORSDOF 18
ENDMDL
MODEL 3
REMARK VINA RESULT:      -8.2      3.551     10.928
REMARK SMILES COc1ccc(-n2c(SCC(=O)NCCCCNC(=O)c3ccc(-c4c5nc(c(-c6cc(S(=O)(=O)[O-])ccc6F)c6ccc([nH]6)c(-c6cc(S(=O)(=O)[O-])ccc6F)c6nc(c(-c7cc(S(=O)(=O)[O-])ccc7F)c7ccc4[nH]7)C=C6)C=C5)cc3)nc3sc4c(c3c2=O)CC[N@H+](C)C4)cc1
REMARK SMILES IDX 15 1 14 2 13 3 11 4 12 5 10 7 9 8 8 9 7 10 90 11 84 12 89 13
REMARK SMILES IDX 91 14 85 15 88 16 86 17 87 18 92 19 96 20 93 21 94 22 95 23
REMARK SMILES IDX 6 25 3 26 4 27 98 28 5 29 97 30 2 31 1 32 16 33 17 34 18 35
REMARK SMILES IDX 19 36 20 38 21 39 22 40 83 41 23 42 82 43 24 44 25 45 26 46
REMARK SMILES IDX 76 47 27 48 81 49 75 50 77 51 28 52 80 53 74 54 73 55 29 57
REMARK SMILES IDX 61 58 41 59 60 60 42 61 45 62 59 63 78 64 43 65 44 66 58 68
REMARK SMILES IDX 79 69 46 70 30 71 31 72 39 73 32 74 38 75 40 76 37 77 33 78
REMARK SMILES IDX 34 79 35 80 36 81 62 82 63 83 71 84 64 85 70 86 72 87 69 88
REMARK SMILES IDX 65 89 66 90 67 91 68 92 47 93 48 94 56 95 49 96 55 97 57 98
REMARK SMILES IDX 54 99 50 100 51 101 52 102 53 103
REMARK H PARENT 13 6 94 24 18 37 77 56 45 67
REMARK Flexibility Score: inf
ROOT
ATOM      1  C   UNL A   1      44.681  24.942  30.535  1.00  0.00     0.023 C 
ENDROOT
BRANCH   1   2
ATOM      2  C   UNL A   1      43.565  24.297  29.705  1.00  0.00     0.116 C 
BRANCH   2   3
ATOM      3  N   UNL A   1      44.045  23.989  28.379  1.00  0.00    -0.355 N 
ATOM      4  C   UNL A   1      43.356  23.672  27.254  1.00  0.00     0.230 C 
ATOM      5  O   UNL A   1      43.942  22.908  26.485  1.00  0.00    -0.274 OA
ATOM      6  H   UNL A   1      45.023  24.013  28.274  1.00  0.00     0.163 HD
BRANCH   4   7
ATOM      7  C   UNL A   1      42.060  24.361  26.878  1.00  0.00     0.178 C 
BRANCH   7   8
ATOM      8  S   UNL A   1      42.104  26.088  26.468  1.00  0.00    -0.077 SA
BRANCH   8   9
ATOM      9  C   UNL A   1      43.074  27.112  27.512  1.00  0.00     0.177 A 
ATOM     10  N   UNL A   1      42.611  28.104  28.390  1.00  0.00    -0.255 N 
ATOM     11  C   UNL A   1      43.505  28.902  29.142  1.00  0.00     0.267 A 
ATOM     12  N   UNL A   1      44.340  26.894  27.289  1.00  0.00    -0.212 NA
ATOM     13  C   UNL A   1      44.904  28.607  28.911  1.00  0.00     0.081 A 
ATOM     14  O   UNL A   1      43.177  29.787  29.915  1.00  0.00    -0.268 OA
ATOM     15  C   UNL A   1      45.218  27.653  27.980  1.00  0.00     0.132 A 
ATOM     16  C   UNL A   1      46.062  29.157  29.538  1.00  0.00    -0.008 A 
ATOM     17  S   UNL A   1      46.905  27.525  27.744  1.00  0.00    -0.114 S 
ATOM     18  C   UNL A   1      47.218  28.702  28.935  1.00  0.00     0.065 A 
ATOM     19  C   UNL A   1      46.120  30.141  30.667  1.00  0.00     0.099 C 
ATOM     20  C   UNL A   1      48.608  29.142  29.304  1.00  0.00     0.310 C 
ATOM     21  C   UNL A   1      47.571  30.297  31.185  1.00  0.00     0.267 C 
ATOM     22  N   UNL A   1      48.609  30.377  30.130  1.00  0.00    -0.333 N 
ATOM     23  C   UNL A   1      48.444  31.575  29.305  1.00  0.00     0.333 C 
ATOM     24  H   UNL A   1      49.518  30.452  30.584  1.00  0.00     0.348 HD
BRANCH  10  25
ATOM     25  C   UNL A   1      41.255  28.345  28.685  1.00  0.00     0.052 A 
ATOM     26  C   UNL A   1      38.529  28.784  29.128  1.00  0.00     0.119 A 
ATOM     27  C   UNL A   1      39.277  28.021  30.031  1.00  0.00     0.048 A 
ATOM     28  C   UNL A   1      39.127  29.232  27.954  1.00  0.00     0.048 A 
ATOM     29  C   UNL A   1      40.643  27.800  29.816  1.00  0.00     0.030 A 
ATOM     30  C   UNL A   1      40.479  28.991  27.722  1.00  0.00     0.030 A 
BRANCH  26  31
ATOM     31  O   UNL A   1      37.228  29.025  29.478  1.00  0.00    -0.497 OA
ATOM     32  C   UNL A   1      37.024  29.337  30.856  1.00  0.00     0.278 C 
ENDBRANCH  26  31
ENDBRANCH  10  25
ENDBRANCH   8   9
ENDBRANCH   7   8
ENDBRANCH   4   7
ENDBRANCH   2   3
ENDBRANCH   1   2
BRANCH   1  33
ATOM     33  C   UNL A   1      44.223  25.803  31.737  1.00  0.00     0.023 C 
BRANCH  33  34
ATOM     34  C   UNL A   1      44.606  25.312  33.143  1.00  0.00     0.116 C 
BRANCH  34  35
ATOM     35  N   UNL A   1      43.434  24.957  33.915  1.00  0.00    -0.352 N 
ATOM     36  C   UNL A   1      42.635  25.669  34.767  1.00  0.00     0.251 C 
ATOM     37  H   UNL A   1      43.157  24.018  33.806  1.00  0.00     0.163 HD
ATOM     38  O   UNL A   1      41.820  25.024  35.428  1.00  0.00    -0.269 OA
BRANCH  36  39
ATOM     39  C   UNL A   1      42.699  27.143  34.947  1.00  0.00     0.039 A 
ATOM     40  C   UNL A   1      41.827  27.908  34.158  1.00  0.00     0.014 A 
ATOM     41  C   UNL A   1      43.652  27.799  35.731  1.00  0.00     0.014 A 
ATOM     42  C   UNL A   1      41.887  29.305  34.167  1.00  0.00     0.010 A 
ATOM     43  C   UNL A   1      43.706  29.207  35.743  1.00  0.00     0.010 A 
ATOM     44  C   UNL A   1      42.820  29.973  34.969  1.00  0.00    -0.014 A 
BRANCH  44  45
ATOM     45  C   UNL A   1      42.708  31.451  35.060  1.00  0.00     0.031 A 
ATOM     46  C   UNL A   1      43.140  32.217  33.849  1.00  0.00     0.074 A 
ATOM     47  C   UNL A   1      41.853  32.073  35.902  1.00  0.00     0.049 A 
ATOM     48  N   UNL A   1      42.376  32.422  32.816  1.00  0.00    -0.248 NA
ATOM     49  C   UNL A   1      44.538  32.587  33.635  1.00  0.00     0.031 C 
ATOM     50  C   UNL A   1      40.474  31.618  36.113  1.00  0.00     0.029 A 
ATOM     51  N   UNL A   1      41.887  33.330  36.468  1.00  0.00    -0.354 N 
ATOM     52  C   UNL A   1      43.181  32.909  31.800  1.00  0.00     0.074 A 
ATOM     53  C   UNL A   1      44.516  32.989  32.356  1.00  0.00     0.031 C 
ATOM     54  C   UNL A   1      39.756  32.645  36.615  1.00  0.00     0.029 A 
ATOM     55  C   UNL A   1      40.640  33.776  36.913  1.00  0.00     0.049 A 
ATOM     56  H   UNL A   1      42.711  33.862  36.551  1.00  0.00     0.167 HD
ATOM     57  C   UNL A   1      42.719  33.218  30.559  1.00  0.00     0.034 A 
ATOM     58  C   UNL A   1      40.230  35.077  36.904  1.00  0.00     0.034 A 
ATOM     59  C   UNL A   1      41.299  33.116  30.385  1.00  0.00     0.049 A 
ATOM     60  C   UNL A   1      40.032  35.339  35.435  1.00  0.00     0.074 A 
ATOM     61  C   UNL A   1      40.396  32.185  29.920  1.00  0.00     0.029 A 
ATOM     62  N   UNL A   1      40.521  34.187  30.762  1.00  0.00    -0.354 N 
ATOM     63  N   UNL A   1      38.972  35.051  34.730  1.00  0.00    -0.248 NA
ATOM     64  C   UNL A   1      41.227  35.640  34.646  1.00  0.00     0.031 C 
ATOM     65  C   UNL A   1      39.133  32.566  30.472  1.00  0.00     0.029 A 
ATOM     66  C   UNL A   1      39.363  33.672  31.286  1.00  0.00     0.049 A 
ATOM     67  H   UNL A   1      40.752  35.140  30.673  1.00  0.00     0.167 HD
ATOM     68  C   UNL A   1      39.429  34.887  33.422  1.00  0.00     0.074 A 
ATOM     69  C   UNL A   1      40.819  35.297  33.434  1.00  0.00     0.031 C 
ATOM     70  C   UNL A   1      38.719  34.251  32.444  1.00  0.00     0.034 A 
BRANCH  57  71
ATOM     71  C   UNL A   1      43.543  33.725  29.436  1.00  0.00     0.023 A 
ATOM     72  C   UNL A   1      43.782  32.867  28.352  1.00  0.00     0.031 A 
ATOM     73  C   UNL A   1      44.268  34.920  29.506  1.00  0.00     0.131 A 
ATOM     74  C   UNL A   1      44.760  33.178  27.404  1.00  0.00     0.055 A 
ATOM     75  C   UNL A   1      45.232  35.241  28.544  1.00  0.00     0.041 A 
ATOM     76  F   UNL A   1      44.096  35.766  30.535  1.00  0.00    -0.206 F 
ATOM     77  C   UNL A   1      45.495  34.359  27.494  1.00  0.00     0.022 A 
BRANCH  74  78
ATOM     78  S   UNL A   1      45.114  31.951  26.119  1.00  0.00     0.124 S 
ATOM     79  O   UNL A   1      44.807  32.689  24.899  1.00  0.00    -0.237 OA
ATOM     80  O   UNL A   1      46.526  31.672  26.362  1.00  0.00    -0.237 OA
ATOM     81  O   UNL A   1      44.196  30.858  26.434  1.00  0.00    -0.744 OA
ENDBRANCH  74  78
ENDBRANCH  57  71
BRANCH  58  82
ATOM     82  C   UNL A   1      40.904  36.042  37.833  1.00  0.00     0.023 A 
ATOM     83  C   UNL A   1      40.119  36.647  38.838  1.00  0.00     0.031 A 
ATOM     84  C   UNL A   1      42.246  36.456  37.761  1.00  0.00     0.131 A 
ATOM     85  C   UNL A   1      40.682  37.560  39.751  1.00  0.00     0.055 A 
ATOM     86  C   UNL A   1      42.817  37.328  38.697  1.00  0.00     0.041 A 
ATOM     87  F   UNL A   1      43.064  36.036  36.787  1.00  0.00    -0.206 F 
ATOM     88  C   UNL A   1      42.038  37.879  39.705  1.00  0.00     0.022 A 
BRANCH  85  89
ATOM     89  S   UNL A   1      39.626  38.327  41.013  1.00  0.00     0.124 S 
ATOM     90  O   UNL A   1      39.277  37.189  41.855  1.00  0.00    -0.237 OA
ATOM     91  O   UNL A   1      40.518  39.316  41.610  1.00  0.00    -0.237 OA
ATOM     92  O   UNL A   1      38.520  38.888  40.238  1.00  0.00    -0.744 OA
ENDBRANCH  85  89
ENDBRANCH  58  82
BRANCH  70  93
ATOM     93  C   UNL A   1      37.289  33.950  32.752  1.00  0.00     0.023 A 
ATOM     94  C   UNL A   1      36.280  34.825  32.316  1.00  0.00     0.031 A 
ATOM     95  C   UNL A   1      36.908  32.786  33.439  1.00  0.00     0.131 A 
ATOM     96  C   UNL A   1      34.934  34.511  32.549  1.00  0.00     0.055 A 
ATOM     97  C   UNL A   1      35.566  32.460  33.637  1.00  0.00     0.041 A 
ATOM     98  F   UNL A   1      37.825  31.933  33.922  1.00  0.00    -0.206 F 
ATOM     99  C   UNL A   1      34.571  33.323  33.186  1.00  0.00     0.022 A 
BRANCH  96 100
ATOM    100  S   UNL A   1      33.650  35.656  31.974  1.00  0.00     0.124 S 
ATOM    101  O   UNL A   1      32.432  35.060  32.510  1.00  0.00    -0.237 OA
ATOM    102  O   UNL A   1      34.058  36.924  32.570  1.00  0.00    -0.237 OA
ATOM    103  O   UNL A   1      33.775  35.600  30.517  1.00  0.00    -0.744 OA
ENDBRANCH  96 100
ENDBRANCH  70  93
ENDBRANCH  44  45
ENDBRANCH  36  39
ENDBRANCH  34  35
ENDBRANCH  33  34
ENDBRANCH   1  33
TORSDOF 18
ENDMDL
