MODEL 1
REMARK VINA RESULT:     -11.0      0.000      0.000
REMARK SMILES Cc1cc(CC(=O)C(=O)NCCCCNC(=O)c2ccc(-c3c4nc(c(-c5cc(S(=O)(=O)[O-])ccc5F)c5ccc([nH]5)c(-c5cc(S(=O)(=O)[O-])ccc5F)c5nc(c(-c6cc(S(=O)(=O)[O-])ccc6F)c6ccc3[nH]6)C=C5)C=C4)cc2)cc2cn[nH]c12
REMARK SMILES IDX 13 1 12 2 11 3 10 4 8 5 9 6 6 8 7 9 5 10 4 11 1 12 2 13 3 14
REMARK SMILES IDX 86 15 82 16 85 17 81 18 83 19 84 20 14 22 15 23 16 24 17 26
REMARK SMILES IDX 18 27 19 28 80 29 20 30 79 31 21 32 22 33 23 34 73 35 24 36
REMARK SMILES IDX 78 37 72 38 74 39 25 40 77 41 71 42 70 43 26 45 58 46 38 47
REMARK SMILES IDX 57 48 39 49 42 50 56 51 75 52 40 53 41 54 55 56 76 57 43 58
REMARK SMILES IDX 27 59 28 60 36 61 29 62 35 63 37 64 34 65 30 66 31 67 32 68
REMARK SMILES IDX 33 69 59 70 60 71 68 72 61 73 67 74 69 75 66 76 62 77 63 78
REMARK SMILES IDX 64 79 65 80 44 81 45 82 53 83 46 84 52 85 54 86 51 87 47 88
REMARK SMILES IDX 48 89 49 90 50 91
REMARK H PARENT 10 7 85 21 15 25 74 44 42 55
REMARK Flexibility Score: inf
ROOT
ATOM      1  C   UNL A   1      42.679  20.969  27.264  1.00  0.00     0.023 C 
ENDROOT
BRANCH   1   2
ATOM      2  C   UNL A   1      42.579  19.479  26.886  1.00  0.00     0.023 C 
BRANCH   2   3
ATOM      3  C   UNL A   1      43.264  19.087  25.570  1.00  0.00     0.116 C 
BRANCH   3   4
ATOM      4  N   UNL A   1      44.706  19.024  25.724  1.00  0.00    -0.349 N 
ATOM      5  C   UNL A   1      45.691  19.766  25.111  1.00  0.00     0.287 C 
ATOM      6  O   UNL A   1      46.867  19.430  25.212  1.00  0.00    -0.266 OA
ATOM      7  H   UNL A   1      45.029  18.349  26.363  1.00  0.00     0.163 HD
BRANCH   5   8
ATOM      8  C   UNL A   1      45.345  21.001  24.269  1.00  0.00     0.224 C 
ATOM      9  O   UNL A   1      44.512  20.946  23.370  1.00  0.00    -0.288 OA
BRANCH   8  10
ATOM     10  C   UNL A   1      46.207  22.224  24.480  1.00  0.00     0.122 C 
BRANCH  10  11
ATOM     11  C   UNL A   1      45.658  23.280  25.410  1.00  0.00    -0.039 A 
ATOM     12  C   UNL A   1      43.039  26.066  25.207  1.00  0.00     0.047 C 
ATOM     13  C   UNL A   1      44.076  25.143  25.772  1.00  0.00    -0.025 A 
ATOM     14  C   UNL A   1      44.663  24.159  24.950  1.00  0.00     0.009 A 
ATOM     15  C   UNL A   1      44.543  25.186  27.094  1.00  0.00     0.068 A 
ATOM     16  C   UNL A   1      45.522  24.332  27.590  1.00  0.00     0.020 A 
ATOM     17  N   UNL A   1      44.231  26.010  28.147  1.00  0.00    -0.278 N 
ATOM     18  C   UNL A   1      46.097  23.367  26.741  1.00  0.00     0.016 A 
ATOM     19  C   UNL A   1      45.674  24.713  28.943  1.00  0.00     0.143 A 
ATOM     20  N   UNL A   1      44.821  25.672  29.303  1.00  0.00    -0.183 NA
ATOM     21  H   UNL A   1      43.625  26.781  28.062  1.00  0.00     0.190 HD
ENDBRANCH  10  11
ENDBRANCH   8  10
ENDBRANCH   5   8
ENDBRANCH   3   4
ENDBRANCH   2   3
ENDBRANCH   1   2
BRANCH   1  22
ATOM     22  C   UNL A   1      42.197  21.927  26.180  1.00  0.00     0.116 C 
BRANCH  22  23
ATOM     23  N   UNL A   1      40.776  21.764  25.881  1.00  0.00    -0.352 N 
ATOM     24  C   UNL A   1      39.711  22.472  26.391  1.00  0.00     0.251 C 
ATOM     25  H   UNL A   1      40.552  21.058  25.232  1.00  0.00     0.163 HD
ATOM     26  O   UNL A   1      38.573  22.000  26.343  1.00  0.00    -0.269 OA
BRANCH  24  27
ATOM     27  C   UNL A   1      39.938  23.803  26.979  1.00  0.00     0.039 A 
ATOM     28  C   UNL A   1      39.156  24.901  26.600  1.00  0.00     0.014 A 
ATOM     29  C   UNL A   1      40.977  23.953  27.897  1.00  0.00     0.014 A 
ATOM     30  C   UNL A   1      39.394  26.137  27.196  1.00  0.00     0.010 A 
ATOM     31  C   UNL A   1      41.132  25.137  28.572  1.00  0.00     0.010 A 
ATOM     32  C   UNL A   1      40.382  26.240  28.184  1.00  0.00    -0.014 A 
BRANCH  32  33
ATOM     33  C   UNL A   1      40.628  27.497  28.873  1.00  0.00     0.031 A 
ATOM     34  C   UNL A   1      41.626  28.384  28.224  1.00  0.00     0.074 A 
ATOM     35  C   UNL A   1      39.830  27.926  29.872  1.00  0.00     0.049 A 
ATOM     36  N   UNL A   1      42.834  28.634  28.609  1.00  0.00    -0.248 NA
ATOM     37  C   UNL A   1      41.297  28.942  26.904  1.00  0.00     0.031 C 
ATOM     38  C   UNL A   1      38.585  27.314  30.357  1.00  0.00     0.029 A 
ATOM     39  N   UNL A   1      39.904  29.074  30.593  1.00  0.00    -0.354 N 
ATOM     40  C   UNL A   1      43.338  29.563  27.700  1.00  0.00     0.074 A 
ATOM     41  C   UNL A   1      42.442  29.541  26.572  1.00  0.00     0.031 C 
ATOM     42  C   UNL A   1      37.916  28.202  31.124  1.00  0.00     0.029 A 
ATOM     43  C   UNL A   1      38.762  29.364  31.326  1.00  0.00     0.049 A 
ATOM     44  H   UNL A   1      40.701  29.653  30.596  1.00  0.00     0.167 HD
ATOM     45  C   UNL A   1      44.300  30.463  28.059  1.00  0.00     0.034 A 
ATOM     46  C   UNL A   1      38.516  30.499  32.022  1.00  0.00     0.034 A 
ATOM     47  C   UNL A   1      44.793  30.178  29.379  1.00  0.00     0.049 A 
ATOM     48  C   UNL A   1      39.814  31.162  32.269  1.00  0.00     0.074 A 
ATOM     49  C   UNL A   1      45.547  29.187  29.966  1.00  0.00     0.029 A 
ATOM     50  N   UNL A   1      44.157  30.856  30.391  1.00  0.00    -0.354 N 
ATOM     51  N   UNL A   1      40.743  30.671  33.042  1.00  0.00    -0.248 NA
ATOM     52  C   UNL A   1      40.257  32.190  31.338  1.00  0.00     0.031 C 
ATOM     53  C   UNL A   1      45.060  29.086  31.301  1.00  0.00     0.029 A 
ATOM     54  C   UNL A   1      44.063  30.047  31.489  1.00  0.00     0.049 A 
ATOM     55  H   UNL A   1      43.821  31.780  30.333  1.00  0.00     0.167 HD
ATOM     56  C   UNL A   1      41.928  30.984  32.397  1.00  0.00     0.074 A 
ATOM     57  C   UNL A   1      41.579  32.047  31.459  1.00  0.00     0.031 C 
ATOM     58  C   UNL A   1      43.004  30.150  32.476  1.00  0.00     0.034 A 
BRANCH  45  59
ATOM     59  C   UNL A   1      44.500  31.831  27.442  1.00  0.00     0.023 A 
ATOM     60  C   UNL A   1      43.779  32.968  27.842  1.00  0.00     0.031 A 
ATOM     61  C   UNL A   1      45.612  32.072  26.604  1.00  0.00     0.131 A 
ATOM     62  C   UNL A   1      44.150  34.256  27.432  1.00  0.00     0.055 A 
ATOM     63  C   UNL A   1      46.021  33.362  26.246  1.00  0.00     0.041 A 
ATOM     64  F   UNL A   1      46.373  31.060  26.158  1.00  0.00    -0.206 F 
ATOM     65  C   UNL A   1      45.290  34.466  26.664  1.00  0.00     0.022 A 
BRANCH  62  66
ATOM     66  S   UNL A   1      43.164  35.694  27.935  1.00  0.00     0.124 S 
ATOM     67  O   UNL A   1      42.645  36.165  26.655  1.00  0.00    -0.237 OA
ATOM     68  O   UNL A   1      42.186  35.082  28.831  1.00  0.00    -0.237 OA
ATOM     69  O   UNL A   1      44.139  36.564  28.586  1.00  0.00    -0.744 OA
ENDBRANCH  62  66
ENDBRANCH  45  59
BRANCH  46  70
ATOM     70  C   UNL A   1      37.230  31.220  32.126  1.00  0.00     0.023 A 
ATOM     71  C   UNL A   1      36.571  31.635  30.954  1.00  0.00     0.031 A 
ATOM     72  C   UNL A   1      36.808  31.783  33.341  1.00  0.00     0.131 A 
ATOM     73  C   UNL A   1      35.582  32.624  31.009  1.00  0.00     0.055 A 
ATOM     74  C   UNL A   1      35.804  32.758  33.397  1.00  0.00     0.041 A 
ATOM     75  F   UNL A   1      37.411  31.448  34.492  1.00  0.00    -0.206 F 
ATOM     76  C   UNL A   1      35.197  33.196  32.222  1.00  0.00     0.022 A 
BRANCH  73  77
ATOM     77  S   UNL A   1      34.824  33.238  29.480  1.00  0.00     0.124 S 
ATOM     78  O   UNL A   1      33.706  34.030  29.987  1.00  0.00    -0.237 OA
ATOM     79  O   UNL A   1      35.921  34.000  28.892  1.00  0.00    -0.237 OA
ATOM     80  O   UNL A   1      34.448  32.015  28.775  1.00  0.00    -0.744 OA
ENDBRANCH  73  77
ENDBRANCH  46  70
BRANCH  58  81
ATOM     81  C   UNL A   1      43.012  29.095  33.553  1.00  0.00     0.023 A 
ATOM     82  C   UNL A   1      43.521  29.482  34.801  1.00  0.00     0.031 A 
ATOM     83  C   UNL A   1      42.769  27.727  33.335  1.00  0.00     0.131 A 
ATOM     84  C   UNL A   1      43.831  28.517  35.762  1.00  0.00     0.055 A 
ATOM     85  C   UNL A   1      43.018  26.771  34.324  1.00  0.00     0.041 A 
ATOM     86  F   UNL A   1      42.369  27.268  32.144  1.00  0.00    -0.206 F 
ATOM     87  C   UNL A   1      43.570  27.161  35.540  1.00  0.00     0.022 A 
BRANCH  84  88
ATOM     88  S   UNL A   1      44.716  28.991  37.267  1.00  0.00     0.124 S 
ATOM     89  O   UNL A   1      43.927  30.122  37.749  1.00  0.00    -0.237 OA
ATOM     90  O   UNL A   1      44.625  27.775  38.071  1.00  0.00    -0.237 OA
ATOM     91  O   UNL A   1      46.059  29.325  36.799  1.00  0.00    -0.744 OA
ENDBRANCH  84  88
ENDBRANCH  58  81
ENDBRANCH  32  33
ENDBRANCH  24  27
ENDBRANCH  22  23
ENDBRANCH   1  22
TORSDOF 16
ENDMDL
MODEL 2
REMARK VINA RESULT:     -10.9      3.373     11.374
REMARK SMILES Cc1cc(CC(=O)C(=O)NCCCCNC(=O)c2ccc(-c3c4nc(c(-c5cc(S(=O)(=O)[O-])ccc5F)c5ccc([nH]5)c(-c5cc(S(=O)(=O)[O-])ccc5F)c5nc(c(-c6cc(S(=O)(=O)[O-])ccc6F)c6ccc3[nH]6)C=C5)C=C4)cc2)cc2cn[nH]c12
REMARK SMILES IDX 13 1 12 2 11 3 10 4 8 5 9 6 6 8 7 9 5 10 4 11 1 12 2 13 3 14
REMARK SMILES IDX 86 15 82 16 85 17 81 18 83 19 84 20 14 22 15 23 16 24 17 26
REMARK SMILES IDX 18 27 19 28 80 29 20 30 79 31 21 32 22 33 23 34 73 35 24 36
REMARK SMILES IDX 78 37 72 38 74 39 25 40 77 41 71 42 70 43 26 45 58 46 38 47
REMARK SMILES IDX 57 48 39 49 42 50 56 51 75 52 40 53 41 54 55 56 76 57 43 58
REMARK SMILES IDX 27 59 28 60 36 61 29 62 35 63 37 64 34 65 30 66 31 67 32 68
REMARK SMILES IDX 33 69 59 70 60 71 68 72 61 73 67 74 69 75 66 76 62 77 63 78
REMARK SMILES IDX 64 79 65 80 44 81 45 82 53 83 46 84 52 85 54 86 51 87 47 88
REMARK SMILES IDX 48 89 49 90 50 91
REMARK H PARENT 10 7 85 21 15 25 74 44 42 55
REMARK Flexibility Score: inf
ROOT
ATOM      1  C   UNL A   1      34.785  35.038  27.991  1.00  0.00     0.023 C 
ENDROOT
BRANCH   1   2
ATOM      2  C   UNL A   1      33.946  36.136  28.672  1.00  0.00     0.023 C 
BRANCH   2   3
ATOM      3  C   UNL A   1      33.342  35.753  30.030  1.00  0.00     0.116 C 
BRANCH   3   4
ATOM      4  N   UNL A   1      33.602  36.773  31.030  1.00  0.00    -0.349 N 
ATOM      5  C   UNL A   1      34.030  36.643  32.333  1.00  0.00     0.287 C 
ATOM      6  O   UNL A   1      33.994  37.607  33.092  1.00  0.00    -0.266 OA
ATOM      7  H   UNL A   1      33.450  37.699  30.732  1.00  0.00     0.163 HD
BRANCH   5   8
ATOM      8  C   UNL A   1      34.526  35.296  32.872  1.00  0.00     0.224 C 
ATOM      9  O   UNL A   1      33.827  34.607  33.609  1.00  0.00    -0.288 OA
BRANCH   8  10
ATOM     10  C   UNL A   1      35.973  34.953  32.602  1.00  0.00     0.122 C 
BRANCH  10  11
ATOM     11  C   UNL A   1      36.458  33.625  33.131  1.00  0.00    -0.039 A 
ATOM     12  C   UNL A   1      36.464  29.992  31.921  1.00  0.00     0.047 C 
ATOM     13  C   UNL A   1      36.727  31.194  32.775  1.00  0.00    -0.025 A 
ATOM     14  C   UNL A   1      36.267  32.461  32.365  1.00  0.00     0.009 A 
ATOM     15  C   UNL A   1      37.403  31.163  34.004  1.00  0.00     0.068 A 
ATOM     16  C   UNL A   1      37.618  32.291  34.790  1.00  0.00     0.020 A 
ATOM     17  N   UNL A   1      37.955  30.128  34.719  1.00  0.00    -0.278 N 
ATOM     18  C   UNL A   1      37.136  33.541  34.357  1.00  0.00     0.016 A 
ATOM     19  C   UNL A   1      38.333  31.812  35.911  1.00  0.00     0.143 A 
ATOM     20  N   UNL A   1      38.617  30.512  35.820  1.00  0.00    -0.183 NA
ATOM     21  H   UNL A   1      37.871  29.186  34.446  1.00  0.00     0.190 HD
ENDBRANCH  10  11
ENDBRANCH   8  10
ENDBRANCH   5   8
ENDBRANCH   3   4
ENDBRANCH   2   3
ENDBRANCH   1   2
BRANCH   1  22
ATOM     22  C   UNL A   1      35.056  33.819  28.865  1.00  0.00     0.116 C 
BRANCH  22  23
ATOM     23  N   UNL A   1      34.169  32.700  28.552  1.00  0.00    -0.352 N 
ATOM     24  C   UNL A   1      34.510  31.439  28.117  1.00  0.00     0.251 C 
ATOM     25  H   UNL A   1      33.206  32.869  28.668  1.00  0.00     0.163 HD
ATOM     26  O   UNL A   1      33.675  30.733  27.548  1.00  0.00    -0.269 OA
BRANCH  24  27
ATOM     27  C   UNL A   1      35.873  30.933  28.350  1.00  0.00     0.039 A 
ATOM     28  C   UNL A   1      36.887  31.782  28.814  1.00  0.00     0.014 A 
ATOM     29  C   UNL A   1      36.141  29.595  28.064  1.00  0.00     0.014 A 
ATOM     30  C   UNL A   1      38.157  31.256  29.039  1.00  0.00     0.010 A 
ATOM     31  C   UNL A   1      37.355  29.050  28.400  1.00  0.00     0.010 A 
ATOM     32  C   UNL A   1      38.376  29.887  28.832  1.00  0.00    -0.014 A 
BRANCH  32  33
ATOM     33  C   UNL A   1      39.670  29.283  29.106  1.00  0.00     0.031 A 
ATOM     34  C   UNL A   1      39.921  28.955  30.532  1.00  0.00     0.074 A 
ATOM     35  C   UNL A   1      40.463  28.826  28.115  1.00  0.00     0.049 A 
ATOM     36  N   UNL A   1      40.708  29.562  31.358  1.00  0.00    -0.248 NA
ATOM     37  C   UNL A   1      39.082  27.923  31.160  1.00  0.00     0.031 C 
ATOM     38  C   UNL A   1      40.160  28.754  26.679  1.00  0.00     0.029 A 
ATOM     39  N   UNL A   1      41.674  28.218  28.200  1.00  0.00    -0.354 N 
ATOM     40  C   UNL A   1      40.635  28.843  32.551  1.00  0.00     0.074 A 
ATOM     41  C   UNL A   1      39.472  27.999  32.434  1.00  0.00     0.031 C 
ATOM     42  C   UNL A   1      41.053  27.943  26.071  1.00  0.00     0.029 A 
ATOM     43  C   UNL A   1      42.083  27.592  27.031  1.00  0.00     0.049 A 
ATOM     44  H   UNL A   1      42.218  28.222  29.021  1.00  0.00     0.167 HD
ATOM     45  C   UNL A   1      41.680  28.805  33.428  1.00  0.00     0.034 A 
ATOM     46  C   UNL A   1      43.175  26.807  26.875  1.00  0.00     0.034 A 
ATOM     47  C   UNL A   1      42.713  29.720  33.023  1.00  0.00     0.049 A 
ATOM     48  C   UNL A   1      44.101  27.104  27.989  1.00  0.00     0.074 A 
ATOM     49  C   UNL A   1      42.859  31.088  32.955  1.00  0.00     0.029 A 
ATOM     50  N   UNL A   1      43.697  29.168  32.239  1.00  0.00    -0.354 N 
ATOM     51  N   UNL A   1      44.714  28.245  28.136  1.00  0.00    -0.248 NA
ATOM     52  C   UNL A   1      44.046  26.268  29.179  1.00  0.00     0.031 C 
ATOM     53  C   UNL A   1      43.722  31.318  31.845  1.00  0.00     0.029 A 
ATOM     54  C   UNL A   1      44.103  30.084  31.309  1.00  0.00     0.049 A 
ATOM     55  H   UNL A   1      44.053  28.255  32.332  1.00  0.00     0.167 HD
ATOM     56  C   UNL A   1      44.713  28.462  29.504  1.00  0.00     0.074 A 
ATOM     57  C   UNL A   1      44.444  27.155  30.094  1.00  0.00     0.031 C 
ATOM     58  C   UNL A   1      44.635  29.728  30.006  1.00  0.00     0.034 A 
BRANCH  45  59
ATOM     59  C   UNL A   1      41.986  27.674  34.385  1.00  0.00     0.023 A 
ATOM     60  C   UNL A   1      42.679  26.512  34.006  1.00  0.00     0.031 A 
ATOM     61  C   UNL A   1      41.807  27.857  35.775  1.00  0.00     0.131 A 
ATOM     62  C   UNL A   1      43.160  25.600  34.955  1.00  0.00     0.055 A 
ATOM     63  C   UNL A   1      42.342  26.980  36.726  1.00  0.00     0.041 A 
ATOM     64  F   UNL A   1      41.158  28.930  36.253  1.00  0.00    -0.206 F 
ATOM     65  C   UNL A   1      43.028  25.843  36.318  1.00  0.00     0.022 A 
BRANCH  62  66
ATOM     66  S   UNL A   1      44.009  24.088  34.421  1.00  0.00     0.124 S 
ATOM     67  O   UNL A   1      43.028  23.060  34.750  1.00  0.00    -0.237 OA
ATOM     68  O   UNL A   1      44.204  24.347  32.996  1.00  0.00    -0.237 OA
ATOM     69  O   UNL A   1      45.230  24.083  35.222  1.00  0.00    -0.744 OA
ENDBRANCH  62  66
ENDBRANCH  45  59
BRANCH  46  70
ATOM     70  C   UNL A   1      43.277  25.569  26.074  1.00  0.00     0.023 A 
ATOM     71  C   UNL A   1      42.467  24.465  26.398  1.00  0.00     0.031 A 
ATOM     72  C   UNL A   1      44.366  25.344  25.217  1.00  0.00     0.131 A 
ATOM     73  C   UNL A   1      42.791  23.186  25.930  1.00  0.00     0.055 A 
ATOM     74  C   UNL A   1      44.678  24.068  24.734  1.00  0.00     0.041 A 
ATOM     75  F   UNL A   1      45.192  26.350  24.888  1.00  0.00    -0.206 F 
ATOM     76  C   UNL A   1      43.896  22.977  25.105  1.00  0.00     0.022 A 
BRANCH  73  77
ATOM     77  S   UNL A   1      41.811  21.751  26.452  1.00  0.00     0.124 S 
ATOM     78  O   UNL A   1      42.365  20.683  25.623  1.00  0.00    -0.237 OA
ATOM     79  O   UNL A   1      42.131  21.676  27.874  1.00  0.00    -0.237 OA
ATOM     80  O   UNL A   1      40.442  22.142  26.126  1.00  0.00    -0.744 OA
ENDBRANCH  73  77
ENDBRANCH  46  70
BRANCH  58  81
ATOM     81  C   UNL A   1      44.921  30.883  29.081  1.00  0.00     0.023 A 
ATOM     82  C   UNL A   1      46.227  31.395  29.107  1.00  0.00     0.031 A 
ATOM     83  C   UNL A   1      43.941  31.613  28.385  1.00  0.00     0.131 A 
ATOM     84  C   UNL A   1      46.511  32.625  28.508  1.00  0.00     0.055 A 
ATOM     85  C   UNL A   1      44.244  32.810  27.730  1.00  0.00     0.041 A 
ATOM     86  F   UNL A   1      42.656  31.239  28.388  1.00  0.00    -0.206 F 
ATOM     87  C   UNL A   1      45.531  33.332  27.805  1.00  0.00     0.022 A 
BRANCH  84  88
ATOM     88  S   UNL A   1      48.127  33.399  28.756  1.00  0.00     0.124 S 
ATOM     89  O   UNL A   1      48.368  33.169  30.178  1.00  0.00    -0.237 OA
ATOM     90  O   UNL A   1      48.975  32.635  27.845  1.00  0.00    -0.237 OA
ATOM     91  O   UNL A   1      47.913  34.794  28.380  1.00  0.00    -0.744 OA
ENDBRANCH  84  88
ENDBRANCH  58  81
ENDBRANCH  32  33
ENDBRANCH  24  27
ENDBRANCH  22  23
ENDBRANCH   1  22
TORSDOF 16
ENDMDL
MODEL 3
REMARK VINA RESULT:     -10.7      4.131     10.219
REMARK SMILES Cc1cc(CC(=O)C(=O)NCCCCNC(=O)c2ccc(-c3c4nc(c(-c5cc(S(=O)(=O)[O-])ccc5F)c5ccc([nH]5)c(-c5cc(S(=O)(=O)[O-])ccc5F)c5nc(c(-c6cc(S(=O)(=O)[O-])ccc6F)c6ccc3[nH]6)C=C5)C=C4)cc2)cc2cn[nH]c12
REMARK SMILES IDX 13 1 12 2 11 3 10 4 8 5 9 6 6 8 7 9 5 10 4 11 1 12 2 13 3 14
REMARK SMILES IDX 86 15 82 16 85 17 81 18 83 19 84 20 14 22 15 23 16 24 17 26
REMARK SMILES IDX 18 27 19 28 80 29 20 30 79 31 21 32 22 33 23 34 73 35 24 36
REMARK SMILES IDX 78 37 72 38 74 39 25 40 77 41 71 42 70 43 26 45 58 46 38 47
REMARK SMILES IDX 57 48 39 49 42 50 56 51 75 52 40 53 41 54 55 56 76 57 43 58
REMARK SMILES IDX 27 59 28 60 36 61 29 62 35 63 37 64 34 65 30 66 31 67 32 68
REMARK SMILES IDX 33 69 59 70 60 71 68 72 61 73 67 74 69 75 66 76 62 77 63 78
REMARK SMILES IDX 64 79 65 80 44 81 45 82 53 83 46 84 52 85 54 86 51 87 47 88
REMARK SMILES IDX 48 89 49 90 50 91
REMARK H PARENT 10 7 85 21 15 25 74 44 42 55
REMARK Flexibility Score: inf
ROOT
ATOM      1  C   UNL A   1      32.990  30.008  27.196  1.00  0.00     0.023 C 
ENDROOT
BRANCH   1   2
ATOM      2  C   UNL A   1      31.986  30.572  26.174  1.00  0.00     0.023 C 
BRANCH   2   3
ATOM      3  C   UNL A   1      31.457  29.562  25.146  1.00  0.00     0.116 C 
BRANCH   3   4
ATOM      4  N   UNL A   1      32.439  29.299  24.110  1.00  0.00    -0.349 N 
ATOM      5  C   UNL A   1      33.072  28.124  23.772  1.00  0.00     0.287 C 
ATOM      6  O   UNL A   1      34.027  28.137  23.002  1.00  0.00    -0.266 OA
ATOM      7  H   UNL A   1      32.691  30.079  23.565  1.00  0.00     0.163 HD
BRANCH   5   8
ATOM      8  C   UNL A   1      32.623  26.783  24.369  1.00  0.00     0.224 C 
ATOM      9  O   UNL A   1      31.672  26.164  23.902  1.00  0.00    -0.288 OA
BRANCH   8  10
ATOM     10  C   UNL A   1      33.287  26.364  25.660  1.00  0.00     0.122 C 
BRANCH  10  11
ATOM     11  C   UNL A   1      34.050  25.061  25.630  1.00  0.00    -0.039 A 
ATOM     12  C   UNL A   1      33.984  21.762  27.572  1.00  0.00     0.047 C 
ATOM     13  C   UNL A   1      34.364  22.789  26.550  1.00  0.00    -0.025 A 
ATOM     14  C   UNL A   1      33.723  24.044  26.544  1.00  0.00     0.009 A 
ATOM     15  C   UNL A   1      35.354  22.609  25.572  1.00  0.00     0.068 A 
ATOM     16  C   UNL A   1      35.704  23.587  24.646  1.00  0.00     0.020 A 
ATOM     17  N   UNL A   1      36.188  21.553  25.298  1.00  0.00    -0.278 N 
ATOM     18  C   UNL A   1      35.052  24.835  24.673  1.00  0.00     0.016 A 
ATOM     19  C   UNL A   1      36.715  22.987  23.861  1.00  0.00     0.143 A 
ATOM     20  N   UNL A   1      36.941  21.717  24.201  1.00  0.00    -0.183 NA
ATOM     21  H   UNL A   1      36.229  20.746  25.859  1.00  0.00     0.190 HD
ENDBRANCH  10  11
ENDBRANCH   8  10
ENDBRANCH   5   8
ENDBRANCH   3   4
ENDBRANCH   2   3
ENDBRANCH   1   2
BRANCH   1  22
ATOM     22  C   UNL A   1      34.308  30.770  27.272  1.00  0.00     0.116 C 
BRANCH  22  23
ATOM     23  N   UNL A   1      34.285  31.825  28.284  1.00  0.00    -0.352 N 
ATOM     24  C   UNL A   1      35.043  31.922  29.429  1.00  0.00     0.251 C 
ATOM     25  H   UNL A   1      33.649  32.558  28.126  1.00  0.00     0.163 HD
ATOM     26  O   UNL A   1      34.673  32.645  30.357  1.00  0.00    -0.269 OA
BRANCH  24  27
ATOM     27  C   UNL A   1      36.306  31.172  29.532  1.00  0.00     0.039 A 
ATOM     28  C   UNL A   1      36.308  29.794  29.784  1.00  0.00     0.014 A 
ATOM     29  C   UNL A   1      37.505  31.874  29.407  1.00  0.00     0.014 A 
ATOM     30  C   UNL A   1      37.526  29.122  29.853  1.00  0.00     0.010 A 
ATOM     31  C   UNL A   1      38.696  31.195  29.354  1.00  0.00     0.010 A 
ATOM     32  C   UNL A   1      38.712  29.833  29.632  1.00  0.00    -0.014 A 
BRANCH  32  33
ATOM     33  C   UNL A   1      40.003  29.165  29.640  1.00  0.00     0.031 A 
ATOM     34  C   UNL A   1      40.575  28.919  30.988  1.00  0.00     0.074 A 
ATOM     35  C   UNL A   1      40.511  28.590  28.531  1.00  0.00     0.049 A 
ATOM     36  N   UNL A   1      41.565  29.526  31.553  1.00  0.00    -0.248 NA
ATOM     37  C   UNL A   1      39.863  27.990  31.879  1.00  0.00     0.031 C 
ATOM     38  C   UNL A   1      39.868  28.441  27.218  1.00  0.00     0.029 A 
ATOM     39  N   UNL A   1      41.676  27.911  28.376  1.00  0.00    -0.354 N 
ATOM     40  C   UNL A   1      41.747  28.896  32.783  1.00  0.00     0.074 A 
ATOM     41  C   UNL A   1      40.551  28.126  33.014  1.00  0.00     0.031 C 
ATOM     42  C   UNL A   1      40.548  27.534  26.484  1.00  0.00     0.029 A 
ATOM     43  C   UNL A   1      41.761  27.180  27.199  1.00  0.00     0.049 A 
ATOM     44  H   UNL A   1      42.401  27.934  29.042  1.00  0.00     0.167 HD
ATOM     45  C   UNL A   1      42.970  28.849  33.388  1.00  0.00     0.034 A 
ATOM     46  C   UNL A   1      42.744  26.317  26.854  1.00  0.00     0.034 A 
ATOM     47  C   UNL A   1      43.918  29.664  32.677  1.00  0.00     0.049 A 
ATOM     48  C   UNL A   1      43.925  26.626  27.689  1.00  0.00     0.074 A 
ATOM     49  C   UNL A   1      44.109  31.011  32.465  1.00  0.00     0.029 A 
ATOM     50  N   UNL A   1      44.656  28.996  31.731  1.00  0.00    -0.354 N 
ATOM     51  N   UNL A   1      44.609  27.732  27.593  1.00  0.00    -0.248 NA
ATOM     52  C   UNL A   1      44.118  25.878  28.923  1.00  0.00     0.031 C 
ATOM     53  C   UNL A   1      44.688  31.107  31.168  1.00  0.00     0.029 A 
ATOM     54  C   UNL A   1      44.869  29.818  30.659  1.00  0.00     0.049 A 
ATOM     55  H   UNL A   1      44.979  28.069  31.811  1.00  0.00     0.167 HD
ATOM     56  C   UNL A   1      44.948  28.040  28.900  1.00  0.00     0.074 A 
ATOM     57  C   UNL A   1      44.767  26.797  29.642  1.00  0.00     0.031 C 
ATOM     58  C   UNL A   1      45.054  29.340  29.302  1.00  0.00     0.034 A 
BRANCH  45  59
ATOM     59  C   UNL A   1      43.443  27.768  34.335  1.00  0.00     0.023 A 
ATOM     60  C   UNL A   1      43.423  26.400  34.012  1.00  0.00     0.031 A 
ATOM     61  C   UNL A   1      44.167  28.114  35.498  1.00  0.00     0.131 A 
ATOM     62  C   UNL A   1      44.085  25.449  34.800  1.00  0.00     0.055 A 
ATOM     63  C   UNL A   1      44.883  27.173  36.249  1.00  0.00     0.041 A 
ATOM     64  F   UNL A   1      44.253  29.390  35.904  1.00  0.00    -0.206 F 
ATOM     65  C   UNL A   1      44.847  25.829  35.899  1.00  0.00     0.022 A 
BRANCH  62  66
ATOM     66  S   UNL A   1      43.995  23.688  34.373  1.00  0.00     0.124 S 
ATOM     67  O   UNL A   1      45.025  23.116  35.234  1.00  0.00    -0.237 OA
ATOM     68  O   UNL A   1      42.616  23.367  34.733  1.00  0.00    -0.237 OA
ATOM     69  O   UNL A   1      44.280  23.670  32.941  1.00  0.00    -0.744 OA
ENDBRANCH  62  66
ENDBRANCH  45  59
BRANCH  46  70
ATOM     70  C   UNL A   1      42.591  25.023  26.155  1.00  0.00     0.023 A 
ATOM     71  C   UNL A   1      41.606  24.115  26.586  1.00  0.00     0.031 A 
ATOM     72  C   UNL A   1      43.589  24.537  25.296  1.00  0.00     0.131 A 
ATOM     73  C   UNL A   1      41.675  22.766  26.218  1.00  0.00     0.055 A 
ATOM     74  C   UNL A   1      43.646  23.191  24.912  1.00  0.00     0.041 A 
ATOM     75  F   UNL A   1      44.571  25.345  24.868  1.00  0.00    -0.206 F 
ATOM     76  C   UNL A   1      42.693  22.294  25.389  1.00  0.00     0.022 A 
BRANCH  73  77
ATOM     77  S   UNL A   1      40.471  21.580  26.877  1.00  0.00     0.124 S 
ATOM     78  O   UNL A   1      39.199  22.199  26.512  1.00  0.00    -0.237 OA
ATOM     79  O   UNL A   1      40.817  20.368  26.143  1.00  0.00    -0.237 OA
ATOM     80  O   UNL A   1      40.764  21.564  28.308  1.00  0.00    -0.744 OA
ENDBRANCH  73  77
ENDBRANCH  46  70
BRANCH  58  81
ATOM     81  C   UNL A   1      45.165  30.408  28.244  1.00  0.00     0.023 A 
ATOM     82  C   UNL A   1      46.461  30.828  27.914  1.00  0.00     0.031 A 
ATOM     83  C   UNL A   1      44.083  31.156  27.746  1.00  0.00     0.131 A 
ATOM     84  C   UNL A   1      46.653  31.993  27.167  1.00  0.00     0.055 A 
ATOM     85  C   UNL A   1      44.278  32.283  26.942  1.00  0.00     0.041 A 
ATOM     86  F   UNL A   1      42.820  30.873  28.087  1.00  0.00    -0.206 F 
ATOM     87  C   UNL A   1      45.569  32.718  26.664  1.00  0.00     0.022 A 
BRANCH  84  88
ATOM     88  S   UNL A   1      48.318  32.669  26.956  1.00  0.00     0.124 S 
ATOM     89  O   UNL A   1      49.089  31.485  26.582  1.00  0.00    -0.237 OA
ATOM     90  O   UNL A   1      48.117  33.649  25.892  1.00  0.00    -0.237 OA
ATOM     91  O   UNL A   1      48.641  33.231  28.264  1.00  0.00    -0.744 OA
ENDBRANCH  84  88
ENDBRANCH  58  81
ENDBRANCH  32  33
ENDBRANCH  24  27
ENDBRANCH  22  23
ENDBRANCH   1  22
TORSDOF 16
ENDMDL
