MODEL 1
REMARK VINA RESULT:     -10.9      0.000      0.000
REMARK SMILES CN(CC(N)=O)S(=O)(=O)c1ccc(C(=O)NCCCCNC(=O)c2ccc(-c3c4nc(c(-c5cc(S(=O)(=O)[O-])ccc5F)c5ccc([nH]5)c(-c5cc(S(=O)(=O)[O-])ccc5F)c5nc(c(-c6cc(S(=O)(=O)[O-])ccc6F)c6ccc3[nH]6)C=C5)C=C4)cc2)cc1Br
REMARK SMILES IDX 18 1 17 2 16 3 14 4 15 5 13 7 10 8 11 9 88 10 12 11 87 12
REMARK SMILES IDX 89 13 7 14 8 15 9 16 2 17 1 18 3 19 4 20 5 21 6 22 19 25
REMARK SMILES IDX 20 26 21 27 22 28 23 30 24 31 25 32 86 33 26 34 85 35 27 36
REMARK SMILES IDX 28 37 29 38 79 39 30 40 84 41 78 42 80 43 31 44 83 45 77 46
REMARK SMILES IDX 76 47 32 49 64 50 44 51 63 52 45 53 48 54 62 55 81 56 46 57
REMARK SMILES IDX 47 58 61 60 82 61 49 62 33 63 34 64 42 65 35 66 41 67 43 68
REMARK SMILES IDX 40 69 36 70 37 71 38 72 39 73 65 74 66 75 74 76 67 77 73 78
REMARK SMILES IDX 75 79 72 80 68 81 69 82 70 83 71 84 50 85 51 86 59 87 52 88
REMARK SMILES IDX 58 89 60 90 57 91 53 92 54 93 55 94 56 95
REMARK H PARENT 16 6 5 23 5 24 21 29 80 48 48 59
REMARK Flexibility Score: inf
ROOT
ATOM      1  C   UNL A   1      34.563  30.738  28.218  1.00  0.00     0.023 C 
ENDROOT
BRANCH   1   2
ATOM      2  C   UNL A   1      34.663  29.412  27.458  1.00  0.00     0.116 C 
BRANCH   2   3
ATOM      3  N   UNL A   1      34.269  29.584  26.074  1.00  0.00    -0.352 N 
ATOM      4  C   UNL A   1      33.653  28.770  25.161  1.00  0.00     0.251 C 
ATOM      5  O   UNL A   1      33.481  29.235  24.032  1.00  0.00    -0.269 OA
ATOM      6  H   UNL A   1      34.490  30.473  25.715  1.00  0.00     0.163 HD
BRANCH   4   7
ATOM      7  C   UNL A   1      33.164  27.382  25.436  1.00  0.00     0.041 A 
ATOM      8  C   UNL A   1      32.466  24.684  25.936  1.00  0.00     0.096 A 
ATOM      9  C   UNL A   1      33.790  25.031  25.638  1.00  0.00     0.024 A 
ATOM     10  C   UNL A   1      31.487  25.676  25.960  1.00  0.00     0.038 A 
ATOM     11  C   UNL A   1      34.127  26.360  25.375  1.00  0.00     0.015 A 
ATOM     12  C   UNL A   1      31.855  27.018  25.760  1.00  0.00     0.031 A 
ATOM     13  Br  UNL A   1      29.627  25.364  26.201  1.00  0.00    -0.049 Br
BRANCH   8  14
ATOM     14  S   UNL A   1      32.136  22.981  26.309  1.00  0.00     0.244 S 
ATOM     15  O   UNL A   1      31.250  22.482  25.276  1.00  0.00    -0.207 OA
ATOM     16  O   UNL A   1      31.751  22.924  27.699  1.00  0.00    -0.207 OA
BRANCH  14  17
ATOM     17  N   UNL A   1      33.618  22.175  26.114  1.00  0.00    -0.192 NA
ATOM     18  C   UNL A   1      34.126  21.565  27.364  1.00  0.00     0.125 C 
BRANCH  17  19
ATOM     19  C   UNL A   1      33.785  21.292  24.936  1.00  0.00     0.201 C 
BRANCH  19  20
ATOM     20  C   UNL A   1      33.428  19.833  25.134  1.00  0.00     0.232 C 
ATOM     21  N   UNL A   1      34.458  18.944  25.003  1.00  0.00    -0.369 N 
ATOM     22  O   UNL A   1      32.298  19.447  25.420  1.00  0.00    -0.274 OA
ATOM     23  H   UNL A   1      35.359  19.266  24.773  1.00  0.00     0.159 HD
ATOM     24  H   UNL A   1      34.298  17.982  25.138  1.00  0.00     0.159 HD
ENDBRANCH  19  20
ENDBRANCH  17  19
ENDBRANCH  14  17
ENDBRANCH   8  14
ENDBRANCH   4   7
ENDBRANCH   2   3
ENDBRANCH   1   2
BRANCH   1  25
ATOM     25  C   UNL A   1      33.346  31.586  27.831  1.00  0.00     0.023 C 
BRANCH  25  26
ATOM     26  C   UNL A   1      33.684  32.942  27.215  1.00  0.00     0.116 C 
BRANCH  26  27
ATOM     27  N   UNL A   1      33.010  34.052  27.869  1.00  0.00    -0.352 N 
ATOM     28  C   UNL A   1      33.300  34.626  29.083  1.00  0.00     0.251 C 
ATOM     29  H   UNL A   1      32.250  34.442  27.380  1.00  0.00     0.163 HD
ATOM     30  O   UNL A   1      32.562  35.491  29.544  1.00  0.00    -0.269 OA
BRANCH  28  31
ATOM     31  C   UNL A   1      34.473  34.149  29.845  1.00  0.00     0.039 A 
ATOM     32  C   UNL A   1      34.263  33.321  30.951  1.00  0.00     0.014 A 
ATOM     33  C   UNL A   1      35.770  34.481  29.446  1.00  0.00     0.014 A 
ATOM     34  C   UNL A   1      35.359  32.768  31.615  1.00  0.00     0.010 A 
ATOM     35  C   UNL A   1      36.858  33.879  30.069  1.00  0.00     0.010 A 
ATOM     36  C   UNL A   1      36.663  33.013  31.155  1.00  0.00    -0.014 A 
BRANCH  36  37
ATOM     37  C   UNL A   1      37.837  32.367  31.797  1.00  0.00     0.031 A 
ATOM     38  C   UNL A   1      38.546  31.239  31.102  1.00  0.00     0.074 A 
ATOM     39  C   UNL A   1      38.214  32.750  33.032  1.00  0.00     0.049 A 
ATOM     40  N   UNL A   1      39.534  30.494  31.528  1.00  0.00    -0.248 NA
ATOM     41  C   UNL A   1      38.056  30.881  29.763  1.00  0.00     0.031 C 
ATOM     42  C   UNL A   1      37.569  33.800  33.824  1.00  0.00     0.029 A 
ATOM     43  N   UNL A   1      39.221  32.294  33.845  1.00  0.00    -0.354 N 
ATOM     44  C   UNL A   1      39.774  29.569  30.517  1.00  0.00     0.074 A 
ATOM     45  C   UNL A   1      38.787  29.813  29.486  1.00  0.00     0.031 C 
ATOM     46  C   UNL A   1      38.208  33.919  35.000  1.00  0.00     0.029 A 
ATOM     47  C   UNL A   1      39.280  32.932  35.062  1.00  0.00     0.049 A 
ATOM     48  H   UNL A   1      39.842  31.577  33.580  1.00  0.00     0.167 HD
ATOM     49  C   UNL A   1      40.741  28.621  30.447  1.00  0.00     0.034 A 
ATOM     50  C   UNL A   1      40.101  32.735  36.112  1.00  0.00     0.034 A 
ATOM     51  C   UNL A   1      41.726  28.403  31.479  1.00  0.00     0.049 A 
ATOM     52  C   UNL A   1      41.168  31.676  36.013  1.00  0.00     0.074 A 
ATOM     53  C   UNL A   1      42.785  27.512  31.489  1.00  0.00     0.029 A 
ATOM     54  N   UNL A   1      41.770  29.082  32.691  1.00  0.00    -0.354 N 
ATOM     55  N   UNL A   1      41.417  30.844  35.028  1.00  0.00    -0.248 NA
ATOM     56  C   UNL A   1      42.074  31.541  37.160  1.00  0.00     0.031 C 
ATOM     57  C   UNL A   1      43.432  27.612  32.726  1.00  0.00     0.029 A 
ATOM     58  C   UNL A   1      42.821  28.613  33.464  1.00  0.00     0.049 A 
ATOM     59  H   UNL A   1      41.145  29.793  32.961  1.00  0.00     0.167 HD
ATOM     60  C   UNL A   1      42.526  30.105  35.428  1.00  0.00     0.074 A 
ATOM     61  C   UNL A   1      42.905  30.600  36.735  1.00  0.00     0.031 C 
ATOM     62  C   UNL A   1      43.177  29.110  34.772  1.00  0.00     0.034 A 
BRANCH  49  63
ATOM     63  C   UNL A   1      40.756  27.738  29.222  1.00  0.00     0.023 A 
ATOM     64  C   UNL A   1      41.678  27.940  28.179  1.00  0.00     0.031 A 
ATOM     65  C   UNL A   1      39.812  26.707  29.073  1.00  0.00     0.131 A 
ATOM     66  C   UNL A   1      41.581  27.184  27.002  1.00  0.00     0.055 A 
ATOM     67  C   UNL A   1      39.775  25.902  27.932  1.00  0.00     0.041 A 
ATOM     68  F   UNL A   1      38.894  26.477  30.025  1.00  0.00    -0.206 F 
ATOM     69  C   UNL A   1      40.653  26.149  26.881  1.00  0.00     0.022 A 
BRANCH  66  70
ATOM     70  S   UNL A   1      42.587  27.677  25.574  1.00  0.00     0.124 S 
ATOM     71  O   UNL A   1      42.493  26.493  24.725  1.00  0.00    -0.237 OA
ATOM     72  O   UNL A   1      41.890  28.866  25.094  1.00  0.00    -0.237 OA
ATOM     73  O   UNL A   1      43.907  27.919  26.152  1.00  0.00    -0.744 OA
ENDBRANCH  66  70
ENDBRANCH  49  63
BRANCH  50  74
ATOM     74  C   UNL A   1      39.950  33.550  37.350  1.00  0.00     0.023 A 
ATOM     75  C   UNL A   1      39.131  33.117  38.404  1.00  0.00     0.031 A 
ATOM     76  C   UNL A   1      40.597  34.791  37.481  1.00  0.00     0.131 A 
ATOM     77  C   UNL A   1      38.945  33.938  39.526  1.00  0.00     0.055 A 
ATOM     78  C   UNL A   1      40.443  35.584  38.621  1.00  0.00     0.041 A 
ATOM     79  F   UNL A   1      41.399  35.246  36.505  1.00  0.00    -0.206 F 
ATOM     80  C   UNL A   1      39.603  35.164  39.647  1.00  0.00     0.022 A 
BRANCH  77  81
ATOM     81  S   UNL A   1      37.766  33.411  40.801  1.00  0.00     0.124 S 
ATOM     82  O   UNL A   1      37.519  34.661  41.513  1.00  0.00    -0.237 OA
ATOM     83  O   UNL A   1      36.659  32.903  39.997  1.00  0.00    -0.237 OA
ATOM     84  O   UNL A   1      38.506  32.400  41.552  1.00  0.00    -0.744 OA
ENDBRANCH  77  81
ENDBRANCH  50  74
BRANCH  62  85
ATOM     85  C   UNL A   1      44.390  28.528  35.450  1.00  0.00     0.023 A 
ATOM     86  C   UNL A   1      44.285  27.489  36.392  1.00  0.00     0.031 A 
ATOM     87  C   UNL A   1      45.671  29.034  35.162  1.00  0.00     0.131 A 
ATOM     88  C   UNL A   1      45.433  27.025  37.051  1.00  0.00     0.055 A 
ATOM     89  C   UNL A   1      46.815  28.530  35.781  1.00  0.00     0.041 A 
ATOM     90  F   UNL A   1      45.828  30.027  34.273  1.00  0.00    -0.206 F 
ATOM     91  C   UNL A   1      46.699  27.529  36.741  1.00  0.00     0.022 A 
BRANCH  88  92
ATOM     92  S   UNL A   1      45.240  25.812  38.386  1.00  0.00     0.124 S 
ATOM     93  O   UNL A   1      44.799  24.626  37.657  1.00  0.00    -0.237 OA
ATOM     94  O   UNL A   1      46.585  25.750  38.948  1.00  0.00    -0.237 OA
ATOM     95  O   UNL A   1      44.232  26.416  39.256  1.00  0.00    -0.744 OA
ENDBRANCH  88  92
ENDBRANCH  62  85
ENDBRANCH  36  37
ENDBRANCH  28  31
ENDBRANCH  26  27
ENDBRANCH  25  26
ENDBRANCH   1  25
TORSDOF 18
ENDMDL
MODEL 2
REMARK VINA RESULT:     -10.8      5.896     11.094
REMARK SMILES CN(CC(N)=O)S(=O)(=O)c1ccc(C(=O)NCCCCNC(=O)c2ccc(-c3c4nc(c(-c5cc(S(=O)(=O)[O-])ccc5F)c5ccc([nH]5)c(-c5cc(S(=O)(=O)[O-])ccc5F)c5nc(c(-c6cc(S(=O)(=O)[O-])ccc6F)c6ccc3[nH]6)C=C5)C=C4)cc2)cc1Br
REMARK SMILES IDX 18 1 17 2 16 3 14 4 15 5 13 7 10 8 11 9 88 10 12 11 87 12
REMARK SMILES IDX 89 13 7 14 8 15 9 16 2 17 1 18 3 19 4 20 5 21 6 22 19 25
REMARK SMILES IDX 20 26 21 27 22 28 23 30 24 31 25 32 86 33 26 34 85 35 27 36
REMARK SMILES IDX 28 37 29 38 79 39 30 40 84 41 78 42 80 43 31 44 83 45 77 46
REMARK SMILES IDX 76 47 32 49 64 50 44 51 63 52 45 53 48 54 62 55 81 56 46 57
REMARK SMILES IDX 47 58 61 60 82 61 49 62 33 63 34 64 42 65 35 66 41 67 43 68
REMARK SMILES IDX 40 69 36 70 37 71 38 72 39 73 65 74 66 75 74 76 67 77 73 78
REMARK SMILES IDX 75 79 72 80 68 81 69 82 70 83 71 84 50 85 51 86 59 87 52 88
REMARK SMILES IDX 58 89 60 90 57 91 53 92 54 93 55 94 56 95
REMARK H PARENT 16 6 5 23 5 24 21 29 80 48 48 59
REMARK Flexibility Score: inf
ROOT
ATOM      1  C   UNL A   1      35.435  22.077  26.356  1.00  0.00     0.023 C 
ENDROOT
BRANCH   1   2
ATOM      2  C   UNL A   1      34.307  21.451  27.181  1.00  0.00     0.116 C 
BRANCH   2   3
ATOM      3  N   UNL A   1      33.497  20.574  26.359  1.00  0.00    -0.352 N 
ATOM      4  C   UNL A   1      32.514  20.794  25.431  1.00  0.00     0.251 C 
ATOM      5  O   UNL A   1      32.002  19.795  24.919  1.00  0.00    -0.269 OA
ATOM      6  H   UNL A   1      33.695  19.620  26.497  1.00  0.00     0.163 HD
BRANCH   4   7
ATOM      7  C   UNL A   1      32.033  22.140  24.987  1.00  0.00     0.041 A 
ATOM      8  C   UNL A   1      31.225  24.643  23.938  1.00  0.00     0.096 A 
ATOM      9  C   UNL A   1      32.020  23.777  23.176  1.00  0.00     0.024 A 
ATOM     10  C   UNL A   1      30.855  24.274  25.230  1.00  0.00     0.038 A 
ATOM     11  C   UNL A   1      32.431  22.551  23.704  1.00  0.00     0.015 A 
ATOM     12  C   UNL A   1      31.220  23.008  25.720  1.00  0.00     0.031 A 
ATOM     13  Br  UNL A   1      29.908  25.383  26.449  1.00  0.00    -0.049 Br
BRANCH   8  14
ATOM     14  S   UNL A   1      30.707  26.156  23.170  1.00  0.00     0.244 S 
ATOM     15  O   UNL A   1      29.263  26.223  23.291  1.00  0.00    -0.207 OA
ATOM     16  O   UNL A   1      31.338  26.204  21.872  1.00  0.00    -0.207 OA
BRANCH  14  17
ATOM     17  N   UNL A   1      31.338  27.400  24.137  1.00  0.00    -0.192 NA
ATOM     18  C   UNL A   1      32.817  27.404  24.201  1.00  0.00     0.125 C 
BRANCH  17  19
ATOM     19  C   UNL A   1      30.767  28.760  23.988  1.00  0.00     0.201 C 
BRANCH  19  20
ATOM     20  C   UNL A   1      30.518  29.232  22.570  1.00  0.00     0.232 C 
ATOM     21  N   UNL A   1      31.628  29.590  21.858  1.00  0.00    -0.369 N 
ATOM     22  O   UNL A   1      29.402  29.277  22.060  1.00  0.00    -0.274 OA
ATOM     23  H   UNL A   1      32.517  29.550  22.278  1.00  0.00     0.159 HD
ATOM     24  H   UNL A   1      31.538  29.889  20.923  1.00  0.00     0.159 HD
ENDBRANCH  19  20
ENDBRANCH  17  19
ENDBRANCH  14  17
ENDBRANCH   8  14
ENDBRANCH   4   7
ENDBRANCH   2   3
ENDBRANCH   1   2
BRANCH   1  25
ATOM     25  C   UNL A   1      36.091  21.109  25.365  1.00  0.00     0.023 C 
BRANCH  25  26
ATOM     26  C   UNL A   1      37.561  21.397  25.070  1.00  0.00     0.116 C 
BRANCH  26  27
ATOM     27  N   UNL A   1      38.451  20.329  25.495  1.00  0.00    -0.352 N 
ATOM     28  C   UNL A   1      39.634  20.433  26.187  1.00  0.00     0.251 C 
ATOM     29  H   UNL A   1      38.171  19.415  25.258  1.00  0.00     0.163 HD
ATOM     30  O   UNL A   1      40.324  19.436  26.374  1.00  0.00    -0.269 OA
BRANCH  28  31
ATOM     31  C   UNL A   1      40.086  21.763  26.647  1.00  0.00     0.039 A 
ATOM     32  C   UNL A   1      41.069  21.830  27.637  1.00  0.00     0.014 A 
ATOM     33  C   UNL A   1      39.575  22.930  26.075  1.00  0.00     0.014 A 
ATOM     34  C   UNL A   1      41.592  23.072  28.005  1.00  0.00     0.010 A 
ATOM     35  C   UNL A   1      40.141  24.160  26.398  1.00  0.00     0.010 A 
ATOM     36  C   UNL A   1      41.158  24.242  27.360  1.00  0.00    -0.014 A 
BRANCH  36  37
ATOM     37  C   UNL A   1      41.761  25.562  27.678  1.00  0.00     0.031 A 
ATOM     38  C   UNL A   1      40.957  26.597  28.414  1.00  0.00     0.074 A 
ATOM     39  C   UNL A   1      43.003  25.848  27.239  1.00  0.00     0.049 A 
ATOM     40  N   UNL A   1      41.272  27.831  28.712  1.00  0.00    -0.248 NA
ATOM     41  C   UNL A   1      39.608  26.199  28.840  1.00  0.00     0.031 C 
ATOM     42  C   UNL A   1      43.858  24.939  26.472  1.00  0.00     0.029 A 
ATOM     43  N   UNL A   1      43.757  26.987  27.363  1.00  0.00    -0.354 N 
ATOM     44  C   UNL A   1      40.156  28.364  29.348  1.00  0.00     0.074 A 
ATOM     45  C   UNL A   1      39.138  27.333  29.335  1.00  0.00     0.031 C 
ATOM     46  C   UNL A   1      45.025  25.550  26.211  1.00  0.00     0.029 A 
ATOM     47  C   UNL A   1      44.988  26.903  26.755  1.00  0.00     0.049 A 
ATOM     48  H   UNL A   1      43.445  27.789  27.841  1.00  0.00     0.167 HD
ATOM     49  C   UNL A   1      40.002  29.589  29.909  1.00  0.00     0.034 A 
ATOM     50  C   UNL A   1      45.971  27.818  26.642  1.00  0.00     0.034 A 
ATOM     51  C   UNL A   1      41.034  30.598  29.924  1.00  0.00     0.049 A 
ATOM     52  C   UNL A   1      45.780  29.173  27.273  1.00  0.00     0.074 A 
ATOM     53  C   UNL A   1      41.009  31.850  30.512  1.00  0.00     0.029 A 
ATOM     54  N   UNL A   1      42.277  30.471  29.317  1.00  0.00    -0.354 N 
ATOM     55  N   UNL A   1      44.737  29.644  27.917  1.00  0.00    -0.248 NA
ATOM     56  C   UNL A   1      46.902  30.113  27.173  1.00  0.00     0.031 C 
ATOM     57  C   UNL A   1      42.212  32.500  30.213  1.00  0.00     0.029 A 
ATOM     58  C   UNL A   1      43.017  31.631  29.495  1.00  0.00     0.049 A 
ATOM     59  H   UNL A   1      42.588  29.674  28.830  1.00  0.00     0.167 HD
ATOM     60  C   UNL A   1      45.091  30.927  28.323  1.00  0.00     0.074 A 
ATOM     61  C   UNL A   1      46.446  31.148  27.863  1.00  0.00     0.031 C 
ATOM     62  C   UNL A   1      44.364  31.839  29.018  1.00  0.00     0.034 A 
BRANCH  49  63
ATOM     63  C   UNL A   1      38.660  29.904  30.525  1.00  0.00     0.023 A 
ATOM     64  C   UNL A   1      37.664  30.594  29.810  1.00  0.00     0.031 A 
ATOM     65  C   UNL A   1      38.385  29.547  31.857  1.00  0.00     0.131 A 
ATOM     66  C   UNL A   1      36.480  30.980  30.454  1.00  0.00     0.055 A 
ATOM     67  C   UNL A   1      37.168  29.861  32.466  1.00  0.00     0.041 A 
ATOM     68  F   UNL A   1      39.302  28.904  32.596  1.00  0.00    -0.206 F 
ATOM     69  C   UNL A   1      36.213  30.596  31.770  1.00  0.00     0.022 A 
BRANCH  66  70
ATOM     70  S   UNL A   1      35.362  32.120  29.594  1.00  0.00     0.124 S 
ATOM     71  O   UNL A   1      36.291  33.145  29.125  1.00  0.00    -0.237 OA
ATOM     72  O   UNL A   1      34.775  31.270  28.564  1.00  0.00    -0.237 OA
ATOM     73  O   UNL A   1      34.442  32.555  30.643  1.00  0.00    -0.744 OA
ENDBRANCH  66  70
ENDBRANCH  49  63
BRANCH  50  74
ATOM     74  C   UNL A   1      47.223  27.492  25.903  1.00  0.00     0.023 A 
ATOM     75  C   UNL A   1      47.355  27.792  24.539  1.00  0.00     0.031 A 
ATOM     76  C   UNL A   1      48.293  26.844  26.545  1.00  0.00     0.131 A 
ATOM     77  C   UNL A   1      48.512  27.406  23.847  1.00  0.00     0.055 A 
ATOM     78  C   UNL A   1      49.462  26.503  25.862  1.00  0.00     0.041 A 
ATOM     79  F   UNL A   1      48.221  26.545  27.852  1.00  0.00    -0.206 F 
ATOM     80  C   UNL A   1      49.572  26.773  24.501  1.00  0.00     0.022 A 
BRANCH  77  81
ATOM     81  S   UNL A   1      48.585  27.679  22.055  1.00  0.00     0.124 S 
ATOM     82  O   UNL A   1      49.817  28.449  21.921  1.00  0.00    -0.237 OA
ATOM     83  O   UNL A   1      48.624  26.313  21.543  1.00  0.00    -0.237 OA
ATOM     84  O   UNL A   1      47.354  28.414  21.773  1.00  0.00    -0.744 OA
ENDBRANCH  77  81
ENDBRANCH  50  74
BRANCH  62  85
ATOM     85  C   UNL A   1      45.046  33.140  29.355  1.00  0.00     0.023 A 
ATOM     86  C   UNL A   1      45.023  34.237  28.475  1.00  0.00     0.031 A 
ATOM     87  C   UNL A   1      45.746  33.277  30.567  1.00  0.00     0.131 A 
ATOM     88  C   UNL A   1      45.730  35.404  28.796  1.00  0.00     0.055 A 
ATOM     89  C   UNL A   1      46.402  34.461  30.905  1.00  0.00     0.041 A 
ATOM     90  F   UNL A   1      45.803  32.260  31.441  1.00  0.00    -0.206 F 
ATOM     91  C   UNL A   1      46.408  35.528  30.012  1.00  0.00     0.022 A 
BRANCH  88  92
ATOM     92  S   UNL A   1      45.827  36.731  27.563  1.00  0.00     0.124 S 
ATOM     93  O   UNL A   1      45.956  35.979  26.318  1.00  0.00    -0.237 OA
ATOM     94  O   UNL A   1      44.561  37.430  27.757  1.00  0.00    -0.237 OA
ATOM     95  O   UNL A   1      47.017  37.482  27.959  1.00  0.00    -0.744 OA
ENDBRANCH  88  92
ENDBRANCH  62  85
ENDBRANCH  36  37
ENDBRANCH  28  31
ENDBRANCH  26  27
ENDBRANCH  25  26
ENDBRANCH   1  25
TORSDOF 18
ENDMDL
MODEL 3
REMARK VINA RESULT:     -10.6      2.789      8.067
REMARK SMILES CN(CC(N)=O)S(=O)(=O)c1ccc(C(=O)NCCCCNC(=O)c2ccc(-c3c4nc(c(-c5cc(S(=O)(=O)[O-])ccc5F)c5ccc([nH]5)c(-c5cc(S(=O)(=O)[O-])ccc5F)c5nc(c(-c6cc(S(=O)(=O)[O-])ccc6F)c6ccc3[nH]6)C=C5)C=C4)cc2)cc1Br
REMARK SMILES IDX 18 1 17 2 16 3 14 4 15 5 13 7 10 8 11 9 88 10 12 11 87 12
REMARK SMILES IDX 89 13 7 14 8 15 9 16 2 17 1 18 3 19 4 20 5 21 6 22 19 25
REMARK SMILES IDX 20 26 21 27 22 28 23 30 24 31 25 32 86 33 26 34 85 35 27 36
REMARK SMILES IDX 28 37 29 38 79 39 30 40 84 41 78 42 80 43 31 44 83 45 77 46
REMARK SMILES IDX 76 47 32 49 64 50 44 51 63 52 45 53 48 54 62 55 81 56 46 57
REMARK SMILES IDX 47 58 61 60 82 61 49 62 33 63 34 64 42 65 35 66 41 67 43 68
REMARK SMILES IDX 40 69 36 70 37 71 38 72 39 73 65 74 66 75 74 76 67 77 73 78
REMARK SMILES IDX 75 79 72 80 68 81 69 82 70 83 71 84 50 85 51 86 59 87 52 88
REMARK SMILES IDX 58 89 60 90 57 91 53 92 54 93 55 94 56 95
REMARK H PARENT 16 6 5 23 5 24 21 29 80 48 48 59
REMARK Flexibility Score: inf
ROOT
ATOM      1  C   UNL A   1      31.083  29.616  24.505  1.00  0.00     0.023 C 
ENDROOT
BRANCH   1   2
ATOM      2  C   UNL A   1      30.566  29.044  23.182  1.00  0.00     0.116 C 
BRANCH   2   3
ATOM      3  N   UNL A   1      29.360  28.269  23.395  1.00  0.00    -0.352 N 
ATOM      4  C   UNL A   1      29.122  26.943  23.638  1.00  0.00     0.251 C 
ATOM      5  O   UNL A   1      27.942  26.603  23.752  1.00  0.00    -0.269 OA
ATOM      6  H   UNL A   1      28.539  28.810  23.357  1.00  0.00     0.163 HD
BRANCH   4   7
ATOM      7  C   UNL A   1      30.178  25.892  23.790  1.00  0.00     0.041 A 
ATOM      8  C   UNL A   1      32.263  23.977  23.870  1.00  0.00     0.096 A 
ATOM      9  C   UNL A   1      32.115  24.821  22.762  1.00  0.00     0.024 A 
ATOM     10  C   UNL A   1      31.357  24.070  24.926  1.00  0.00     0.038 A 
ATOM     11  C   UNL A   1      31.075  25.752  22.718  1.00  0.00     0.015 A 
ATOM     12  C   UNL A   1      30.357  25.059  24.897  1.00  0.00     0.031 A 
ATOM     13  Br  UNL A   1      31.321  22.913  26.434  1.00  0.00    -0.049 Br
BRANCH   8  14
ATOM     14  S   UNL A   1      33.642  22.862  23.865  1.00  0.00     0.244 S 
ATOM     15  O   UNL A   1      34.545  23.304  22.820  1.00  0.00    -0.207 OA
ATOM     16  O   UNL A   1      33.098  21.524  23.847  1.00  0.00    -0.207 OA
BRANCH  14  17
ATOM     17  N   UNL A   1      34.440  23.112  25.342  1.00  0.00    -0.192 NA
ATOM     18  C   UNL A   1      34.889  21.859  25.990  1.00  0.00     0.125 C 
BRANCH  17  19
ATOM     19  C   UNL A   1      35.453  24.191  25.415  1.00  0.00     0.201 C 
BRANCH  19  20
ATOM     20  C   UNL A   1      36.904  23.755  25.360  1.00  0.00     0.232 C 
ATOM     21  N   UNL A   1      37.350  23.323  24.143  1.00  0.00    -0.369 N 
ATOM     22  O   UNL A   1      37.659  23.798  26.327  1.00  0.00    -0.274 OA
ATOM     23  H   UNL A   1      36.735  23.292  23.375  1.00  0.00     0.159 HD
ATOM     24  H   UNL A   1      38.288  23.042  24.034  1.00  0.00     0.159 HD
ENDBRANCH  19  20
ENDBRANCH  17  19
ENDBRANCH  14  17
ENDBRANCH   8  14
ENDBRANCH   4   7
ENDBRANCH   2   3
ENDBRANCH   1   2
BRANCH   1  25
ATOM     25  C   UNL A   1      32.124  28.729  25.201  1.00  0.00     0.023 C 
BRANCH  25  26
ATOM     26  C   UNL A   1      33.294  29.488  25.822  1.00  0.00     0.116 C 
BRANCH  26  27
ATOM     27  N   UNL A   1      32.933  30.816  26.289  1.00  0.00    -0.352 N 
ATOM     28  C   UNL A   1      33.564  31.583  27.239  1.00  0.00     0.251 C 
ATOM     29  H   UNL A   1      32.136  31.217  25.873  1.00  0.00     0.163 HD
ATOM     30  O   UNL A   1      33.065  32.645  27.599  1.00  0.00    -0.269 OA
BRANCH  28  31
ATOM     31  C   UNL A   1      34.811  31.086  27.857  1.00  0.00     0.039 A 
ATOM     32  C   UNL A   1      35.893  31.961  27.979  1.00  0.00     0.014 A 
ATOM     33  C   UNL A   1      34.895  29.782  28.350  1.00  0.00     0.014 A 
ATOM     34  C   UNL A   1      37.039  31.547  28.661  1.00  0.00     0.010 A 
ATOM     35  C   UNL A   1      36.012  29.394  29.084  1.00  0.00     0.010 A 
ATOM     36  C   UNL A   1      37.091  30.274  29.251  1.00  0.00    -0.014 A 
BRANCH  36  37
ATOM     37  C   UNL A   1      38.267  29.847  30.051  1.00  0.00     0.031 A 
ATOM     38  C   UNL A   1      38.474  30.396  31.435  1.00  0.00     0.074 A 
ATOM     39  C   UNL A   1      39.181  29.023  29.501  1.00  0.00     0.049 A 
ATOM     40  N   UNL A   1      39.474  30.212  32.258  1.00  0.00    -0.248 NA
ATOM     41  C   UNL A   1      37.432  31.299  31.945  1.00  0.00     0.031 C 
ATOM     42  C   UNL A   1      39.111  28.466  28.149  1.00  0.00     0.029 A 
ATOM     43  N   UNL A   1      40.353  28.520  30.006  1.00  0.00    -0.354 N 
ATOM     44  C   UNL A   1      39.191  30.987  33.377  1.00  0.00     0.074 A 
ATOM     45  C   UNL A   1      37.955  31.688  33.097  1.00  0.00     0.031 C 
ATOM     46  C   UNL A   1      40.183  27.684  27.939  1.00  0.00     0.029 A 
ATOM     47  C   UNL A   1      41.034  27.714  29.123  1.00  0.00     0.049 A 
ATOM     48  H   UNL A   1      40.676  28.718  30.915  1.00  0.00     0.167 HD
ATOM     49  C   UNL A   1      39.885  31.088  34.538  1.00  0.00     0.034 A 
ATOM     50  C   UNL A   1      42.216  27.081  29.252  1.00  0.00     0.034 A 
ATOM     51  C   UNL A   1      41.108  30.369  34.804  1.00  0.00     0.049 A 
ATOM     52  C   UNL A   1      42.971  27.205  30.550  1.00  0.00     0.074 A 
ATOM     53  C   UNL A   1      41.864  30.350  35.963  1.00  0.00     0.029 A 
ATOM     54  N   UNL A   1      41.759  29.546  33.894  1.00  0.00    -0.354 N 
ATOM     55  N   UNL A   1      42.664  27.901  31.620  1.00  0.00    -0.248 NA
ATOM     56  C   UNL A   1      44.224  26.449  30.662  1.00  0.00     0.031 C 
ATOM     57  C   UNL A   1      42.998  29.562  35.736  1.00  0.00     0.029 A 
ATOM     58  C   UNL A   1      42.919  29.034  34.457  1.00  0.00     0.049 A 
ATOM     59  H   UNL A   1      41.443  29.353  32.982  1.00  0.00     0.167 HD
ATOM     60  C   UNL A   1      43.673  27.642  32.543  1.00  0.00     0.074 A 
ATOM     61  C   UNL A   1      44.589  26.717  31.907  1.00  0.00     0.031 C 
ATOM     62  C   UNL A   1      43.828  28.122  33.804  1.00  0.00     0.034 A 
BRANCH  49  63
ATOM     63  C   UNL A   1      39.343  32.027  35.588  1.00  0.00     0.023 A 
ATOM     64  C   UNL A   1      39.759  33.369  35.661  1.00  0.00     0.031 A 
ATOM     65  C   UNL A   1      38.431  31.569  36.555  1.00  0.00     0.131 A 
ATOM     66  C   UNL A   1      39.332  34.178  36.725  1.00  0.00     0.055 A 
ATOM     67  C   UNL A   1      37.945  32.404  37.563  1.00  0.00     0.041 A 
ATOM     68  F   UNL A   1      38.012  30.294  36.550  1.00  0.00    -0.206 F 
ATOM     69  C   UNL A   1      38.409  33.713  37.662  1.00  0.00     0.022 A 
BRANCH  66  70
ATOM     70  S   UNL A   1      40.122  35.795  36.950  1.00  0.00     0.124 S 
ATOM     71  O   UNL A   1      39.703  36.499  35.741  1.00  0.00    -0.237 OA
ATOM     72  O   UNL A   1      39.532  36.263  38.199  1.00  0.00    -0.237 OA
ATOM     73  O   UNL A   1      41.547  35.475  37.014  1.00  0.00    -0.744 OA
ENDBRANCH  66  70
ENDBRANCH  49  63
BRANCH  50  74
ATOM     74  C   UNL A   1      42.765  26.273  28.127  1.00  0.00     0.023 A 
ATOM     75  C   UNL A   1      42.245  25.005  27.827  1.00  0.00     0.031 A 
ATOM     76  C   UNL A   1      43.842  26.746  27.356  1.00  0.00     0.131 A 
ATOM     77  C   UNL A   1      42.830  24.232  26.813  1.00  0.00     0.055 A 
ATOM     78  C   UNL A   1      44.390  25.991  26.317  1.00  0.00     0.041 A 
ATOM     79  F   UNL A   1      44.369  27.958  27.595  1.00  0.00    -0.206 F 
ATOM     80  C   UNL A   1      43.891  24.720  26.048  1.00  0.00     0.022 A 
BRANCH  77  81
ATOM     81  S   UNL A   1      42.226  22.541  26.552  1.00  0.00     0.124 S 
ATOM     82  O   UNL A   1      42.924  22.160  25.329  1.00  0.00    -0.237 OA
ATOM     83  O   UNL A   1      42.663  21.873  27.774  1.00  0.00    -0.237 OA
ATOM     84  O   UNL A   1      40.781  22.712  26.420  1.00  0.00    -0.744 OA
ENDBRANCH  77  81
ENDBRANCH  50  74
BRANCH  62  85
ATOM     85  C   UNL A   1      45.012  27.613  34.585  1.00  0.00     0.023 A 
ATOM     86  C   UNL A   1      44.916  26.488  35.424  1.00  0.00     0.031 A 
ATOM     87  C   UNL A   1      46.250  28.275  34.502  1.00  0.00     0.131 A 
ATOM     88  C   UNL A   1      46.023  26.091  36.188  1.00  0.00     0.055 A 
ATOM     89  C   UNL A   1      47.364  27.841  35.222  1.00  0.00     0.041 A 
ATOM     90  F   UNL A   1      46.395  29.355  33.718  1.00  0.00    -0.206 F 
ATOM     91  C   UNL A   1      47.250  26.752  36.081  1.00  0.00     0.022 A 
BRANCH  88  92
ATOM     92  S   UNL A   1      45.816  24.750  37.391  1.00  0.00     0.124 S 
ATOM     93  O   UNL A   1      46.098  23.569  36.581  1.00  0.00    -0.237 OA
ATOM     94  O   UNL A   1      46.814  25.081  38.403  1.00  0.00    -0.237 OA
ATOM     95  O   UNL A   1      44.426  24.888  37.823  1.00  0.00    -0.744 OA
ENDBRANCH  88  92
ENDBRANCH  62  85
ENDBRANCH  36  37
ENDBRANCH  28  31
ENDBRANCH  26  27
ENDBRANCH  25  26
ENDBRANCH   1  25
TORSDOF 18
ENDMDL
