MODEL 1
REMARK VINA RESULT:     -11.7      0.000      0.000
REMARK SMILES O=C(NCCCCNC(=O)c1ccc(Br)c(NC(=S)NC(=O)c2cccs2)c1)c1ccc(-c2c3nc(c(-c4cc(S(=O)(=O)[O-])ccc4F)c4ccc([nH]4)c(-c4cc(S(=O)(=O)[O-])ccc4F)c4nc(c(-c5cc(S(=O)(=O)[O-])ccc5F)c5ccc2[nH]5)C=C4)C=C3)cc1
REMARK SMILES IDX 6 1 5 2 4 3 3 4 1 5 2 6 29 8 30 9 91 10 31 11 90 12 32 13
REMARK SMILES IDX 33 14 34 15 84 16 35 17 89 18 83 19 85 20 36 21 88 22 82 23
REMARK SMILES IDX 81 24 37 26 69 27 49 28 68 29 50 30 53 31 67 32 86 33 51 34
REMARK SMILES IDX 52 35 66 37 87 38 54 39 38 40 39 41 47 42 40 43 46 44 48 45
REMARK SMILES IDX 45 46 41 47 42 48 43 49 44 50 70 51 71 52 79 53 72 54 78 55
REMARK SMILES IDX 80 56 77 57 73 58 74 59 75 60 76 61 55 62 56 63 64 64 57 65
REMARK SMILES IDX 63 66 65 67 62 68 58 69 59 70 60 71 61 72 7 73 8 74 9 75
REMARK SMILES IDX 10 77 11 78 12 79 28 80 13 81 16 82 14 83 15 84 17 85 18 87
REMARK SMILES IDX 19 88 20 89 21 90 22 92 23 93 24 94 27 95 25 96 26 97
REMARK H PARENT 3 7 85 25 53 36 8 76 17 86 20 91
REMARK Flexibility Score: inf
ROOT
ATOM      1  C   UNL A   1      33.684  29.296  24.269  1.00  0.00     0.023 C 
ENDROOT
BRANCH   1   2
ATOM      2  C   UNL A   1      33.847  28.131  25.239  1.00  0.00     0.023 C 
BRANCH   2   3
ATOM      3  C   UNL A   1      33.602  28.479  26.698  1.00  0.00     0.116 C 
BRANCH   3   4
ATOM      4  N   UNL A   1      33.508  29.915  26.928  1.00  0.00    -0.352 N 
ATOM      5  O   UNL A   1      34.088  31.902  27.833  1.00  0.00    -0.269 OA
ATOM      6  C   UNL A   1      34.383  30.735  27.598  1.00  0.00     0.251 C 
ATOM      7  H   UNL A   1      32.711  30.356  26.553  1.00  0.00     0.163 HD
BRANCH   6   8
ATOM      8  C   UNL A   1      35.669  30.171  28.050  1.00  0.00     0.039 A 
ATOM      9  C   UNL A   1      35.765  29.609  29.324  1.00  0.00     0.014 A 
ATOM     10  C   UNL A   1      36.794  30.276  27.232  1.00  0.00     0.014 A 
ATOM     11  C   UNL A   1      37.013  29.323  29.850  1.00  0.00     0.010 A 
ATOM     12  C   UNL A   1      38.034  29.858  27.719  1.00  0.00     0.010 A 
ATOM     13  C   UNL A   1      38.158  29.403  29.041  1.00  0.00    -0.014 A 
BRANCH  13  14
ATOM     14  C   UNL A   1      39.452  28.915  29.581  1.00  0.00     0.031 A 
ATOM     15  C   UNL A   1      40.119  29.583  30.748  1.00  0.00     0.074 A 
ATOM     16  C   UNL A   1      40.011  27.832  29.004  1.00  0.00     0.049 A 
ATOM     17  N   UNL A   1      41.259  29.287  31.317  1.00  0.00    -0.248 NA
ATOM     18  C   UNL A   1      39.428  30.733  31.347  1.00  0.00     0.031 C 
ATOM     19  C   UNL A   1      39.442  27.098  27.868  1.00  0.00     0.029 A 
ATOM     20  N   UNL A   1      41.163  27.148  29.291  1.00  0.00    -0.354 N 
ATOM     21  C   UNL A   1      41.433  30.219  32.334  1.00  0.00     0.074 A 
ATOM     22  C   UNL A   1      40.296  31.116  32.274  1.00  0.00     0.031 C 
ATOM     23  C   UNL A   1      40.214  26.039  27.595  1.00  0.00     0.029 A 
ATOM     24  C   UNL A   1      41.384  26.075  28.460  1.00  0.00     0.049 A 
ATOM     25  H   UNL A   1      41.772  27.399  30.023  1.00  0.00     0.167 HD
ATOM     26  C   UNL A   1      42.445  30.308  33.233  1.00  0.00     0.034 A 
ATOM     27  C   UNL A   1      42.431  25.235  28.368  1.00  0.00     0.034 A 
ATOM     28  C   UNL A   1      43.576  29.410  33.260  1.00  0.00     0.049 A 
ATOM     29  C   UNL A   1      43.584  25.420  29.316  1.00  0.00     0.074 A 
ATOM     30  C   UNL A   1      44.642  29.400  34.142  1.00  0.00     0.029 A 
ATOM     31  N   UNL A   1      43.803  28.379  32.356  1.00  0.00    -0.354 N 
ATOM     32  N   UNL A   1      43.725  26.298  30.282  1.00  0.00    -0.248 NA
ATOM     33  C   UNL A   1      44.717  24.501  29.164  1.00  0.00     0.031 C 
ATOM     34  C   UNL A   1      45.561  28.439  33.711  1.00  0.00     0.029 A 
ATOM     35  C   UNL A   1      45.015  27.763  32.631  1.00  0.00     0.049 A 
ATOM     36  H   UNL A   1      43.192  28.122  31.628  1.00  0.00     0.167 HD
ATOM     37  C   UNL A   1      44.949  26.011  30.875  1.00  0.00     0.074 A 
ATOM     38  C   UNL A   1      45.495  24.871  30.169  1.00  0.00     0.031 C 
ATOM     39  C   UNL A   1      45.561  26.632  31.916  1.00  0.00     0.034 A 
BRANCH  26  40
ATOM     40  C   UNL A   1      42.406  31.447  34.224  1.00  0.00     0.023 A 
ATOM     41  C   UNL A   1      41.560  31.427  35.344  1.00  0.00     0.031 A 
ATOM     42  C   UNL A   1      43.229  32.574  34.043  1.00  0.00     0.131 A 
ATOM     43  C   UNL A   1      41.498  32.542  36.194  1.00  0.00     0.055 A 
ATOM     44  C   UNL A   1      43.234  33.637  34.946  1.00  0.00     0.041 A 
ATOM     45  F   UNL A   1      44.040  32.664  32.976  1.00  0.00    -0.206 F 
ATOM     46  C   UNL A   1      42.353  33.633  36.023  1.00  0.00     0.022 A 
BRANCH  43  47
ATOM     47  S   UNL A   1      40.167  32.617  37.423  1.00  0.00     0.124 S 
ATOM     48  O   UNL A   1      40.891  32.328  38.659  1.00  0.00    -0.237 OA
ATOM     49  O   UNL A   1      39.676  33.982  37.274  1.00  0.00    -0.237 OA
ATOM     50  O   UNL A   1      39.243  31.571  36.992  1.00  0.00    -0.744 OA
ENDBRANCH  43  47
ENDBRANCH  26  40
BRANCH  27  51
ATOM     51  C   UNL A   1      42.462  24.183  27.312  1.00  0.00     0.023 A 
ATOM     52  C   UNL A   1      41.736  22.993  27.456  1.00  0.00     0.031 A 
ATOM     53  C   UNL A   1      43.261  24.334  26.163  1.00  0.00     0.131 A 
ATOM     54  C   UNL A   1      41.872  21.975  26.500  1.00  0.00     0.055 A 
ATOM     55  C   UNL A   1      43.330  23.352  25.176  1.00  0.00     0.041 A 
ATOM     56  F   UNL A   1      43.983  25.452  25.978  1.00  0.00    -0.206 F 
ATOM     57  C   UNL A   1      42.645  22.155  25.351  1.00  0.00     0.022 A 
BRANCH  54  58
ATOM     58  S   UNL A   1      41.133  20.357  26.851  1.00  0.00     0.124 S 
ATOM     59  O   UNL A   1      42.171  19.451  26.372  1.00  0.00    -0.237 OA
ATOM     60  O   UNL A   1      40.948  20.415  28.297  1.00  0.00    -0.237 OA
ATOM     61  O   UNL A   1      39.902  20.369  26.064  1.00  0.00    -0.744 OA
ENDBRANCH  54  58
ENDBRANCH  27  51
BRANCH  39  62
ATOM     62  C   UNL A   1      46.870  26.050  32.393  1.00  0.00     0.023 A 
ATOM     63  C   UNL A   1      46.928  25.071  33.399  1.00  0.00     0.031 A 
ATOM     64  C   UNL A   1      48.083  26.497  31.838  1.00  0.00     0.131 A 
ATOM     65  C   UNL A   1      48.174  24.622  33.866  1.00  0.00     0.055 A 
ATOM     66  C   UNL A   1      49.315  25.982  32.244  1.00  0.00     0.041 A 
ATOM     67  F   UNL A   1      48.092  27.442  30.884  1.00  0.00    -0.206 F 
ATOM     68  C   UNL A   1      49.365  25.051  33.276  1.00  0.00     0.022 A 
BRANCH  65  69
ATOM     69  S   UNL A   1      48.220  23.575  35.345  1.00  0.00     0.124 S 
ATOM     70  O   UNL A   1      46.800  23.334  35.588  1.00  0.00    -0.237 OA
ATOM     71  O   UNL A   1      48.993  22.424  34.891  1.00  0.00    -0.237 OA
ATOM     72  O   UNL A   1      48.884  24.416  36.339  1.00  0.00    -0.744 OA
ENDBRANCH  65  69
ENDBRANCH  39  62
ENDBRANCH  13  14
ENDBRANCH   6   8
ENDBRANCH   3   4
ENDBRANCH   2   3
ENDBRANCH   1   2
BRANCH   1  73
ATOM     73  C   UNL A   1      33.417  28.896  22.821  1.00  0.00     0.116 C 
BRANCH  73  74
ATOM     74  N   UNL A   1      32.105  29.311  22.371  1.00  0.00    -0.352 N 
ATOM     75  C   UNL A   1      30.882  28.691  22.378  1.00  0.00     0.251 C 
ATOM     76  H   UNL A   1      32.087  30.216  21.984  1.00  0.00     0.163 HD
ATOM     77  O   UNL A   1      29.986  29.295  21.797  1.00  0.00    -0.269 OA
BRANCH  75  78
ATOM     78  C   UNL A   1      30.725  27.311  23.118  1.00  0.00     0.041 A 
ATOM     79  C   UNL A   1      30.438  27.608  24.889  1.00  0.00     0.015 A 
ATOM     80  C   UNL A   1      30.831  25.315  22.624  1.00  0.00     0.041 A 
ATOM     81  C   UNL A   1      30.336  26.173  25.942  1.00  0.00     0.018 A 
ATOM     82  C   UNL A   1      30.828  24.068  23.698  1.00  0.00     0.055 A 
ATOM     83  C   UNL A   1      30.539  24.494  25.350  1.00  0.00     0.041 A 
ATOM     84  Br  UNL A   1      30.603  23.119  26.654  1.00  0.00    -0.049 Br
BRANCH  82  85
ATOM     85  N   UNL A   1      31.376  22.942  23.045  1.00  0.00    -0.331 N 
ATOM     86  H   UNL A   1      30.767  22.483  22.421  1.00  0.00     0.169 HD
BRANCH  85  87
ATOM     87  C   UNL A   1      32.654  22.381  23.149  1.00  0.00     0.177 C 
ATOM     88  S   UNL A   1      33.908  23.271  22.461  1.00  0.00    -0.040 S 
BRANCH  87  89
ATOM     89  N   UNL A   1      33.055  21.141  23.796  1.00  0.00    -0.298 N 
ATOM     90  C   UNL A   1      33.939  20.289  24.723  1.00  0.00     0.267 C 
ATOM     91  H   UNL A   1      32.403  20.489  23.450  1.00  0.00     0.172 HD
ATOM     92  O   UNL A   1      33.838  19.067  24.630  1.00  0.00    -0.268 OA
BRANCH  90  93
ATOM     93  C   UNL A   1      34.873  20.989  25.719  1.00  0.00     0.092 A 
ATOM     94  C   UNL A   1      34.090  22.242  26.575  1.00  0.00     0.025 A 
ATOM     95  S   UNL A   1      36.839  21.610  24.667  1.00  0.00    -0.139 S 
ATOM     96  C   UNL A   1      34.747  23.984  26.143  1.00  0.00     0.012 A 
ATOM     97  C   UNL A   1      36.363  23.873  24.992  1.00  0.00     0.065 A 
ENDBRANCH  90  93
ENDBRANCH  87  89
ENDBRANCH  85  87
ENDBRANCH  82  85
ENDBRANCH  75  78
ENDBRANCH  73  74
ENDBRANCH   1  73
TORSDOF 18
ENDMDL
MODEL 2
REMARK VINA RESULT:     -11.6      1.703      2.023
REMARK SMILES O=C(NCCCCNC(=O)c1ccc(Br)c(NC(=S)NC(=O)c2cccs2)c1)c1ccc(-c2c3nc(c(-c4cc(S(=O)(=O)[O-])ccc4F)c4ccc([nH]4)c(-c4cc(S(=O)(=O)[O-])ccc4F)c4nc(c(-c5cc(S(=O)(=O)[O-])ccc5F)c5ccc2[nH]5)C=C4)C=C3)cc1
REMARK SMILES IDX 6 1 5 2 4 3 3 4 1 5 2 6 29 8 30 9 91 10 31 11 90 12 32 13
REMARK SMILES IDX 33 14 34 15 84 16 35 17 89 18 83 19 85 20 36 21 88 22 82 23
REMARK SMILES IDX 81 24 37 26 69 27 49 28 68 29 50 30 53 31 67 32 86 33 51 34
REMARK SMILES IDX 52 35 66 37 87 38 54 39 38 40 39 41 47 42 40 43 46 44 48 45
REMARK SMILES IDX 45 46 41 47 42 48 43 49 44 50 70 51 71 52 79 53 72 54 78 55
REMARK SMILES IDX 80 56 77 57 73 58 74 59 75 60 76 61 55 62 56 63 64 64 57 65
REMARK SMILES IDX 63 66 65 67 62 68 58 69 59 70 60 71 61 72 7 73 8 74 9 75
REMARK SMILES IDX 10 77 11 78 12 79 28 80 13 81 16 82 14 83 15 84 17 85 18 87
REMARK SMILES IDX 19 88 20 89 21 90 22 92 23 93 24 94 27 95 25 96 26 97
REMARK H PARENT 3 7 85 25 53 36 8 76 17 86 20 91
REMARK Flexibility Score: inf
ROOT
ATOM      1  C   UNL A   1      33.488  29.325  24.284  1.00  0.00     0.023 C 
ENDROOT
BRANCH   1   2
ATOM      2  C   UNL A   1      33.724  28.179  25.262  1.00  0.00     0.023 C 
BRANCH   2   3
ATOM      3  C   UNL A   1      33.610  28.562  26.729  1.00  0.00     0.116 C 
BRANCH   3   4
ATOM      4  N   UNL A   1      33.570  30.004  26.935  1.00  0.00    -0.352 N 
ATOM      5  O   UNL A   1      34.217  31.981  27.817  1.00  0.00    -0.269 OA
ATOM      6  C   UNL A   1      34.469  30.799  27.604  1.00  0.00     0.251 C 
ATOM      7  H   UNL A   1      32.797  30.470  26.542  1.00  0.00     0.163 HD
BRANCH   6   8
ATOM      8  C   UNL A   1      35.724  30.192  28.084  1.00  0.00     0.039 A 
ATOM      9  C   UNL A   1      35.783  29.658  29.372  1.00  0.00     0.014 A 
ATOM     10  C   UNL A   1      36.860  30.228  27.276  1.00  0.00     0.014 A 
ATOM     11  C   UNL A   1      37.014  29.332  29.918  1.00  0.00     0.010 A 
ATOM     12  C   UNL A   1      38.077  29.768  27.786  1.00  0.00     0.010 A 
ATOM     13  C   UNL A   1      38.168  29.342  29.120  1.00  0.00    -0.014 A 
BRANCH  13  14
ATOM     14  C   UNL A   1      39.434  28.812  29.685  1.00  0.00     0.031 A 
ATOM     15  C   UNL A   1      40.038  29.385  30.934  1.00  0.00     0.074 A 
ATOM     16  C   UNL A   1      40.027  27.778  29.053  1.00  0.00     0.049 A 
ATOM     17  N   UNL A   1      41.149  29.045  31.535  1.00  0.00    -0.248 NA
ATOM     18  C   UNL A   1      39.313  30.484  31.586  1.00  0.00     0.031 C 
ATOM     19  C   UNL A   1      39.520  27.137  27.835  1.00  0.00     0.029 A 
ATOM     20  N   UNL A   1      41.164  27.073  29.344  1.00  0.00    -0.354 N 
ATOM     21  C   UNL A   1      41.267  29.893  32.630  1.00  0.00     0.074 A 
ATOM     22  C   UNL A   1      40.132  30.792  32.584  1.00  0.00     0.031 C 
ATOM     23  C   UNL A   1      40.308  26.102  27.519  1.00  0.00     0.029 A 
ATOM     24  C   UNL A   1      41.432  26.069  28.443  1.00  0.00     0.049 A 
ATOM     25  H   UNL A   1      41.734  27.265  30.124  1.00  0.00     0.167 HD
ATOM     26  C   UNL A   1      42.231  29.910  33.584  1.00  0.00     0.034 A 
ATOM     27  C   UNL A   1      42.486  25.239  28.339  1.00  0.00     0.034 A 
ATOM     28  C   UNL A   1      43.362  29.012  33.598  1.00  0.00     0.049 A 
ATOM     29  C   UNL A   1      43.587  25.347  29.356  1.00  0.00     0.074 A 
ATOM     30  C   UNL A   1      44.383  28.932  34.530  1.00  0.00     0.029 A 
ATOM     31  N   UNL A   1      43.640  28.056  32.629  1.00  0.00    -0.354 N 
ATOM     32  N   UNL A   1      43.676  26.146  30.395  1.00  0.00    -0.248 NA
ATOM     33  C   UNL A   1      44.730  24.443  29.190  1.00  0.00     0.031 C 
ATOM     34  C   UNL A   1      45.325  28.008  34.072  1.00  0.00     0.029 A 
ATOM     35  C   UNL A   1      44.838  27.420  32.916  1.00  0.00     0.049 A 
ATOM     36  H   UNL A   1      43.068  27.858  31.852  1.00  0.00     0.167 HD
ATOM     37  C   UNL A   1      44.869  25.813  31.026  1.00  0.00     0.074 A 
ATOM     38  C   UNL A   1      45.455  24.732  30.260  1.00  0.00     0.031 C 
ATOM     39  C   UNL A   1      45.425  26.349  32.142  1.00  0.00     0.034 A 
BRANCH  26  40
ATOM     40  C   UNL A   1      42.138  30.967  34.660  1.00  0.00     0.023 A 
ATOM     41  C   UNL A   1      42.586  32.281  34.450  1.00  0.00     0.031 A 
ATOM     42  C   UNL A   1      41.595  30.652  35.918  1.00  0.00     0.131 A 
ATOM     43  C   UNL A   1      42.554  33.208  35.503  1.00  0.00     0.055 A 
ATOM     44  C   UNL A   1      41.476  31.605  36.930  1.00  0.00     0.041 A 
ATOM     45  F   UNL A   1      41.174  29.405  36.190  1.00  0.00    -0.206 F 
ATOM     46  C   UNL A   1      41.972  32.889  36.731  1.00  0.00     0.022 A 
BRANCH  43  47
ATOM     47  S   UNL A   1      43.439  34.777  35.298  1.00  0.00     0.124 S 
ATOM     48  O   UNL A   1      42.862  35.581  36.374  1.00  0.00    -0.237 OA
ATOM     49  O   UNL A   1      44.831  34.381  35.472  1.00  0.00    -0.237 OA
ATOM     50  O   UNL A   1      43.073  35.204  33.950  1.00  0.00    -0.744 OA
ENDBRANCH  43  47
ENDBRANCH  26  40
BRANCH  27  51
ATOM     51  C   UNL A   1      42.575  24.274  27.206  1.00  0.00     0.023 A 
ATOM     52  C   UNL A   1      41.946  23.023  27.271  1.00  0.00     0.031 A 
ATOM     53  C   UNL A   1      43.334  24.572  26.059  1.00  0.00     0.131 A 
ATOM     54  C   UNL A   1      42.139  22.093  26.239  1.00  0.00     0.055 A 
ATOM     55  C   UNL A   1      43.456  23.675  24.999  1.00  0.00     0.041 A 
ATOM     56  F   UNL A   1      43.963  25.754  25.947  1.00  0.00    -0.206 F 
ATOM     57  C   UNL A   1      42.871  22.418  25.094  1.00  0.00     0.022 A 
BRANCH  54  58
ATOM     58  S   UNL A   1      41.535  20.400  26.478  1.00  0.00     0.124 S 
ATOM     59  O   UNL A   1      40.109  20.560  26.218  1.00  0.00    -0.237 OA
ATOM     60  O   UNL A   1      42.292  19.663  25.473  1.00  0.00    -0.237 OA
ATOM     61  O   UNL A   1      41.889  20.107  27.864  1.00  0.00    -0.744 OA
ENDBRANCH  54  58
ENDBRANCH  27  51
BRANCH  39  62
ATOM     62  C   UNL A   1      46.709  25.731  32.639  1.00  0.00     0.023 A 
ATOM     63  C   UNL A   1      47.951  26.013  32.045  1.00  0.00     0.031 A 
ATOM     64  C   UNL A   1      46.685  24.831  33.720  1.00  0.00     0.131 A 
ATOM     65  C   UNL A   1      49.105  25.348  32.490  1.00  0.00     0.055 A 
ATOM     66  C   UNL A   1      47.849  24.241  34.215  1.00  0.00     0.041 A 
ATOM     67  F   UNL A   1      45.526  24.511  34.318  1.00  0.00    -0.206 F 
ATOM     68  C   UNL A   1      49.066  24.487  33.589  1.00  0.00     0.022 A 
BRANCH  65  69
ATOM     69  S   UNL A   1      50.632  25.522  31.527  1.00  0.00     0.124 S 
ATOM     70  O   UNL A   1      50.157  26.213  30.332  1.00  0.00    -0.237 OA
ATOM     71  O   UNL A   1      51.480  26.302  32.421  1.00  0.00    -0.237 OA
ATOM     72  O   UNL A   1      51.061  24.140  31.314  1.00  0.00    -0.744 OA
ENDBRANCH  65  69
ENDBRANCH  39  62
ENDBRANCH  13  14
ENDBRANCH   6   8
ENDBRANCH   3   4
ENDBRANCH   2   3
ENDBRANCH   1   2
BRANCH   1  73
ATOM     73  C   UNL A   1      33.258  28.899  22.837  1.00  0.00     0.116 C 
BRANCH  73  74
ATOM     74  N   UNL A   1      31.931  29.239  22.369  1.00  0.00    -0.352 N 
ATOM     75  C   UNL A   1      30.744  28.553  22.366  1.00  0.00     0.251 C 
ATOM     76  H   UNL A   1      31.868  30.140  21.978  1.00  0.00     0.163 HD
ATOM     77  O   UNL A   1      29.823  29.105  21.771  1.00  0.00    -0.269 OA
BRANCH  75  78
ATOM     78  C   UNL A   1      30.654  27.169  23.111  1.00  0.00     0.041 A 
ATOM     79  C   UNL A   1      30.333  27.459  24.877  1.00  0.00     0.015 A 
ATOM     80  C   UNL A   1      30.873  25.180  22.627  1.00  0.00     0.041 A 
ATOM     81  C   UNL A   1      30.297  26.025  25.936  1.00  0.00     0.018 A 
ATOM     82  C   UNL A   1      30.927  23.940  23.708  1.00  0.00     0.055 A 
ATOM     83  C   UNL A   1      30.598  24.357  25.355  1.00  0.00     0.041 A 
ATOM     84  Br  UNL A   1      30.722  22.993  26.666  1.00  0.00    -0.049 Br
BRANCH  82  85
ATOM     85  N   UNL A   1      31.541  22.842  23.066  1.00  0.00    -0.331 N 
ATOM     86  H   UNL A   1      30.972  22.363  22.421  1.00  0.00     0.169 HD
BRANCH  85  87
ATOM     87  C   UNL A   1      32.838  22.334  23.207  1.00  0.00     0.177 C 
ATOM     88  S   UNL A   1      34.082  23.326  22.654  1.00  0.00    -0.040 S 
BRANCH  87  89
ATOM     89  N   UNL A   1      33.264  21.072  23.793  1.00  0.00    -0.298 N 
ATOM     90  C   UNL A   1      34.170  20.192  24.671  1.00  0.00     0.267 C 
ATOM     91  H   UNL A   1      32.617  20.427  23.425  1.00  0.00     0.172 HD
ATOM     92  O   UNL A   1      34.085  18.974  24.524  1.00  0.00    -0.268 OA
BRANCH  90  93
ATOM     93  C   UNL A   1      35.107  20.860  25.686  1.00  0.00     0.092 A 
ATOM     94  C   UNL A   1      34.292  21.983  26.681  1.00  0.00     0.025 A 
ATOM     95  S   UNL A   1      36.983  21.689  24.615  1.00  0.00    -0.139 S 
ATOM     96  C   UNL A   1      34.827  23.794  26.380  1.00  0.00     0.012 A 
ATOM     97  C   UNL A   1      36.392  23.883  25.159  1.00  0.00     0.065 A 
ENDBRANCH  90  93
ENDBRANCH  87  89
ENDBRANCH  85  87
ENDBRANCH  82  85
ENDBRANCH  75  78
ENDBRANCH  73  74
ENDBRANCH   1  73
TORSDOF 18
ENDMDL
MODEL 3
REMARK VINA RESULT:     -11.5      3.257      8.540
REMARK SMILES O=C(NCCCCNC(=O)c1ccc(Br)c(NC(=S)NC(=O)c2cccs2)c1)c1ccc(-c2c3nc(c(-c4cc(S(=O)(=O)[O-])ccc4F)c4ccc([nH]4)c(-c4cc(S(=O)(=O)[O-])ccc4F)c4nc(c(-c5cc(S(=O)(=O)[O-])ccc5F)c5ccc2[nH]5)C=C4)C=C3)cc1
REMARK SMILES IDX 6 1 5 2 4 3 3 4 1 5 2 6 29 8 30 9 91 10 31 11 90 12 32 13
REMARK SMILES IDX 33 14 34 15 84 16 35 17 89 18 83 19 85 20 36 21 88 22 82 23
REMARK SMILES IDX 81 24 37 26 69 27 49 28 68 29 50 30 53 31 67 32 86 33 51 34
REMARK SMILES IDX 52 35 66 37 87 38 54 39 38 40 39 41 47 42 40 43 46 44 48 45
REMARK SMILES IDX 45 46 41 47 42 48 43 49 44 50 70 51 71 52 79 53 72 54 78 55
REMARK SMILES IDX 80 56 77 57 73 58 74 59 75 60 76 61 55 62 56 63 64 64 57 65
REMARK SMILES IDX 63 66 65 67 62 68 58 69 59 70 60 71 61 72 7 73 8 74 9 75
REMARK SMILES IDX 10 77 11 78 12 79 28 80 13 81 16 82 14 83 15 84 17 85 18 87
REMARK SMILES IDX 19 88 20 89 21 90 22 92 23 93 24 94 27 95 25 96 26 97
REMARK H PARENT 3 7 85 25 53 36 8 76 17 86 20 91
REMARK Flexibility Score: inf
ROOT
ATOM      1  C   UNL A   1      32.099  30.237  26.981  1.00  0.00     0.023 C 
ENDROOT
BRANCH   1   2
ATOM      2  C   UNL A   1      31.849  31.739  26.899  1.00  0.00     0.023 C 
BRANCH   2   3
ATOM      3  C   UNL A   1      33.056  32.603  27.223  1.00  0.00     0.116 C 
BRANCH   3   4
ATOM      4  N   UNL A   1      32.689  33.936  27.685  1.00  0.00    -0.352 N 
ATOM      5  O   UNL A   1      32.663  35.693  29.106  1.00  0.00    -0.269 OA
ATOM      6  C   UNL A   1      33.181  34.636  28.760  1.00  0.00     0.251 C 
ATOM      7  H   UNL A   1      31.998  34.396  27.156  1.00  0.00     0.163 HD
BRANCH   6   8
ATOM      8  C   UNL A   1      34.324  34.072  29.503  1.00  0.00     0.039 A 
ATOM      9  C   UNL A   1      35.625  34.404  29.121  1.00  0.00     0.014 A 
ATOM     10  C   UNL A   1      34.096  33.154  30.528  1.00  0.00     0.014 A 
ATOM     11  C   UNL A   1      36.690  33.682  29.634  1.00  0.00     0.010 A 
ATOM     12  C   UNL A   1      35.184  32.527  31.139  1.00  0.00     0.010 A 
ATOM     13  C   UNL A   1      36.488  32.767  30.679  1.00  0.00    -0.014 A 
BRANCH  13  14
ATOM     14  C   UNL A   1      37.671  32.148  31.328  1.00  0.00     0.031 A 
ATOM     15  C   UNL A   1      38.433  31.032  30.674  1.00  0.00     0.074 A 
ATOM     16  C   UNL A   1      38.061  32.631  32.525  1.00  0.00     0.049 A 
ATOM     17  N   UNL A   1      39.470  30.376  31.126  1.00  0.00    -0.248 NA
ATOM     18  C   UNL A   1      37.969  30.588  29.353  1.00  0.00     0.031 C 
ATOM     19  C   UNL A   1      37.397  33.722  33.248  1.00  0.00     0.029 A 
ATOM     20  N   UNL A   1      39.108  32.289  33.340  1.00  0.00    -0.354 N 
ATOM     21  C   UNL A   1      39.780  29.432  30.154  1.00  0.00     0.074 A 
ATOM     22  C   UNL A   1      38.791  29.576  29.105  1.00  0.00     0.031 C 
ATOM     23  C   UNL A   1      38.085  33.995  34.364  1.00  0.00     0.029 A 
ATOM     24  C   UNL A   1      39.171  33.035  34.493  1.00  0.00     0.049 A 
ATOM     25  H   UNL A   1      39.755  31.579  33.120  1.00  0.00     0.167 HD
ATOM     26  C   UNL A   1      40.799  28.537  30.141  1.00  0.00     0.034 A 
ATOM     27  C   UNL A   1      39.983  32.935  35.562  1.00  0.00     0.034 A 
ATOM     28  C   UNL A   1      41.763  28.403  31.208  1.00  0.00     0.049 A 
ATOM     29  C   UNL A   1      41.042  31.869  35.561  1.00  0.00     0.074 A 
ATOM     30  C   UNL A   1      42.846  27.545  31.284  1.00  0.00     0.029 A 
ATOM     31  N   UNL A   1      41.752  29.127  32.395  1.00  0.00    -0.354 N 
ATOM     32  N   UNL A   1      41.330  30.993  34.626  1.00  0.00    -0.248 NA
ATOM     33  C   UNL A   1      41.886  31.776  36.757  1.00  0.00     0.031 C 
ATOM     34  C   UNL A   1      43.422  27.672  32.550  1.00  0.00     0.029 A 
ATOM     35  C   UNL A   1      42.777  28.697  33.224  1.00  0.00     0.049 A 
ATOM     36  H   UNL A   1      41.111  29.842  32.614  1.00  0.00     0.167 HD
ATOM     37  C   UNL A   1      42.415  30.269  35.109  1.00  0.00     0.074 A 
ATOM     38  C   UNL A   1      42.736  30.823  36.408  1.00  0.00     0.031 C 
ATOM     39  C   UNL A   1      43.087  29.245  34.525  1.00  0.00     0.034 A 
BRANCH  26  40
ATOM     40  C   UNL A   1      40.892  27.594  28.965  1.00  0.00     0.023 A 
ATOM     41  C   UNL A   1      41.868  27.746  27.967  1.00  0.00     0.031 A 
ATOM     42  C   UNL A   1      39.984  26.527  28.838  1.00  0.00     0.131 A 
ATOM     43  C   UNL A   1      41.866  26.895  26.851  1.00  0.00     0.055 A 
ATOM     44  C   UNL A   1      40.050  25.624  27.776  1.00  0.00     0.041 A 
ATOM     45  F   UNL A   1      39.011  26.344  29.745  1.00  0.00    -0.206 F 
ATOM     46  C   UNL A   1      40.986  25.815  26.764  1.00  0.00     0.022 A 
BRANCH  43  47
ATOM     47  S   UNL A   1      42.917  27.325  25.437  1.00  0.00     0.124 S 
ATOM     48  O   UNL A   1      42.112  28.350  24.775  1.00  0.00    -0.237 OA
ATOM     49  O   UNL A   1      44.139  27.790  26.081  1.00  0.00    -0.237 OA
ATOM     50  O   UNL A   1      43.036  26.068  24.703  1.00  0.00    -0.744 OA
ENDBRANCH  43  47
ENDBRANCH  26  40
BRANCH  27  51
ATOM     51  C   UNL A   1      39.791  33.832  36.738  1.00  0.00     0.023 A 
ATOM     52  C   UNL A   1      39.240  33.349  37.933  1.00  0.00     0.031 A 
ATOM     53  C   UNL A   1      40.113  35.200  36.665  1.00  0.00     0.131 A 
ATOM     54  C   UNL A   1      38.967  34.238  38.983  1.00  0.00     0.055 A 
ATOM     55  C   UNL A   1      39.915  36.064  37.742  1.00  0.00     0.041 A 
ATOM     56  F   UNL A   1      40.638  35.717  35.542  1.00  0.00    -0.206 F 
ATOM     57  C   UNL A   1      39.322  35.587  38.904  1.00  0.00     0.022 A 
BRANCH  54  58
ATOM     58  S   UNL A   1      38.016  33.632  40.402  1.00  0.00     0.124 S 
ATOM     59  O   UNL A   1      37.849  34.852  41.184  1.00  0.00    -0.237 OA
ATOM     60  O   UNL A   1      36.814  33.110  39.761  1.00  0.00    -0.237 OA
ATOM     61  O   UNL A   1      38.894  32.626  40.994  1.00  0.00    -0.744 OA
ENDBRANCH  54  58
ENDBRANCH  27  51
BRANCH  39  62
ATOM     62  C   UNL A   1      44.281  28.693  35.266  1.00  0.00     0.023 A 
ATOM     63  C   UNL A   1      44.152  27.719  36.271  1.00  0.00     0.031 A 
ATOM     64  C   UNL A   1      45.574  29.162  34.967  1.00  0.00     0.131 A 
ATOM     65  C   UNL A   1      45.284  27.299  36.987  1.00  0.00     0.055 A 
ATOM     66  C   UNL A   1      46.706  28.676  35.621  1.00  0.00     0.041 A 
ATOM     67  F   UNL A   1      45.759  30.104  34.026  1.00  0.00    -0.206 F 
ATOM     68  C   UNL A   1      46.562  27.750  36.649  1.00  0.00     0.022 A 
BRANCH  65  69
ATOM     69  S   UNL A   1      45.046  26.260  38.453  1.00  0.00     0.124 S 
ATOM     70  O   UNL A   1      45.363  24.932  37.935  1.00  0.00    -0.237 OA
ATOM     71  O   UNL A   1      46.007  26.822  39.395  1.00  0.00    -0.237 OA
ATOM     72  O   UNL A   1      43.642  26.471  38.799  1.00  0.00    -0.744 OA
ENDBRANCH  65  69
ENDBRANCH  39  62
ENDBRANCH  13  14
ENDBRANCH   6   8
ENDBRANCH   3   4
ENDBRANCH   2   3
ENDBRANCH   1   2
BRANCH   1  73
ATOM     73  C   UNL A   1      33.442  29.777  26.422  1.00  0.00     0.116 C 
BRANCH  73  74
ATOM     74  N   UNL A   1      33.455  29.752  24.974  1.00  0.00    -0.352 N 
ATOM     75  C   UNL A   1      33.301  28.740  24.062  1.00  0.00     0.251 C 
ATOM     76  H   UNL A   1      33.601  30.635  24.565  1.00  0.00     0.163 HD
ATOM     77  O   UNL A   1      33.491  29.059  22.892  1.00  0.00    -0.269 OA
BRANCH  75  78
ATOM     78  C   UNL A   1      32.893  27.307  24.566  1.00  0.00     0.041 A 
ATOM     79  C   UNL A   1      31.085  27.227  24.749  1.00  0.00     0.015 A 
ATOM     80  C   UNL A   1      33.855  25.574  25.126  1.00  0.00     0.041 A 
ATOM     81  C   UNL A   1      30.407  25.719  25.414  1.00  0.00     0.018 A 
ATOM     82  C   UNL A   1      33.136  24.272  25.829  1.00  0.00     0.055 A 
ATOM     83  C   UNL A   1      31.409  24.327  25.935  1.00  0.00     0.041 A 
ATOM     84  Br  UNL A   1      30.519  22.899  26.807  1.00  0.00    -0.049 Br
BRANCH  82  85
ATOM     85  N   UNL A   1      34.145  23.524  26.472  1.00  0.00    -0.331 N 
ATOM     86  H   UNL A   1      34.043  23.436  27.448  1.00  0.00     0.169 HD
BRANCH  85  87
ATOM     87  C   UNL A   1      35.268  22.886  25.931  1.00  0.00     0.177 C 
ATOM     88  S   UNL A   1      36.695  23.780  25.932  1.00  0.00    -0.040 S 
BRANCH  87  89
ATOM     89  N   UNL A   1      35.379  21.540  25.390  1.00  0.00    -0.298 N 
ATOM     90  C   UNL A   1      34.815  20.181  24.938  1.00  0.00     0.267 C 
ATOM     91  H   UNL A   1      36.344  21.448  25.218  1.00  0.00     0.172 HD
ATOM     92  O   UNL A   1      35.622  19.273  24.749  1.00  0.00    -0.268 OA
BRANCH  90  93
ATOM     93  C   UNL A   1      33.303  20.030  24.728  1.00  0.00     0.092 A 
ATOM     94  C   UNL A   1      32.866  18.445  24.266  1.00  0.00     0.025 A 
ATOM     95  S   UNL A   1      32.520  21.702  23.333  1.00  0.00    -0.139 S 
ATOM     96  C   UNL A   1      32.197  18.332  22.479  1.00  0.00     0.012 A 
ATOM     97  C   UNL A   1      31.935  20.139  21.698  1.00  0.00     0.065 A 
ENDBRANCH  90  93
ENDBRANCH  87  89
ENDBRANCH  85  87
ENDBRANCH  82  85
ENDBRANCH  75  78
ENDBRANCH  73  74
ENDBRANCH   1  73
TORSDOF 18
ENDMDL
