MODEL 1
REMARK VINA RESULT:     -12.5      0.000      0.000
REMARK SMILES CCc1cccc(C)c1Nc1ccccc1CC(=O)NCCCCNC(=O)c1ccc(-c2c3nc(c(-c4cc(S(=O)(=O)[O-])ccc4F)c4ccc([nH]4)c(-c4cc(S(=O)(=O)[O-])ccc4F)c4nc(c(-c5cc(S(=O)(=O)[O-])ccc5F)c5ccc2[nH]5)C=C4)C=C3)cc1
REMARK SMILES IDX 22 1 21 2 20 3 18 4 19 5 17 7 16 8 11 9 12 10 13 11 15 12
REMARK SMILES IDX 14 13 10 14 9 16 3 17 4 18 5 19 7 20 6 21 8 22 2 23 1 24
REMARK SMILES IDX 23 25 24 26 25 27 26 28 27 30 28 31 29 32 90 33 30 34 89 35
REMARK SMILES IDX 31 36 32 37 33 38 83 39 34 40 88 41 82 42 84 43 35 44 87 45
REMARK SMILES IDX 81 46 80 47 36 49 68 50 48 51 67 52 49 53 52 54 66 55 85 56
REMARK SMILES IDX 50 57 51 58 65 60 86 61 53 62 37 63 38 64 46 65 39 66 45 67
REMARK SMILES IDX 47 68 44 69 40 70 41 71 42 72 43 73 69 74 70 75 78 76 71 77
REMARK SMILES IDX 77 78 79 79 76 80 72 81 73 82 74 83 75 84 54 85 55 86 63 87
REMARK SMILES IDX 56 88 62 89 64 90 61 91 57 92 58 93 59 94 60 95
REMARK H PARENT 20 6 10 15 25 29 84 48 52 59
REMARK Flexibility Score: inf
ROOT
ATOM      1  C   UNL A   1      37.776  21.252  24.872  1.00  0.00     0.023 C 
ENDROOT
BRANCH   1   2
ATOM      2  C   UNL A   1      36.375  20.729  25.205  1.00  0.00     0.116 C 
BRANCH   2   3
ATOM      3  N   UNL A   1      35.678  21.482  26.241  1.00  0.00    -0.356 N 
ATOM      4  C   UNL A   1      35.257  22.779  26.271  1.00  0.00     0.224 C 
ATOM      5  O   UNL A   1      34.454  23.102  27.154  1.00  0.00    -0.275 OA
ATOM      6  H   UNL A   1      35.478  20.968  27.055  1.00  0.00     0.163 HD
BRANCH   4   7
ATOM      7  C   UNL A   1      35.649  23.774  25.199  1.00  0.00     0.137 C 
BRANCH   7   8
ATOM      8  C   UNL A   1      34.630  24.065  24.119  1.00  0.00    -0.015 A 
ATOM      9  C   UNL A   1      33.949  25.295  23.976  1.00  0.00     0.042 A 
ATOM     10  C   UNL A   1      32.978  25.422  22.968  1.00  0.00     0.026 A 
ATOM     11  C   UNL A   1      32.714  24.382  22.076  1.00  0.00     0.002 A 
ATOM     12  C   UNL A   1      34.325  23.015  23.227  1.00  0.00     0.006 A 
ATOM     13  C   UNL A   1      33.392  23.177  22.205  1.00  0.00     0.000 A 
BRANCH   9  14
ATOM     14  N   UNL A   1      34.118  26.393  24.850  1.00  0.00    -0.355 N 
ATOM     15  H   UNL A   1      35.037  26.527  25.175  1.00  0.00     0.167 HD
BRANCH  14  16
ATOM     16  C   UNL A   1      33.170  27.332  25.330  1.00  0.00     0.045 A 
ATOM     17  C   UNL A   1      32.249  26.940  26.328  1.00  0.00    -0.024 A 
ATOM     18  C   UNL A   1      31.614  27.934  27.099  1.00  0.00     0.006 A 
ATOM     19  C   UNL A   1      31.759  29.279  26.788  1.00  0.00     0.001 A 
ATOM     20  C   UNL A   1      33.061  28.648  24.843  1.00  0.00    -0.027 A 
ATOM     21  C   UNL A   1      32.423  29.628  25.623  1.00  0.00     0.005 A 
ATOM     22  C   UNL A   1      33.551  29.042  23.482  1.00  0.00     0.046 C 
BRANCH  17  23
ATOM     23  C   UNL A   1      31.859  25.502  26.617  1.00  0.00     0.034 C 
ATOM     24  C   UNL A   1      30.671  24.961  25.819  1.00  0.00     0.009 C 
ENDBRANCH  17  23
ENDBRANCH  14  16
ENDBRANCH   9  14
ENDBRANCH   7   8
ENDBRANCH   4   7
ENDBRANCH   2   3
ENDBRANCH   1   2
BRANCH   1  25
ATOM     25  C   UNL A   1      38.667  21.610  26.059  1.00  0.00     0.023 C 
BRANCH  25  26
ATOM     26  C   UNL A   1      39.113  23.061  26.096  1.00  0.00     0.116 C 
BRANCH  26  27
ATOM     27  N   UNL A   1      40.540  23.237  26.378  1.00  0.00    -0.352 N 
ATOM     28  C   UNL A   1      41.192  24.409  26.747  1.00  0.00     0.251 C 
ATOM     29  H   UNL A   1      41.102  22.433  26.296  1.00  0.00     0.163 HD
ATOM     30  O   UNL A   1      42.378  24.462  26.989  1.00  0.00    -0.269 OA
BRANCH  28  31
ATOM     31  C   UNL A   1      40.330  25.597  26.946  1.00  0.00     0.039 A 
ATOM     32  C   UNL A   1      40.751  26.775  26.324  1.00  0.00     0.014 A 
ATOM     33  C   UNL A   1      39.454  25.616  28.029  1.00  0.00     0.014 A 
ATOM     34  C   UNL A   1      40.515  27.986  26.961  1.00  0.00     0.010 A 
ATOM     35  C   UNL A   1      39.295  26.812  28.706  1.00  0.00     0.010 A 
ATOM     36  C   UNL A   1      39.906  27.976  28.216  1.00  0.00    -0.014 A 
BRANCH  36  37
ATOM     37  C   UNL A   1      39.997  29.111  29.131  1.00  0.00     0.031 A 
ATOM     38  C   UNL A   1      38.986  30.181  29.081  1.00  0.00     0.074 A 
ATOM     39  C   UNL A   1      41.031  29.233  29.994  1.00  0.00     0.049 A 
ATOM     40  N   UNL A   1      39.188  31.395  29.473  1.00  0.00    -0.248 NA
ATOM     41  C   UNL A   1      37.682  29.983  28.464  1.00  0.00     0.031 C 
ATOM     42  C   UNL A   1      41.162  30.195  31.085  1.00  0.00     0.029 A 
ATOM     43  N   UNL A   1      42.302  28.682  29.864  1.00  0.00    -0.354 N 
ATOM     44  C   UNL A   1      37.979  32.047  29.449  1.00  0.00     0.074 A 
ATOM     45  C   UNL A   1      37.124  31.175  28.683  1.00  0.00     0.031 C 
ATOM     46  C   UNL A   1      42.464  30.373  31.351  1.00  0.00     0.029 A 
ATOM     47  C   UNL A   1      43.222  29.619  30.372  1.00  0.00     0.049 A 
ATOM     48  H   UNL A   1      42.519  27.799  29.485  1.00  0.00     0.167 HD
ATOM     49  C   UNL A   1      37.824  33.173  30.205  1.00  0.00     0.034 A 
ATOM     50  C   UNL A   1      44.218  30.118  29.586  1.00  0.00     0.034 A 
ATOM     51  C   UNL A   1      39.123  33.688  30.679  1.00  0.00     0.049 A 
ATOM     52  C   UNL A   1      44.137  31.612  29.339  1.00  0.00     0.074 A 
ATOM     53  C   UNL A   1      39.760  33.779  31.906  1.00  0.00     0.029 A 
ATOM     54  N   UNL A   1      40.094  34.014  29.735  1.00  0.00    -0.354 N 
ATOM     55  N   UNL A   1      43.230  32.414  29.829  1.00  0.00    -0.248 NA
ATOM     56  C   UNL A   1      45.039  32.296  28.416  1.00  0.00     0.031 C 
ATOM     57  C   UNL A   1      41.123  34.149  31.682  1.00  0.00     0.029 A 
ATOM     58  C   UNL A   1      41.313  34.306  30.321  1.00  0.00     0.049 A 
ATOM     59  H   UNL A   1      39.931  34.035  28.765  1.00  0.00     0.167 HD
ATOM     60  C   UNL A   1      43.343  33.654  29.236  1.00  0.00     0.074 A 
ATOM     61  C   UNL A   1      44.499  33.523  28.365  1.00  0.00     0.031 C 
ATOM     62  C   UNL A   1      42.442  34.664  29.463  1.00  0.00     0.034 A 
BRANCH  49  63
ATOM     63  C   UNL A   1      36.476  33.666  30.730  1.00  0.00     0.023 A 
ATOM     64  C   UNL A   1      35.550  34.235  29.825  1.00  0.00     0.031 A 
ATOM     65  C   UNL A   1      36.066  33.714  32.081  1.00  0.00     0.131 A 
ATOM     66  C   UNL A   1      34.370  34.874  30.270  1.00  0.00     0.055 A 
ATOM     67  C   UNL A   1      34.911  34.369  32.528  1.00  0.00     0.041 A 
ATOM     68  F   UNL A   1      36.729  33.102  33.063  1.00  0.00    -0.206 F 
ATOM     69  C   UNL A   1      34.061  34.967  31.623  1.00  0.00     0.022 A 
BRANCH  66  70
ATOM     70  S   UNL A   1      33.238  35.613  29.062  1.00  0.00     0.124 S 
ATOM     71  O   UNL A   1      32.624  34.438  28.454  1.00  0.00    -0.237 OA
ATOM     72  O   UNL A   1      32.377  36.431  29.908  1.00  0.00    -0.237 OA
ATOM     73  O   UNL A   1      34.129  36.367  28.179  1.00  0.00    -0.744 OA
ENDBRANCH  66  70
ENDBRANCH  49  63
BRANCH  50  74
ATOM     74  C   UNL A   1      44.744  29.112  28.619  1.00  0.00     0.023 A 
ATOM     75  C   UNL A   1      45.572  28.089  29.126  1.00  0.00     0.031 A 
ATOM     76  C   UNL A   1      44.158  28.923  27.360  1.00  0.00     0.131 A 
ATOM     77  C   UNL A   1      45.685  26.870  28.444  1.00  0.00     0.055 A 
ATOM     78  C   UNL A   1      44.304  27.718  26.664  1.00  0.00     0.041 A 
ATOM     79  F   UNL A   1      43.332  29.845  26.845  1.00  0.00    -0.206 F 
ATOM     80  C   UNL A   1      45.032  26.669  27.226  1.00  0.00     0.022 A 
BRANCH  77  81
ATOM     81  S   UNL A   1      46.495  25.463  29.258  1.00  0.00     0.124 S 
ATOM     82  O   UNL A   1      47.154  24.799  28.142  1.00  0.00    -0.237 OA
ATOM     83  O   UNL A   1      47.380  26.108  30.227  1.00  0.00    -0.237 OA
ATOM     84  O   UNL A   1      45.371  24.742  29.853  1.00  0.00    -0.744 OA
ENDBRANCH  77  81
ENDBRANCH  50  74
BRANCH  62  85
ATOM     85  C   UNL A   1      42.497  36.061  28.844  1.00  0.00     0.023 A 
ATOM     86  C   UNL A   1      43.013  37.190  29.501  1.00  0.00     0.031 A 
ATOM     87  C   UNL A   1      41.971  36.316  27.550  1.00  0.00     0.131 A 
ATOM     88  C   UNL A   1      43.110  38.441  28.857  1.00  0.00     0.055 A 
ATOM     89  C   UNL A   1      42.015  37.572  26.931  1.00  0.00     0.041 A 
ATOM     90  F   UNL A   1      41.392  35.358  26.814  1.00  0.00    -0.206 F 
ATOM     91  C   UNL A   1      42.609  38.642  27.574  1.00  0.00     0.022 A 
BRANCH  88  92
ATOM     92  S   UNL A   1      43.939  39.804  29.722  1.00  0.00     0.124 S 
ATOM     93  O   UNL A   1      43.421  40.978  29.026  1.00  0.00    -0.237 OA
ATOM     94  O   UNL A   1      43.469  39.620  31.091  1.00  0.00    -0.237 OA
ATOM     95  O   UNL A   1      45.360  39.535  29.512  1.00  0.00    -0.744 OA
ENDBRANCH  88  92
ENDBRANCH  62  85
ENDBRANCH  36  37
ENDBRANCH  28  31
ENDBRANCH  26  27
ENDBRANCH  25  26
ENDBRANCH   1  25
TORSDOF 18
ENDMDL
MODEL 2
REMARK VINA RESULT:     -12.4      4.128     10.612
REMARK SMILES CCc1cccc(C)c1Nc1ccccc1CC(=O)NCCCCNC(=O)c1ccc(-c2c3nc(c(-c4cc(S(=O)(=O)[O-])ccc4F)c4ccc([nH]4)c(-c4cc(S(=O)(=O)[O-])ccc4F)c4nc(c(-c5cc(S(=O)(=O)[O-])ccc5F)c5ccc2[nH]5)C=C4)C=C3)cc1
REMARK SMILES IDX 22 1 21 2 20 3 18 4 19 5 17 7 16 8 11 9 12 10 13 11 15 12
REMARK SMILES IDX 14 13 10 14 9 16 3 17 4 18 5 19 7 20 6 21 8 22 2 23 1 24
REMARK SMILES IDX 23 25 24 26 25 27 26 28 27 30 28 31 29 32 90 33 30 34 89 35
REMARK SMILES IDX 31 36 32 37 33 38 83 39 34 40 88 41 82 42 84 43 35 44 87 45
REMARK SMILES IDX 81 46 80 47 36 49 68 50 48 51 67 52 49 53 52 54 66 55 85 56
REMARK SMILES IDX 50 57 51 58 65 60 86 61 53 62 37 63 38 64 46 65 39 66 45 67
REMARK SMILES IDX 47 68 44 69 40 70 41 71 42 72 43 73 69 74 70 75 78 76 71 77
REMARK SMILES IDX 77 78 79 79 76 80 72 81 73 82 74 83 75 84 54 85 55 86 63 87
REMARK SMILES IDX 56 88 62 89 64 90 61 91 57 92 58 93 59 94 60 95
REMARK H PARENT 20 6 10 15 25 29 84 48 52 59
REMARK Flexibility Score: inf
ROOT
ATOM      1  C   UNL A   1      32.191  30.716  26.856  1.00  0.00     0.023 C 
ENDROOT
BRANCH   1   2
ATOM      2  C   UNL A   1      31.966  30.313  25.396  1.00  0.00     0.116 C 
BRANCH   2   3
ATOM      3  N   UNL A   1      33.113  29.677  24.759  1.00  0.00    -0.356 N 
ATOM      4  C   UNL A   1      33.229  29.045  23.556  1.00  0.00     0.224 C 
ATOM      5  O   UNL A   1      34.369  28.827  23.129  1.00  0.00    -0.275 OA
ATOM      6  H   UNL A   1      33.943  29.709  25.286  1.00  0.00     0.163 HD
BRANCH   4   7
ATOM      7  C   UNL A   1      32.022  28.723  22.700  1.00  0.00     0.137 C 
BRANCH   7   8
ATOM      8  C   UNL A   1      31.165  27.552  23.129  1.00  0.00    -0.015 A 
ATOM      9  C   UNL A   1      31.633  26.224  23.253  1.00  0.00     0.042 A 
ATOM     10  C   UNL A   1      30.723  25.211  23.601  1.00  0.00     0.026 A 
ATOM     11  C   UNL A   1      29.386  25.498  23.879  1.00  0.00     0.002 A 
ATOM     12  C   UNL A   1      29.802  27.815  23.383  1.00  0.00     0.006 A 
ATOM     13  C   UNL A   1      28.926  26.803  23.772  1.00  0.00     0.000 A 
BRANCH   9  14
ATOM     14  N   UNL A   1      32.957  25.827  22.958  1.00  0.00    -0.355 N 
ATOM     15  H   UNL A   1      33.340  26.230  22.146  1.00  0.00     0.167 HD
BRANCH  14  16
ATOM     16  C   UNL A   1      33.820  24.939  23.650  1.00  0.00     0.045 A 
ATOM     17  C   UNL A   1      34.135  23.688  23.073  1.00  0.00    -0.024 A 
ATOM     18  C   UNL A   1      35.285  23.003  23.516  1.00  0.00     0.006 A 
ATOM     19  C   UNL A   1      36.012  23.461  24.606  1.00  0.00     0.001 A 
ATOM     20  C   UNL A   1      34.367  25.214  24.918  1.00  0.00    -0.027 A 
ATOM     21  C   UNL A   1      35.513  24.522  25.345  1.00  0.00     0.005 A 
ATOM     22  C   UNL A   1      33.737  26.186  25.868  1.00  0.00     0.046 C 
BRANCH  17  23
ATOM     23  C   UNL A   1      33.296  22.996  22.016  1.00  0.00     0.034 C 
ATOM     24  C   UNL A   1      32.191  22.076  22.538  1.00  0.00     0.009 C 
ENDBRANCH  17  23
ENDBRANCH  14  16
ENDBRANCH   9  14
ENDBRANCH   7   8
ENDBRANCH   4   7
ENDBRANCH   2   3
ENDBRANCH   1   2
BRANCH   1  25
ATOM     25  C   UNL A   1      33.546  31.335  27.188  1.00  0.00     0.023 C 
BRANCH  25  26
ATOM     26  C   UNL A   1      34.355  30.565  28.218  1.00  0.00     0.116 C 
BRANCH  26  27
ATOM     27  N   UNL A   1      35.157  31.416  29.101  1.00  0.00    -0.352 N 
ATOM     28  C   UNL A   1      36.380  31.112  29.688  1.00  0.00     0.251 C 
ATOM     29  H   UNL A   1      34.787  32.306  29.302  1.00  0.00     0.163 HD
ATOM     30  O   UNL A   1      36.994  31.888  30.389  1.00  0.00    -0.269 OA
BRANCH  28  31
ATOM     31  C   UNL A   1      36.971  29.804  29.320  1.00  0.00     0.039 A 
ATOM     32  C   UNL A   1      37.320  28.965  30.381  1.00  0.00     0.014 A 
ATOM     33  C   UNL A   1      37.535  29.656  28.055  1.00  0.00     0.014 A 
ATOM     34  C   UNL A   1      38.439  28.154  30.248  1.00  0.00     0.010 A 
ATOM     35  C   UNL A   1      38.699  28.915  27.953  1.00  0.00     0.010 A 
ATOM     36  C   UNL A   1      39.196  28.242  29.079  1.00  0.00    -0.014 A 
BRANCH  36  37
ATOM     37  C   UNL A   1      40.578  27.774  29.013  1.00  0.00     0.031 A 
ATOM     38  C   UNL A   1      40.866  26.376  28.648  1.00  0.00     0.074 A 
ATOM     39  C   UNL A   1      41.609  28.586  29.339  1.00  0.00     0.049 A 
ATOM     40  N   UNL A   1      41.936  25.738  28.988  1.00  0.00    -0.248 NA
ATOM     41  C   UNL A   1      39.894  25.543  27.954  1.00  0.00     0.031 C 
ATOM     42  C   UNL A   1      43.033  28.328  29.145  1.00  0.00     0.029 A 
ATOM     43  N   UNL A   1      41.570  29.695  30.179  1.00  0.00    -0.354 N 
ATOM     44  C   UNL A   1      41.938  24.539  28.318  1.00  0.00     0.074 A 
ATOM     45  C   UNL A   1      40.593  24.415  27.816  1.00  0.00     0.031 C 
ATOM     46  C   UNL A   1      43.730  29.055  30.031  1.00  0.00     0.029 A 
ATOM     47  C   UNL A   1      42.780  29.723  30.898  1.00  0.00     0.049 A 
ATOM     48  H   UNL A   1      40.831  30.342  30.257  1.00  0.00     0.167 HD
ATOM     49  C   UNL A   1      43.122  23.879  28.155  1.00  0.00     0.034 A 
ATOM     50  C   UNL A   1      42.784  29.678  32.260  1.00  0.00     0.034 A 
ATOM     51  C   UNL A   1      44.171  24.427  29.034  1.00  0.00     0.049 A 
ATOM     52  C   UNL A   1      43.455  28.450  32.848  1.00  0.00     0.074 A 
ATOM     53  C   UNL A   1      45.338  25.152  28.846  1.00  0.00     0.029 A 
ATOM     54  N   UNL A   1      43.948  24.440  30.409  1.00  0.00    -0.354 N 
ATOM     55  N   UNL A   1      44.021  27.494  32.163  1.00  0.00    -0.248 NA
ATOM     56  C   UNL A   1      43.437  28.168  34.281  1.00  0.00     0.031 C 
ATOM     57  C   UNL A   1      45.798  25.608  30.120  1.00  0.00     0.029 A 
ATOM     58  C   UNL A   1      44.927  25.144  31.089  1.00  0.00     0.049 A 
ATOM     59  H   UNL A   1      43.184  24.000  30.845  1.00  0.00     0.167 HD
ATOM     60  C   UNL A   1      44.340  26.451  33.006  1.00  0.00     0.074 A 
ATOM     61  C   UNL A   1      43.958  26.932  34.322  1.00  0.00     0.031 C 
ATOM     62  C   UNL A   1      44.834  25.256  32.545  1.00  0.00     0.034 A 
BRANCH  49  63
ATOM     63  C   UNL A   1      43.399  22.900  27.014  1.00  0.00     0.023 A 
ATOM     64  C   UNL A   1      42.811  21.615  27.050  1.00  0.00     0.031 A 
ATOM     65  C   UNL A   1      44.288  23.099  25.934  1.00  0.00     0.131 A 
ATOM     66  C   UNL A   1      43.172  20.606  26.127  1.00  0.00     0.055 A 
ATOM     67  C   UNL A   1      44.667  22.093  25.035  1.00  0.00     0.041 A 
ATOM     68  F   UNL A   1      44.826  24.284  25.645  1.00  0.00    -0.206 F 
ATOM     69  C   UNL A   1      44.120  20.832  25.136  1.00  0.00     0.022 A 
BRANCH  66  70
ATOM     70  S   UNL A   1      42.406  18.966  26.245  1.00  0.00     0.124 S 
ATOM     71  O   UNL A   1      43.259  18.163  25.376  1.00  0.00    -0.237 OA
ATOM     72  O   UNL A   1      42.490  18.689  27.674  1.00  0.00    -0.237 OA
ATOM     73  O   UNL A   1      41.050  19.188  25.740  1.00  0.00    -0.744 OA
ENDBRANCH  66  70
ENDBRANCH  49  63
BRANCH  50  74
ATOM     74  C   UNL A   1      41.625  30.397  32.862  1.00  0.00     0.023 A 
ATOM     75  C   UNL A   1      41.648  31.807  32.840  1.00  0.00     0.031 A 
ATOM     76  C   UNL A   1      40.396  29.761  33.082  1.00  0.00     0.131 A 
ATOM     77  C   UNL A   1      40.450  32.533  32.897  1.00  0.00     0.055 A 
ATOM     78  C   UNL A   1      39.207  30.492  33.177  1.00  0.00     0.041 A 
ATOM     79  F   UNL A   1      40.308  28.423  33.077  1.00  0.00    -0.206 F 
ATOM     80  C   UNL A   1      39.224  31.880  33.039  1.00  0.00     0.022 A 
BRANCH  77  81
ATOM     81  S   UNL A   1      40.470  34.316  32.553  1.00  0.00     0.124 S 
ATOM     82  O   UNL A   1      39.072  34.681  32.737  1.00  0.00    -0.237 OA
ATOM     83  O   UNL A   1      41.400  34.835  33.556  1.00  0.00    -0.237 OA
ATOM     84  O   UNL A   1      40.968  34.376  31.180  1.00  0.00    -0.744 OA
ENDBRANCH  77  81
ENDBRANCH  50  74
BRANCH  62  85
ATOM     85  C   UNL A   1      45.209  24.054  33.412  1.00  0.00     0.023 A 
ATOM     86  C   UNL A   1      46.486  23.852  33.962  1.00  0.00     0.031 A 
ATOM     87  C   UNL A   1      44.276  23.019  33.682  1.00  0.00     0.131 A 
ATOM     88  C   UNL A   1      46.760  22.764  34.818  1.00  0.00     0.055 A 
ATOM     89  C   UNL A   1      44.564  21.908  34.486  1.00  0.00     0.041 A 
ATOM     90  F   UNL A   1      43.032  23.032  33.184  1.00  0.00    -0.206 F 
ATOM     91  C   UNL A   1      45.806  21.786  35.081  1.00  0.00     0.022 A 
BRANCH  88  92
ATOM     92  S   UNL A   1      48.388  22.670  35.613  1.00  0.00     0.124 S 
ATOM     93  O   UNL A   1      48.156  21.712  36.690  1.00  0.00    -0.237 OA
ATOM     94  O   UNL A   1      49.229  22.201  34.518  1.00  0.00    -0.237 OA
ATOM     95  O   UNL A   1      48.642  24.042  36.047  1.00  0.00    -0.744 OA
ENDBRANCH  88  92
ENDBRANCH  62  85
ENDBRANCH  36  37
ENDBRANCH  28  31
ENDBRANCH  26  27
ENDBRANCH  25  26
ENDBRANCH   1  25
TORSDOF 18
ENDMDL
MODEL 3
REMARK VINA RESULT:     -12.3      4.010     10.639
REMARK SMILES CCc1cccc(C)c1Nc1ccccc1CC(=O)NCCCCNC(=O)c1ccc(-c2c3nc(c(-c4cc(S(=O)(=O)[O-])ccc4F)c4ccc([nH]4)c(-c4cc(S(=O)(=O)[O-])ccc4F)c4nc(c(-c5cc(S(=O)(=O)[O-])ccc5F)c5ccc2[nH]5)C=C4)C=C3)cc1
REMARK SMILES IDX 22 1 21 2 20 3 18 4 19 5 17 7 16 8 11 9 12 10 13 11 15 12
REMARK SMILES IDX 14 13 10 14 9 16 3 17 4 18 5 19 7 20 6 21 8 22 2 23 1 24
REMARK SMILES IDX 23 25 24 26 25 27 26 28 27 30 28 31 29 32 90 33 30 34 89 35
REMARK SMILES IDX 31 36 32 37 33 38 83 39 34 40 88 41 82 42 84 43 35 44 87 45
REMARK SMILES IDX 81 46 80 47 36 49 68 50 48 51 67 52 49 53 52 54 66 55 85 56
REMARK SMILES IDX 50 57 51 58 65 60 86 61 53 62 37 63 38 64 46 65 39 66 45 67
REMARK SMILES IDX 47 68 44 69 40 70 41 71 42 72 43 73 69 74 70 75 78 76 71 77
REMARK SMILES IDX 77 78 79 79 76 80 72 81 73 82 74 83 75 84 54 85 55 86 63 87
REMARK SMILES IDX 56 88 62 89 64 90 61 91 57 92 58 93 59 94 60 95
REMARK H PARENT 20 6 10 15 25 29 84 48 52 59
REMARK Flexibility Score: inf
ROOT
ATOM      1  C   UNL A   1      32.346  30.197  26.869  1.00  0.00     0.023 C 
ENDROOT
BRANCH   1   2
ATOM      2  C   UNL A   1      33.014  28.859  26.539  1.00  0.00     0.116 C 
BRANCH   2   3
ATOM      3  N   UNL A   1      32.141  27.698  26.663  1.00  0.00    -0.356 N 
ATOM      4  C   UNL A   1      32.368  26.378  26.402  1.00  0.00     0.224 C 
ATOM      5  O   UNL A   1      31.555  25.558  26.842  1.00  0.00    -0.275 OA
ATOM      6  H   UNL A   1      31.235  27.900  26.989  1.00  0.00     0.163 HD
BRANCH   4   7
ATOM      7  C   UNL A   1      33.628  25.904  25.708  1.00  0.00     0.137 C 
BRANCH   7   8
ATOM      8  C   UNL A   1      33.467  25.268  24.345  1.00  0.00    -0.015 A 
ATOM      9  C   UNL A   1      33.579  23.882  24.094  1.00  0.00     0.042 A 
ATOM     10  C   UNL A   1      33.468  23.419  22.771  1.00  0.00     0.026 A 
ATOM     11  C   UNL A   1      33.198  24.290  21.715  1.00  0.00     0.002 A 
ATOM     12  C   UNL A   1      33.225  26.135  23.258  1.00  0.00     0.006 A 
ATOM     13  C   UNL A   1      33.073  25.651  21.961  1.00  0.00     0.000 A 
BRANCH   9  14
ATOM     14  N   UNL A   1      33.888  22.926  25.087  1.00  0.00    -0.355 N 
ATOM     15  H   UNL A   1      33.225  22.849  25.810  1.00  0.00     0.167 HD
BRANCH  14  16
ATOM     16  C   UNL A   1      35.005  22.059  25.204  1.00  0.00     0.045 A 
ATOM     17  C   UNL A   1      34.805  20.660  25.156  1.00  0.00    -0.024 A 
ATOM     18  C   UNL A   1      35.897  19.826  24.845  1.00  0.00     0.006 A 
ATOM     19  C   UNL A   1      37.182  20.341  24.743  1.00  0.00     0.001 A 
ATOM     20  C   UNL A   1      36.323  22.509  25.406  1.00  0.00    -0.027 A 
ATOM     21  C   UNL A   1      37.401  21.664  25.092  1.00  0.00     0.005 A 
ATOM     22  C   UNL A   1      36.630  23.848  26.004  1.00  0.00     0.046 C 
BRANCH  17  23
ATOM     23  C   UNL A   1      33.485  19.972  25.451  1.00  0.00     0.034 C 
ATOM     24  C   UNL A   1      32.709  19.469  24.232  1.00  0.00     0.009 C 
ENDBRANCH  17  23
ENDBRANCH  14  16
ENDBRANCH   9  14
ENDBRANCH   7   8
ENDBRANCH   4   7
ENDBRANCH   2   3
ENDBRANCH   1   2
BRANCH   1  25
ATOM     25  C   UNL A   1      33.242  31.270  27.482  1.00  0.00     0.023 C 
BRANCH  25  26
ATOM     26  C   UNL A   1      34.659  30.812  27.780  1.00  0.00     0.116 C 
BRANCH  26  27
ATOM     27  N   UNL A   1      35.299  31.538  28.881  1.00  0.00    -0.352 N 
ATOM     28  C   UNL A   1      36.368  31.117  29.663  1.00  0.00     0.251 C 
ATOM     29  H   UNL A   1      34.928  32.425  29.091  1.00  0.00     0.163 HD
ATOM     30  O   UNL A   1      36.857  31.795  30.542  1.00  0.00    -0.269 OA
BRANCH  28  31
ATOM     31  C   UNL A   1      36.973  29.816  29.293  1.00  0.00     0.039 A 
ATOM     32  C   UNL A   1      37.307  28.969  30.352  1.00  0.00     0.014 A 
ATOM     33  C   UNL A   1      37.562  29.685  28.038  1.00  0.00     0.014 A 
ATOM     34  C   UNL A   1      38.433  28.165  30.233  1.00  0.00     0.010 A 
ATOM     35  C   UNL A   1      38.733  28.951  27.951  1.00  0.00     0.010 A 
ATOM     36  C   UNL A   1      39.212  28.269  29.079  1.00  0.00    -0.014 A 
BRANCH  36  37
ATOM     37  C   UNL A   1      40.598  27.810  29.035  1.00  0.00     0.031 A 
ATOM     38  C   UNL A   1      40.901  26.421  28.646  1.00  0.00     0.074 A 
ATOM     39  C   UNL A   1      41.616  28.619  29.403  1.00  0.00     0.049 A 
ATOM     40  N   UNL A   1      41.966  25.781  28.998  1.00  0.00    -0.248 NA
ATOM     41  C   UNL A   1      39.950  25.599  27.912  1.00  0.00     0.031 C 
ATOM     42  C   UNL A   1      43.046  28.372  29.236  1.00  0.00     0.029 A 
ATOM     43  N   UNL A   1      41.551  29.710  30.265  1.00  0.00    -0.354 N 
ATOM     44  C   UNL A   1      41.991  24.597  28.302  1.00  0.00     0.074 A 
ATOM     45  C   UNL A   1      40.658  24.478  27.766  1.00  0.00     0.031 C 
ATOM     46  C   UNL A   1      43.718  29.083  30.153  1.00  0.00     0.029 A 
ATOM     47  C   UNL A   1      42.744  29.727  31.013  1.00  0.00     0.049 A 
ATOM     48  H   UNL A   1      40.808  30.351  30.340  1.00  0.00     0.167 HD
ATOM     49  C   UNL A   1      43.181  23.946  28.152  1.00  0.00     0.034 A 
ATOM     50  C   UNL A   1      42.718  29.653  32.374  1.00  0.00     0.034 A 
ATOM     51  C   UNL A   1      44.207  24.481  29.067  1.00  0.00     0.049 A 
ATOM     52  C   UNL A   1      43.381  28.416  32.950  1.00  0.00     0.074 A 
ATOM     53  C   UNL A   1      45.374  25.215  28.921  1.00  0.00     0.029 A 
ATOM     54  N   UNL A   1      43.952  24.463  30.436  1.00  0.00    -0.354 N 
ATOM     55  N   UNL A   1      43.968  27.478  32.257  1.00  0.00    -0.248 NA
ATOM     56  C   UNL A   1      43.331  28.102  34.375  1.00  0.00     0.031 C 
ATOM     57  C   UNL A   1      45.802  25.646  30.216  1.00  0.00     0.029 A 
ATOM     58  C   UNL A   1      44.911  25.156  31.154  1.00  0.00     0.049 A 
ATOM     59  H   UNL A   1      43.180  24.010  30.845  1.00  0.00     0.167 HD
ATOM     60  C   UNL A   1      44.274  26.417  33.084  1.00  0.00     0.074 A 
ATOM     61  C   UNL A   1      43.859  26.868  34.402  1.00  0.00     0.031 C 
ATOM     62  C   UNL A   1      44.784  25.235  32.609  1.00  0.00     0.034 A 
BRANCH  49  63
ATOM     63  C   UNL A   1      43.490  22.995  26.996  1.00  0.00     0.023 A 
ATOM     64  C   UNL A   1      42.902  21.709  26.986  1.00  0.00     0.031 A 
ATOM     65  C   UNL A   1      44.408  23.218  25.946  1.00  0.00     0.131 A 
ATOM     66  C   UNL A   1      43.288  20.721  26.051  1.00  0.00     0.055 A 
ATOM     67  C   UNL A   1      44.811  22.233  25.035  1.00  0.00     0.041 A 
ATOM     68  F   UNL A   1      44.953  24.410  25.699  1.00  0.00    -0.206 F 
ATOM     69  C   UNL A   1      44.262  20.971  25.091  1.00  0.00     0.022 A 
BRANCH  66  70
ATOM     70  S   UNL A   1      42.519  19.080  26.110  1.00  0.00     0.124 S 
ATOM     71  O   UNL A   1      42.494  18.801  27.542  1.00  0.00    -0.237 OA
ATOM     72  O   UNL A   1      41.230  19.320  25.473  1.00  0.00    -0.237 OA
ATOM     73  O   UNL A   1      43.441  18.246  25.338  1.00  0.00    -0.744 OA
ENDBRANCH  66  70
ENDBRANCH  49  63
BRANCH  50  74
ATOM     74  C   UNL A   1      41.541  30.353  32.964  1.00  0.00     0.023 A 
ATOM     75  C   UNL A   1      41.559  31.763  32.976  1.00  0.00     0.031 A 
ATOM     76  C   UNL A   1      40.310  29.707  33.138  1.00  0.00     0.131 A 
ATOM     77  C   UNL A   1      40.357  32.483  33.022  1.00  0.00     0.055 A 
ATOM     78  C   UNL A   1      39.115  30.431  33.221  1.00  0.00     0.041 A 
ATOM     79  F   UNL A   1      40.227  28.369  33.099  1.00  0.00    -0.206 F 
ATOM     80  C   UNL A   1      39.131  31.822  33.118  1.00  0.00     0.022 A 
BRANCH  77  81
ATOM     81  S   UNL A   1      40.378  34.274  32.722  1.00  0.00     0.124 S 
ATOM     82  O   UNL A   1      40.384  34.342  31.266  1.00  0.00    -0.237 OA
ATOM     83  O   UNL A   1      39.152  34.732  33.374  1.00  0.00    -0.237 OA
ATOM     84  O   UNL A   1      41.610  34.699  33.384  1.00  0.00    -0.744 OA
ENDBRANCH  77  81
ENDBRANCH  50  74
BRANCH  62  85
ATOM     85  C   UNL A   1      45.146  24.017  33.458  1.00  0.00     0.023 A 
ATOM     86  C   UNL A   1      46.455  23.697  33.854  1.00  0.00     0.031 A 
ATOM     87  C   UNL A   1      44.158  23.084  33.869  1.00  0.00     0.131 A 
ATOM     88  C   UNL A   1      46.726  22.602  34.702  1.00  0.00     0.055 A 
ATOM     89  C   UNL A   1      44.434  21.964  34.664  1.00  0.00     0.041 A 
ATOM     90  F   UNL A   1      42.869  23.213  33.526  1.00  0.00    -0.206 F 
ATOM     91  C   UNL A   1      45.722  21.728  35.107  1.00  0.00     0.022 A 
BRANCH  88  92
ATOM     92  S   UNL A   1      48.423  22.359  35.295  1.00  0.00     0.124 S 
ATOM     93  O   UNL A   1      49.220  22.884  34.191  1.00  0.00    -0.237 OA
ATOM     94  O   UNL A   1      48.430  23.158  36.517  1.00  0.00    -0.237 OA
ATOM     95  O   UNL A   1      48.517  20.915  35.498  1.00  0.00    -0.744 OA
ENDBRANCH  88  92
ENDBRANCH  62  85
ENDBRANCH  36  37
ENDBRANCH  28  31
ENDBRANCH  26  27
ENDBRANCH  25  26
ENDBRANCH   1  25
TORSDOF 18
ENDMDL
