MODEL 1
REMARK VINA RESULT:     -11.4      0.000      0.000
REMARK SMILES COc1cc(/C=N/NC(=O)c2cccnc2)ccc1OCC(=O)NCCCCNC(=O)c1ccc(-c2c3nc(c(-c4cc(S(=O)(=O)[O-])ccc4F)c4ccc([nH]4)c(-c4cc(S(=O)(=O)[O-])ccc4F)c4nc(c(-c5cc(S(=O)(=O)[O-])ccc5F)c5ccc2[nH]5)C=C4)C=C3)cc1
REMARK SMILES IDX 25 1 24 2 22 3 23 4 21 6 20 7 19 8 3 9 4 10 5 11 18 12 17 13
REMARK SMILES IDX 2 14 1 15 6 16 7 17 8 18 9 19 10 21 11 22 12 23 16 24 13 25
REMARK SMILES IDX 15 26 14 27 26 28 27 29 28 30 29 31 30 32 31 34 32 35 33 36
REMARK SMILES IDX 94 37 34 38 93 39 35 40 36 41 37 42 87 43 38 44 92 45 86 46
REMARK SMILES IDX 88 47 39 48 91 49 85 50 84 51 40 53 72 54 52 55 71 56 53 57
REMARK SMILES IDX 56 58 70 59 89 60 54 61 55 62 69 64 90 65 57 66 41 67 42 68
REMARK SMILES IDX 50 69 43 70 49 71 51 72 48 73 44 74 45 75 46 76 47 77 73 78
REMARK SMILES IDX 74 79 82 80 75 81 81 82 83 83 80 84 76 85 77 86 78 87 79 88
REMARK SMILES IDX 58 89 59 90 67 91 60 92 66 93 68 94 65 95 61 96 62 97 63 98
REMARK SMILES IDX 64 99
REMARK H PARENT 24 5 8 20 29 33 88 52 56 63
REMARK Flexibility Score: inf
ROOT
ATOM      1  C   UNL A   1      31.909  29.697  24.932  1.00  0.00     0.116 C 
ENDROOT
BRANCH   1   2
ATOM      2  N   UNL A   1      30.614  30.181  24.507  1.00  0.00    -0.353 N 
ATOM      3  C   UNL A   1      29.922  29.869  23.371  1.00  0.00     0.257 C 
ATOM      4  O   UNL A   1      28.730  30.177  23.318  1.00  0.00    -0.271 OA
ATOM      5  H   UNL A   1      30.173  30.818  25.115  1.00  0.00     0.163 HD
BRANCH   3   6
ATOM      6  C   UNL A   1      30.609  29.089  22.242  1.00  0.00     0.329 C 
BRANCH   6   7
ATOM      7  O   UNL A   1      30.366  27.696  22.140  1.00  0.00    -0.480 OA
BRANCH   7   8
ATOM      8  C   UNL A   1      31.277  26.806  22.636  1.00  0.00     0.161 A 
ATOM      9  C   UNL A   1      31.154  25.964  23.750  1.00  0.00     0.161 A 
ATOM     10  C   UNL A   1      32.236  25.161  24.143  1.00  0.00     0.060 A 
ATOM     11  C   UNL A   1      33.417  25.163  23.397  1.00  0.00    -0.002 A 
ATOM     12  C   UNL A   1      32.481  26.808  21.915  1.00  0.00     0.051 A 
ATOM     13  C   UNL A   1      33.540  25.973  22.271  1.00  0.00     0.014 A 
BRANCH   9  14
ATOM     14  O   UNL A   1      30.035  26.016  24.535  1.00  0.00    -0.493 OA
ATOM     15  C   UNL A   1      30.334  26.275  25.909  1.00  0.00     0.278 C 
ENDBRANCH   9  14
BRANCH  11  16
ATOM     16  C   UNL A   1      34.598  24.394  23.829  1.00  0.00     0.141 C 
ATOM     17  N   UNL A   1      35.116  24.570  25.003  1.00  0.00    -0.180 NA
BRANCH  17  18
ATOM     18  N   UNL A   1      36.301  23.950  25.283  1.00  0.00    -0.243 N 
ATOM     19  C   UNL A   1      36.554  22.629  25.618  1.00  0.00     0.272 C 
ATOM     20  H   UNL A   1      37.096  24.528  25.239  1.00  0.00     0.194 HD
ATOM     21  O   UNL A   1      37.700  22.251  25.855  1.00  0.00    -0.267 OA
BRANCH  19  22
ATOM     22  C   UNL A   1      35.463  21.640  25.696  1.00  0.00     0.059 A 
ATOM     23  C   UNL A   1      35.265  20.639  24.746  1.00  0.00     0.017 A 
ATOM     24  C   UNL A   1      34.578  21.721  26.763  1.00  0.00     0.124 A 
ATOM     25  C   UNL A   1      34.150  19.810  24.856  1.00  0.00     0.021 A 
ATOM     26  N   UNL A   1      33.488  20.924  26.893  1.00  0.00    -0.264 NA
ATOM     27  C   UNL A   1      33.294  19.996  25.931  1.00  0.00     0.111 A 
ENDBRANCH  19  22
ENDBRANCH  17  18
ENDBRANCH  11  16
ENDBRANCH   7   8
ENDBRANCH   6   7
ENDBRANCH   3   6
ENDBRANCH   1   2
BRANCH   1  28
ATOM     28  C   UNL A   1      32.195  29.964  26.408  1.00  0.00     0.023 C 
BRANCH  28  29
ATOM     29  C   UNL A   1      31.893  31.379  26.900  1.00  0.00     0.023 C 
BRANCH  29  30
ATOM     30  C   UNL A   1      33.102  32.220  27.289  1.00  0.00     0.116 C 
BRANCH  30  31
ATOM     31  N   UNL A   1      32.759  33.591  27.628  1.00  0.00    -0.352 N 
ATOM     32  C   UNL A   1      33.281  34.406  28.603  1.00  0.00     0.251 C 
ATOM     33  H   UNL A   1      32.048  33.995  27.079  1.00  0.00     0.163 HD
ATOM     34  O   UNL A   1      32.769  35.501  28.814  1.00  0.00    -0.269 OA
BRANCH  32  35
ATOM     35  C   UNL A   1      34.425  33.941  29.418  1.00  0.00     0.039 A 
ATOM     36  C   UNL A   1      34.178  33.089  30.497  1.00  0.00     0.014 A 
ATOM     37  C   UNL A   1      35.733  34.322  29.108  1.00  0.00     0.014 A 
ATOM     38  C   UNL A   1      35.251  32.559  31.217  1.00  0.00     0.010 A 
ATOM     39  C   UNL A   1      36.802  33.728  29.774  1.00  0.00     0.010 A 
ATOM     40  C   UNL A   1      36.573  32.840  30.835  1.00  0.00    -0.014 A 
BRANCH  40  41
ATOM     41  C   UNL A   1      37.726  32.217  31.536  1.00  0.00     0.031 A 
ATOM     42  C   UNL A   1      38.481  31.085  30.895  1.00  0.00     0.074 A 
ATOM     43  C   UNL A   1      38.061  32.634  32.773  1.00  0.00     0.049 A 
ATOM     44  N   UNL A   1      39.478  30.380  31.365  1.00  0.00    -0.248 NA
ATOM     45  C   UNL A   1      38.027  30.672  29.560  1.00  0.00     0.031 C 
ATOM     46  C   UNL A   1      37.390  33.704  33.514  1.00  0.00     0.029 A 
ATOM     47  N   UNL A   1      39.052  32.214  33.624  1.00  0.00    -0.354 N 
ATOM     48  C   UNL A   1      39.768  29.436  30.386  1.00  0.00     0.074 A 
ATOM     49  C   UNL A   1      38.783  29.610  29.338  1.00  0.00     0.031 C 
ATOM     50  C   UNL A   1      38.015  33.884  34.688  1.00  0.00     0.029 A 
ATOM     51  C   UNL A   1      39.098  32.912  34.808  1.00  0.00     0.049 A 
ATOM     52  H   UNL A   1      39.671  31.480  33.408  1.00  0.00     0.167 HD
ATOM     53  C   UNL A   1      40.779  28.531  30.347  1.00  0.00     0.034 A 
ATOM     54  C   UNL A   1      39.915  32.782  35.870  1.00  0.00     0.034 A 
ATOM     55  C   UNL A   1      41.746  28.366  31.406  1.00  0.00     0.049 A 
ATOM     56  C   UNL A   1      40.988  31.723  35.841  1.00  0.00     0.074 A 
ATOM     57  C   UNL A   1      42.831  27.510  31.461  1.00  0.00     0.029 A 
ATOM     58  N   UNL A   1      41.734  29.062  32.610  1.00  0.00    -0.354 N 
ATOM     59  N   UNL A   1      41.281  30.868  34.888  1.00  0.00    -0.248 NA
ATOM     60  C   UNL A   1      41.842  31.618  37.029  1.00  0.00     0.031 C 
ATOM     61  C   UNL A   1      43.426  27.630  32.723  1.00  0.00     0.029 A 
ATOM     62  C   UNL A   1      42.768  28.627  33.426  1.00  0.00     0.049 A 
ATOM     63  H   UNL A   1      41.086  29.764  32.848  1.00  0.00     0.167 HD
ATOM     64  C   UNL A   1      42.379  30.147  35.351  1.00  0.00     0.074 A 
ATOM     65  C   UNL A   1      42.698  30.677  36.662  1.00  0.00     0.031 C 
ATOM     66  C   UNL A   1      43.068  29.146  34.742  1.00  0.00     0.034 A 
BRANCH  53  67
ATOM     67  C   UNL A   1      40.855  27.639  29.126  1.00  0.00     0.023 A 
ATOM     68  C   UNL A   1      41.813  27.851  28.119  1.00  0.00     0.031 A 
ATOM     69  C   UNL A   1      39.914  26.613  28.926  1.00  0.00     0.131 A 
ATOM     70  C   UNL A   1      41.737  27.137  26.914  1.00  0.00     0.055 A 
ATOM     71  C   UNL A   1      39.911  25.832  27.767  1.00  0.00     0.041 A 
ATOM     72  F   UNL A   1      38.961  26.370  29.839  1.00  0.00    -0.206 F 
ATOM     73  C   UNL A   1      40.810  26.108  26.742  1.00  0.00     0.022 A 
BRANCH  70  74
ATOM     74  S   UNL A   1      42.725  27.718  25.507  1.00  0.00     0.124 S 
ATOM     75  O   UNL A   1      43.993  28.049  26.154  1.00  0.00    -0.237 OA
ATOM     76  O   UNL A   1      42.741  26.553  24.630  1.00  0.00    -0.237 OA
ATOM     77  O   UNL A   1      41.971  28.866  25.010  1.00  0.00    -0.744 OA
ENDBRANCH  70  74
ENDBRANCH  53  67
BRANCH  54  78
ATOM     78  C   UNL A   1      39.771  33.685  37.046  1.00  0.00     0.023 A 
ATOM     79  C   UNL A   1      40.664  34.751  37.244  1.00  0.00     0.031 A 
ATOM     80  C   UNL A   1      38.758  33.488  38.001  1.00  0.00     0.131 A 
ATOM     81  C   UNL A   1      40.551  35.557  38.387  1.00  0.00     0.055 A 
ATOM     82  C   UNL A   1      38.619  34.324  39.111  1.00  0.00     0.041 A 
ATOM     83  F   UNL A   1      37.875  32.486  37.857  1.00  0.00    -0.206 F 
ATOM     84  C   UNL A   1      39.525  35.359  39.314  1.00  0.00     0.022 A 
BRANCH  81  85
ATOM     85  S   UNL A   1      41.810  36.828  38.679  1.00  0.00     0.124 S 
ATOM     86  O   UNL A   1      42.612  36.216  39.732  1.00  0.00    -0.237 OA
ATOM     87  O   UNL A   1      42.443  36.936  37.369  1.00  0.00    -0.237 OA
ATOM     88  O   UNL A   1      41.027  37.993  39.087  1.00  0.00    -0.744 OA
ENDBRANCH  81  85
ENDBRANCH  54  78
BRANCH  66  89
ATOM     89  C   UNL A   1      44.266  28.592  35.477  1.00  0.00     0.023 A 
ATOM     90  C   UNL A   1      44.131  27.690  36.547  1.00  0.00     0.031 A 
ATOM     91  C   UNL A   1      45.565  28.988  35.109  1.00  0.00     0.131 A 
ATOM     92  C   UNL A   1      45.268  27.260  37.248  1.00  0.00     0.055 A 
ATOM     93  C   UNL A   1      46.697  28.506  35.766  1.00  0.00     0.041 A 
ATOM     94  F   UNL A   1      45.755  29.853  34.099  1.00  0.00    -0.206 F 
ATOM     95  C   UNL A   1      46.552  27.648  36.852  1.00  0.00     0.022 A 
BRANCH  92  96
ATOM     96  S   UNL A   1      45.044  26.270  38.752  1.00  0.00     0.124 S 
ATOM     97  O   UNL A   1      45.532  24.962  38.330  1.00  0.00    -0.237 OA
ATOM     98  O   UNL A   1      45.876  26.980  39.718  1.00  0.00    -0.237 OA
ATOM     99  O   UNL A   1      43.605  26.345  39.001  1.00  0.00    -0.744 OA
ENDBRANCH  92  96
ENDBRANCH  66  89
ENDBRANCH  40  41
ENDBRANCH  32  35
ENDBRANCH  30  31
ENDBRANCH  29  30
ENDBRANCH  28  29
ENDBRANCH   1  28
TORSDOF 20
ENDMDL
MODEL 2
REMARK VINA RESULT:     -11.2      1.142      7.464
REMARK SMILES COc1cc(/C=N/NC(=O)c2cccnc2)ccc1OCC(=O)NCCCCNC(=O)c1ccc(-c2c3nc(c(-c4cc(S(=O)(=O)[O-])ccc4F)c4ccc([nH]4)c(-c4cc(S(=O)(=O)[O-])ccc4F)c4nc(c(-c5cc(S(=O)(=O)[O-])ccc5F)c5ccc2[nH]5)C=C4)C=C3)cc1
REMARK SMILES IDX 25 1 24 2 22 3 23 4 21 6 20 7 19 8 3 9 4 10 5 11 18 12 17 13
REMARK SMILES IDX 2 14 1 15 6 16 7 17 8 18 9 19 10 21 11 22 12 23 16 24 13 25
REMARK SMILES IDX 15 26 14 27 26 28 27 29 28 30 29 31 30 32 31 34 32 35 33 36
REMARK SMILES IDX 94 37 34 38 93 39 35 40 36 41 37 42 87 43 38 44 92 45 86 46
REMARK SMILES IDX 88 47 39 48 91 49 85 50 84 51 40 53 72 54 52 55 71 56 53 57
REMARK SMILES IDX 56 58 70 59 89 60 54 61 55 62 69 64 90 65 57 66 41 67 42 68
REMARK SMILES IDX 50 69 43 70 49 71 51 72 48 73 44 74 45 75 46 76 47 77 73 78
REMARK SMILES IDX 74 79 82 80 75 81 81 82 83 83 80 84 76 85 77 86 78 87 79 88
REMARK SMILES IDX 58 89 59 90 67 91 60 92 66 93 68 94 65 95 61 96 62 97 63 98
REMARK SMILES IDX 64 99
REMARK H PARENT 24 5 8 20 29 33 88 52 56 63
REMARK Flexibility Score: inf
ROOT
ATOM      1  C   UNL A   1      31.463  30.160  24.951  1.00  0.00     0.116 C 
ENDROOT
BRANCH   1   2
ATOM      2  N   UNL A   1      30.274  30.815  24.451  1.00  0.00    -0.353 N 
ATOM      3  C   UNL A   1      29.543  30.513  23.337  1.00  0.00     0.257 C 
ATOM      4  O   UNL A   1      28.423  31.016  23.227  1.00  0.00    -0.271 OA
ATOM      5  H   UNL A   1      29.948  31.577  24.982  1.00  0.00     0.163 HD
BRANCH   3   6
ATOM      6  C   UNL A   1      30.088  29.514  22.306  1.00  0.00     0.329 C 
BRANCH   6   7
ATOM      7  O   UNL A   1      29.499  28.227  22.239  1.00  0.00    -0.480 OA
BRANCH   7   8
ATOM      8  C   UNL A   1      30.083  27.175  22.888  1.00  0.00     0.161 A 
ATOM      9  C   UNL A   1      31.048  26.281  22.405  1.00  0.00     0.161 A 
ATOM     10  C   UNL A   1      31.479  25.215  23.210  1.00  0.00     0.060 A 
ATOM     11  C   UNL A   1      30.986  25.074  24.509  1.00  0.00    -0.002 A 
ATOM     12  C   UNL A   1      29.585  27.001  24.189  1.00  0.00     0.051 A 
ATOM     13  C   UNL A   1      30.049  25.974  25.010  1.00  0.00     0.014 A 
BRANCH   9  14
ATOM     14  O   UNL A   1      31.475  26.360  21.108  1.00  0.00    -0.493 OA
ATOM     15  C   UNL A   1      32.699  25.655  20.885  1.00  0.00     0.278 C 
ENDBRANCH   9  14
BRANCH  11  16
ATOM     16  C   UNL A   1      31.357  23.921  25.350  1.00  0.00     0.141 C 
ATOM     17  N   UNL A   1      32.185  23.022  24.922  1.00  0.00    -0.180 NA
BRANCH  17  18
ATOM     18  N   UNL A   1      32.363  21.898  25.678  1.00  0.00    -0.243 N 
ATOM     19  C   UNL A   1      33.534  21.308  26.128  1.00  0.00     0.272 C 
ATOM     20  H   UNL A   1      31.535  21.439  25.946  1.00  0.00     0.194 HD
ATOM     21  O   UNL A   1      33.498  20.274  26.794  1.00  0.00    -0.267 OA
BRANCH  19  22
ATOM     22  C   UNL A   1      34.850  21.899  25.828  1.00  0.00     0.059 A 
ATOM     23  C   UNL A   1      35.228  23.179  26.235  1.00  0.00     0.017 A 
ATOM     24  C   UNL A   1      35.754  21.149  25.088  1.00  0.00     0.124 A 
ATOM     25  C   UNL A   1      36.458  23.686  25.821  1.00  0.00     0.021 A 
ATOM     26  N   UNL A   1      36.958  21.620  24.676  1.00  0.00    -0.264 NA
ATOM     27  C   UNL A   1      37.276  22.881  25.043  1.00  0.00     0.111 A 
ENDBRANCH  19  22
ENDBRANCH  17  18
ENDBRANCH  11  16
ENDBRANCH   7   8
ENDBRANCH   6   7
ENDBRANCH   3   6
ENDBRANCH   1   2
BRANCH   1  28
ATOM     28  C   UNL A   1      31.742  30.462  26.421  1.00  0.00     0.023 C 
BRANCH  28  29
ATOM     29  C   UNL A   1      31.568  31.920  26.847  1.00  0.00     0.023 C 
BRANCH  29  30
ATOM     30  C   UNL A   1      32.826  32.623  27.341  1.00  0.00     0.116 C 
BRANCH  30  31
ATOM     31  N   UNL A   1      32.597  34.008  27.714  1.00  0.00    -0.352 N 
ATOM     32  C   UNL A   1      33.245  34.779  28.649  1.00  0.00     0.251 C 
ATOM     33  H   UNL A   1      31.870  34.460  27.228  1.00  0.00     0.163 HD
ATOM     34  O   UNL A   1      32.820  35.901  28.907  1.00  0.00    -0.269 OA
BRANCH  32  35
ATOM     35  C   UNL A   1      34.420  34.236  29.365  1.00  0.00     0.039 A 
ATOM     36  C   UNL A   1      34.211  33.469  30.513  1.00  0.00     0.014 A 
ATOM     37  C   UNL A   1      35.717  34.461  28.897  1.00  0.00     0.014 A 
ATOM     38  C   UNL A   1      35.298  32.864  31.147  1.00  0.00     0.010 A 
ATOM     39  C   UNL A   1      36.789  33.790  29.482  1.00  0.00     0.010 A 
ATOM     40  C   UNL A   1      36.591  32.984  30.613  1.00  0.00    -0.014 A 
BRANCH  40  41
ATOM     41  C   UNL A   1      37.747  32.278  31.225  1.00  0.00     0.031 A 
ATOM     42  C   UNL A   1      38.310  32.744  32.539  1.00  0.00     0.074 A 
ATOM     43  C   UNL A   1      38.323  31.250  30.572  1.00  0.00     0.049 A 
ATOM     44  N   UNL A   1      39.341  32.295  33.207  1.00  0.00    -0.248 NA
ATOM     45  C   UNL A   1      37.640  33.892  33.165  1.00  0.00     0.031 C 
ATOM     46  C   UNL A   1      37.889  30.721  29.278  1.00  0.00     0.029 A 
ATOM     47  N   UNL A   1      39.396  30.463  30.907  1.00  0.00    -0.354 N 
ATOM     48  C   UNL A   1      39.448  33.108  34.330  1.00  0.00     0.074 A 
ATOM     49  C   UNL A   1      38.427  34.128  34.202  1.00  0.00     0.031 C 
ATOM     50  C   UNL A   1      38.659  29.671  28.952  1.00  0.00     0.029 A 
ATOM     51  C   UNL A   1      39.673  29.482  29.984  1.00  0.00     0.049 A 
ATOM     52  H   UNL A   1      39.920  30.589  31.732  1.00  0.00     0.167 HD
ATOM     53  C   UNL A   1      40.294  32.997  35.386  1.00  0.00     0.034 A 
ATOM     54  C   UNL A   1      40.636  28.541  29.969  1.00  0.00     0.034 A 
ATOM     55  C   UNL A   1      41.312  31.979  35.491  1.00  0.00     0.049 A 
ATOM     56  C   UNL A   1      41.614  28.478  31.114  1.00  0.00     0.074 A 
ATOM     57  C   UNL A   1      42.201  31.748  36.527  1.00  0.00     0.029 A 
ATOM     58  N   UNL A   1      41.592  31.029  34.515  1.00  0.00    -0.354 N 
ATOM     59  N   UNL A   1      41.674  29.224  32.193  1.00  0.00    -0.248 NA
ATOM     60  C   UNL A   1      42.649  27.440  31.040  1.00  0.00     0.031 C 
ATOM     61  C   UNL A   1      43.066  30.715  36.145  1.00  0.00     0.029 A 
ATOM     62  C   UNL A   1      42.662  30.238  34.908  1.00  0.00     0.049 A 
ATOM     63  H   UNL A   1      41.100  30.931  33.667  1.00  0.00     0.167 HD
ATOM     64  C   UNL A   1      42.733  28.719  32.943  1.00  0.00     0.074 A 
ATOM     65  C   UNL A   1      43.274  27.601  32.196  1.00  0.00     0.031 C 
ATOM     66  C   UNL A   1      43.209  29.136  34.146  1.00  0.00     0.034 A 
BRANCH  53  67
ATOM     67  C   UNL A   1      40.160  34.030  36.484  1.00  0.00     0.023 A 
ATOM     68  C   UNL A   1      41.134  35.027  36.678  1.00  0.00     0.031 A 
ATOM     69  C   UNL A   1      39.091  33.977  37.395  1.00  0.00     0.131 A 
ATOM     70  C   UNL A   1      41.085  35.846  37.817  1.00  0.00     0.055 A 
ATOM     71  C   UNL A   1      38.991  34.868  38.468  1.00  0.00     0.041 A 
ATOM     72  F   UNL A   1      38.137  33.040  37.278  1.00  0.00    -0.206 F 
ATOM     73  C   UNL A   1      40.004  35.792  38.698  1.00  0.00     0.022 A 
BRANCH  70  74
ATOM     74  S   UNL A   1      42.555  36.824  38.235  1.00  0.00     0.124 S 
ATOM     75  O   UNL A   1      43.545  35.778  38.483  1.00  0.00    -0.237 OA
ATOM     76  O   UNL A   1      42.756  37.622  37.031  1.00  0.00    -0.237 OA
ATOM     77  O   UNL A   1      42.142  37.573  39.420  1.00  0.00    -0.744 OA
ENDBRANCH  70  74
ENDBRANCH  53  67
BRANCH  54  78
ATOM     78  C   UNL A   1      40.718  27.566  28.844  1.00  0.00     0.023 A 
ATOM     79  C   UNL A   1      41.673  27.727  27.827  1.00  0.00     0.031 A 
ATOM     80  C   UNL A   1      39.836  26.475  28.755  1.00  0.00     0.131 A 
ATOM     81  C   UNL A   1      41.699  26.836  26.744  1.00  0.00     0.055 A 
ATOM     82  C   UNL A   1      39.900  25.561  27.702  1.00  0.00     0.041 A 
ATOM     83  F   UNL A   1      38.909  26.272  29.705  1.00  0.00    -0.206 F 
ATOM     84  C   UNL A   1      40.828  25.745  26.682  1.00  0.00     0.022 A 
BRANCH  81  85
ATOM     85  S   UNL A   1      42.847  27.162  25.379  1.00  0.00     0.124 S 
ATOM     86  O   UNL A   1      42.881  25.870  24.705  1.00  0.00    -0.237 OA
ATOM     87  O   UNL A   1      42.172  28.242  24.667  1.00  0.00    -0.237 OA
ATOM     88  O   UNL A   1      44.083  27.546  26.060  1.00  0.00    -0.744 OA
ENDBRANCH  81  85
ENDBRANCH  54  78
BRANCH  66  89
ATOM     89  C   UNL A   1      44.346  28.344  34.747  1.00  0.00     0.023 A 
ATOM     90  C   UNL A   1      44.122  27.238  35.586  1.00  0.00     0.031 A 
ATOM     91  C   UNL A   1      45.679  28.713  34.486  1.00  0.00     0.131 A 
ATOM     92  C   UNL A   1      45.208  26.579  36.181  1.00  0.00     0.055 A 
ATOM     93  C   UNL A   1      46.757  28.012  35.026  1.00  0.00     0.041 A 
ATOM     94  F   UNL A   1      45.955  29.764  33.697  1.00  0.00    -0.206 F 
ATOM     95  C   UNL A   1      46.525  26.947  35.891  1.00  0.00     0.022 A 
BRANCH  92  96
ATOM     96  S   UNL A   1      44.877  25.298  37.423  1.00  0.00     0.124 S 
ATOM     97  O   UNL A   1      45.096  24.073  36.661  1.00  0.00    -0.237 OA
ATOM     98  O   UNL A   1      45.871  25.596  38.449  1.00  0.00    -0.237 OA
ATOM     99  O   UNL A   1      43.491  25.547  37.813  1.00  0.00    -0.744 OA
ENDBRANCH  92  96
ENDBRANCH  66  89
ENDBRANCH  40  41
ENDBRANCH  32  35
ENDBRANCH  30  31
ENDBRANCH  29  30
ENDBRANCH  28  29
ENDBRANCH   1  28
TORSDOF 20
ENDMDL
MODEL 3
REMARK VINA RESULT:     -10.6      4.482      7.503
REMARK SMILES COc1cc(/C=N/NC(=O)c2cccnc2)ccc1OCC(=O)NCCCCNC(=O)c1ccc(-c2c3nc(c(-c4cc(S(=O)(=O)[O-])ccc4F)c4ccc([nH]4)c(-c4cc(S(=O)(=O)[O-])ccc4F)c4nc(c(-c5cc(S(=O)(=O)[O-])ccc5F)c5ccc2[nH]5)C=C4)C=C3)cc1
REMARK SMILES IDX 25 1 24 2 22 3 23 4 21 6 20 7 19 8 3 9 4 10 5 11 18 12 17 13
REMARK SMILES IDX 2 14 1 15 6 16 7 17 8 18 9 19 10 21 11 22 12 23 16 24 13 25
REMARK SMILES IDX 15 26 14 27 26 28 27 29 28 30 29 31 30 32 31 34 32 35 33 36
REMARK SMILES IDX 94 37 34 38 93 39 35 40 36 41 37 42 87 43 38 44 92 45 86 46
REMARK SMILES IDX 88 47 39 48 91 49 85 50 84 51 40 53 72 54 52 55 71 56 53 57
REMARK SMILES IDX 56 58 70 59 89 60 54 61 55 62 69 64 90 65 57 66 41 67 42 68
REMARK SMILES IDX 50 69 43 70 49 71 51 72 48 73 44 74 45 75 46 76 47 77 73 78
REMARK SMILES IDX 74 79 82 80 75 81 81 82 83 83 80 84 76 85 77 86 78 87 79 88
REMARK SMILES IDX 58 89 59 90 67 91 60 92 66 93 68 94 65 95 61 96 62 97 63 98
REMARK SMILES IDX 64 99
REMARK H PARENT 24 5 8 20 29 33 88 52 56 63
REMARK Flexibility Score: inf
ROOT
ATOM      1  C   UNL A   1      39.590  28.343  27.938  1.00  0.00     0.116 C 
ENDROOT
BRANCH   1   2
ATOM      2  N   UNL A   1      40.448  27.934  26.847  1.00  0.00    -0.353 N 
ATOM      3  C   UNL A   1      40.795  26.669  26.470  1.00  0.00     0.257 C 
ATOM      4  O   UNL A   1      41.317  26.519  25.363  1.00  0.00    -0.271 OA
ATOM      5  H   UNL A   1      40.830  28.662  26.305  1.00  0.00     0.163 HD
BRANCH   3   6
ATOM      6  C   UNL A   1      40.466  25.476  27.378  1.00  0.00     0.329 C 
BRANCH   6   7
ATOM      7  O   UNL A   1      40.787  24.173  26.922  1.00  0.00    -0.480 OA
BRANCH   7   8
ATOM      8  C   UNL A   1      39.792  23.327  26.516  1.00  0.00     0.161 A 
ATOM      9  C   UNL A   1      39.883  21.965  26.202  1.00  0.00     0.161 A 
ATOM     10  C   UNL A   1      38.751  21.277  25.736  1.00  0.00     0.060 A 
ATOM     11  C   UNL A   1      37.524  21.937  25.633  1.00  0.00    -0.002 A 
ATOM     12  C   UNL A   1      38.554  23.975  26.384  1.00  0.00     0.051 A 
ATOM     13  C   UNL A   1      37.416  23.283  25.971  1.00  0.00     0.014 A 
BRANCH   9  14
ATOM     14  O   UNL A   1      41.094  21.331  26.220  1.00  0.00    -0.493 OA
ATOM     15  C   UNL A   1      41.349  20.657  27.455  1.00  0.00     0.278 C 
ENDBRANCH   9  14
BRANCH  11  16
ATOM     16  C   UNL A   1      36.338  21.267  25.071  1.00  0.00     0.141 C 
ATOM     17  N   UNL A   1      35.294  21.035  25.802  1.00  0.00    -0.180 NA
BRANCH  17  18
ATOM     18  N   UNL A   1      34.294  20.269  25.271  1.00  0.00    -0.243 N 
ATOM     19  C   UNL A   1      33.217  20.639  24.481  1.00  0.00     0.272 C 
ATOM     20  H   UNL A   1      34.347  19.309  25.480  1.00  0.00     0.194 HD
ATOM     21  O   UNL A   1      32.398  19.802  24.106  1.00  0.00    -0.267 OA
BRANCH  19  22
ATOM     22  C   UNL A   1      33.022  22.040  24.065  1.00  0.00     0.059 A 
ATOM     23  C   UNL A   1      32.964  22.444  22.731  1.00  0.00     0.017 A 
ATOM     24  C   UNL A   1      32.907  23.009  25.052  1.00  0.00     0.124 A 
ATOM     25  C   UNL A   1      32.872  23.803  22.438  1.00  0.00     0.021 A 
ATOM     26  N   UNL A   1      32.814  24.337  24.792  1.00  0.00    -0.264 NA
ATOM     27  C   UNL A   1      32.811  24.703  23.491  1.00  0.00     0.111 A 
ENDBRANCH  19  22
ENDBRANCH  17  18
ENDBRANCH  11  16
ENDBRANCH   7   8
ENDBRANCH   6   7
ENDBRANCH   3   6
ENDBRANCH   1   2
BRANCH   1  28
ATOM     28  C   UNL A   1      38.638  29.476  27.562  1.00  0.00     0.023 C 
BRANCH  28  29
ATOM     29  C   UNL A   1      37.986  30.215  28.730  1.00  0.00     0.023 C 
BRANCH  29  30
ATOM     30  C   UNL A   1      36.938  29.431  29.511  1.00  0.00     0.116 C 
BRANCH  30  31
ATOM     31  N   UNL A   1      36.405  30.166  30.646  1.00  0.00    -0.352 N 
ATOM     32  C   UNL A   1      36.934  30.334  31.903  1.00  0.00     0.251 C 
ATOM     33  H   UNL A   1      35.538  30.606  30.492  1.00  0.00     0.163 HD
ATOM     34  O   UNL A   1      36.267  30.893  32.769  1.00  0.00    -0.269 OA
BRANCH  32  35
ATOM     35  C   UNL A   1      38.280  29.805  32.213  1.00  0.00     0.039 A 
ATOM     36  C   UNL A   1      38.435  28.429  32.393  1.00  0.00     0.014 A 
ATOM     37  C   UNL A   1      39.385  30.654  32.303  1.00  0.00     0.014 A 
ATOM     38  C   UNL A   1      39.712  27.897  32.588  1.00  0.00     0.010 A 
ATOM     39  C   UNL A   1      40.664  30.115  32.414  1.00  0.00     0.010 A 
ATOM     40  C   UNL A   1      40.842  28.731  32.558  1.00  0.00    -0.014 A 
BRANCH  40  41
ATOM     41  C   UNL A   1      42.214  28.173  32.677  1.00  0.00     0.031 A 
ATOM     42  C   UNL A   1      43.003  27.831  31.443  1.00  0.00     0.074 A 
ATOM     43  C   UNL A   1      42.731  27.924  33.896  1.00  0.00     0.049 A 
ATOM     44  N   UNL A   1      44.190  27.290  31.340  1.00  0.00    -0.248 NA
ATOM     45  C   UNL A   1      42.351  28.105  30.155  1.00  0.00     0.031 C 
ATOM     46  C   UNL A   1      42.054  28.184  35.169  1.00  0.00     0.029 A 
ATOM     47  N   UNL A   1      43.943  27.400  34.268  1.00  0.00    -0.354 N 
ATOM     48  C   UNL A   1      44.426  27.154  29.976  1.00  0.00     0.074 A 
ATOM     49  C   UNL A   1      43.220  27.590  29.301  1.00  0.00     0.031 C 
ATOM     50  C   UNL A   1      42.879  27.861  36.178  1.00  0.00     0.029 A 
ATOM     51  C   UNL A   1      44.119  27.322  35.629  1.00  0.00     0.049 A 
ATOM     52  H   UNL A   1      44.623  27.105  33.619  1.00  0.00     0.167 HD
ATOM     53  C   UNL A   1      45.551  26.735  29.342  1.00  0.00     0.034 A 
ATOM     54  C   UNL A   1      45.159  26.867  36.353  1.00  0.00     0.034 A 
ATOM     55  C   UNL A   1      46.740  26.294  30.032  1.00  0.00     0.049 A 
ATOM     56  C   UNL A   1      46.373  26.337  35.633  1.00  0.00     0.074 A 
ATOM     57  C   UNL A   1      47.948  25.884  29.497  1.00  0.00     0.029 A 
ATOM     58  N   UNL A   1      46.866  26.188  31.413  1.00  0.00    -0.354 N 
ATOM     59  N   UNL A   1      46.602  26.257  34.343  1.00  0.00    -0.248 NA
ATOM     60  C   UNL A   1      47.472  25.843  36.472  1.00  0.00     0.031 C 
ATOM     61  C   UNL A   1      48.773  25.456  30.545  1.00  0.00     0.029 A 
ATOM     62  C   UNL A   1      48.115  25.683  31.744  1.00  0.00     0.049 A 
ATOM     63  H   UNL A   1      46.169  26.437  32.063  1.00  0.00     0.167 HD
ATOM     64  C   UNL A   1      47.887  25.736  34.217  1.00  0.00     0.074 A 
ATOM     65  C   UNL A   1      48.384  25.531  35.563  1.00  0.00     0.031 C 
ATOM     66  C   UNL A   1      48.596  25.462  33.090  1.00  0.00     0.034 A 
BRANCH  53  67
ATOM     67  C   UNL A   1      45.518  26.712  27.829  1.00  0.00     0.023 A 
ATOM     68  C   UNL A   1      45.408  25.505  27.115  1.00  0.00     0.031 A 
ATOM     69  C   UNL A   1      45.675  27.896  27.088  1.00  0.00     0.131 A 
ATOM     70  C   UNL A   1      45.576  25.493  25.722  1.00  0.00     0.055 A 
ATOM     71  C   UNL A   1      45.734  27.889  25.691  1.00  0.00     0.041 A 
ATOM     72  F   UNL A   1      45.805  29.080  27.707  1.00  0.00    -0.206 F 
ATOM     73  C   UNL A   1      45.710  26.681  25.002  1.00  0.00     0.022 A 
BRANCH  70  74
ATOM     74  S   UNL A   1      45.828  23.895  24.900  1.00  0.00     0.124 S 
ATOM     75  O   UNL A   1      46.790  24.249  23.858  1.00  0.00    -0.237 OA
ATOM     76  O   UNL A   1      46.336  23.060  25.982  1.00  0.00    -0.237 OA
ATOM     77  O   UNL A   1      44.495  23.547  24.413  1.00  0.00    -0.744 OA
ENDBRANCH  70  74
ENDBRANCH  53  67
BRANCH  54  78
ATOM     78  C   UNL A   1      45.114  26.904  37.842  1.00  0.00     0.023 A 
ATOM     79  C   UNL A   1      45.550  28.040  38.543  1.00  0.00     0.031 A 
ATOM     80  C   UNL A   1      44.658  25.803  38.589  1.00  0.00     0.131 A 
ATOM     81  C   UNL A   1      45.558  28.038  39.946  1.00  0.00     0.055 A 
ATOM     82  C   UNL A   1      44.619  25.825  39.984  1.00  0.00     0.041 A 
ATOM     83  F   UNL A   1      44.225  24.694  37.968  1.00  0.00    -0.206 F 
ATOM     84  C   UNL A   1      45.081  26.943  40.671  1.00  0.00     0.022 A 
BRANCH  81  85
ATOM     85  S   UNL A   1      46.264  29.465  40.811  1.00  0.00     0.124 S 
ATOM     86  O   UNL A   1      45.182  29.825  41.722  1.00  0.00    -0.237 OA
ATOM     87  O   UNL A   1      47.456  28.889  41.425  1.00  0.00    -0.237 OA
ATOM     88  O   UNL A   1      46.520  30.422  39.736  1.00  0.00    -0.744 OA
ENDBRANCH  81  85
ENDBRANCH  54  78
BRANCH  66  89
ATOM     89  C   UNL A   1      50.006  24.953  33.274  1.00  0.00     0.023 A 
ATOM     90  C   UNL A   1      50.332  23.593  33.125  1.00  0.00     0.031 A 
ATOM     91  C   UNL A   1      51.039  25.843  33.620  1.00  0.00     0.131 A 
ATOM     92  C   UNL A   1      51.640  23.155  33.379  1.00  0.00     0.055 A 
ATOM     93  C   UNL A   1      52.353  25.412  33.805  1.00  0.00     0.041 A 
ATOM     94  F   UNL A   1      50.787  27.152  33.781  1.00  0.00    -0.206 F 
ATOM     95  C   UNL A   1      52.657  24.058  33.700  1.00  0.00     0.022 A 
BRANCH  92  96
ATOM     96  S   UNL A   1      51.976  21.371  33.389  1.00  0.00     0.124 S 
ATOM     97  O   UNL A   1      52.656  21.198  34.668  1.00  0.00    -0.237 OA
ATOM     98  O   UNL A   1      50.636  20.802  33.297  1.00  0.00    -0.237 OA
ATOM     99  O   UNL A   1      52.815  21.174  32.209  1.00  0.00    -0.744 OA
ENDBRANCH  92  96
ENDBRANCH  66  89
ENDBRANCH  40  41
ENDBRANCH  32  35
ENDBRANCH  30  31
ENDBRANCH  29  30
ENDBRANCH  28  29
ENDBRANCH   1  28
TORSDOF 20
ENDMDL
