MODEL 1
REMARK VINA RESULT:     -12.1      0.000      0.000
REMARK SMILES Cc1nsc(N(C)C(=O)c2ccc(=O)n(C)n2)c1C(=O)NCCCCNC(=O)c1ccc(-c2c3nc(c(-c4cc(S(=O)(=O)[O-])ccc4F)c4ccc([nH]4)c(-c4cc(S(=O)(=O)[O-])ccc4F)c4nc(c(-c5cc(S(=O)(=O)[O-])ccc5F)c5ccc2[nH]5)C=C4)C=C3)cc1
REMARK SMILES IDX 23 1 22 2 21 3 19 4 20 5 18 7 1 8 2 9 3 10 4 11 5 12 6 13
REMARK SMILES IDX 7 14 8 15 9 16 10 17 11 18 17 19 12 20 15 21 13 22 16 23
REMARK SMILES IDX 14 24 24 25 25 26 26 27 27 28 28 30 29 31 30 32 91 33 31 34
REMARK SMILES IDX 90 35 32 36 33 37 34 38 84 39 35 40 89 41 83 42 85 43 36 44
REMARK SMILES IDX 88 45 82 46 81 47 37 49 69 50 49 51 68 52 50 53 53 54 67 55
REMARK SMILES IDX 86 56 51 57 52 58 66 60 87 61 54 62 38 63 39 64 47 65 40 66
REMARK SMILES IDX 46 67 48 68 45 69 41 70 42 71 43 72 44 73 70 74 71 75 79 76
REMARK SMILES IDX 72 77 78 78 80 79 77 80 73 81 74 82 75 83 76 84 55 85 56 86
REMARK SMILES IDX 64 87 57 88 63 89 65 90 62 91 58 92 59 93 60 94 61 95
REMARK H PARENT 21 6 26 29 85 48 53 59
REMARK Flexibility Score: inf
ROOT
ATOM      1  C   UNL A   1      36.647  20.809  24.664  1.00  0.00     0.023 C 
ENDROOT
BRANCH   1   2
ATOM      2  C   UNL A   1      36.744  21.999  25.620  1.00  0.00     0.116 C 
BRANCH   2   3
ATOM      3  N   UNL A   1      35.578  22.156  26.458  1.00  0.00    -0.352 N 
ATOM      4  C   UNL A   1      34.311  21.637  26.316  1.00  0.00     0.256 C 
ATOM      5  O   UNL A   1      33.864  21.071  27.316  1.00  0.00    -0.269 OA
ATOM      6  H   UNL A   1      35.710  22.723  27.253  1.00  0.00     0.163 HD
BRANCH   4   7
ATOM      7  C   UNL A   1      33.450  21.840  25.136  1.00  0.00     0.097 A 
ATOM      8  C   UNL A   1      33.178  19.460  23.911  1.00  0.00     0.069 C 
ATOM      9  C   UNL A   1      32.915  20.904  24.141  1.00  0.00     0.066 A 
ATOM     10  N   UNL A   1      31.997  21.393  23.305  1.00  0.00    -0.195 NA
ATOM     11  S   UNL A   1      31.689  22.944  23.677  1.00  0.00    -0.017 S 
ATOM     12  C   UNL A   1      32.900  23.115  24.873  1.00  0.00     0.131 A 
BRANCH  12  13
ATOM     13  N   UNL A   1      33.126  24.431  25.361  1.00  0.00    -0.299 N 
ATOM     14  C   UNL A   1      34.362  25.180  25.117  1.00  0.00     0.154 C 
BRANCH  13  15
ATOM     15  C   UNL A   1      32.139  24.997  26.202  1.00  0.00     0.279 C 
ATOM     16  O   UNL A   1      31.628  24.428  27.167  1.00  0.00    -0.267 OA
BRANCH  15  17
ATOM     17  C   UNL A   1      31.805  26.494  26.032  1.00  0.00     0.149 A 
ATOM     18  C   UNL A   1      32.099  27.351  27.203  1.00  0.00     0.042 A 
ATOM     19  N   UNL A   1      31.332  26.947  24.908  1.00  0.00    -0.165 NA
ATOM     20  C   UNL A   1      31.989  28.669  27.037  1.00  0.00     0.076 A 
ATOM     21  N   UNL A   1      31.179  28.314  24.778  1.00  0.00    -0.232 N 
ATOM     22  C   UNL A   1      31.566  29.236  25.740  1.00  0.00     0.266 A 
ATOM     23  C   UNL A   1      30.646  28.796  23.519  1.00  0.00     0.178 C 
ATOM     24  O   UNL A   1      31.581  30.455  25.586  1.00  0.00    -0.268 OA
ENDBRANCH  15  17
ENDBRANCH  13  15
ENDBRANCH  12  13
ENDBRANCH   4   7
ENDBRANCH   2   3
ENDBRANCH   1   2
BRANCH   1  25
ATOM     25  C   UNL A   1      37.762  19.762  24.805  1.00  0.00     0.023 C 
BRANCH  25  26
ATOM     26  C   UNL A   1      38.805  20.080  25.874  1.00  0.00     0.116 C 
BRANCH  26  27
ATOM     27  N   UNL A   1      39.988  19.225  25.779  1.00  0.00    -0.352 N 
ATOM     28  C   UNL A   1      41.306  19.620  25.790  1.00  0.00     0.251 C 
ATOM     29  H   UNL A   1      39.823  18.258  25.699  1.00  0.00     0.163 HD
ATOM     30  O   UNL A   1      42.184  18.896  25.307  1.00  0.00    -0.269 OA
BRANCH  28  31
ATOM     31  C   UNL A   1      41.663  20.896  26.421  1.00  0.00     0.039 A 
ATOM     32  C   UNL A   1      42.214  21.949  25.682  1.00  0.00     0.014 A 
ATOM     33  C   UNL A   1      41.445  21.016  27.795  1.00  0.00     0.014 A 
ATOM     34  C   UNL A   1      42.503  23.144  26.331  1.00  0.00     0.010 A 
ATOM     35  C   UNL A   1      41.626  22.228  28.411  1.00  0.00     0.010 A 
ATOM     36  C   UNL A   1      42.207  23.270  27.696  1.00  0.00    -0.014 A 
BRANCH  36  37
ATOM     37  C   UNL A   1      42.387  24.537  28.390  1.00  0.00     0.031 A 
ATOM     38  C   UNL A   1      41.273  25.497  28.160  1.00  0.00     0.074 A 
ATOM     39  C   UNL A   1      43.328  24.687  29.347  1.00  0.00     0.049 A 
ATOM     40  N   UNL A   1      41.286  26.584  27.460  1.00  0.00    -0.248 NA
ATOM     41  C   UNL A   1      39.921  25.093  28.595  1.00  0.00     0.031 C 
ATOM     42  C   UNL A   1      44.224  23.652  29.885  1.00  0.00     0.029 A 
ATOM     43  N   UNL A   1      43.613  25.758  30.134  1.00  0.00    -0.354 N 
ATOM     44  C   UNL A   1      40.010  27.129  27.603  1.00  0.00     0.074 A 
ATOM     45  C   UNL A   1      39.168  26.061  28.070  1.00  0.00     0.031 C 
ATOM     46  C   UNL A   1      44.762  24.076  31.050  1.00  0.00     0.029 A 
ATOM     47  C   UNL A   1      44.393  25.464  31.248  1.00  0.00     0.049 A 
ATOM     48  H   UNL A   1      43.294  26.667  29.932  1.00  0.00     0.167 HD
ATOM     49  C   UNL A   1      39.818  28.479  27.659  1.00  0.00     0.034 A 
ATOM     50  C   UNL A   1      44.680  26.299  32.278  1.00  0.00     0.034 A 
ATOM     51  C   UNL A   1      41.023  29.175  27.298  1.00  0.00     0.049 A 
ATOM     52  C   UNL A   1      44.411  27.676  31.815  1.00  0.00     0.074 A 
ATOM     53  C   UNL A   1      41.738  29.392  26.143  1.00  0.00     0.029 A 
ATOM     54  N   UNL A   1      41.863  29.404  28.358  1.00  0.00    -0.354 N 
ATOM     55  N   UNL A   1      45.101  28.270  30.882  1.00  0.00    -0.248 NA
ATOM     56  C   UNL A   1      43.117  28.274  32.120  1.00  0.00     0.031 C 
ATOM     57  C   UNL A   1      43.097  29.516  26.550  1.00  0.00     0.029 A 
ATOM     58  C   UNL A   1      43.166  29.434  27.942  1.00  0.00     0.049 A 
ATOM     59  H   UNL A   1      41.569  29.531  29.289  1.00  0.00     0.167 HD
ATOM     60  C   UNL A   1      44.160  29.012  30.192  1.00  0.00     0.074 A 
ATOM     61  C   UNL A   1      43.017  29.119  31.090  1.00  0.00     0.031 C 
ATOM     62  C   UNL A   1      44.273  29.188  28.845  1.00  0.00     0.034 A 
BRANCH  49  63
ATOM     63  C   UNL A   1      38.751  29.155  28.497  1.00  0.00     0.023 A 
ATOM     64  C   UNL A   1      37.678  29.869  27.932  1.00  0.00     0.031 A 
ATOM     65  C   UNL A   1      38.643  28.885  29.876  1.00  0.00     0.131 A 
ATOM     66  C   UNL A   1      36.599  30.321  28.701  1.00  0.00     0.055 A 
ATOM     67  C   UNL A   1      37.529  29.273  30.636  1.00  0.00     0.041 A 
ATOM     68  F   UNL A   1      39.593  28.184  30.517  1.00  0.00    -0.206 F 
ATOM     69  C   UNL A   1      36.500  30.001  30.050  1.00  0.00     0.022 A 
BRANCH  66  70
ATOM     70  S   UNL A   1      35.290  31.314  27.933  1.00  0.00     0.124 S 
ATOM     71  O   UNL A   1      34.380  31.533  29.051  1.00  0.00    -0.237 OA
ATOM     72  O   UNL A   1      36.038  32.484  27.482  1.00  0.00    -0.237 OA
ATOM     73  O   UNL A   1      34.791  30.451  26.865  1.00  0.00    -0.744 OA
ENDBRANCH  66  70
ENDBRANCH  49  63
BRANCH  50  74
ATOM     74  C   UNL A   1      44.751  25.976  33.724  1.00  0.00     0.023 A 
ATOM     75  C   UNL A   1      43.566  25.891  34.474  1.00  0.00     0.031 A 
ATOM     76  C   UNL A   1      45.959  26.109  34.434  1.00  0.00     0.131 A 
ATOM     77  C   UNL A   1      43.600  26.022  35.870  1.00  0.00     0.055 A 
ATOM     78  C   UNL A   1      45.991  26.223  35.829  1.00  0.00     0.041 A 
ATOM     79  F   UNL A   1      47.126  26.214  33.779  1.00  0.00    -0.206 F 
ATOM     80  C   UNL A   1      44.804  26.202  36.553  1.00  0.00     0.022 A 
BRANCH  77  81
ATOM     81  S   UNL A   1      42.053  26.051  36.816  1.00  0.00     0.124 S 
ATOM     82  O   UNL A   1      41.546  24.694  36.624  1.00  0.00    -0.237 OA
ATOM     83  O   UNL A   1      42.534  26.359  38.158  1.00  0.00    -0.237 OA
ATOM     84  O   UNL A   1      41.277  27.097  36.157  1.00  0.00    -0.744 OA
ENDBRANCH  77  81
ENDBRANCH  50  74
BRANCH  62  85
ATOM     85  C   UNL A   1      45.616  28.956  28.206  1.00  0.00     0.023 A 
ATOM     86  C   UNL A   1      45.829  27.678  27.673  1.00  0.00     0.031 A 
ATOM     87  C   UNL A   1      46.713  29.833  28.280  1.00  0.00     0.131 A 
ATOM     88  C   UNL A   1      47.113  27.278  27.296  1.00  0.00     0.055 A 
ATOM     89  C   UNL A   1      47.985  29.451  27.839  1.00  0.00     0.041 A 
ATOM     90  F   UNL A   1      46.609  31.042  28.843  1.00  0.00    -0.206 F 
ATOM     91  C   UNL A   1      48.193  28.160  27.362  1.00  0.00     0.022 A 
BRANCH  88  92
ATOM     92  S   UNL A   1      47.417  25.554  26.843  1.00  0.00     0.124 S 
ATOM     93  O   UNL A   1      46.343  25.289  25.891  1.00  0.00    -0.237 OA
ATOM     94  O   UNL A   1      48.761  25.623  26.271  1.00  0.00    -0.237 OA
ATOM     95  O   UNL A   1      47.320  24.832  28.109  1.00  0.00    -0.744 OA
ENDBRANCH  88  92
ENDBRANCH  62  85
ENDBRANCH  36  37
ENDBRANCH  28  31
ENDBRANCH  26  27
ENDBRANCH  25  26
ENDBRANCH   1  25
TORSDOF 17
ENDMDL
MODEL 2
REMARK VINA RESULT:     -11.9      2.115      4.030
REMARK SMILES Cc1nsc(N(C)C(=O)c2ccc(=O)n(C)n2)c1C(=O)NCCCCNC(=O)c1ccc(-c2c3nc(c(-c4cc(S(=O)(=O)[O-])ccc4F)c4ccc([nH]4)c(-c4cc(S(=O)(=O)[O-])ccc4F)c4nc(c(-c5cc(S(=O)(=O)[O-])ccc5F)c5ccc2[nH]5)C=C4)C=C3)cc1
REMARK SMILES IDX 23 1 22 2 21 3 19 4 20 5 18 7 1 8 2 9 3 10 4 11 5 12 6 13
REMARK SMILES IDX 7 14 8 15 9 16 10 17 11 18 17 19 12 20 15 21 13 22 16 23
REMARK SMILES IDX 14 24 24 25 25 26 26 27 27 28 28 30 29 31 30 32 91 33 31 34
REMARK SMILES IDX 90 35 32 36 33 37 34 38 84 39 35 40 89 41 83 42 85 43 36 44
REMARK SMILES IDX 88 45 82 46 81 47 37 49 69 50 49 51 68 52 50 53 53 54 67 55
REMARK SMILES IDX 86 56 51 57 52 58 66 60 87 61 54 62 38 63 39 64 47 65 40 66
REMARK SMILES IDX 46 67 48 68 45 69 41 70 42 71 43 72 44 73 70 74 71 75 79 76
REMARK SMILES IDX 72 77 78 78 80 79 77 80 73 81 74 82 75 83 76 84 55 85 56 86
REMARK SMILES IDX 64 87 57 88 63 89 65 90 62 91 58 92 59 93 60 94 61 95
REMARK H PARENT 21 6 26 29 85 48 53 59
REMARK Flexibility Score: inf
ROOT
ATOM      1  C   UNL A   1      37.274  22.950  25.783  1.00  0.00     0.023 C 
ENDROOT
BRANCH   1   2
ATOM      2  C   UNL A   1      37.004  23.270  24.313  1.00  0.00     0.116 C 
BRANCH   2   3
ATOM      3  N   UNL A   1      35.771  22.703  23.820  1.00  0.00    -0.352 N 
ATOM      4  C   UNL A   1      34.538  23.290  23.640  1.00  0.00     0.256 C 
ATOM      5  O   UNL A   1      34.034  23.113  22.528  1.00  0.00    -0.269 OA
ATOM      6  H   UNL A   1      35.818  21.750  23.576  1.00  0.00     0.163 HD
BRANCH   4   7
ATOM      7  C   UNL A   1      33.768  23.963  24.701  1.00  0.00     0.097 A 
ATOM      8  C   UNL A   1      33.796  26.602  24.177  1.00  0.00     0.069 C 
ATOM      9  C   UNL A   1      33.398  25.368  24.903  1.00  0.00     0.066 A 
ATOM     10  N   UNL A   1      32.517  25.613  25.875  1.00  0.00    -0.195 NA
ATOM     11  S   UNL A   1      32.053  24.214  26.558  1.00  0.00    -0.017 S 
ATOM     12  C   UNL A   1      33.139  23.199  25.711  1.00  0.00     0.131 A 
BRANCH  12  13
ATOM     13  N   UNL A   1      33.214  21.849  26.147  1.00  0.00    -0.299 N 
ATOM     14  C   UNL A   1      34.099  21.397  27.226  1.00  0.00     0.154 C 
BRANCH  13  15
ATOM     15  C   UNL A   1      32.462  20.886  25.434  1.00  0.00     0.279 C 
ATOM     16  O   UNL A   1      31.395  21.112  24.861  1.00  0.00    -0.267 OA
BRANCH  15  17
ATOM     17  C   UNL A   1      33.095  19.501  25.185  1.00  0.00     0.149 A 
ATOM     18  C   UNL A   1      34.451  19.517  24.591  1.00  0.00     0.042 A 
ATOM     19  N   UNL A   1      32.468  18.413  25.521  1.00  0.00    -0.165 NA
ATOM     20  C   UNL A   1      35.100  18.355  24.521  1.00  0.00     0.076 A 
ATOM     21  N   UNL A   1      33.144  17.214  25.392  1.00  0.00    -0.232 N 
ATOM     22  C   UNL A   1      34.471  17.107  24.999  1.00  0.00     0.266 A 
ATOM     23  C   UNL A   1      32.424  16.013  25.767  1.00  0.00     0.178 C 
ATOM     24  O   UNL A   1      35.134  16.072  25.024  1.00  0.00    -0.268 OA
ENDBRANCH  15  17
ENDBRANCH  13  15
ENDBRANCH  12  13
ENDBRANCH   4   7
ENDBRANCH   2   3
ENDBRANCH   1   2
BRANCH   1  25
ATOM     25  C   UNL A   1      37.703  21.504  26.072  1.00  0.00     0.023 C 
BRANCH  25  26
ATOM     26  C   UNL A   1      38.381  20.794  24.902  1.00  0.00     0.116 C 
BRANCH  26  27
ATOM     27  N   UNL A   1      39.186  19.649  25.329  1.00  0.00    -0.352 N 
ATOM     28  C   UNL A   1      40.476  19.668  25.807  1.00  0.00     0.251 C 
ATOM     29  H   UNL A   1      38.757  18.765  25.267  1.00  0.00     0.163 HD
ATOM     30  O   UNL A   1      41.183  18.656  25.750  1.00  0.00    -0.269 OA
BRANCH  28  31
ATOM     31  C   UNL A   1      40.990  20.896  26.425  1.00  0.00     0.039 A 
ATOM     32  C   UNL A   1      41.633  21.882  25.669  1.00  0.00     0.014 A 
ATOM     33  C   UNL A   1      40.825  21.038  27.805  1.00  0.00     0.014 A 
ATOM     34  C   UNL A   1      42.072  23.037  26.308  1.00  0.00     0.010 A 
ATOM     35  C   UNL A   1      41.156  22.221  28.413  1.00  0.00     0.010 A 
ATOM     36  C   UNL A   1      41.829  23.193  27.681  1.00  0.00    -0.014 A 
BRANCH  36  37
ATOM     37  C   UNL A   1      42.168  24.432  28.367  1.00  0.00     0.031 A 
ATOM     38  C   UNL A   1      41.181  25.522  28.133  1.00  0.00     0.074 A 
ATOM     39  C   UNL A   1      43.124  24.469  29.321  1.00  0.00     0.049 A 
ATOM     40  N   UNL A   1      41.328  26.595  27.427  1.00  0.00    -0.248 NA
ATOM     41  C   UNL A   1      39.791  25.292  28.573  1.00  0.00     0.031 C 
ATOM     42  C   UNL A   1      43.885  23.332  29.863  1.00  0.00     0.029 A 
ATOM     43  N   UNL A   1      43.542  25.499  30.101  1.00  0.00    -0.354 N 
ATOM     44  C   UNL A   1      40.131  27.296  27.570  1.00  0.00     0.074 A 
ATOM     45  C   UNL A   1      39.163  26.343  28.045  1.00  0.00     0.031 C 
ATOM     46  C   UNL A   1      44.475  23.692  31.024  1.00  0.00     0.029 A 
ATOM     47  C   UNL A   1      44.283  25.117  31.215  1.00  0.00     0.049 A 
ATOM     48  H   UNL A   1      43.338  26.440  29.894  1.00  0.00     0.167 HD
ATOM     49  C   UNL A   1      40.109  28.659  27.618  1.00  0.00     0.034 A 
ATOM     50  C   UNL A   1      44.674  25.915  32.239  1.00  0.00     0.034 A 
ATOM     51  C   UNL A   1      41.389  29.198  27.251  1.00  0.00     0.049 A 
ATOM     52  C   UNL A   1      44.578  27.312  31.769  1.00  0.00     0.074 A 
ATOM     53  C   UNL A   1      42.123  29.317  26.093  1.00  0.00     0.029 A 
ATOM     54  N   UNL A   1      42.254  29.326  28.308  1.00  0.00    -0.354 N 
ATOM     55  N   UNL A   1      45.333  27.811  30.831  1.00  0.00    -0.248 NA
ATOM     56  C   UNL A   1      43.369  28.069  32.073  1.00  0.00     0.031 C 
ATOM     57  C   UNL A   1      43.488  29.273  26.496  1.00  0.00     0.029 A 
ATOM     58  C   UNL A   1      43.550  29.190  27.889  1.00  0.00     0.049 A 
ATOM     59  H   UNL A   1      41.982  29.493  29.239  1.00  0.00     0.167 HD
ATOM     60  C   UNL A   1      44.491  28.660  30.139  1.00  0.00     0.074 A 
ATOM     61  C   UNL A   1      43.372  28.914  31.039  1.00  0.00     0.031 C 
ATOM     62  C   UNL A   1      44.621  28.813  28.790  1.00  0.00     0.034 A 
BRANCH  49  63
ATOM     63  C   UNL A   1      39.136  29.467  28.455  1.00  0.00     0.023 A 
ATOM     64  C   UNL A   1      39.424  29.882  29.768  1.00  0.00     0.031 A 
ATOM     65  C   UNL A   1      38.000  30.057  27.865  1.00  0.00     0.131 A 
ATOM     66  C   UNL A   1      38.607  30.787  30.458  1.00  0.00     0.055 A 
ATOM     67  C   UNL A   1      37.219  31.017  28.527  1.00  0.00     0.041 A 
ATOM     68  F   UNL A   1      37.645  29.759  26.605  1.00  0.00    -0.206 F 
ATOM     69  C   UNL A   1      37.518  31.384  29.835  1.00  0.00     0.022 A 
BRANCH  66  70
ATOM     70  S   UNL A   1      38.980  31.215  32.180  1.00  0.00     0.124 S 
ATOM     71  O   UNL A   1      38.343  30.125  32.909  1.00  0.00    -0.237 OA
ATOM     72  O   UNL A   1      40.440  31.208  32.173  1.00  0.00    -0.237 OA
ATOM     73  O   UNL A   1      38.370  32.533  32.343  1.00  0.00    -0.744 OA
ENDBRANCH  66  70
ENDBRANCH  49  63
BRANCH  50  74
ATOM     74  C   UNL A   1      44.708  25.593  33.687  1.00  0.00     0.023 A 
ATOM     75  C   UNL A   1      43.521  25.646  34.437  1.00  0.00     0.031 A 
ATOM     76  C   UNL A   1      45.924  25.593  34.397  1.00  0.00     0.131 A 
ATOM     77  C   UNL A   1      43.570  25.780  35.832  1.00  0.00     0.055 A 
ATOM     78  C   UNL A   1      45.969  25.710  35.791  1.00  0.00     0.041 A 
ATOM     79  F   UNL A   1      47.095  25.563  33.741  1.00  0.00    -0.206 F 
ATOM     80  C   UNL A   1      44.787  25.826  36.514  1.00  0.00     0.022 A 
BRANCH  77  81
ATOM     81  S   UNL A   1      42.036  25.987  36.777  1.00  0.00     0.124 S 
ATOM     82  O   UNL A   1      42.535  26.304  38.114  1.00  0.00    -0.237 OA
ATOM     83  O   UNL A   1      41.400  27.090  36.067  1.00  0.00    -0.237 OA
ATOM     84  O   UNL A   1      41.388  24.686  36.654  1.00  0.00    -0.744 OA
ENDBRANCH  77  81
ENDBRANCH  50  74
BRANCH  62  85
ATOM     85  C   UNL A   1      45.922  28.413  28.150  1.00  0.00     0.023 A 
ATOM     86  C   UNL A   1      45.973  27.114  27.625  1.00  0.00     0.031 A 
ATOM     87  C   UNL A   1      47.120  29.146  28.215  1.00  0.00     0.131 A 
ATOM     88  C   UNL A   1      47.196  26.555  27.248  1.00  0.00     0.055 A 
ATOM     89  C   UNL A   1      48.333  28.607  27.773  1.00  0.00     0.041 A 
ATOM     90  F   UNL A   1      47.169  30.362  28.771  1.00  0.00    -0.206 F 
ATOM     91  C   UNL A   1      48.378  27.297  27.305  1.00  0.00     0.022 A 
BRANCH  88  92
ATOM     92  S   UNL A   1      47.282  24.805  26.805  1.00  0.00     0.124 S 
ATOM     93  O   UNL A   1      46.087  24.263  27.445  1.00  0.00    -0.237 OA
ATOM     94  O   UNL A   1      47.244  24.857  25.345  1.00  0.00    -0.237 OA
ATOM     95  O   UNL A   1      48.551  24.357  27.375  1.00  0.00    -0.744 OA
ENDBRANCH  88  92
ENDBRANCH  62  85
ENDBRANCH  36  37
ENDBRANCH  28  31
ENDBRANCH  26  27
ENDBRANCH  25  26
ENDBRANCH   1  25
TORSDOF 17
ENDMDL
MODEL 3
REMARK VINA RESULT:     -11.9      3.144      7.885
REMARK SMILES Cc1nsc(N(C)C(=O)c2ccc(=O)n(C)n2)c1C(=O)NCCCCNC(=O)c1ccc(-c2c3nc(c(-c4cc(S(=O)(=O)[O-])ccc4F)c4ccc([nH]4)c(-c4cc(S(=O)(=O)[O-])ccc4F)c4nc(c(-c5cc(S(=O)(=O)[O-])ccc5F)c5ccc2[nH]5)C=C4)C=C3)cc1
REMARK SMILES IDX 23 1 22 2 21 3 19 4 20 5 18 7 1 8 2 9 3 10 4 11 5 12 6 13
REMARK SMILES IDX 7 14 8 15 9 16 10 17 11 18 17 19 12 20 15 21 13 22 16 23
REMARK SMILES IDX 14 24 24 25 25 26 26 27 27 28 28 30 29 31 30 32 91 33 31 34
REMARK SMILES IDX 90 35 32 36 33 37 34 38 84 39 35 40 89 41 83 42 85 43 36 44
REMARK SMILES IDX 88 45 82 46 81 47 37 49 69 50 49 51 68 52 50 53 53 54 67 55
REMARK SMILES IDX 86 56 51 57 52 58 66 60 87 61 54 62 38 63 39 64 47 65 40 66
REMARK SMILES IDX 46 67 48 68 45 69 41 70 42 71 43 72 44 73 70 74 71 75 79 76
REMARK SMILES IDX 72 77 78 78 80 79 77 80 73 81 74 82 75 83 76 84 55 85 56 86
REMARK SMILES IDX 64 87 57 88 63 89 65 90 62 91 58 92 59 93 60 94 61 95
REMARK H PARENT 21 6 26 29 85 48 53 59
REMARK Flexibility Score: inf
ROOT
ATOM      1  C   UNL A   1      31.908  29.642  27.069  1.00  0.00     0.023 C 
ENDROOT
BRANCH   1   2
ATOM      2  C   UNL A   1      32.145  28.140  27.233  1.00  0.00     0.116 C 
BRANCH   2   3
ATOM      3  N   UNL A   1      31.251  27.330  26.440  1.00  0.00    -0.352 N 
ATOM      4  C   UNL A   1      31.322  25.993  26.117  1.00  0.00     0.256 C 
ATOM      5  O   UNL A   1      30.292  25.349  26.333  1.00  0.00    -0.269 OA
ATOM      6  H   UNL A   1      30.471  27.807  26.072  1.00  0.00     0.163 HD
BRANCH   4   7
ATOM      7  C   UNL A   1      32.459  25.357  25.428  1.00  0.00     0.097 A 
ATOM      8  C   UNL A   1      33.290  23.305  26.957  1.00  0.00     0.069 C 
ATOM      9  C   UNL A   1      33.265  24.174  25.752  1.00  0.00     0.066 A 
ATOM     10  N   UNL A   1      34.102  23.752  24.803  1.00  0.00    -0.195 NA
ATOM     11  S   UNL A   1      33.950  24.687  23.483  1.00  0.00    -0.017 S 
ATOM     12  C   UNL A   1      32.875  25.832  24.163  1.00  0.00     0.131 A 
BRANCH  12  13
ATOM     13  N   UNL A   1      32.608  26.989  23.383  1.00  0.00    -0.299 N 
ATOM     14  C   UNL A   1      33.174  28.309  23.677  1.00  0.00     0.154 C 
BRANCH  13  15
ATOM     15  C   UNL A   1      31.671  26.868  22.329  1.00  0.00     0.279 C 
ATOM     16  O   UNL A   1      31.776  26.086  21.383  1.00  0.00    -0.267 OA
BRANCH  15  17
ATOM     17  C   UNL A   1      30.330  27.621  22.452  1.00  0.00     0.149 A 
ATOM     18  C   UNL A   1      29.322  26.989  23.332  1.00  0.00     0.042 A 
ATOM     19  N   UNL A   1      30.144  28.753  21.840  1.00  0.00    -0.165 NA
ATOM     20  C   UNL A   1      28.221  27.691  23.602  1.00  0.00     0.076 A 
ATOM     21  N   UNL A   1      28.972  29.439  22.097  1.00  0.00    -0.232 N 
ATOM     22  C   UNL A   1      28.019  29.033  23.020  1.00  0.00     0.266 A 
ATOM     23  C   UNL A   1      28.783  30.696  21.400  1.00  0.00     0.178 C 
ATOM     24  O   UNL A   1      27.049  29.700  23.375  1.00  0.00    -0.268 OA
ENDBRANCH  15  17
ENDBRANCH  13  15
ENDBRANCH  12  13
ENDBRANCH   4   7
ENDBRANCH   2   3
ENDBRANCH   1   2
BRANCH   1  25
ATOM     25  C   UNL A   1      33.119  30.447  26.575  1.00  0.00     0.023 C 
BRANCH  25  26
ATOM     26  C   UNL A   1      34.305  30.471  27.537  1.00  0.00     0.116 C 
BRANCH  26  27
ATOM     27  N   UNL A   1      34.309  31.653  28.398  1.00  0.00    -0.352 N 
ATOM     28  C   UNL A   1      35.064  31.858  29.530  1.00  0.00     0.251 C 
ATOM     29  H   UNL A   1      33.705  32.385  28.138  1.00  0.00     0.163 HD
ATOM     30  O   UNL A   1      34.708  32.678  30.383  1.00  0.00    -0.269 OA
BRANCH  28  31
ATOM     31  C   UNL A   1      36.321  31.118  29.694  1.00  0.00     0.039 A 
ATOM     32  C   UNL A   1      36.333  29.767  30.056  1.00  0.00     0.014 A 
ATOM     33  C   UNL A   1      37.510  31.820  29.488  1.00  0.00     0.014 A 
ATOM     34  C   UNL A   1      37.556  29.114  30.166  1.00  0.00     0.010 A 
ATOM     35  C   UNL A   1      38.706  31.151  29.487  1.00  0.00     0.010 A 
ATOM     36  C   UNL A   1      38.735  29.818  29.881  1.00  0.00    -0.014 A 
BRANCH  36  37
ATOM     37  C   UNL A   1      40.027  29.146  29.873  1.00  0.00     0.031 A 
ATOM     38  C   UNL A   1      40.526  28.817  31.236  1.00  0.00     0.074 A 
ATOM     39  C   UNL A   1      40.552  28.644  28.734  1.00  0.00     0.049 A 
ATOM     40  N   UNL A   1      41.506  29.361  31.881  1.00  0.00    -0.248 NA
ATOM     41  C   UNL A   1      39.708  27.909  32.064  1.00  0.00     0.031 C 
ATOM     42  C   UNL A   1      39.924  28.611  27.404  1.00  0.00     0.029 A 
ATOM     43  N   UNL A   1      41.701  27.947  28.533  1.00  0.00    -0.354 N 
ATOM     44  C   UNL A   1      41.584  28.664  33.087  1.00  0.00     0.074 A 
ATOM     45  C   UNL A   1      40.321  27.994  33.246  1.00  0.00     0.031 C 
ATOM     46  C   UNL A   1      40.579  27.731  26.614  1.00  0.00     0.029 A 
ATOM     47  C   UNL A   1      41.763  27.277  27.315  1.00  0.00     0.049 A 
ATOM     48  H   UNL A   1      42.429  27.920  29.194  1.00  0.00     0.167 HD
ATOM     49  C   UNL A   1      42.786  28.415  33.684  1.00  0.00     0.034 A 
ATOM     50  C   UNL A   1      42.707  26.381  26.933  1.00  0.00     0.034 A 
ATOM     51  C   UNL A   1      43.831  29.169  33.049  1.00  0.00     0.049 A 
ATOM     52  C   UNL A   1      43.876  26.570  27.817  1.00  0.00     0.074 A 
ATOM     53  C   UNL A   1      44.210  30.490  32.992  1.00  0.00     0.029 A 
ATOM     54  N   UNL A   1      44.401  28.524  31.981  1.00  0.00    -0.354 N 
ATOM     55  N   UNL A   1      44.613  27.645  27.819  1.00  0.00    -0.248 NA
ATOM     56  C   UNL A   1      44.008  25.714  28.990  1.00  0.00     0.031 C 
ATOM     57  C   UNL A   1      44.821  30.661  31.717  1.00  0.00     0.029 A 
ATOM     58  C   UNL A   1      44.853  29.429  31.059  1.00  0.00     0.049 A 
ATOM     59  H   UNL A   1      44.476  27.547  31.889  1.00  0.00     0.167 HD
ATOM     60  C   UNL A   1      44.940  27.824  29.150  1.00  0.00     0.074 A 
ATOM     61  C   UNL A   1      44.701  26.534  29.784  1.00  0.00     0.031 C 
ATOM     62  C   UNL A   1      45.061  29.080  29.667  1.00  0.00     0.034 A 
BRANCH  49  63
ATOM     63  C   UNL A   1      43.101  27.159  34.472  1.00  0.00     0.023 A 
ATOM     64  C   UNL A   1      43.614  25.993  33.874  1.00  0.00     0.031 A 
ATOM     65  C   UNL A   1      43.134  27.184  35.881  1.00  0.00     0.131 A 
ATOM     66  C   UNL A   1      44.081  24.912  34.632  1.00  0.00     0.055 A 
ATOM     67  C   UNL A   1      43.668  26.133  36.642  1.00  0.00     0.041 A 
ATOM     68  F   UNL A   1      42.699  28.257  36.561  1.00  0.00    -0.206 F 
ATOM     69  C   UNL A   1      44.142  24.985  36.018  1.00  0.00     0.022 A 
BRANCH  66  70
ATOM     70  S   UNL A   1      44.648  23.401  33.804  1.00  0.00     0.124 S 
ATOM     71  O   UNL A   1      44.214  23.627  32.430  1.00  0.00    -0.237 OA
ATOM     72  O   UNL A   1      46.089  23.464  34.035  1.00  0.00    -0.237 OA
ATOM     73  O   UNL A   1      43.954  22.337  34.525  1.00  0.00    -0.744 OA
ENDBRANCH  66  70
ENDBRANCH  49  63
BRANCH  50  74
ATOM     74  C   UNL A   1      42.519  25.124  26.169  1.00  0.00     0.023 A 
ATOM     75  C   UNL A   1      41.581  24.176  26.614  1.00  0.00     0.031 A 
ATOM     76  C   UNL A   1      43.484  24.693  25.239  1.00  0.00     0.131 A 
ATOM     77  C   UNL A   1      41.676  22.839  26.202  1.00  0.00     0.055 A 
ATOM     78  C   UNL A   1      43.565  23.361  24.816  1.00  0.00     0.041 A 
ATOM     79  F   UNL A   1      44.420  25.542  24.787  1.00  0.00    -0.206 F 
ATOM     80  C   UNL A   1      42.670  22.421  25.316  1.00  0.00     0.022 A 
BRANCH  77  81
ATOM     81  S   UNL A   1      40.548  21.597  26.891  1.00  0.00     0.124 S 
ATOM     82  O   UNL A   1      40.724  21.781  28.330  1.00  0.00    -0.237 OA
ATOM     83  O   UNL A   1      39.265  22.034  26.353  1.00  0.00    -0.237 OA
ATOM     84  O   UNL A   1      41.070  20.341  26.363  1.00  0.00    -0.744 OA
ENDBRANCH  77  81
ENDBRANCH  50  74
BRANCH  62  85
ATOM     85  C   UNL A   1      45.269  30.226  28.715  1.00  0.00     0.023 A 
ATOM     86  C   UNL A   1      46.600  30.598  28.485  1.00  0.00     0.031 A 
ATOM     87  C   UNL A   1      44.254  31.058  28.210  1.00  0.00     0.131 A 
ATOM     88  C   UNL A   1      46.893  31.797  27.833  1.00  0.00     0.055 A 
ATOM     89  C   UNL A   1      44.551  32.225  27.498  1.00  0.00     0.041 A 
ATOM     90  F   UNL A   1      42.961  30.812  28.450  1.00  0.00    -0.206 F 
ATOM     91  C   UNL A   1      45.877  32.610  27.324  1.00  0.00     0.022 A 
BRANCH  88  92
ATOM     92  S   UNL A   1      48.602  32.384  27.760  1.00  0.00     0.124 S 
ATOM     93  O   UNL A   1      48.429  33.830  27.663  1.00  0.00    -0.237 OA
ATOM     94  O   UNL A   1      49.145  31.899  29.027  1.00  0.00    -0.237 OA
ATOM     95  O   UNL A   1      49.147  31.740  26.568  1.00  0.00    -0.744 OA
ENDBRANCH  88  92
ENDBRANCH  62  85
ENDBRANCH  36  37
ENDBRANCH  28  31
ENDBRANCH  26  27
ENDBRANCH  25  26
ENDBRANCH   1  25
TORSDOF 17
ENDMDL
