MODEL 1
REMARK VINA RESULT:     -15.5      0.000      0.000
REMARK SMILES Cc1cc(/C=C2/C(=O)NC(=S)[NH+]=C2NCCCCNC(=O)c2ccc(-c3c4nc(c(-c5cc(S(=O)(=O)[O-])ccc5F)c5ccc([nH]5)c(-c5cc(S(=O)(=O)[O-])ccc5F)c5nc(c(-c6cc(S(=O)(=O)[O-])ccc6F)c6ccc3[nH]6)C=C5)C=C4)cc2)c(C)n1-c1cccc(C(=O)[O-])c1
REMARK SMILES IDX 17 1 16 2 15 3 14 4 5 5 6 6 7 7 13 8 8 9 9 10 12 11 10 12
REMARK SMILES IDX 11 16 4 17 1 18 2 19 3 20 87 21 85 22 86 23 88 24 89 25
REMARK SMILES IDX 96 26 90 27 92 28 91 29 93 30 94 31 95 32 18 33 19 34 20 35
REMARK SMILES IDX 21 37 22 38 23 39 84 40 24 41 83 42 25 43 26 44 27 45 77 46
REMARK SMILES IDX 28 47 82 48 76 49 78 50 29 51 81 52 75 53 74 54 30 56 62 57
REMARK SMILES IDX 42 58 61 59 43 60 46 61 60 62 79 63 44 64 45 65 59 67 80 68
REMARK SMILES IDX 47 69 31 70 32 71 40 72 33 73 39 74 41 75 38 76 34 77 35 78
REMARK SMILES IDX 36 79 37 80 63 81 64 82 72 83 65 84 71 85 73 86 70 87 66 88
REMARK SMILES IDX 67 89 68 90 69 91 48 92 49 93 57 94 50 95 56 96 58 97 55 98
REMARK SMILES IDX 51 99 52 100 53 101 54 102
REMARK H PARENT 9 13 12 14 14 15 19 36 78 55 46 66
REMARK Flexibility Score: inf
ROOT
ATOM      1  C   UNL A   1      31.909  27.417  26.922  1.00  0.00     0.024 C 
ENDROOT
BRANCH   1   2
ATOM      2  C   UNL A   1      30.723  26.468  26.659  1.00  0.00     0.039 C 
BRANCH   2   3
ATOM      3  C   UNL A   1      30.452  25.544  25.460  1.00  0.00     0.194 C 
BRANCH   3   4
ATOM      4  N   UNL A   1      29.963  26.039  24.187  1.00  0.00    -0.305 N 
ATOM      5  C   UNL A   1      33.093  26.120  23.362  1.00  0.00     0.032 C 
ATOM      6  C   UNL A   1      32.170  27.108  23.354  1.00  0.00     0.128 C 
ATOM      7  C   UNL A   1      32.715  28.463  23.095  1.00  0.00     0.319 C 
ATOM      8  C   UNL A   1      30.664  27.023  23.482  1.00  0.00     0.234 C 
ATOM      9  O   UNL A   1      33.872  28.798  23.326  1.00  0.00    -0.250 OA
ATOM     10  N   UNL A   1      31.813  29.320  22.543  1.00  0.00    -0.229 N 
ATOM     11  N   UNL A   1      29.918  27.965  22.959  1.00  0.00    -0.236 N 
ATOM     12  C   UNL A   1      30.478  29.073  22.372  1.00  0.00     0.295 C 
ATOM     13  H   UNL A   1      32.151  30.194  22.239  1.00  0.00     0.268 HD
ATOM     14  H   UNL A   1      28.938  27.877  22.988  1.00  0.00     0.268 HD
ATOM     15  H   UNL A   1      29.127  25.676  23.815  1.00  0.00     0.256 HD
ATOM     16  S   UNL A   1      29.601  30.237  21.537  1.00  0.00    -0.005 S 
BRANCH   5  17
ATOM     17  C   UNL A   1      32.889  24.711  23.486  1.00  0.00    -0.003 A 
ATOM     18  C   UNL A   1      32.031  21.362  22.179  1.00  0.00     0.065 C 
ATOM     19  C   UNL A   1      32.494  22.564  22.930  1.00  0.00     0.020 A 
ATOM     20  C   UNL A   1      32.279  23.877  22.538  1.00  0.00     0.031 A 
ATOM     21  N   UNL A   1      33.218  22.579  24.135  1.00  0.00    -0.318 N 
ATOM     22  C   UNL A   1      33.253  23.923  24.561  1.00  0.00     0.027 A 
ATOM     23  C   UNL A   1      33.768  24.420  25.869  1.00  0.00     0.065 C 
BRANCH  21  24
ATOM     24  C   UNL A   1      34.061  21.535  24.692  1.00  0.00     0.046 A 
ATOM     25  C   UNL A   1      35.855  21.847  24.755  1.00  0.00     0.026 A 
ATOM     26  C   UNL A   1      33.460  19.835  24.605  1.00  0.00     0.036 A 
ATOM     27  C   UNL A   1      37.030  20.460  24.622  1.00  0.00     0.003 A 
ATOM     28  C   UNL A   1      34.626  18.448  24.632  1.00  0.00    -0.001 A 
ATOM     29  C   UNL A   1      36.401  18.743  24.623  1.00  0.00     0.010 A 
BRANCH  28  30
ATOM     30  C   UNL A   1      34.158  17.045  24.551  1.00  0.00     0.072 C 
ATOM     31  O   UNL A   1      34.024  16.278  25.485  1.00  0.00    -0.545 OA
ATOM     32  O   UNL A   1      34.005  16.631  23.279  1.00  0.00    -0.545 OA
ENDBRANCH  28  30
ENDBRANCH  21  24
ENDBRANCH   5  17
ENDBRANCH   3   4
ENDBRANCH   2   3
ENDBRANCH   1   2
BRANCH   1  33
ATOM     33  C   UNL A   1      31.791  29.074  26.662  1.00  0.00     0.116 C 
BRANCH  33  34
ATOM     34  N   UNL A   1      32.671  30.833  27.407  1.00  0.00    -0.352 N 
ATOM     35  C   UNL A   1      34.006  31.504  27.895  1.00  0.00     0.251 C 
ATOM     36  H   UNL A   1      31.958  31.508  27.482  1.00  0.00     0.163 HD
ATOM     37  O   UNL A   1      33.875  32.718  28.113  1.00  0.00    -0.269 OA
BRANCH  35  38
ATOM     38  C   UNL A   1      35.457  30.814  28.159  1.00  0.00     0.039 A 
ATOM     39  C   UNL A   1      35.657  29.507  27.750  1.00  0.00     0.014 A 
ATOM     40  C   UNL A   1      36.668  31.423  28.591  1.00  0.00     0.014 A 
ATOM     41  C   UNL A   1      36.997  28.990  27.484  1.00  0.00     0.010 A 
ATOM     42  C   UNL A   1      38.054  30.778  28.491  1.00  0.00     0.010 A 
ATOM     43  C   UNL A   1      38.306  29.534  27.861  1.00  0.00    -0.014 A 
BRANCH  43  44
ATOM     44  C   UNL A   1      39.659  28.383  27.907  1.00  0.00     0.031 A 
ATOM     45  C   UNL A   1      39.926  28.500  29.366  1.00  0.00     0.074 A 
ATOM     46  C   UNL A   1      40.709  27.618  27.261  1.00  0.00     0.049 A 
ATOM     47  N   UNL A   1      40.152  29.729  29.720  1.00  0.00    -0.248 NA
ATOM     48  C   UNL A   1      39.477  27.646  30.464  1.00  0.00     0.031 C 
ATOM     49  C   UNL A   1      41.113  27.587  25.831  1.00  0.00     0.029 A 
ATOM     50  N   UNL A   1      41.767  26.678  27.749  1.00  0.00    -0.354 N 
ATOM     51  C   UNL A   1      40.120  29.820  31.077  1.00  0.00     0.074 A 
ATOM     52  C   UNL A   1      39.545  28.532  31.478  1.00  0.00     0.031 C 
ATOM     53  C   UNL A   1      42.098  26.663  25.540  1.00  0.00     0.029 A 
ATOM     54  C   UNL A   1      42.593  25.934  26.727  1.00  0.00     0.049 A 
ATOM     55  H   UNL A   1      41.922  26.548  28.712  1.00  0.00     0.167 HD
ATOM     56  C   UNL A   1      41.214  30.505  31.521  1.00  0.00     0.034 A 
ATOM     57  C   UNL A   1      43.651  24.950  26.835  1.00  0.00     0.034 A 
ATOM     58  C   UNL A   1      42.307  29.573  31.667  1.00  0.00     0.049 A 
ATOM     59  C   UNL A   1      44.408  25.403  27.992  1.00  0.00     0.074 A 
ATOM     60  C   UNL A   1      42.332  28.297  32.205  1.00  0.00     0.029 A 
ATOM     61  N   UNL A   1      43.329  29.637  30.745  1.00  0.00    -0.354 N 
ATOM     62  N   UNL A   1      45.209  26.416  27.938  1.00  0.00    -0.248 NA
ATOM     63  C   UNL A   1      44.293  24.730  29.270  1.00  0.00     0.031 C 
ATOM     64  C   UNL A   1      42.949  27.527  31.200  1.00  0.00     0.029 A 
ATOM     65  C   UNL A   1      43.758  28.364  30.442  1.00  0.00     0.049 A 
ATOM     66  H   UNL A   1      43.698  30.466  30.362  1.00  0.00     0.167 HD
ATOM     67  C   UNL A   1      45.131  26.868  29.215  1.00  0.00     0.074 A 
ATOM     68  C   UNL A   1      44.825  25.693  30.022  1.00  0.00     0.031 C 
ATOM     69  C   UNL A   1      44.710  28.149  29.379  1.00  0.00     0.034 A 
BRANCH  56  70
ATOM     70  C   UNL A   1      41.288  31.867  30.822  1.00  0.00     0.023 A 
ATOM     71  C   UNL A   1      42.525  32.281  30.320  1.00  0.00     0.031 A 
ATOM     72  C   UNL A   1      40.258  32.848  30.881  1.00  0.00     0.131 A 
ATOM     73  C   UNL A   1      42.730  33.630  29.973  1.00  0.00     0.055 A 
ATOM     74  C   UNL A   1      40.489  34.199  30.608  1.00  0.00     0.041 A 
ATOM     75  F   UNL A   1      39.009  32.525  31.258  1.00  0.00    -0.206 F 
ATOM     76  C   UNL A   1      41.738  34.598  30.156  1.00  0.00     0.022 A 
BRANCH  73  77
ATOM     77  S   UNL A   1      44.330  34.101  29.273  1.00  0.00     0.124 S 
ATOM     78  O   UNL A   1      45.176  32.970  29.642  1.00  0.00    -0.237 OA
ATOM     79  O   UNL A   1      44.020  34.216  27.850  1.00  0.00    -0.237 OA
ATOM     80  O   UNL A   1      44.647  35.363  29.938  1.00  0.00    -0.744 OA
ENDBRANCH  73  77
ENDBRANCH  56  70
BRANCH  57  81
ATOM     81  C   UNL A   1      44.610  23.742  26.209  1.00  0.00     0.023 A 
ATOM     82  C   UNL A   1      44.225  22.305  26.086  1.00  0.00     0.031 A 
ATOM     83  C   UNL A   1      45.635  24.084  25.313  1.00  0.00     0.131 A 
ATOM     84  C   UNL A   1      44.819  21.383  25.129  1.00  0.00     0.055 A 
ATOM     85  C   UNL A   1      46.202  23.171  24.369  1.00  0.00     0.041 A 
ATOM     86  F   UNL A   1      46.053  25.354  25.232  1.00  0.00    -0.206 F 
ATOM     87  C   UNL A   1      45.794  21.841  24.256  1.00  0.00     0.022 A 
BRANCH  84  88
ATOM     88  S   UNL A   1      44.266  19.607  24.828  1.00  0.00     0.124 S 
ATOM     89  O   UNL A   1      45.161  18.829  25.676  1.00  0.00    -0.237 OA
ATOM     90  O   UNL A   1      42.857  19.623  25.203  1.00  0.00    -0.237 OA
ATOM     91  O   UNL A   1      44.491  19.409  23.390  1.00  0.00    -0.744 OA
ENDBRANCH  84  88
ENDBRANCH  57  81
BRANCH  69  92
ATOM     92  C   UNL A   1      45.206  29.196  28.381  1.00  0.00     0.023 A 
ATOM     93  C   UNL A   1      46.553  29.611  28.192  1.00  0.00     0.031 A 
ATOM     94  C   UNL A   1      44.237  29.896  27.646  1.00  0.00     0.131 A 
ATOM     95  C   UNL A   1      46.867  30.703  27.354  1.00  0.00     0.055 A 
ATOM     96  C   UNL A   1      44.551  30.944  26.780  1.00  0.00     0.041 A 
ATOM     97  F   UNL A   1      42.936  29.587  27.774  1.00  0.00    -0.206 F 
ATOM     98  C   UNL A   1      45.867  31.368  26.647  1.00  0.00     0.022 A 
BRANCH  95  99
ATOM     99  S   UNL A   1      48.578  31.338  27.252  1.00  0.00     0.124 S 
ATOM    100  O   UNL A   1      49.299  30.261  26.584  1.00  0.00    -0.237 OA
ATOM    101  O   UNL A   1      48.415  32.567  26.482  1.00  0.00    -0.237 OA
ATOM    102  O   UNL A   1      48.951  31.539  28.653  1.00  0.00    -0.744 OA
ENDBRANCH  95  99
ENDBRANCH  69  92
ENDBRANCH  43  44
ENDBRANCH  35  38
ENDBRANCH  33  34
ENDBRANCH   1  33
TORSDOF 16
ENDMDL
MODEL 2
REMARK VINA RESULT:     -15.5      4.013      9.965
REMARK SMILES Cc1cc(/C=C2/C(=O)NC(=S)[NH+]=C2NCCCCNC(=O)c2ccc(-c3c4nc(c(-c5cc(S(=O)(=O)[O-])ccc5F)c5ccc([nH]5)c(-c5cc(S(=O)(=O)[O-])ccc5F)c5nc(c(-c6cc(S(=O)(=O)[O-])ccc6F)c6ccc3[nH]6)C=C5)C=C4)cc2)c(C)n1-c1cccc(C(=O)[O-])c1
REMARK SMILES IDX 17 1 16 2 15 3 14 4 5 5 6 6 7 7 13 8 8 9 9 10 12 11 10 12
REMARK SMILES IDX 11 16 4 17 1 18 2 19 3 20 87 21 85 22 86 23 88 24 89 25
REMARK SMILES IDX 96 26 90 27 92 28 91 29 93 30 94 31 95 32 18 33 19 34 20 35
REMARK SMILES IDX 21 37 22 38 23 39 84 40 24 41 83 42 25 43 26 44 27 45 77 46
REMARK SMILES IDX 28 47 82 48 76 49 78 50 29 51 81 52 75 53 74 54 30 56 62 57
REMARK SMILES IDX 42 58 61 59 43 60 46 61 60 62 79 63 44 64 45 65 59 67 80 68
REMARK SMILES IDX 47 69 31 70 32 71 40 72 33 73 39 74 41 75 38 76 34 77 35 78
REMARK SMILES IDX 36 79 37 80 63 81 64 82 72 83 65 84 71 85 73 86 70 87 66 88
REMARK SMILES IDX 67 89 68 90 69 91 48 92 49 93 57 94 50 95 56 96 58 97 55 98
REMARK SMILES IDX 51 99 52 100 53 101 54 102
REMARK H PARENT 9 13 12 14 14 15 19 36 78 55 46 66
REMARK Flexibility Score: inf
ROOT
ATOM      1  C   UNL A   1      35.806  23.387  23.606  1.00  0.00     0.024 C 
ENDROOT
BRANCH   1   2
ATOM      2  C   UNL A   1      34.741  23.313  22.494  1.00  0.00     0.039 C 
BRANCH   2   3
ATOM      3  C   UNL A   1      33.211  23.426  22.590  1.00  0.00     0.194 C 
BRANCH   3   4
ATOM      4  N   UNL A   1      32.376  22.341  23.071  1.00  0.00    -0.305 N 
ATOM      5  C   UNL A   1      32.656  23.805  25.945  1.00  0.00     0.032 C 
ATOM      6  C   UNL A   1      32.959  22.537  25.587  1.00  0.00     0.128 C 
ATOM      7  C   UNL A   1      33.686  21.758  26.619  1.00  0.00     0.319 C 
ATOM      8  C   UNL A   1      32.590  21.775  24.332  1.00  0.00     0.234 C 
ATOM      9  O   UNL A   1      34.378  22.257  27.501  1.00  0.00    -0.250 OA
ATOM     10  N   UNL A   1      33.501  20.413  26.523  1.00  0.00    -0.229 N 
ATOM     11  N   UNL A   1      32.519  20.467  24.370  1.00  0.00    -0.236 N 
ATOM     12  C   UNL A   1      32.857  19.767  25.502  1.00  0.00     0.295 C 
ATOM     13  H   UNL A   1      33.860  19.857  27.251  1.00  0.00     0.268 HD
ATOM     14  H   UNL A   1      32.218  19.976  23.571  1.00  0.00     0.268 HD
ATOM     15  H   UNL A   1      31.648  22.000  22.502  1.00  0.00     0.256 HD
ATOM     16  S   UNL A   1      32.634  18.112  25.685  1.00  0.00    -0.005 S 
BRANCH   5  17
ATOM     17  C   UNL A   1      31.889  24.774  25.229  1.00  0.00    -0.003 A 
ATOM     18  C   UNL A   1      28.725  26.309  24.091  1.00  0.00     0.065 C 
ATOM     19  C   UNL A   1      30.120  25.945  24.470  1.00  0.00     0.020 A 
ATOM     20  C   UNL A   1      30.511  24.713  24.972  1.00  0.00     0.031 A 
ATOM     21  N   UNL A   1      31.257  26.768  24.392  1.00  0.00    -0.318 N 
ATOM     22  C   UNL A   1      32.366  25.940  24.662  1.00  0.00     0.027 A 
ATOM     23  C   UNL A   1      33.803  26.322  24.536  1.00  0.00     0.065 C 
BRANCH  21  24
ATOM     24  C   UNL A   1      31.319  28.219  24.379  1.00  0.00     0.046 A 
ATOM     25  C   UNL A   1      32.168  29.036  25.770  1.00  0.00     0.026 A 
ATOM     26  C   UNL A   1      30.027  29.108  23.484  1.00  0.00     0.036 A 
ATOM     27  C   UNL A   1      31.639  30.693  26.317  1.00  0.00     0.003 A 
ATOM     28  C   UNL A   1      29.611  30.814  23.930  1.00  0.00    -0.001 A 
ATOM     29  C   UNL A   1      30.391  31.608  25.344  1.00  0.00     0.010 A 
BRANCH  28  30
ATOM     30  C   UNL A   1      28.548  31.560  23.218  1.00  0.00     0.072 C 
ATOM     31  O   UNL A   1      27.361  31.544  23.479  1.00  0.00    -0.545 OA
ATOM     32  O   UNL A   1      29.015  32.194  22.125  1.00  0.00    -0.545 OA
ENDBRANCH  28  30
ENDBRANCH  21  24
ENDBRANCH   5  17
ENDBRANCH   3   4
ENDBRANCH   2   3
ENDBRANCH   1   2
BRANCH   1  33
ATOM     33  C   UNL A   1      36.535  22.004  24.226  1.00  0.00     0.116 C 
BRANCH  33  34
ATOM     34  N   UNL A   1      38.348  21.485  25.157  1.00  0.00    -0.352 N 
ATOM     35  C   UNL A   1      39.474  21.957  26.147  1.00  0.00     0.251 C 
ATOM     36  H   UNL A   1      38.589  20.583  24.847  1.00  0.00     0.163 HD
ATOM     37  O   UNL A   1      40.290  21.059  26.400  1.00  0.00    -0.269 OA
BRANCH  35  38
ATOM     38  C   UNL A   1      39.693  23.425  26.818  1.00  0.00     0.039 A 
ATOM     39  C   UNL A   1      38.638  24.321  26.817  1.00  0.00     0.014 A 
ATOM     40  C   UNL A   1      40.780  23.891  27.608  1.00  0.00     0.014 A 
ATOM     41  C   UNL A   1      38.563  25.408  27.791  1.00  0.00     0.010 A 
ATOM     42  C   UNL A   1      40.753  25.155  28.472  1.00  0.00     0.010 A 
ATOM     43  C   UNL A   1      39.603  25.959  28.666  1.00  0.00    -0.014 A 
BRANCH  43  44
ATOM     44  C   UNL A   1      39.343  27.612  29.262  1.00  0.00     0.031 A 
ATOM     45  C   UNL A   1      40.557  28.205  28.639  1.00  0.00     0.074 A 
ATOM     46  C   UNL A   1      38.724  28.563  30.167  1.00  0.00     0.049 A 
ATOM     47  N   UNL A   1      41.639  27.584  29.000  1.00  0.00    -0.248 NA
ATOM     48  C   UNL A   1      40.692  28.937  27.380  1.00  0.00     0.031 C 
ATOM     49  C   UNL A   1      37.789  28.321  31.297  1.00  0.00     0.029 A 
ATOM     50  N   UNL A   1      38.825  30.044  30.353  1.00  0.00    -0.354 N 
ATOM     51  C   UNL A   1      42.672  27.980  28.208  1.00  0.00     0.074 A 
ATOM     52  C   UNL A   1      41.995  28.701  27.124  1.00  0.00     0.031 C 
ATOM     53  C   UNL A   1      37.312  29.472  31.893  1.00  0.00     0.029 A 
ATOM     54  C   UNL A   1      37.877  30.712  31.321  1.00  0.00     0.049 A 
ATOM     55  H   UNL A   1      39.492  30.572  29.858  1.00  0.00     0.167 HD
ATOM     56  C   UNL A   1      43.750  28.303  28.979  1.00  0.00     0.034 A 
ATOM     57  C   UNL A   1      37.675  32.091  31.717  1.00  0.00     0.034 A 
ATOM     58  C   UNL A   1      43.618  29.678  29.396  1.00  0.00     0.049 A 
ATOM     59  C   UNL A   1      39.026  32.630  31.744  1.00  0.00     0.074 A 
ATOM     60  C   UNL A   1      43.232  30.799  28.679  1.00  0.00     0.029 A 
ATOM     61  N   UNL A   1      43.300  29.920  30.715  1.00  0.00    -0.354 N 
ATOM     62  N   UNL A   1      39.855  32.365  32.700  1.00  0.00    -0.248 NA
ATOM     63  C   UNL A   1      39.506  33.497  30.686  1.00  0.00     0.031 C 
ATOM     64  C   UNL A   1      42.217  31.366  29.475  1.00  0.00     0.029 A 
ATOM     65  C   UNL A   1      42.428  30.983  30.792  1.00  0.00     0.049 A 
ATOM     66  H   UNL A   1      43.644  29.411  31.484  1.00  0.00     0.167 HD
ATOM     67  C   UNL A   1      41.037  32.446  32.038  1.00  0.00     0.074 A 
ATOM     68  C   UNL A   1      40.808  33.391  30.952  1.00  0.00     0.031 C 
ATOM     69  C   UNL A   1      41.816  31.332  32.051  1.00  0.00     0.034 A 
BRANCH  56  70
ATOM     70  C   UNL A   1      44.103  27.122  29.892  1.00  0.00     0.023 A 
ATOM     71  C   UNL A   1      44.359  27.389  31.239  1.00  0.00     0.031 A 
ATOM     72  C   UNL A   1      44.444  25.824  29.418  1.00  0.00     0.131 A 
ATOM     73  C   UNL A   1      44.998  26.423  32.040  1.00  0.00     0.055 A 
ATOM     74  C   UNL A   1      45.146  24.900  30.195  1.00  0.00     0.041 A 
ATOM     75  F   UNL A   1      44.149  25.441  28.164  1.00  0.00    -0.206 F 
ATOM     76  C   UNL A   1      45.434  25.202  31.517  1.00  0.00     0.022 A 
BRANCH  73  77
ATOM     77  S   UNL A   1      45.254  26.796  33.793  1.00  0.00     0.124 S 
ATOM     78  O   UNL A   1      46.613  26.315  34.017  1.00  0.00    -0.237 OA
ATOM     79  O   UNL A   1      45.086  28.247  33.826  1.00  0.00    -0.237 OA
ATOM     80  O   UNL A   1      44.202  26.039  34.469  1.00  0.00    -0.744 OA
ENDBRANCH  73  77
ENDBRANCH  56  70
BRANCH  57  81
ATOM     81  C   UNL A   1      36.771  33.312  32.398  1.00  0.00     0.023 A 
ATOM     82  C   UNL A   1      35.787  34.170  31.674  1.00  0.00     0.031 A 
ATOM     83  C   UNL A   1      36.515  33.279  33.777  1.00  0.00     0.131 A 
ATOM     84  C   UNL A   1      34.679  34.859  32.319  1.00  0.00     0.055 A 
ATOM     85  C   UNL A   1      35.416  33.952  34.398  1.00  0.00     0.041 A 
ATOM     86  F   UNL A   1      37.254  32.495  34.574  1.00  0.00    -0.206 F 
ATOM     87  C   UNL A   1      34.493  34.719  33.686  1.00  0.00     0.022 A 
BRANCH  84  88
ATOM     88  S   UNL A   1      33.325  35.827  31.436  1.00  0.00     0.124 S 
ATOM     89  O   UNL A   1      32.098  35.290  32.013  1.00  0.00    -0.237 OA
ATOM     90  O   UNL A   1      33.643  37.216  31.749  1.00  0.00    -0.237 OA
ATOM     91  O   UNL A   1      33.515  35.483  30.022  1.00  0.00    -0.744 OA
ENDBRANCH  84  88
ENDBRANCH  57  81
BRANCH  69  92
ATOM     92  C   UNL A   1      41.885  30.526  33.348  1.00  0.00     0.023 A 
ATOM     93  C   UNL A   1      42.459  30.952  34.578  1.00  0.00     0.031 A 
ATOM     94  C   UNL A   1      41.435  29.198  33.306  1.00  0.00     0.131 A 
ATOM     95  C   UNL A   1      42.610  30.057  35.660  1.00  0.00     0.055 A 
ATOM     96  C   UNL A   1      41.538  28.326  34.392  1.00  0.00     0.041 A 
ATOM     97  F   UNL A   1      40.895  28.700  32.182  1.00  0.00    -0.206 F 
ATOM     98  C   UNL A   1      42.147  28.746  35.567  1.00  0.00     0.022 A 
BRANCH  95  99
ATOM     99  S   UNL A   1      43.503  30.564  37.171  1.00  0.00     0.124 S 
ATOM    100  O   UNL A   1      44.480  31.529  36.679  1.00  0.00    -0.237 OA
ATOM    101  O   UNL A   1      42.435  31.110  38.003  1.00  0.00    -0.237 OA
ATOM    102  O   UNL A   1      44.082  29.312  37.661  1.00  0.00    -0.744 OA
ENDBRANCH  95  99
ENDBRANCH  69  92
ENDBRANCH  43  44
ENDBRANCH  35  38
ENDBRANCH  33  34
ENDBRANCH   1  33
TORSDOF 16
ENDMDL
MODEL 3
REMARK VINA RESULT:     -14.2      3.976      9.734
REMARK SMILES Cc1cc(/C=C2/C(=O)NC(=S)[NH+]=C2NCCCCNC(=O)c2ccc(-c3c4nc(c(-c5cc(S(=O)(=O)[O-])ccc5F)c5ccc([nH]5)c(-c5cc(S(=O)(=O)[O-])ccc5F)c5nc(c(-c6cc(S(=O)(=O)[O-])ccc6F)c6ccc3[nH]6)C=C5)C=C4)cc2)c(C)n1-c1cccc(C(=O)[O-])c1
REMARK SMILES IDX 17 1 16 2 15 3 14 4 5 5 6 6 7 7 13 8 8 9 9 10 12 11 10 12
REMARK SMILES IDX 11 16 4 17 1 18 2 19 3 20 87 21 85 22 86 23 88 24 89 25
REMARK SMILES IDX 96 26 90 27 92 28 91 29 93 30 94 31 95 32 18 33 19 34 20 35
REMARK SMILES IDX 21 37 22 38 23 39 84 40 24 41 83 42 25 43 26 44 27 45 77 46
REMARK SMILES IDX 28 47 82 48 76 49 78 50 29 51 81 52 75 53 74 54 30 56 62 57
REMARK SMILES IDX 42 58 61 59 43 60 46 61 60 62 79 63 44 64 45 65 59 67 80 68
REMARK SMILES IDX 47 69 31 70 32 71 40 72 33 73 39 74 41 75 38 76 34 77 35 78
REMARK SMILES IDX 36 79 37 80 63 81 64 82 72 83 65 84 71 85 73 86 70 87 66 88
REMARK SMILES IDX 67 89 68 90 69 91 48 92 49 93 57 94 50 95 56 96 58 97 55 98
REMARK SMILES IDX 51 99 52 100 53 101 54 102
REMARK H PARENT 9 13 12 14 14 15 19 36 78 55 46 66
REMARK Flexibility Score: inf
ROOT
ATOM      1  C   UNL A   1      35.945  23.327  23.937  1.00  0.00     0.024 C 
ENDROOT
BRANCH   1   2
ATOM      2  C   UNL A   1      34.976  23.341  22.739  1.00  0.00     0.039 C 
BRANCH   2   3
ATOM      3  C   UNL A   1      33.442  23.444  22.718  1.00  0.00     0.194 C 
BRANCH   3   4
ATOM      4  N   UNL A   1      32.579  22.348  23.112  1.00  0.00    -0.305 N 
ATOM      5  C   UNL A   1      32.656  23.737  26.035  1.00  0.00     0.032 C 
ATOM      6  C   UNL A   1      32.986  22.479  25.666  1.00  0.00     0.128 C 
ATOM      7  C   UNL A   1      33.642  21.675  26.726  1.00  0.00     0.319 C 
ATOM      8  C   UNL A   1      32.707  21.749  24.370  1.00  0.00     0.234 C 
ATOM      9  O   UNL A   1      34.271  22.151  27.665  1.00  0.00    -0.250 OA
ATOM     10  N   UNL A   1      33.467  20.332  26.583  1.00  0.00    -0.229 N 
ATOM     11  N   UNL A   1      32.636  20.440  24.370  1.00  0.00    -0.236 N 
ATOM     12  C   UNL A   1      32.897  19.712  25.504  1.00  0.00     0.295 C 
ATOM     13  H   UNL A   1      33.777  19.758  27.320  1.00  0.00     0.268 HD
ATOM     14  H   UNL A   1      32.393  19.970  23.539  1.00  0.00     0.268 HD
ATOM     15  H   UNL A   1      31.893  22.021  22.486  1.00  0.00     0.256 HD
ATOM     16  S   UNL A   1      32.667  18.053  25.628  1.00  0.00    -0.005 S 
BRANCH   5  17
ATOM     17  C   UNL A   1      31.937  24.724  25.293  1.00  0.00    -0.003 A 
ATOM     18  C   UNL A   1      28.854  26.297  23.996  1.00  0.00     0.065 C 
ATOM     19  C   UNL A   1      30.223  25.918  24.451  1.00  0.00     0.020 A 
ATOM     20  C   UNL A   1      30.578  24.675  24.952  1.00  0.00     0.031 A 
ATOM     21  N   UNL A   1      31.366  26.736  24.457  1.00  0.00    -0.318 N 
ATOM     22  C   UNL A   1      32.453  25.897  24.777  1.00  0.00     0.027 A 
ATOM     23  C   UNL A   1      33.896  26.273  24.745  1.00  0.00     0.065 C 
BRANCH  21  24
ATOM     24  C   UNL A   1      31.435  28.187  24.475  1.00  0.00     0.046 A 
ATOM     25  C   UNL A   1      32.235  28.972  25.913  1.00  0.00     0.026 A 
ATOM     26  C   UNL A   1      30.181  29.100  23.551  1.00  0.00     0.036 A 
ATOM     27  C   UNL A   1      31.694  30.620  26.473  1.00  0.00     0.003 A 
ATOM     28  C   UNL A   1      29.757  30.800  24.015  1.00  0.00    -0.001 A 
ATOM     29  C   UNL A   1      30.487  31.561  25.473  1.00  0.00     0.010 A 
BRANCH  28  30
ATOM     30  C   UNL A   1      28.724  31.565  23.279  1.00  0.00     0.072 C 
ATOM     31  O   UNL A   1      28.927  32.423  22.442  1.00  0.00    -0.545 OA
ATOM     32  O   UNL A   1      27.482  31.306  23.728  1.00  0.00    -0.545 OA
ENDBRANCH  28  30
ENDBRANCH  21  24
ENDBRANCH   5  17
ENDBRANCH   3   4
ENDBRANCH   2   3
ENDBRANCH   1   2
BRANCH   1  33
ATOM     33  C   UNL A   1      36.793  21.942  24.373  1.00  0.00     0.116 C 
BRANCH  33  34
ATOM     34  N   UNL A   1      38.587  21.461  25.358  1.00  0.00    -0.352 N 
ATOM     35  C   UNL A   1      39.638  21.927  26.431  1.00  0.00     0.251 C 
ATOM     36  H   UNL A   1      38.894  20.595  25.004  1.00  0.00     0.163 HD
ATOM     37  O   UNL A   1      40.492  21.060  26.667  1.00  0.00    -0.269 OA
BRANCH  35  38
ATOM     38  C   UNL A   1      39.742  23.358  27.203  1.00  0.00     0.039 A 
ATOM     39  C   UNL A   1      40.866  23.622  27.966  1.00  0.00     0.014 A 
ATOM     40  C   UNL A   1      38.917  24.508  27.062  1.00  0.00     0.014 A 
ATOM     41  C   UNL A   1      41.278  24.992  28.263  1.00  0.00     0.010 A 
ATOM     42  C   UNL A   1      39.278  25.909  27.565  1.00  0.00     0.010 A 
ATOM     43  C   UNL A   1      40.527  26.246  28.143  1.00  0.00    -0.014 A 
BRANCH  43  44
ATOM     44  C   UNL A   1      41.099  27.610  29.127  1.00  0.00     0.031 A 
ATOM     45  C   UNL A   1      41.973  28.211  28.085  1.00  0.00     0.074 A 
ATOM     46  C   UNL A   1      41.314  28.263  30.405  1.00  0.00     0.049 A 
ATOM     47  N   UNL A   1      42.851  27.363  27.641  1.00  0.00    -0.248 NA
ATOM     48  C   UNL A   1      41.696  29.308  27.159  1.00  0.00     0.031 C 
ATOM     49  C   UNL A   1      41.019  27.774  31.778  1.00  0.00     0.029 A 
ATOM     50  N   UNL A   1      41.932  29.560  30.824  1.00  0.00    -0.354 N 
ATOM     51  C   UNL A   1      43.436  27.865  26.520  1.00  0.00     0.074 A 
ATOM     52  C   UNL A   1      42.572  29.001  26.181  1.00  0.00     0.031 C 
ATOM     53  C   UNL A   1      41.260  28.701  32.773  1.00  0.00     0.029 A 
ATOM     54  C   UNL A   1      41.822  29.972  32.273  1.00  0.00     0.049 A 
ATOM     55  H   UNL A   1      42.399  30.131  30.172  1.00  0.00     0.167 HD
ATOM     56  C   UNL A   1      44.792  27.751  26.614  1.00  0.00     0.034 A 
ATOM     57  C   UNL A   1      42.262  31.144  33.005  1.00  0.00     0.034 A 
ATOM     58  C   UNL A   1      45.298  28.902  27.323  1.00  0.00     0.049 A 
ATOM     59  C   UNL A   1      43.547  31.451  32.397  1.00  0.00     0.074 A 
ATOM     60  C   UNL A   1      44.972  30.243  27.207  1.00  0.00     0.029 A 
ATOM     61  N   UNL A   1      45.748  28.712  28.613  1.00  0.00    -0.354 N 
ATOM     62  N   UNL A   1      44.611  30.762  32.649  1.00  0.00    -0.248 NA
ATOM     63  C   UNL A   1      43.691  32.557  31.471  1.00  0.00     0.031 C 
ATOM     64  C   UNL A   1      44.693  30.631  28.531  1.00  0.00     0.029 A 
ATOM     65  C   UNL A   1      45.389  29.790  29.390  1.00  0.00     0.049 A 
ATOM     66  H   UNL A   1      46.250  27.927  28.929  1.00  0.00     0.167 HD
ATOM     67  C   UNL A   1      45.287  30.906  31.481  1.00  0.00     0.074 A 
ATOM     68  C   UNL A   1      44.857  32.190  30.942  1.00  0.00     0.031 C 
ATOM     69  C   UNL A   1      45.598  29.762  30.817  1.00  0.00     0.034 A 
BRANCH  56  70
ATOM     70  C   UNL A   1      45.169  26.291  26.894  1.00  0.00     0.023 A 
ATOM     71  C   UNL A   1      45.450  25.465  25.803  1.00  0.00     0.031 A 
ATOM     72  C   UNL A   1      44.996  25.653  28.155  1.00  0.00     0.131 A 
ATOM     73  C   UNL A   1      45.476  24.067  25.965  1.00  0.00     0.055 A 
ATOM     74  C   UNL A   1      44.947  24.264  28.295  1.00  0.00     0.041 A 
ATOM     75  F   UNL A   1      44.818  26.369  29.278  1.00  0.00    -0.206 F 
ATOM     76  C   UNL A   1      45.181  23.460  27.190  1.00  0.00     0.022 A 
BRANCH  73  77
ATOM     77  S   UNL A   1      45.903  23.045  24.534  1.00  0.00     0.124 S 
ATOM     78  O   UNL A   1      46.442  21.843  25.161  1.00  0.00    -0.237 OA
ATOM     79  O   UNL A   1      44.610  22.885  23.874  1.00  0.00    -0.237 OA
ATOM     80  O   UNL A   1      46.872  23.857  23.800  1.00  0.00    -0.744 OA
ENDBRANCH  73  77
ENDBRANCH  56  70
BRANCH  57  81
ATOM     81  C   UNL A   1      42.215  32.164  34.319  1.00  0.00     0.023 A 
ATOM     82  C   UNL A   1      41.453  33.446  34.397  1.00  0.00     0.031 A 
ATOM     83  C   UNL A   1      42.481  31.641  35.594  1.00  0.00     0.131 A 
ATOM     84  C   UNL A   1      41.014  34.057  35.642  1.00  0.00     0.055 A 
ATOM     85  C   UNL A   1      42.033  32.246  36.811  1.00  0.00     0.041 A 
ATOM     86  F   UNL A   1      43.089  30.453  35.714  1.00  0.00    -0.206 F 
ATOM     87  C   UNL A   1      41.293  33.428  36.845  1.00  0.00     0.022 A 
BRANCH  84  88
ATOM     88  S   UNL A   1      39.924  35.588  35.788  1.00  0.00     0.124 S 
ATOM     89  O   UNL A   1      39.493  35.561  37.181  1.00  0.00    -0.237 OA
ATOM     90  O   UNL A   1      40.815  36.675  35.399  1.00  0.00    -0.237 OA
ATOM     91  O   UNL A   1      38.843  35.340  34.827  1.00  0.00    -0.744 OA
ENDBRANCH  84  88
ENDBRANCH  57  81
BRANCH  69  92
ATOM     92  C   UNL A   1      46.041  28.555  31.645  1.00  0.00     0.023 A 
ATOM     93  C   UNL A   1      45.190  27.599  32.265  1.00  0.00     0.031 A 
ATOM     94  C   UNL A   1      47.412  28.424  31.911  1.00  0.00     0.131 A 
ATOM     95  C   UNL A   1      45.711  26.621  33.141  1.00  0.00     0.055 A 
ATOM     96  C   UNL A   1      47.933  27.426  32.737  1.00  0.00     0.041 A 
ATOM     97  F   UNL A   1      48.291  29.292  31.384  1.00  0.00    -0.206 F 
ATOM     98  C   UNL A   1      47.082  26.534  33.374  1.00  0.00     0.022 A 
BRANCH  95  99
ATOM     99  S   UNL A   1      44.594  25.509  34.066  1.00  0.00     0.124 S 
ATOM    100  O   UNL A   1      45.287  25.312  35.334  1.00  0.00    -0.237 OA
ATOM    101  O   UNL A   1      43.358  26.284  34.132  1.00  0.00    -0.237 OA
ATOM    102  O   UNL A   1      44.524  24.316  33.222  1.00  0.00    -0.744 OA
ENDBRANCH  95  99
ENDBRANCH  69  92
ENDBRANCH  43  44
ENDBRANCH  35  38
ENDBRANCH  33  34
ENDBRANCH   1  33
TORSDOF 16
ENDMDL
