MODEL 1
REMARK VINA RESULT:     -11.7      0.000      0.000
REMARK SMILES Cc1cnccc1N[C@@H]1C=C[C@@H](C(=O)NCCCCNC(=O)c2ccc(-c3c4nc(c(-c5cc(S(=O)(=O)[O-])ccc5F)c5ccc([nH]5)c(-c5cc(S(=O)(=O)[O-])ccc5F)c5nc(c(-c6cc(S(=O)(=O)[O-])ccc6F)c6ccc3[nH]6)C=C5)C=C4)cc2)C1
REMARK SMILES IDX 18 1 17 2 16 3 15 4 13 5 14 6 12 8 9 9 10 10 86 11 11 12
REMARK SMILES IDX 8 13 7 15 1 16 2 17 3 18 4 19 6 20 5 21 19 22 20 23 21 24
REMARK SMILES IDX 22 26 23 27 24 28 85 29 25 30 84 31 26 32 27 33 28 34 78 35
REMARK SMILES IDX 29 36 83 37 77 38 79 39 30 40 82 41 76 42 75 43 31 45 63 46
REMARK SMILES IDX 43 47 62 48 44 49 47 50 61 51 80 52 45 53 46 54 60 56 81 57
REMARK SMILES IDX 48 58 32 59 33 60 41 61 34 62 40 63 42 64 39 65 35 66 36 67
REMARK SMILES IDX 37 68 38 69 64 70 65 71 73 72 66 73 72 74 74 75 71 76 67 77
REMARK SMILES IDX 68 78 69 79 70 80 49 81 50 82 58 83 51 84 57 85 59 86 56 87
REMARK SMILES IDX 52 88 53 89 54 90 55 91
REMARK H PARENT 15 7 8 14 20 25 79 44 47 55
REMARK Flexibility Score: inf
ROOT
ATOM      1  C   UNL A   1      31.800  31.591  26.892  1.00  0.00     0.023 C 
ENDROOT
BRANCH   1   2
ATOM      2  C   UNL A   1      32.127  30.121  26.623  1.00  0.00     0.023 C 
BRANCH   2   3
ATOM      3  C   UNL A   1      31.591  29.579  25.301  1.00  0.00     0.116 C 
BRANCH   3   4
ATOM      4  N   UNL A   1      32.606  29.589  24.268  1.00  0.00    -0.356 N 
ATOM      5  C   UNL A   1      33.300  28.575  23.691  1.00  0.00     0.227 C 
ATOM      6  O   UNL A   1      34.110  28.877  22.809  1.00  0.00    -0.274 OA
ATOM      7  H   UNL A   1      32.830  30.485  23.926  1.00  0.00     0.163 HD
BRANCH   5   8
ATOM      8  C   UNL A   1      33.096  27.110  24.069  1.00  0.00     0.103 C 
ATOM      9  C   UNL A   1      34.387  25.028  23.969  1.00  0.00     0.103 C 
ATOM     10  C   UNL A   1      34.355  25.592  25.350  1.00  0.00    -0.006 C 
ATOM     11  C   UNL A   1      33.673  26.071  23.096  1.00  0.00     0.046 C 
ATOM     12  C   UNL A   1      33.680  26.747  25.404  1.00  0.00    -0.016 C 
BRANCH   9  13
ATOM     13  N   UNL A   1      33.824  23.688  23.933  1.00  0.00    -0.379 N 
ATOM     14  H   UNL A   1      32.877  23.632  23.668  1.00  0.00     0.161 HD
BRANCH  13  15
ATOM     15  C   UNL A   1      34.436  22.482  24.220  1.00  0.00     0.040 A 
ATOM     16  C   UNL A   1      32.173  21.302  24.491  1.00  0.00     0.048 C 
ATOM     17  C   UNL A   1      33.672  21.349  24.552  1.00  0.00    -0.010 A 
ATOM     18  C   UNL A   1      34.345  20.182  24.927  1.00  0.00     0.116 A 
ATOM     19  N   UNL A   1      35.685  20.054  25.007  1.00  0.00    -0.264 NA
ATOM     20  C   UNL A   1      35.825  22.344  24.281  1.00  0.00     0.046 A 
ATOM     21  C   UNL A   1      36.395  21.145  24.677  1.00  0.00     0.113 A 
ENDBRANCH  13  15
ENDBRANCH   9  13
ENDBRANCH   5   8
ENDBRANCH   3   4
ENDBRANCH   2   3
ENDBRANCH   1   2
BRANCH   1  22
ATOM     22  C   UNL A   1      32.978  32.445  27.343  1.00  0.00     0.116 C 
BRANCH  22  23
ATOM     23  N   UNL A   1      32.606  33.826  27.613  1.00  0.00    -0.352 N 
ATOM     24  C   UNL A   1      33.123  34.684  28.552  1.00  0.00     0.251 C 
ATOM     25  H   UNL A   1      31.888  34.193  27.048  1.00  0.00     0.163 HD
ATOM     26  O   UNL A   1      32.602  35.782  28.733  1.00  0.00    -0.269 OA
BRANCH  24  27
ATOM     27  C   UNL A   1      34.280  34.254  29.363  1.00  0.00     0.039 A 
ATOM     28  C   UNL A   1      34.053  33.509  30.522  1.00  0.00     0.014 A 
ATOM     29  C   UNL A   1      35.584  34.547  28.952  1.00  0.00     0.014 A 
ATOM     30  C   UNL A   1      35.139  32.994  31.232  1.00  0.00     0.010 A 
ATOM     31  C   UNL A   1      36.661  33.974  29.621  1.00  0.00     0.010 A 
ATOM     32  C   UNL A   1      36.449  33.190  30.766  1.00  0.00    -0.014 A 
BRANCH  32  33
ATOM     33  C   UNL A   1      37.614  32.587  31.463  1.00  0.00     0.031 A 
ATOM     34  C   UNL A   1      38.352  31.439  30.830  1.00  0.00     0.074 A 
ATOM     35  C   UNL A   1      37.957  33.024  32.691  1.00  0.00     0.049 A 
ATOM     36  N   UNL A   1      39.332  30.719  31.311  1.00  0.00    -0.248 NA
ATOM     37  C   UNL A   1      37.905  31.029  29.490  1.00  0.00     0.031 C 
ATOM     38  C   UNL A   1      37.286  34.099  33.425  1.00  0.00     0.029 A 
ATOM     39  N   UNL A   1      38.949  32.611  33.545  1.00  0.00    -0.354 N 
ATOM     40  C   UNL A   1      39.608  29.759  30.342  1.00  0.00     0.074 A 
ATOM     41  C   UNL A   1      38.650  29.956  29.274  1.00  0.00     0.031 C 
ATOM     42  C   UNL A   1      37.898  34.273  34.607  1.00  0.00     0.029 A 
ATOM     43  C   UNL A   1      38.975  33.298  34.737  1.00  0.00     0.049 A 
ATOM     44  H   UNL A   1      39.584  31.891  33.325  1.00  0.00     0.167 HD
ATOM     45  C   UNL A   1      40.584  28.819  30.335  1.00  0.00     0.034 A 
ATOM     46  C   UNL A   1      39.769  33.150  35.816  1.00  0.00     0.034 A 
ATOM     47  C   UNL A   1      41.541  28.649  31.401  1.00  0.00     0.049 A 
ATOM     48  C   UNL A   1      40.843  32.091  35.787  1.00  0.00     0.074 A 
ATOM     49  C   UNL A   1      42.606  27.768  31.472  1.00  0.00     0.029 A 
ATOM     50  N   UNL A   1      41.547  29.374  32.586  1.00  0.00    -0.354 N 
ATOM     51  N   UNL A   1      41.124  31.225  34.841  1.00  0.00    -0.248 NA
ATOM     52  C   UNL A   1      41.713  31.999  36.965  1.00  0.00     0.031 C 
ATOM     53  C   UNL A   1      43.217  27.918  32.722  1.00  0.00     0.029 A 
ATOM     54  C   UNL A   1      42.580  28.943  33.404  1.00  0.00     0.049 A 
ATOM     55  H   UNL A   1      40.911  30.091  32.812  1.00  0.00     0.167 HD
ATOM     56  C   UNL A   1      42.224  30.507  35.300  1.00  0.00     0.074 A 
ATOM     57  C   UNL A   1      42.563  31.051  36.599  1.00  0.00     0.031 C 
ATOM     58  C   UNL A   1      42.898  29.491  34.700  1.00  0.00     0.034 A 
BRANCH  45  59
ATOM     59  C   UNL A   1      40.643  27.891  29.145  1.00  0.00     0.023 A 
ATOM     60  C   UNL A   1      41.584  28.071  28.115  1.00  0.00     0.031 A 
ATOM     61  C   UNL A   1      39.728  26.831  29.020  1.00  0.00     0.131 A 
ATOM     62  C   UNL A   1      41.538  27.257  26.974  1.00  0.00     0.055 A 
ATOM     63  C   UNL A   1      39.741  25.972  27.920  1.00  0.00     0.041 A 
ATOM     64  F   UNL A   1      38.793  26.621  29.961  1.00  0.00    -0.206 F 
ATOM     65  C   UNL A   1      40.640  26.192  26.880  1.00  0.00     0.022 A 
BRANCH  62  66
ATOM     66  S   UNL A   1      42.575  27.700  25.553  1.00  0.00     0.124 S 
ATOM     67  O   UNL A   1      41.874  28.872  25.031  1.00  0.00    -0.237 OA
ATOM     68  O   UNL A   1      43.869  27.955  26.174  1.00  0.00    -0.237 OA
ATOM     69  O   UNL A   1      42.514  26.515  24.701  1.00  0.00    -0.744 OA
ENDBRANCH  62  66
ENDBRANCH  45  59
BRANCH  46  70
ATOM     70  C   UNL A   1      39.583  34.012  37.017  1.00  0.00     0.023 A 
ATOM     71  C   UNL A   1      38.978  33.509  38.180  1.00  0.00     0.031 A 
ATOM     72  C   UNL A   1      39.967  35.365  37.006  1.00  0.00     0.131 A 
ATOM     73  C   UNL A   1      38.729  34.364  39.266  1.00  0.00     0.055 A 
ATOM     74  C   UNL A   1      39.764  36.199  38.107  1.00  0.00     0.041 A 
ATOM     75  F   UNL A   1      40.557  35.894  35.921  1.00  0.00    -0.206 F 
ATOM     76  C   UNL A   1      39.129  35.702  39.241  1.00  0.00     0.022 A 
BRANCH  73  77
ATOM     77  S   UNL A   1      37.799  33.719  40.682  1.00  0.00     0.124 S 
ATOM     78  O   UNL A   1      37.465  34.944  41.401  1.00  0.00    -0.237 OA
ATOM     79  O   UNL A   1      36.688  33.035  40.029  1.00  0.00    -0.237 OA
ATOM     80  O   UNL A   1      38.759  32.845  41.352  1.00  0.00    -0.744 OA
ENDBRANCH  73  77
ENDBRANCH  46  70
BRANCH  58  81
ATOM     81  C   UNL A   1      44.097  28.943  35.432  1.00  0.00     0.023 A 
ATOM     82  C   UNL A   1      43.973  27.944  36.414  1.00  0.00     0.031 A 
ATOM     83  C   UNL A   1      45.383  29.438  35.148  1.00  0.00     0.131 A 
ATOM     84  C   UNL A   1      45.108  27.511  37.115  1.00  0.00     0.055 A 
ATOM     85  C   UNL A   1      46.516  28.961  35.809  1.00  0.00     0.041 A 
ATOM     86  F   UNL A   1      45.558  30.392  34.220  1.00  0.00    -0.206 F 
ATOM     87  C   UNL A   1      46.380  28.001  36.807  1.00  0.00     0.022 A 
BRANCH  84  88
ATOM     88  S   UNL A   1      44.890  26.358  38.498  1.00  0.00     0.124 S 
ATOM     89  O   UNL A   1      45.288  25.088  37.900  1.00  0.00    -0.237 OA
ATOM     90  O   UNL A   1      45.798  26.901  39.503  1.00  0.00    -0.237 OA
ATOM     91  O   UNL A   1      43.469  26.474  38.821  1.00  0.00    -0.744 OA
ENDBRANCH  84  88
ENDBRANCH  58  81
ENDBRANCH  32  33
ENDBRANCH  24  27
ENDBRANCH  22  23
ENDBRANCH   1  22
TORSDOF 16
ENDMDL
MODEL 2
REMARK VINA RESULT:     -11.6      2.354      3.166
REMARK SMILES Cc1cnccc1N[C@@H]1C=C[C@@H](C(=O)NCCCCNC(=O)c2ccc(-c3c4nc(c(-c5cc(S(=O)(=O)[O-])ccc5F)c5ccc([nH]5)c(-c5cc(S(=O)(=O)[O-])ccc5F)c5nc(c(-c6cc(S(=O)(=O)[O-])ccc6F)c6ccc3[nH]6)C=C5)C=C4)cc2)C1
REMARK SMILES IDX 18 1 17 2 16 3 15 4 13 5 14 6 12 8 9 9 10 10 86 11 11 12
REMARK SMILES IDX 8 13 7 15 1 16 2 17 3 18 4 19 6 20 5 21 19 22 20 23 21 24
REMARK SMILES IDX 22 26 23 27 24 28 85 29 25 30 84 31 26 32 27 33 28 34 78 35
REMARK SMILES IDX 29 36 83 37 77 38 79 39 30 40 82 41 76 42 75 43 31 45 63 46
REMARK SMILES IDX 43 47 62 48 44 49 47 50 61 51 80 52 45 53 46 54 60 56 81 57
REMARK SMILES IDX 48 58 32 59 33 60 41 61 34 62 40 63 42 64 39 65 35 66 36 67
REMARK SMILES IDX 37 68 38 69 64 70 65 71 73 72 66 73 72 74 74 75 71 76 67 77
REMARK SMILES IDX 68 78 69 79 70 80 49 81 50 82 58 83 51 84 57 85 59 86 56 87
REMARK SMILES IDX 52 88 53 89 54 90 55 91
REMARK H PARENT 15 7 8 14 20 25 79 44 47 55
REMARK Flexibility Score: inf
ROOT
ATOM      1  C   UNL A   1      32.697  28.835  23.986  1.00  0.00     0.023 C 
ENDROOT
BRANCH   1   2
ATOM      2  C   UNL A   1      31.189  28.686  23.779  1.00  0.00     0.023 C 
BRANCH   2   3
ATOM      3  C   UNL A   1      30.772  27.445  22.995  1.00  0.00     0.116 C 
BRANCH   3   4
ATOM      4  N   UNL A   1      31.742  27.107  21.974  1.00  0.00    -0.356 N 
ATOM      5  C   UNL A   1      32.547  26.022  21.833  1.00  0.00     0.227 C 
ATOM      6  O   UNL A   1      33.279  25.989  20.840  1.00  0.00    -0.274 OA
ATOM      7  H   UNL A   1      31.833  27.779  21.259  1.00  0.00     0.163 HD
BRANCH   5   8
ATOM      8  C   UNL A   1      32.553  24.860  22.824  1.00  0.00     0.103 C 
ATOM      9  C   UNL A   1      32.235  24.547  25.235  1.00  0.00     0.103 C 
ATOM     10  C   UNL A   1      31.027  24.139  24.461  1.00  0.00    -0.006 C 
ATOM     11  C   UNL A   1      33.196  25.136  24.191  1.00  0.00     0.046 C 
ATOM     12  C   UNL A   1      31.182  24.338  23.146  1.00  0.00    -0.016 C 
BRANCH   9  13
ATOM     13  N   UNL A   1      32.761  23.441  26.017  1.00  0.00    -0.379 N 
ATOM     14  H   UNL A   1      32.321  23.286  26.884  1.00  0.00     0.161 HD
BRANCH  13  15
ATOM     15  C   UNL A   1      33.796  22.576  25.710  1.00  0.00     0.040 A 
ATOM     16  C   UNL A   1      32.163  20.801  24.834  1.00  0.00     0.048 C 
ATOM     17  C   UNL A   1      33.532  21.290  25.207  1.00  0.00    -0.010 A 
ATOM     18  C   UNL A   1      34.611  20.423  25.005  1.00  0.00     0.116 A 
ATOM     19  N   UNL A   1      35.900  20.719  25.265  1.00  0.00    -0.264 NA
ATOM     20  C   UNL A   1      35.133  22.892  25.960  1.00  0.00     0.046 A 
ATOM     21  C   UNL A   1      36.129  21.955  25.737  1.00  0.00     0.113 A 
ENDBRANCH  13  15
ENDBRANCH   9  13
ENDBRANCH   5   8
ENDBRANCH   3   4
ENDBRANCH   2   3
ENDBRANCH   1   2
BRANCH   1  22
ATOM     22  C   UNL A   1      33.128  29.157  25.410  1.00  0.00     0.116 C 
BRANCH  22  23
ATOM     23  N   UNL A   1      32.605  30.428  25.887  1.00  0.00    -0.352 N 
ATOM     24  C   UNL A   1      33.093  31.234  26.887  1.00  0.00     0.251 C 
ATOM     25  H   UNL A   1      31.794  30.753  25.434  1.00  0.00     0.163 HD
ATOM     26  O   UNL A   1      32.451  32.217  27.250  1.00  0.00    -0.269 OA
BRANCH  24  27
ATOM     27  C   UNL A   1      34.369  30.882  27.540  1.00  0.00     0.039 A 
ATOM     28  C   UNL A   1      35.337  31.874  27.711  1.00  0.00     0.014 A 
ATOM     29  C   UNL A   1      34.586  29.587  28.022  1.00  0.00     0.014 A 
ATOM     30  C   UNL A   1      36.497  31.585  28.433  1.00  0.00     0.010 A 
ATOM     31  C   UNL A   1      35.709  29.322  28.800  1.00  0.00     0.010 A 
ATOM     32  C   UNL A   1      36.674  30.319  29.015  1.00  0.00    -0.014 A 
BRANCH  32  33
ATOM     33  C   UNL A   1      37.864  30.015  29.850  1.00  0.00     0.031 A 
ATOM     34  C   UNL A   1      38.930  29.092  29.325  1.00  0.00     0.074 A 
ATOM     35  C   UNL A   1      37.947  30.510  31.101  1.00  0.00     0.049 A 
ATOM     36  N   UNL A   1      39.996  28.631  29.926  1.00  0.00    -0.248 NA
ATOM     37  C   UNL A   1      38.753  28.599  27.950  1.00  0.00     0.031 C 
ATOM     38  C   UNL A   1      36.952  31.377  31.735  1.00  0.00     0.029 A 
ATOM     39  N   UNL A   1      38.907  30.345  32.069  1.00  0.00    -0.354 N 
ATOM     40  C   UNL A   1      40.608  27.780  29.011  1.00  0.00     0.074 A 
ATOM     41  C   UNL A   1      39.760  27.746  27.839  1.00  0.00     0.031 C 
ATOM     42  C   UNL A   1      37.364  31.685  32.976  1.00  0.00     0.029 A 
ATOM     43  C   UNL A   1      38.626  31.005  33.244  1.00  0.00     0.049 A 
ATOM     44  H   UNL A   1      39.720  29.807  31.934  1.00  0.00     0.167 HD
ATOM     45  C   UNL A   1      41.781  27.110  29.131  1.00  0.00     0.034 A 
ATOM     46  C   UNL A   1      39.304  31.045  34.408  1.00  0.00     0.034 A 
ATOM     47  C   UNL A   1      42.622  27.171  30.300  1.00  0.00     0.049 A 
ATOM     48  C   UNL A   1      40.603  30.285  34.519  1.00  0.00     0.074 A 
ATOM     49  C   UNL A   1      43.857  26.580  30.507  1.00  0.00     0.029 A 
ATOM     50  N   UNL A   1      42.315  27.862  31.466  1.00  0.00    -0.354 N 
ATOM     51  N   UNL A   1      41.195  29.526  33.625  1.00  0.00    -0.248 NA
ATOM     52  C   UNL A   1      41.329  30.398  35.789  1.00  0.00     0.031 C 
ATOM     53  C   UNL A   1      44.266  26.863  31.815  1.00  0.00     0.029 A 
ATOM     54  C   UNL A   1      43.323  27.691  32.402  1.00  0.00     0.049 A 
ATOM     55  H   UNL A   1      41.500  28.396  31.606  1.00  0.00     0.167 HD
ATOM     56  C   UNL A   1      42.379  29.097  34.218  1.00  0.00     0.074 A 
ATOM     57  C   UNL A   1      42.422  29.693  35.538  1.00  0.00     0.031 C 
ATOM     58  C   UNL A   1      43.346  28.286  33.717  1.00  0.00     0.034 A 
BRANCH  45  59
ATOM     59  C   UNL A   1      42.202  26.239  27.972  1.00  0.00     0.023 A 
ATOM     60  C   UNL A   1      41.713  24.929  27.817  1.00  0.00     0.031 A 
ATOM     61  C   UNL A   1      43.129  26.709  27.025  1.00  0.00     0.131 A 
ATOM     62  C   UNL A   1      42.209  24.112  26.791  1.00  0.00     0.055 A 
ATOM     63  C   UNL A   1      43.558  25.919  25.957  1.00  0.00     0.041 A 
ATOM     64  F   UNL A   1      43.648  27.944  27.131  1.00  0.00    -0.206 F 
ATOM     65  C   UNL A   1      43.110  24.606  25.844  1.00  0.00     0.022 A 
BRANCH  62  66
ATOM     66  S   UNL A   1      41.770  22.352  26.798  1.00  0.00     0.124 S 
ATOM     67  O   UNL A   1      42.142  21.951  25.442  1.00  0.00    -0.237 OA
ATOM     68  O   UNL A   1      42.604  21.823  27.871  1.00  0.00    -0.237 OA
ATOM     69  O   UNL A   1      40.334  22.358  27.067  1.00  0.00    -0.744 OA
ENDBRANCH  62  66
ENDBRANCH  45  59
BRANCH  46  70
ATOM     70  C   UNL A   1      38.777  31.822  35.565  1.00  0.00     0.023 A 
ATOM     71  C   UNL A   1      38.216  31.171  36.676  1.00  0.00     0.031 A 
ATOM     72  C   UNL A   1      38.783  33.228  35.559  1.00  0.00     0.131 A 
ATOM     73  C   UNL A   1      37.642  31.923  37.712  1.00  0.00     0.055 A 
ATOM     74  C   UNL A   1      38.256  33.973  36.616  1.00  0.00     0.041 A 
ATOM     75  F   UNL A   1      39.313  33.900  34.524  1.00  0.00    -0.206 F 
ATOM     76  C   UNL A   1      37.668  33.320  37.695  1.00  0.00     0.022 A 
BRANCH  73  77
ATOM     77  S   UNL A   1      36.783  31.047  39.047  1.00  0.00     0.124 S 
ATOM     78  O   UNL A   1      36.663  29.703  38.492  1.00  0.00    -0.237 OA
ATOM     79  O   UNL A   1      37.715  31.202  40.159  1.00  0.00    -0.237 OA
ATOM     80  O   UNL A   1      35.526  31.781  39.183  1.00  0.00    -0.744 OA
ENDBRANCH  73  77
ENDBRANCH  46  70
BRANCH  58  81
ATOM     81  C   UNL A   1      44.552  28.043  34.588  1.00  0.00     0.023 A 
ATOM     82  C   UNL A   1      44.615  26.958  35.480  1.00  0.00     0.031 A 
ATOM     83  C   UNL A   1      45.650  28.920  34.533  1.00  0.00     0.131 A 
ATOM     84  C   UNL A   1      45.729  26.809  36.319  1.00  0.00     0.055 A 
ATOM     85  C   UNL A   1      46.781  28.733  35.328  1.00  0.00     0.041 A 
ATOM     86  F   UNL A   1      45.641  29.973  33.699  1.00  0.00    -0.206 F 
ATOM     87  C   UNL A   1      46.819  27.679  36.237  1.00  0.00     0.022 A 
BRANCH  84  88
ATOM     88  S   UNL A   1      45.700  25.508  37.583  1.00  0.00     0.124 S 
ATOM     89  O   UNL A   1      45.169  26.220  38.740  1.00  0.00    -0.237 OA
ATOM     90  O   UNL A   1      44.814  24.513  36.985  1.00  0.00    -0.237 OA
ATOM     91  O   UNL A   1      47.100  25.103  37.691  1.00  0.00    -0.744 OA
ENDBRANCH  84  88
ENDBRANCH  58  81
ENDBRANCH  32  33
ENDBRANCH  24  27
ENDBRANCH  22  23
ENDBRANCH   1  22
TORSDOF 16
ENDMDL
MODEL 3
REMARK VINA RESULT:     -11.5      2.200      4.019
REMARK SMILES Cc1cnccc1N[C@@H]1C=C[C@@H](C(=O)NCCCCNC(=O)c2ccc(-c3c4nc(c(-c5cc(S(=O)(=O)[O-])ccc5F)c5ccc([nH]5)c(-c5cc(S(=O)(=O)[O-])ccc5F)c5nc(c(-c6cc(S(=O)(=O)[O-])ccc6F)c6ccc3[nH]6)C=C5)C=C4)cc2)C1
REMARK SMILES IDX 18 1 17 2 16 3 15 4 13 5 14 6 12 8 9 9 10 10 86 11 11 12
REMARK SMILES IDX 8 13 7 15 1 16 2 17 3 18 4 19 6 20 5 21 19 22 20 23 21 24
REMARK SMILES IDX 22 26 23 27 24 28 85 29 25 30 84 31 26 32 27 33 28 34 78 35
REMARK SMILES IDX 29 36 83 37 77 38 79 39 30 40 82 41 76 42 75 43 31 45 63 46
REMARK SMILES IDX 43 47 62 48 44 49 47 50 61 51 80 52 45 53 46 54 60 56 81 57
REMARK SMILES IDX 48 58 32 59 33 60 41 61 34 62 40 63 42 64 39 65 35 66 36 67
REMARK SMILES IDX 37 68 38 69 64 70 65 71 73 72 66 73 72 74 74 75 71 76 67 77
REMARK SMILES IDX 68 78 69 79 70 80 49 81 50 82 58 83 51 84 57 85 59 86 56 87
REMARK SMILES IDX 52 88 53 89 54 90 55 91
REMARK H PARENT 15 7 8 14 20 25 79 44 47 55
REMARK Flexibility Score: inf
ROOT
ATOM      1  C   UNL A   1      32.083  30.967  26.513  1.00  0.00     0.023 C 
ENDROOT
BRANCH   1   2
ATOM      2  C   UNL A   1      31.825  29.516  26.922  1.00  0.00     0.023 C 
BRANCH   2   3
ATOM      3  C   UNL A   1      33.084  28.681  27.139  1.00  0.00     0.116 C 
BRANCH   3   4
ATOM      4  N   UNL A   1      33.476  27.982  25.933  1.00  0.00    -0.356 N 
ATOM      5  C   UNL A   1      32.780  27.693  24.803  1.00  0.00     0.227 C 
ATOM      6  O   UNL A   1      33.381  27.087  23.911  1.00  0.00    -0.274 OA
ATOM      7  H   UNL A   1      34.408  27.663  25.932  1.00  0.00     0.163 HD
BRANCH   5   8
ATOM      8  C   UNL A   1      31.326  28.109  24.597  1.00  0.00     0.103 C 
ATOM      9  C   UNL A   1      29.786  28.398  22.711  1.00  0.00     0.103 C 
ATOM     10  C   UNL A   1      29.524  27.127  23.448  1.00  0.00    -0.006 C 
ATOM     11  C   UNL A   1      31.038  28.991  23.373  1.00  0.00     0.046 C 
ATOM     12  C   UNL A   1      30.383  26.948  24.459  1.00  0.00    -0.016 C 
BRANCH   9  13
ATOM     13  N   UNL A   1      28.613  29.256  22.704  1.00  0.00    -0.379 N 
ATOM     14  H   UNL A   1      27.812  28.885  23.140  1.00  0.00     0.161 HD
BRANCH  13  15
ATOM     15  C   UNL A   1      28.469  30.524  22.169  1.00  0.00     0.040 A 
ATOM     16  C   UNL A   1      29.202  31.626  24.368  1.00  0.00     0.048 C 
ATOM     17  C   UNL A   1      28.681  31.666  22.961  1.00  0.00    -0.010 A 
ATOM     18  C   UNL A   1      28.428  32.921  22.396  1.00  0.00     0.116 A 
ATOM     19  N   UNL A   1      27.982  33.127  21.140  1.00  0.00    -0.264 NA
ATOM     20  C   UNL A   1      28.028  30.737  20.861  1.00  0.00     0.046 A 
ATOM     21  C   UNL A   1      27.794  32.023  20.400  1.00  0.00     0.113 A 
ENDBRANCH  13  15
ENDBRANCH   9  13
ENDBRANCH   5   8
ENDBRANCH   3   4
ENDBRANCH   2   3
ENDBRANCH   1   2
BRANCH   1  22
ATOM     22  C   UNL A   1      33.096  31.713  27.372  1.00  0.00     0.116 C 
BRANCH  22  23
ATOM     23  N   UNL A   1      32.756  33.115  27.560  1.00  0.00    -0.352 N 
ATOM     24  C   UNL A   1      33.298  34.016  28.445  1.00  0.00     0.251 C 
ATOM     25  H   UNL A   1      32.044  33.463  26.977  1.00  0.00     0.163 HD
ATOM     26  O   UNL A   1      32.803  35.134  28.561  1.00  0.00    -0.269 OA
BRANCH  24  27
ATOM     27  C   UNL A   1      34.449  33.608  29.275  1.00  0.00     0.039 A 
ATOM     28  C   UNL A   1      34.234  32.742  30.349  1.00  0.00     0.014 A 
ATOM     29  C   UNL A   1      35.740  34.045  28.963  1.00  0.00     0.014 A 
ATOM     30  C   UNL A   1      35.327  32.254  31.068  1.00  0.00     0.010 A 
ATOM     31  C   UNL A   1      36.831  33.503  29.636  1.00  0.00     0.010 A 
ATOM     32  C   UNL A   1      36.636  32.601  30.693  1.00  0.00    -0.014 A 
BRANCH  32  33
ATOM     33  C   UNL A   1      37.815  32.033  31.396  1.00  0.00     0.031 A 
ATOM     34  C   UNL A   1      38.625  30.948  30.740  1.00  0.00     0.074 A 
ATOM     35  C   UNL A   1      38.109  32.443  32.646  1.00  0.00     0.049 A 
ATOM     36  N   UNL A   1      39.630  30.262  31.218  1.00  0.00    -0.248 NA
ATOM     37  C   UNL A   1      38.229  30.565  29.377  1.00  0.00     0.031 C 
ATOM     38  C   UNL A   1      37.367  33.455  33.400  1.00  0.00     0.029 A 
ATOM     39  N   UNL A   1      39.102  32.050  33.508  1.00  0.00    -0.354 N 
ATOM     40  C   UNL A   1      39.976  29.354  30.223  1.00  0.00     0.074 A 
ATOM     41  C   UNL A   1      39.033  29.540  29.141  1.00  0.00     0.031 C 
ATOM     42  C   UNL A   1      37.943  33.618  34.602  1.00  0.00     0.029 A 
ATOM     43  C   UNL A   1      39.066  32.695  34.723  1.00  0.00     0.049 A 
ATOM     44  H   UNL A   1      39.778  31.372  33.277  1.00  0.00     0.167 HD
ATOM     45  C   UNL A   1      41.000  28.465  30.206  1.00  0.00     0.034 A 
ATOM     46  C   UNL A   1      39.844  32.549  35.814  1.00  0.00     0.034 A 
ATOM     47  C   UNL A   1      41.942  28.307  31.287  1.00  0.00     0.049 A 
ATOM     48  C   UNL A   1      40.972  31.548  35.773  1.00  0.00     0.074 A 
ATOM     49  C   UNL A   1      43.050  27.479  31.352  1.00  0.00     0.029 A 
ATOM     50  N   UNL A   1      41.885  28.988  32.496  1.00  0.00    -0.354 N 
ATOM     51  N   UNL A   1      41.318  30.732  34.804  1.00  0.00    -0.248 NA
ATOM     52  C   UNL A   1      41.821  31.458  36.968  1.00  0.00     0.031 C 
ATOM     53  C   UNL A   1      43.625  27.616  32.620  1.00  0.00     0.029 A 
ATOM     54  C   UNL A   1      42.921  28.581  33.322  1.00  0.00     0.049 A 
ATOM     55  H   UNL A   1      41.207  29.662  32.732  1.00  0.00     0.167 HD
ATOM     56  C   UNL A   1      42.444  30.055  35.263  1.00  0.00     0.074 A 
ATOM     57  C   UNL A   1      42.726  30.568  36.588  1.00  0.00     0.031 C 
ATOM     58  C   UNL A   1      43.183  29.098  34.644  1.00  0.00     0.034 A 
BRANCH  45  59
ATOM     59  C   UNL A   1      41.133  27.585  28.986  1.00  0.00     0.023 A 
ATOM     60  C   UNL A   1      42.128  27.811  28.018  1.00  0.00     0.031 A 
ATOM     61  C   UNL A   1      40.234  26.526  28.769  1.00  0.00     0.131 A 
ATOM     62  C   UNL A   1      42.153  27.042  26.845  1.00  0.00     0.055 A 
ATOM     63  C   UNL A   1      40.315  25.711  27.638  1.00  0.00     0.041 A 
ATOM     64  F   UNL A   1      39.250  26.274  29.647  1.00  0.00    -0.206 F 
ATOM     65  C   UNL A   1      41.269  25.976  26.660  1.00  0.00     0.022 A 
BRANCH  62  66
ATOM     66  S   UNL A   1      43.263  27.547  25.503  1.00  0.00     0.124 S 
ATOM     67  O   UNL A   1      44.087  28.555  26.166  1.00  0.00    -0.237 OA
ATOM     68  O   UNL A   1      43.934  26.298  25.162  1.00  0.00    -0.237 OA
ATOM     69  O   UNL A   1      42.355  28.067  24.484  1.00  0.00    -0.744 OA
ENDBRANCH  62  66
ENDBRANCH  45  59
BRANCH  46  70
ATOM     70  C   UNL A   1      39.588  33.356  37.040  1.00  0.00     0.023 A 
ATOM     71  C   UNL A   1      38.976  32.784  38.167  1.00  0.00     0.031 A 
ATOM     72  C   UNL A   1      39.911  34.724  37.088  1.00  0.00     0.131 A 
ATOM     73  C   UNL A   1      38.661  33.585  39.275  1.00  0.00     0.055 A 
ATOM     74  C   UNL A   1      39.641  35.507  38.213  1.00  0.00     0.041 A 
ATOM     75  F   UNL A   1      40.504  35.319  36.040  1.00  0.00    -0.206 F 
ATOM     76  C   UNL A   1      39.000  34.940  39.310  1.00  0.00     0.022 A 
BRANCH  73  77
ATOM     77  S   UNL A   1      37.724  32.848  40.641  1.00  0.00     0.124 S 
ATOM     78  O   UNL A   1      36.350  33.158  40.261  1.00  0.00    -0.237 OA
ATOM     79  O   UNL A   1      38.113  31.445  40.553  1.00  0.00    -0.237 OA
ATOM     80  O   UNL A   1      38.222  33.557  41.818  1.00  0.00    -0.744 OA
ENDBRANCH  73  77
ENDBRANCH  46  70
BRANCH  58  81
ATOM     81  C   UNL A   1      44.392  28.586  35.384  1.00  0.00     0.023 A 
ATOM     82  C   UNL A   1      44.294  27.573  36.355  1.00  0.00     0.031 A 
ATOM     83  C   UNL A   1      45.663  29.128  35.119  1.00  0.00     0.131 A 
ATOM     84  C   UNL A   1      45.436  27.175  37.065  1.00  0.00     0.055 A 
ATOM     85  C   UNL A   1      46.805  28.686  35.787  1.00  0.00     0.041 A 
ATOM     86  F   UNL A   1      45.813  30.098  34.202  1.00  0.00    -0.206 F 
ATOM     87  C   UNL A   1      46.693  27.712  36.776  1.00  0.00     0.022 A 
BRANCH  84  88
ATOM     88  S   UNL A   1      45.245  26.001  38.434  1.00  0.00     0.124 S 
ATOM     89  O   UNL A   1      46.614  25.878  38.923  1.00  0.00    -0.237 OA
ATOM     90  O   UNL A   1      44.314  26.699  39.315  1.00  0.00    -0.237 OA
ATOM     91  O   UNL A   1      44.706  24.805  37.789  1.00  0.00    -0.744 OA
ENDBRANCH  84  88
ENDBRANCH  58  81
ENDBRANCH  32  33
ENDBRANCH  24  27
ENDBRANCH  22  23
ENDBRANCH   1  22
TORSDOF 16
ENDMDL
