MODEL 1
REMARK VINA RESULT:     -12.3      0.000      0.000
REMARK SMILES N#Cc1cnc2cc(C(=O)NCCCCNC(=O)c3ccc(-c4c5nc(c(-c6cc(S(=O)(=O)[O-])ccc6F)c6ccc([nH]6)c(-c6cc(S(=O)(=O)[O-])ccc6F)c6nc(c(-c7cc(S(=O)(=O)[O-])ccc7F)c7ccc4[nH]7)C=C6)C=C5)cc3)[nH]c2c1
REMARK SMILES IDX 14 1 13 2 12 3 11 4 9 5 10 6 8 8 3 9 4 10 84 11 5 12 83 13
REMARK SMILES IDX 6 14 82 15 7 16 2 18 1 19 15 20 16 21 17 22 18 24 19 25
REMARK SMILES IDX 20 26 81 27 21 28 80 29 22 30 23 31 24 32 74 33 25 34 79 35
REMARK SMILES IDX 73 36 75 37 26 38 78 39 72 40 71 41 27 43 59 44 39 45 58 46
REMARK SMILES IDX 40 47 43 48 57 49 76 50 41 51 42 52 56 54 77 55 44 56 28 57
REMARK SMILES IDX 29 58 37 59 30 60 36 61 38 62 35 63 31 64 32 65 33 66 34 67
REMARK SMILES IDX 60 68 61 69 69 70 62 71 68 72 70 73 67 74 63 75 64 76 65 77
REMARK SMILES IDX 66 78 45 79 46 80 54 81 47 82 53 83 55 84 52 85 48 86 49 87
REMARK SMILES IDX 50 88 51 89
REMARK H PARENT 11 7 82 17 16 23 75 42 43 53
REMARK Flexibility Score: inf
ROOT
ATOM      1  C   UNL A   1      33.884  28.946  27.097  1.00  0.00     0.023 C 
ENDROOT
BRANCH   1   2
ATOM      2  C   UNL A   1      33.338  29.708  25.881  1.00  0.00     0.023 C 
BRANCH   2   3
ATOM      3  C   UNL A   1      31.817  29.879  25.829  1.00  0.00     0.116 C 
BRANCH   3   4
ATOM      4  N   UNL A   1      31.243  29.593  24.528  1.00  0.00    -0.351 N 
ATOM      5  C   UNL A   1      30.720  28.454  23.971  1.00  0.00     0.267 C 
ATOM      6  O   UNL A   1      30.285  28.549  22.820  1.00  0.00    -0.268 OA
ATOM      7  H   UNL A   1      31.225  30.371  23.924  1.00  0.00     0.163 HD
BRANCH   5   8
ATOM      8  C   UNL A   1      30.735  27.168  24.637  1.00  0.00     0.107 A 
ATOM      9  C   UNL A   1      31.534  22.739  25.437  1.00  0.00     0.072 A 
ATOM     10  C   UNL A   1      31.598  23.289  26.713  1.00  0.00     0.131 A 
ATOM     11  C   UNL A   1      31.191  23.556  24.353  1.00  0.00     0.049 A 
ATOM     12  N   UNL A   1      31.333  24.573  27.026  1.00  0.00    -0.253 NA
ATOM     13  C   UNL A   1      30.975  24.902  24.658  1.00  0.00     0.066 A 
ATOM     14  C   UNL A   1      31.037  25.360  25.966  1.00  0.00     0.089 A 
ATOM     15  N   UNL A   1      30.699  26.000  23.880  1.00  0.00    -0.349 N 
ATOM     16  C   UNL A   1      30.772  26.742  25.954  1.00  0.00     0.062 A 
ATOM     17  H   UNL A   1      30.502  25.966  22.917  1.00  0.00     0.167 HD
BRANCH   9  18
ATOM     18  C   UNL A   1      31.837  21.360  25.255  1.00  0.00     0.101 C 
ATOM     19  N   UNL A   1      32.077  20.226  25.127  1.00  0.00    -0.192 NA
ENDBRANCH   9  18
ENDBRANCH   5   8
ENDBRANCH   3   4
ENDBRANCH   2   3
ENDBRANCH   1   2
BRANCH   1  20
ATOM     20  C   UNL A   1      35.321  29.284  27.475  1.00  0.00     0.116 C 
BRANCH  20  21
ATOM     21  N   UNL A   1      35.470  29.839  28.819  1.00  0.00    -0.352 N 
ATOM     22  C   UNL A   1      36.458  29.528  29.744  1.00  0.00     0.251 C 
ATOM     23  H   UNL A   1      34.799  30.502  29.098  1.00  0.00     0.163 HD
ATOM     24  O   UNL A   1      36.250  29.690  30.941  1.00  0.00    -0.269 OA
BRANCH  22  25
ATOM     25  C   UNL A   1      37.766  29.027  29.256  1.00  0.00     0.039 A 
ATOM     26  C   UNL A   1      38.409  29.567  28.141  1.00  0.00     0.014 A 
ATOM     27  C   UNL A   1      38.361  27.976  29.956  1.00  0.00     0.014 A 
ATOM     28  C   UNL A   1      39.662  29.059  27.775  1.00  0.00     0.010 A 
ATOM     29  C   UNL A   1      39.664  27.611  29.712  1.00  0.00     0.010 A 
ATOM     30  C   UNL A   1      40.298  28.082  28.577  1.00  0.00    -0.014 A 
BRANCH  30  31
ATOM     31  C   UNL A   1      41.726  27.756  28.423  1.00  0.00     0.031 A 
ATOM     32  C   UNL A   1      41.860  26.460  27.703  1.00  0.00     0.074 A 
ATOM     33  C   UNL A   1      42.771  28.586  28.696  1.00  0.00     0.049 A 
ATOM     34  N   UNL A   1      42.084  25.310  28.247  1.00  0.00    -0.248 NA
ATOM     35  C   UNL A   1      41.400  26.353  26.303  1.00  0.00     0.031 C 
ATOM     36  C   UNL A   1      42.717  29.962  29.207  1.00  0.00     0.029 A 
ATOM     37  N   UNL A   1      44.127  28.407  28.532  1.00  0.00    -0.354 N 
ATOM     38  C   UNL A   1      42.172  24.418  27.186  1.00  0.00     0.074 A 
ATOM     39  C   UNL A   1      41.471  25.034  26.098  1.00  0.00     0.031 C 
ATOM     40  C   UNL A   1      43.935  30.555  29.107  1.00  0.00     0.029 A 
ATOM     41  C   UNL A   1      44.912  29.578  28.655  1.00  0.00     0.049 A 
ATOM     42  H   UNL A   1      44.523  27.525  28.343  1.00  0.00     0.167 HD
ATOM     43  C   UNL A   1      43.156  23.477  27.196  1.00  0.00     0.034 A 
ATOM     44  C   UNL A   1      46.271  29.719  28.494  1.00  0.00     0.034 A 
ATOM     45  C   UNL A   1      43.709  23.363  28.529  1.00  0.00     0.049 A 
ATOM     46  C   UNL A   1      46.826  28.373  28.739  1.00  0.00     0.074 A 
ATOM     47  C   UNL A   1      43.261  22.968  29.772  1.00  0.00     0.029 A 
ATOM     48  N   UNL A   1      44.784  24.190  28.731  1.00  0.00    -0.354 N 
ATOM     49  N   UNL A   1      46.764  27.777  29.899  1.00  0.00    -0.248 NA
ATOM     50  C   UNL A   1      47.016  27.510  27.586  1.00  0.00     0.031 C 
ATOM     51  C   UNL A   1      43.952  23.792  30.713  1.00  0.00     0.029 A 
ATOM     52  C   UNL A   1      44.878  24.584  30.034  1.00  0.00     0.049 A 
ATOM     53  H   UNL A   1      45.412  24.464  28.024  1.00  0.00     0.167 HD
ATOM     54  C   UNL A   1      46.457  26.464  29.589  1.00  0.00     0.074 A 
ATOM     55  C   UNL A   1      46.748  26.334  28.157  1.00  0.00     0.031 C 
ATOM     56  C   UNL A   1      45.695  25.714  30.439  1.00  0.00     0.034 A 
BRANCH  43  57
ATOM     57  C   UNL A   1      43.999  23.116  25.980  1.00  0.00     0.023 A 
ATOM     58  C   UNL A   1      44.078  21.752  25.633  1.00  0.00     0.031 A 
ATOM     59  C   UNL A   1      44.946  23.960  25.353  1.00  0.00     0.131 A 
ATOM     60  C   UNL A   1      45.071  21.282  24.752  1.00  0.00     0.055 A 
ATOM     61  C   UNL A   1      45.904  23.495  24.447  1.00  0.00     0.041 A 
ATOM     62  F   UNL A   1      45.071  25.259  25.643  1.00  0.00    -0.206 F 
ATOM     63  C   UNL A   1      45.983  22.148  24.155  1.00  0.00     0.022 A 
BRANCH  60  64
ATOM     64  S   UNL A   1      45.209  19.500  24.463  1.00  0.00     0.124 S 
ATOM     65  O   UNL A   1      44.378  18.959  25.531  1.00  0.00    -0.237 OA
ATOM     66  O   UNL A   1      44.681  19.375  23.108  1.00  0.00    -0.237 OA
ATOM     67  O   UNL A   1      46.642  19.247  24.594  1.00  0.00    -0.744 OA
ENDBRANCH  60  64
ENDBRANCH  43  57
BRANCH  44  68
ATOM     68  C   UNL A   1      47.074  30.771  27.752  1.00  0.00     0.023 A 
ATOM     69  C   UNL A   1      46.490  31.867  27.039  1.00  0.00     0.031 A 
ATOM     70  C   UNL A   1      48.460  30.872  27.987  1.00  0.00     0.131 A 
ATOM     71  C   UNL A   1      47.277  32.986  26.634  1.00  0.00     0.055 A 
ATOM     72  C   UNL A   1      49.222  31.984  27.603  1.00  0.00     0.041 A 
ATOM     73  F   UNL A   1      49.113  29.929  28.679  1.00  0.00    -0.206 F 
ATOM     74  C   UNL A   1      48.635  33.049  26.940  1.00  0.00     0.022 A 
BRANCH  71  75
ATOM     75  S   UNL A   1      46.553  34.452  25.791  1.00  0.00     0.124 S 
ATOM     76  O   UNL A   1      46.182  35.304  26.915  1.00  0.00    -0.237 OA
ATOM     77  O   UNL A   1      47.652  34.920  24.956  1.00  0.00    -0.237 OA
ATOM     78  O   UNL A   1      45.420  33.894  25.049  1.00  0.00    -0.744 OA
ENDBRANCH  71  75
ENDBRANCH  44  68
BRANCH  56  79
ATOM     79  C   UNL A   1      45.642  26.081  31.904  1.00  0.00     0.023 A 
ATOM     80  C   UNL A   1      44.554  26.654  32.600  1.00  0.00     0.031 A 
ATOM     81  C   UNL A   1      46.744  25.633  32.655  1.00  0.00     0.131 A 
ATOM     82  C   UNL A   1      44.597  26.726  34.012  1.00  0.00     0.055 A 
ATOM     83  C   UNL A   1      46.767  25.677  34.044  1.00  0.00     0.041 A 
ATOM     84  F   UNL A   1      47.797  25.069  32.040  1.00  0.00    -0.206 F 
ATOM     85  C   UNL A   1      45.689  26.220  34.729  1.00  0.00     0.022 A 
BRANCH  82  86
ATOM     86  S   UNL A   1      43.211  27.437  34.966  1.00  0.00     0.124 S 
ATOM     87  O   UNL A   1      42.202  26.385  34.913  1.00  0.00    -0.237 OA
ATOM     88  O   UNL A   1      43.809  27.684  36.274  1.00  0.00    -0.237 OA
ATOM     89  O   UNL A   1      42.865  28.649  34.221  1.00  0.00    -0.744 OA
ENDBRANCH  82  86
ENDBRANCH  56  79
ENDBRANCH  30  31
ENDBRANCH  22  25
ENDBRANCH  20  21
ENDBRANCH   1  20
TORSDOF 15
ENDMDL
MODEL 2
REMARK VINA RESULT:     -12.3      2.881      7.449
REMARK SMILES N#Cc1cnc2cc(C(=O)NCCCCNC(=O)c3ccc(-c4c5nc(c(-c6cc(S(=O)(=O)[O-])ccc6F)c6ccc([nH]6)c(-c6cc(S(=O)(=O)[O-])ccc6F)c6nc(c(-c7cc(S(=O)(=O)[O-])ccc7F)c7ccc4[nH]7)C=C6)C=C5)cc3)[nH]c2c1
REMARK SMILES IDX 14 1 13 2 12 3 11 4 9 5 10 6 8 8 3 9 4 10 84 11 5 12 83 13
REMARK SMILES IDX 6 14 82 15 7 16 2 18 1 19 15 20 16 21 17 22 18 24 19 25
REMARK SMILES IDX 20 26 81 27 21 28 80 29 22 30 23 31 24 32 74 33 25 34 79 35
REMARK SMILES IDX 73 36 75 37 26 38 78 39 72 40 71 41 27 43 59 44 39 45 58 46
REMARK SMILES IDX 40 47 43 48 57 49 76 50 41 51 42 52 56 54 77 55 44 56 28 57
REMARK SMILES IDX 29 58 37 59 30 60 36 61 38 62 35 63 31 64 32 65 33 66 34 67
REMARK SMILES IDX 60 68 61 69 69 70 62 71 68 72 70 73 67 74 63 75 64 76 65 77
REMARK SMILES IDX 66 78 45 79 46 80 54 81 47 82 53 83 55 84 52 85 48 86 49 87
REMARK SMILES IDX 50 88 51 89
REMARK H PARENT 11 7 82 17 16 23 75 42 43 53
REMARK Flexibility Score: inf
ROOT
ATOM      1  C   UNL A   1      33.554  30.938  27.383  1.00  0.00     0.023 C 
ENDROOT
BRANCH   1   2
ATOM      2  C   UNL A   1      33.768  29.551  26.760  1.00  0.00     0.023 C 
BRANCH   2   3
ATOM      3  C   UNL A   1      33.034  29.292  25.441  1.00  0.00     0.116 C 
BRANCH   3   4
ATOM      4  N   UNL A   1      31.928  28.361  25.563  1.00  0.00    -0.351 N 
ATOM      5  C   UNL A   1      31.823  27.009  25.359  1.00  0.00     0.267 C 
ATOM      6  O   UNL A   1      30.719  26.500  25.573  1.00  0.00    -0.268 OA
ATOM      7  H   UNL A   1      31.086  28.783  25.850  1.00  0.00     0.163 HD
BRANCH   5   8
ATOM      8  C   UNL A   1      32.906  26.199  24.841  1.00  0.00     0.107 A 
ATOM      9  C   UNL A   1      36.286  23.126  24.665  1.00  0.00     0.072 A 
ATOM     10  C   UNL A   1      35.754  23.059  23.381  1.00  0.00     0.131 A 
ATOM     11  C   UNL A   1      35.782  24.069  25.569  1.00  0.00     0.049 A 
ATOM     12  N   UNL A   1      34.780  23.854  22.895  1.00  0.00    -0.253 NA
ATOM     13  C   UNL A   1      34.729  24.856  25.094  1.00  0.00     0.066 A 
ATOM     14  C   UNL A   1      34.277  24.737  23.788  1.00  0.00     0.089 A 
ATOM     15  N   UNL A   1      33.944  25.815  25.686  1.00  0.00    -0.349 N 
ATOM     16  C   UNL A   1      33.226  25.655  23.608  1.00  0.00     0.062 A 
ATOM     17  H   UNL A   1      34.094  26.181  26.586  1.00  0.00     0.167 HD
BRANCH   9  18
ATOM     18  C   UNL A   1      37.319  22.221  25.041  1.00  0.00     0.101 C 
ATOM     19  N   UNL A   1      38.168  21.475  25.327  1.00  0.00    -0.192 NA
ENDBRANCH   9  18
ENDBRANCH   5   8
ENDBRANCH   3   4
ENDBRANCH   2   3
ENDBRANCH   1   2
BRANCH   1  20
ATOM     20  C   UNL A   1      34.833  31.686  27.742  1.00  0.00     0.116 C 
BRANCH  20  21
ATOM     21  N   UNL A   1      34.824  32.278  29.078  1.00  0.00    -0.352 N 
ATOM     22  C   UNL A   1      35.530  31.838  30.189  1.00  0.00     0.251 C 
ATOM     23  H   UNL A   1      34.256  33.072  29.203  1.00  0.00     0.163 HD
ATOM     24  O   UNL A   1      35.129  32.105  31.317  1.00  0.00    -0.269 OA
BRANCH  22  25
ATOM     25  C   UNL A   1      36.782  31.070  29.986  1.00  0.00     0.039 A 
ATOM     26  C   UNL A   1      38.044  31.666  30.023  1.00  0.00     0.014 A 
ATOM     27  C   UNL A   1      36.673  29.698  29.753  1.00  0.00     0.014 A 
ATOM     28  C   UNL A   1      39.176  30.857  29.862  1.00  0.00     0.010 A 
ATOM     29  C   UNL A   1      37.781  28.884  29.785  1.00  0.00     0.010 A 
ATOM     30  C   UNL A   1      39.041  29.453  29.755  1.00  0.00    -0.014 A 
BRANCH  30  31
ATOM     31  C   UNL A   1      40.190  28.545  29.907  1.00  0.00     0.031 A 
ATOM     32  C   UNL A   1      40.479  28.357  31.355  1.00  0.00     0.074 A 
ATOM     33  C   UNL A   1      40.774  27.818  28.914  1.00  0.00     0.049 A 
ATOM     34  N   UNL A   1      41.400  28.963  32.029  1.00  0.00    -0.248 NA
ATOM     35  C   UNL A   1      39.483  27.688  32.217  1.00  0.00     0.031 C 
ATOM     36  C   UNL A   1      40.409  27.782  27.492  1.00  0.00     0.029 A 
ATOM     37  N   UNL A   1      41.802  26.902  28.958  1.00  0.00    -0.354 N 
ATOM     38  C   UNL A   1      41.317  28.436  33.311  1.00  0.00     0.074 A 
ATOM     39  C   UNL A   1      39.988  27.913  33.435  1.00  0.00     0.031 C 
ATOM     40  C   UNL A   1      41.040  26.756  26.865  1.00  0.00     0.029 A 
ATOM     41  C   UNL A   1      41.971  26.126  27.787  1.00  0.00     0.049 A 
ATOM     42  H   UNL A   1      42.380  26.796  29.748  1.00  0.00     0.167 HD
ATOM     43  C   UNL A   1      42.466  28.117  33.969  1.00  0.00     0.034 A 
ATOM     44  C   UNL A   1      42.869  25.109  27.555  1.00  0.00     0.034 A 
ATOM     45  C   UNL A   1      43.593  28.749  33.316  1.00  0.00     0.049 A 
ATOM     46  C   UNL A   1      43.977  25.356  28.500  1.00  0.00     0.074 A 
ATOM     47  C   UNL A   1      44.030  30.038  33.090  1.00  0.00     0.029 A 
ATOM     48  N   UNL A   1      44.167  27.954  32.357  1.00  0.00    -0.354 N 
ATOM     49  N   UNL A   1      44.751  26.405  28.432  1.00  0.00    -0.248 NA
ATOM     50  C   UNL A   1      43.914  24.690  29.789  1.00  0.00     0.031 C 
ATOM     51  C   UNL A   1      44.676  30.010  31.816  1.00  0.00     0.029 A 
ATOM     52  C   UNL A   1      44.715  28.695  31.352  1.00  0.00     0.049 A 
ATOM     53  H   UNL A   1      44.181  26.970  32.392  1.00  0.00     0.167 HD
ATOM     54  C   UNL A   1      44.914  26.792  29.750  1.00  0.00     0.074 A 
ATOM     55  C   UNL A   1      44.484  25.634  30.541  1.00  0.00     0.031 C 
ATOM     56  C   UNL A   1      45.066  28.111  30.069  1.00  0.00     0.034 A 
BRANCH  43  57
ATOM     57  C   UNL A   1      42.660  26.837  34.770  1.00  0.00     0.023 A 
ATOM     58  C   UNL A   1      43.396  25.800  34.160  1.00  0.00     0.031 A 
ATOM     59  C   UNL A   1      41.930  26.468  35.925  1.00  0.00     0.131 A 
ATOM     60  C   UNL A   1      43.353  24.485  34.662  1.00  0.00     0.055 A 
ATOM     61  C   UNL A   1      41.924  25.169  36.443  1.00  0.00     0.041 A 
ATOM     62  F   UNL A   1      41.107  27.303  36.566  1.00  0.00    -0.206 F 
ATOM     63  C   UNL A   1      42.622  24.165  35.803  1.00  0.00     0.022 A 
BRANCH  60  64
ATOM     64  S   UNL A   1      44.201  23.174  33.746  1.00  0.00     0.124 S 
ATOM     65  O   UNL A   1      43.275  22.927  32.648  1.00  0.00    -0.237 OA
ATOM     66  O   UNL A   1      45.462  23.821  33.396  1.00  0.00    -0.237 OA
ATOM     67  O   UNL A   1      44.312  22.096  34.727  1.00  0.00    -0.744 OA
ENDBRANCH  60  64
ENDBRANCH  43  57
BRANCH  44  68
ATOM     68  C   UNL A   1      42.676  23.746  26.918  1.00  0.00     0.023 A 
ATOM     69  C   UNL A   1      43.691  23.058  26.177  1.00  0.00     0.031 A 
ATOM     70  C   UNL A   1      41.563  22.965  27.289  1.00  0.00     0.131 A 
ATOM     71  C   UNL A   1      43.569  21.669  25.876  1.00  0.00     0.055 A 
ATOM     72  C   UNL A   1      41.460  21.596  27.005  1.00  0.00     0.041 A 
ATOM     73  F   UNL A   1      40.568  23.485  28.019  1.00  0.00    -0.206 F 
ATOM     74  C   UNL A   1      42.465  20.940  26.313  1.00  0.00     0.022 A 
BRANCH  71  75
ATOM     75  S   UNL A   1      44.884  20.728  25.000  1.00  0.00     0.124 S 
ATOM     76  O   UNL A   1      46.102  21.316  25.546  1.00  0.00    -0.237 OA
ATOM     77  O   UNL A   1      44.603  19.349  25.379  1.00  0.00    -0.237 OA
ATOM     78  O   UNL A   1      44.640  21.033  23.588  1.00  0.00    -0.744 OA
ENDBRANCH  71  75
ENDBRANCH  44  68
BRANCH  56  79
ATOM     79  C   UNL A   1      45.595  29.068  29.025  1.00  0.00     0.023 A 
ATOM     80  C   UNL A   1      44.843  29.963  28.231  1.00  0.00     0.031 A 
ATOM     81  C   UNL A   1      46.997  29.174  28.992  1.00  0.00     0.131 A 
ATOM     82  C   UNL A   1      45.518  30.942  27.465  1.00  0.00     0.055 A 
ATOM     83  C   UNL A   1      47.653  30.159  28.263  1.00  0.00     0.041 A 
ATOM     84  F   UNL A   1      47.754  28.354  29.739  1.00  0.00    -0.206 F 
ATOM     85  C   UNL A   1      46.914  31.051  27.499  1.00  0.00     0.022 A 
BRANCH  82  86
ATOM     86  S   UNL A   1      44.598  32.139  26.438  1.00  0.00     0.124 S 
ATOM     87  O   UNL A   1      45.568  32.510  25.415  1.00  0.00    -0.237 OA
ATOM     88  O   UNL A   1      43.451  31.360  25.979  1.00  0.00    -0.237 OA
ATOM     89  O   UNL A   1      44.262  33.213  27.375  1.00  0.00    -0.744 OA
ENDBRANCH  82  86
ENDBRANCH  56  79
ENDBRANCH  30  31
ENDBRANCH  22  25
ENDBRANCH  20  21
ENDBRANCH   1  20
TORSDOF 15
ENDMDL
MODEL 3
REMARK VINA RESULT:     -12.3      4.648      9.120
REMARK SMILES N#Cc1cnc2cc(C(=O)NCCCCNC(=O)c3ccc(-c4c5nc(c(-c6cc(S(=O)(=O)[O-])ccc6F)c6ccc([nH]6)c(-c6cc(S(=O)(=O)[O-])ccc6F)c6nc(c(-c7cc(S(=O)(=O)[O-])ccc7F)c7ccc4[nH]7)C=C6)C=C5)cc3)[nH]c2c1
REMARK SMILES IDX 14 1 13 2 12 3 11 4 9 5 10 6 8 8 3 9 4 10 84 11 5 12 83 13
REMARK SMILES IDX 6 14 82 15 7 16 2 18 1 19 15 20 16 21 17 22 18 24 19 25
REMARK SMILES IDX 20 26 81 27 21 28 80 29 22 30 23 31 24 32 74 33 25 34 79 35
REMARK SMILES IDX 73 36 75 37 26 38 78 39 72 40 71 41 27 43 59 44 39 45 58 46
REMARK SMILES IDX 40 47 43 48 57 49 76 50 41 51 42 52 56 54 77 55 44 56 28 57
REMARK SMILES IDX 29 58 37 59 30 60 36 61 38 62 35 63 31 64 32 65 33 66 34 67
REMARK SMILES IDX 60 68 61 69 69 70 62 71 68 72 70 73 67 74 63 75 64 76 65 77
REMARK SMILES IDX 66 78 45 79 46 80 54 81 47 82 53 83 55 84 52 85 48 86 49 87
REMARK SMILES IDX 50 88 51 89
REMARK H PARENT 11 7 82 17 16 23 75 42 43 53
REMARK Flexibility Score: inf
ROOT
ATOM      1  C   UNL A   1      36.905  22.885  25.705  1.00  0.00     0.023 C 
ENDROOT
BRANCH   1   2
ATOM      2  C   UNL A   1      35.570  23.416  26.247  1.00  0.00     0.023 C 
BRANCH   2   3
ATOM      3  C   UNL A   1      34.569  23.905  25.197  1.00  0.00     0.116 C 
BRANCH   3   4
ATOM      4  N   UNL A   1      33.185  23.808  25.620  1.00  0.00    -0.351 N 
ATOM      5  C   UNL A   1      32.292  22.768  25.653  1.00  0.00     0.267 C 
ATOM      6  O   UNL A   1      31.169  23.016  26.099  1.00  0.00    -0.268 OA
ATOM      7  H   UNL A   1      32.813  24.658  25.950  1.00  0.00     0.163 HD
BRANCH   5   8
ATOM      8  C   UNL A   1      32.589  21.452  25.125  1.00  0.00     0.107 A 
ATOM      9  C   UNL A   1      32.937  16.903  24.835  1.00  0.00     0.072 A 
ATOM     10  C   UNL A   1      32.692  17.269  23.515  1.00  0.00     0.131 A 
ATOM     11  C   UNL A   1      33.091  17.900  25.807  1.00  0.00     0.049 A 
ATOM     12  N   UNL A   1      32.606  18.533  23.057  1.00  0.00    -0.253 NA
ATOM     13  C   UNL A   1      32.942  19.213  25.352  1.00  0.00     0.066 A 
ATOM     14  C   UNL A   1      32.723  19.486  24.010  1.00  0.00     0.089 A 
ATOM     15  N   UNL A   1      32.950  20.427  25.994  1.00  0.00    -0.349 N 
ATOM     16  C   UNL A   1      32.622  20.882  23.864  1.00  0.00     0.062 A 
ATOM     17  H   UNL A   1      33.180  20.555  26.942  1.00  0.00     0.167 HD
BRANCH   9  18
ATOM     18  C   UNL A   1      33.006  15.523  25.176  1.00  0.00     0.101 C 
ATOM     19  N   UNL A   1      33.041  14.389  25.449  1.00  0.00    -0.192 NA
ENDBRANCH   9  18
ENDBRANCH   5   8
ENDBRANCH   3   4
ENDBRANCH   2   3
ENDBRANCH   1   2
BRANCH   1  20
ATOM     20  C   UNL A   1      38.137  23.655  26.163  1.00  0.00     0.116 C 
BRANCH  20  21
ATOM     21  N   UNL A   1      39.213  22.810  26.676  1.00  0.00    -0.352 N 
ATOM     22  C   UNL A   1      40.406  23.234  27.246  1.00  0.00     0.251 C 
ATOM     23  H   UNL A   1      39.078  21.837  26.610  1.00  0.00     0.163 HD
ATOM     24  O   UNL A   1      41.389  22.501  27.229  1.00  0.00    -0.269 OA
BRANCH  22  25
ATOM     25  C   UNL A   1      40.458  24.567  27.894  1.00  0.00     0.039 A 
ATOM     26  C   UNL A   1      41.649  25.130  28.357  1.00  0.00     0.014 A 
ATOM     27  C   UNL A   1      39.261  25.270  28.032  1.00  0.00     0.014 A 
ATOM     28  C   UNL A   1      41.612  26.413  28.919  1.00  0.00     0.010 A 
ATOM     29  C   UNL A   1      39.256  26.594  28.406  1.00  0.00     0.010 A 
ATOM     30  C   UNL A   1      40.407  27.154  28.930  1.00  0.00    -0.014 A 
BRANCH  30  31
ATOM     31  C   UNL A   1      40.383  28.600  29.206  1.00  0.00     0.031 A 
ATOM     32  C   UNL A   1      41.559  29.244  28.558  1.00  0.00     0.074 A 
ATOM     33  C   UNL A   1      39.357  29.290  29.777  1.00  0.00     0.049 A 
ATOM     34  N   UNL A   1      42.662  29.572  29.144  1.00  0.00    -0.248 NA
ATOM     35  C   UNL A   1      41.668  29.246  27.085  1.00  0.00     0.031 C 
ATOM     36  C   UNL A   1      38.070  28.762  30.249  1.00  0.00     0.029 A 
ATOM     37  N   UNL A   1      39.207  30.637  30.022  1.00  0.00    -0.354 N 
ATOM     38  C   UNL A   1      43.432  30.174  28.157  1.00  0.00     0.074 A 
ATOM     39  C   UNL A   1      42.918  29.688  26.910  1.00  0.00     0.031 C 
ATOM     40  C   UNL A   1      37.207  29.776  30.514  1.00  0.00     0.029 A 
ATOM     41  C   UNL A   1      37.898  31.047  30.372  1.00  0.00     0.049 A 
ATOM     42  H   UNL A   1      39.958  31.271  29.958  1.00  0.00     0.167 HD
ATOM     43  C   UNL A   1      44.119  31.310  28.457  1.00  0.00     0.034 A 
ATOM     44  C   UNL A   1      37.437  32.319  30.620  1.00  0.00     0.034 A 
ATOM     45  C   UNL A   1      44.198  31.467  29.894  1.00  0.00     0.049 A 
ATOM     46  C   UNL A   1      38.633  33.088  31.018  1.00  0.00     0.074 A 
ATOM     47  C   UNL A   1      44.774  30.790  30.949  1.00  0.00     0.029 A 
ATOM     48  N   UNL A   1      43.162  32.206  30.406  1.00  0.00    -0.354 N 
ATOM     49  N   UNL A   1      39.309  32.841  32.108  1.00  0.00    -0.248 NA
ATOM     50  C   UNL A   1      39.344  33.803  29.974  1.00  0.00     0.031 C 
ATOM     51  C   UNL A   1      43.882  30.961  32.052  1.00  0.00     0.029 A 
ATOM     52  C   UNL A   1      42.851  31.823  31.678  1.00  0.00     0.049 A 
ATOM     53  H   UNL A   1      42.701  32.925  29.916  1.00  0.00     0.167 HD
ATOM     54  C   UNL A   1      40.631  32.961  31.721  1.00  0.00     0.074 A 
ATOM     55  C   UNL A   1      40.588  33.674  30.439  1.00  0.00     0.031 C 
ATOM     56  C   UNL A   1      41.595  32.192  32.307  1.00  0.00     0.034 A 
BRANCH  43  57
ATOM     57  C   UNL A   1      44.188  32.528  27.546  1.00  0.00     0.023 A 
ATOM     58  C   UNL A   1      43.511  33.689  27.969  1.00  0.00     0.031 A 
ATOM     59  C   UNL A   1      44.600  32.522  26.191  1.00  0.00     0.131 A 
ATOM     60  C   UNL A   1      43.236  34.739  27.071  1.00  0.00     0.055 A 
ATOM     61  C   UNL A   1      44.361  33.584  25.314  1.00  0.00     0.041 A 
ATOM     62  F   UNL A   1      45.167  31.463  25.605  1.00  0.00    -0.206 F 
ATOM     63  C   UNL A   1      43.661  34.694  25.746  1.00  0.00     0.022 A 
BRANCH  60  64
ATOM     64  S   UNL A   1      42.235  36.135  27.642  1.00  0.00     0.124 S 
ATOM     65  O   UNL A   1      42.692  36.289  29.018  1.00  0.00    -0.237 OA
ATOM     66  O   UNL A   1      42.629  37.187  26.709  1.00  0.00    -0.237 OA
ATOM     67  O   UNL A   1      40.864  35.653  27.487  1.00  0.00    -0.744 OA
ENDBRANCH  60  64
ENDBRANCH  43  57
BRANCH  44  68
ATOM     68  C   UNL A   1      36.178  33.023  30.150  1.00  0.00     0.023 A 
ATOM     69  C   UNL A   1      35.346  33.825  30.997  1.00  0.00     0.031 A 
ATOM     70  C   UNL A   1      35.937  33.153  28.768  1.00  0.00     0.131 A 
ATOM     71  C   UNL A   1      34.370  34.709  30.448  1.00  0.00     0.055 A 
ATOM     72  C   UNL A   1      34.988  34.037  28.236  1.00  0.00     0.041 A 
ATOM     73  F   UNL A   1      36.677  32.484  27.873  1.00  0.00    -0.206 F 
ATOM     74  C   UNL A   1      34.213  34.828  29.068  1.00  0.00     0.022 A 
BRANCH  71  75
ATOM     75  S   UNL A   1      33.340  35.817  31.493  1.00  0.00     0.124 S 
ATOM     76  O   UNL A   1      34.335  36.445  32.355  1.00  0.00    -0.237 OA
ATOM     77  O   UNL A   1      32.694  36.680  30.512  1.00  0.00    -0.237 OA
ATOM     78  O   UNL A   1      32.433  34.894  32.180  1.00  0.00    -0.744 OA
ENDBRANCH  71  75
ENDBRANCH  44  68
BRANCH  56  79
ATOM     79  C   UNL A   1      41.356  31.634  33.691  1.00  0.00     0.023 A 
ATOM     80  C   UNL A   1      41.469  32.324  34.919  1.00  0.00     0.031 A 
ATOM     81  C   UNL A   1      40.797  30.343  33.709  1.00  0.00     0.131 A 
ATOM     82  C   UNL A   1      40.993  31.712  36.102  1.00  0.00     0.055 A 
ATOM     83  C   UNL A   1      40.303  29.760  34.869  1.00  0.00     0.041 A 
ATOM     84  F   UNL A   1      40.657  29.652  32.565  1.00  0.00    -0.206 F 
ATOM     85  C   UNL A   1      40.395  30.447  36.072  1.00  0.00     0.022 A 
BRANCH  82  86
ATOM     86  S   UNL A   1      41.094  32.566  37.714  1.00  0.00     0.124 S 
ATOM     87  O   UNL A   1      41.991  31.712  38.484  1.00  0.00    -0.237 OA
ATOM     88  O   UNL A   1      41.614  33.881  37.354  1.00  0.00    -0.237 OA
ATOM     89  O   UNL A   1      39.708  32.573  38.188  1.00  0.00    -0.744 OA
ENDBRANCH  82  86
ENDBRANCH  56  79
ENDBRANCH  30  31
ENDBRANCH  22  25
ENDBRANCH  20  21
ENDBRANCH   1  20
TORSDOF 15
ENDMDL
