MODEL 1
REMARK VINA RESULT:     -11.0      0.000      0.000
REMARK SMILES O=C(NCCCCNC(=O)c1cc(-c2ccn(C(F)F)c(=O)c2)ccc1O)c1ccc(-c2c3nc(c(-c4cc(S(=O)(=O)[O-])ccc4F)c4ccc([nH]4)c(-c4cc(S(=O)(=O)[O-])ccc4F)c4nc(c(-c5cc(S(=O)(=O)[O-])ccc5F)c5ccc2[nH]5)C=C4)C=C3)cc1
REMARK SMILES IDX 5 1 4 2 3 3 1 4 2 5 28 7 29 8 90 9 30 10 89 11 31 12 32 13
REMARK SMILES IDX 33 14 83 15 34 16 88 17 82 18 84 19 35 20 87 21 81 22 80 23
REMARK SMILES IDX 36 25 68 26 48 27 67 28 49 29 52 30 66 31 85 32 50 33 51 34
REMARK SMILES IDX 65 36 86 37 53 38 37 39 38 40 46 41 39 42 45 43 47 44 44 45
REMARK SMILES IDX 40 46 41 47 42 48 43 49 69 50 70 51 78 52 71 53 77 54 79 55
REMARK SMILES IDX 76 56 72 57 73 58 74 59 75 60 54 61 55 62 63 63 56 64 62 65
REMARK SMILES IDX 64 66 61 67 57 68 58 69 59 70 60 71 6 72 7 73 8 74 9 75
REMARK SMILES IDX 10 77 11 78 12 79 26 80 13 81 25 82 24 83 27 84 14 86 15 87
REMARK SMILES IDX 23 88 16 89 21 90 17 91 22 92 18 93 19 94 20 95
REMARK H PARENT 3 6 84 24 52 35 8 76 27 85
REMARK Flexibility Score: inf
ROOT
ATOM      1  C   UNL A   1      34.775  34.963  28.466  1.00  0.00     0.023 C 
ENDROOT
BRANCH   1   2
ATOM      2  C   UNL A   1      34.212  33.701  29.109  1.00  0.00     0.116 C 
BRANCH   2   3
ATOM      3  N   UNL A   1      33.638  32.782  28.138  1.00  0.00    -0.352 N 
ATOM      4  O   UNL A   1      33.563  31.071  26.688  1.00  0.00    -0.269 OA
ATOM      5  C   UNL A   1      34.153  31.622  27.614  1.00  0.00     0.251 C 
ATOM      6  H   UNL A   1      32.746  33.030  27.806  1.00  0.00     0.163 HD
BRANCH   5   7
ATOM      7  C   UNL A   1      35.406  31.037  28.145  1.00  0.00     0.039 A 
ATOM      8  C   UNL A   1      35.345  29.803  28.800  1.00  0.00     0.014 A 
ATOM      9  C   UNL A   1      36.625  31.714  28.051  1.00  0.00     0.014 A 
ATOM     10  C   UNL A   1      36.507  29.239  29.335  1.00  0.00     0.010 A 
ATOM     11  C   UNL A   1      37.795  31.114  28.513  1.00  0.00     0.010 A 
ATOM     12  C   UNL A   1      37.745  29.885  29.187  1.00  0.00    -0.014 A 
BRANCH  12  13
ATOM     13  C   UNL A   1      38.983  29.325  29.788  1.00  0.00     0.031 A 
ATOM     14  C   UNL A   1      39.450  29.817  31.133  1.00  0.00     0.074 A 
ATOM     15  C   UNL A   1      39.706  28.405  29.119  1.00  0.00     0.049 A 
ATOM     16  N   UNL A   1      40.520  29.486  31.807  1.00  0.00    -0.248 NA
ATOM     17  C   UNL A   1      38.616  30.834  31.796  1.00  0.00     0.031 C 
ATOM     18  C   UNL A   1      39.376  27.879  27.795  1.00  0.00     0.029 A 
ATOM     19  N   UNL A   1      40.867  27.753  29.456  1.00  0.00    -0.354 N 
ATOM     20  C   UNL A   1      40.494  30.261  32.962  1.00  0.00     0.074 A 
ATOM     21  C   UNL A   1      39.340  31.125  32.866  1.00  0.00     0.031 C 
ATOM     22  C   UNL A   1      40.294  26.966  27.445  1.00  0.00     0.029 A 
ATOM     23  C   UNL A   1      41.302  26.865  28.499  1.00  0.00     0.049 A 
ATOM     24  H   UNL A   1      41.344  27.906  30.305  1.00  0.00     0.167 HD
ATOM     25  C   UNL A   1      41.336  30.230  34.023  1.00  0.00     0.034 A 
ATOM     26  C   UNL A   1      42.385  26.061  28.473  1.00  0.00     0.034 A 
ATOM     27  C   UNL A   1      42.461  29.340  34.122  1.00  0.00     0.049 A 
ATOM     28  C   UNL A   1      43.306  26.036  29.669  1.00  0.00     0.074 A 
ATOM     29  C   UNL A   1      43.346  29.197  35.176  1.00  0.00     0.029 A 
ATOM     30  N   UNL A   1      42.854  28.436  33.145  1.00  0.00    -0.354 N 
ATOM     31  N   UNL A   1      43.223  26.717  30.788  1.00  0.00    -0.248 NA
ATOM     32  C   UNL A   1      44.458  25.125  29.611  1.00  0.00     0.031 C 
ATOM     33  C   UNL A   1      44.302  28.247  34.817  1.00  0.00     0.029 A 
ATOM     34  C   UNL A   1      43.978  27.745  33.566  1.00  0.00     0.049 A 
ATOM     35  H   UNL A   1      42.401  28.305  32.281  1.00  0.00     0.167 HD
ATOM     36  C   UNL A   1      44.291  26.297  31.577  1.00  0.00     0.074 A 
ATOM     37  C   UNL A   1      44.993  25.285  30.816  1.00  0.00     0.031 C 
ATOM     38  C   UNL A   1      44.657  26.716  32.815  1.00  0.00     0.034 A 
BRANCH  25  39
ATOM     39  C   UNL A   1      41.063  31.153  35.184  1.00  0.00     0.023 A 
ATOM     40  C   UNL A   1      39.828  31.100  35.856  1.00  0.00     0.031 A 
ATOM     41  C   UNL A   1      41.977  32.157  35.553  1.00  0.00     0.131 A 
ATOM     42  C   UNL A   1      39.529  32.052  36.839  1.00  0.00     0.055 A 
ATOM     43  C   UNL A   1      41.694  33.075  36.565  1.00  0.00     0.041 A 
ATOM     44  F   UNL A   1      43.170  32.251  34.942  1.00  0.00    -0.206 F 
ATOM     45  C   UNL A   1      40.459  33.031  37.204  1.00  0.00     0.022 A 
BRANCH  42  46
ATOM     46  S   UNL A   1      37.903  32.096  37.642  1.00  0.00     0.124 S 
ATOM     47  O   UNL A   1      37.114  32.859  36.677  1.00  0.00    -0.237 OA
ATOM     48  O   UNL A   1      37.571  30.676  37.735  1.00  0.00    -0.237 OA
ATOM     49  O   UNL A   1      38.155  32.770  38.909  1.00  0.00    -0.744 OA
ENDBRANCH  42  46
ENDBRANCH  25  39
BRANCH  26  50
ATOM     50  C   UNL A   1      42.595  25.160  27.300  1.00  0.00     0.023 A 
ATOM     51  C   UNL A   1      42.072  23.854  27.282  1.00  0.00     0.031 A 
ATOM     52  C   UNL A   1      43.412  25.558  26.229  1.00  0.00     0.131 A 
ATOM     53  C   UNL A   1      42.425  22.976  26.247  1.00  0.00     0.055 A 
ATOM     54  C   UNL A   1      43.703  24.703  25.165  1.00  0.00     0.041 A 
ATOM     55  F   UNL A   1      43.946  26.790  26.207  1.00  0.00    -0.206 F 
ATOM     56  C   UNL A   1      43.223  23.398  25.180  1.00  0.00     0.022 A 
BRANCH  53  57
ATOM     57  S   UNL A   1      41.969  21.220  26.319  1.00  0.00     0.124 S 
ATOM     58  O   UNL A   1      42.847  20.637  25.310  1.00  0.00    -0.237 OA
ATOM     59  O   UNL A   1      42.290  20.886  27.705  1.00  0.00    -0.237 OA
ATOM     60  O   UNL A   1      40.546  21.221  25.995  1.00  0.00    -0.744 OA
ENDBRANCH  53  57
ENDBRANCH  26  50
BRANCH  38  61
ATOM     61  C   UNL A   1      45.867  26.089  33.468  1.00  0.00     0.023 A 
ATOM     62  C   UNL A   1      47.158  26.546  33.138  1.00  0.00     0.031 A 
ATOM     63  C   UNL A   1      45.752  24.941  34.272  1.00  0.00     0.131 A 
ATOM     64  C   UNL A   1      48.283  25.833  33.572  1.00  0.00     0.055 A 
ATOM     65  C   UNL A   1      46.878  24.263  34.742  1.00  0.00     0.041 A 
ATOM     66  F   UNL A   1      44.545  24.458  34.601  1.00  0.00    -0.206 F 
ATOM     67  C   UNL A   1      48.149  24.699  34.379  1.00  0.00     0.022 A 
BRANCH  64  68
ATOM     68  S   UNL A   1      49.951  26.290  33.023  1.00  0.00     0.124 S 
ATOM     69  O   UNL A   1      50.752  25.187  33.548  1.00  0.00    -0.237 OA
ATOM     70  O   UNL A   1      49.801  26.316  31.571  1.00  0.00    -0.237 OA
ATOM     71  O   UNL A   1      50.187  27.585  33.652  1.00  0.00    -0.744 OA
ENDBRANCH  64  68
ENDBRANCH  38  61
ENDBRANCH  12  13
ENDBRANCH   5   7
ENDBRANCH   2   3
ENDBRANCH   1   2
BRANCH   1  72
ATOM     72  C   UNL A   1      33.998  36.249  28.745  1.00  0.00     0.023 C 
BRANCH  72  73
ATOM     73  C   UNL A   1      32.849  36.118  29.739  1.00  0.00     0.116 C 
BRANCH  73  74
ATOM     74  N   UNL A   1      32.902  37.116  30.793  1.00  0.00    -0.352 N 
ATOM     75  C   UNL A   1      33.474  37.010  32.037  1.00  0.00     0.255 C 
ATOM     76  H   UNL A   1      32.474  37.978  30.590  1.00  0.00     0.163 HD
ATOM     77  O   UNL A   1      33.394  37.930  32.848  1.00  0.00    -0.269 OA
BRANCH  75  78
ATOM     78  C   UNL A   1      34.122  35.749  32.443  1.00  0.00     0.082 A 
ATOM     79  C   UNL A   1      35.522  35.697  32.374  1.00  0.00     0.026 A 
ATOM     80  C   UNL A   1      33.394  34.634  32.874  1.00  0.00     0.128 A 
ATOM     81  C   UNL A   1      36.197  34.546  32.789  1.00  0.00    -0.017 A 
ATOM     82  C   UNL A   1      34.061  33.488  33.296  1.00  0.00     0.047 A 
ATOM     83  C   UNL A   1      35.457  33.450  33.261  1.00  0.00     0.012 A 
BRANCH  80  84
ATOM     84  O   UNL A   1      32.029  34.663  32.895  1.00  0.00    -0.507 OA
ATOM     85  H   UNL A   1      31.582  35.396  33.272  1.00  0.00     0.293 HD
ENDBRANCH  80  84
BRANCH  81  86
ATOM     86  C   UNL A   1      37.667  34.443  32.742  1.00  0.00    -0.011 A 
ATOM     87  C   UNL A   1      38.483  34.574  33.934  1.00  0.00     0.027 A 
ATOM     88  C   UNL A   1      38.268  34.304  31.549  1.00  0.00     0.080 A 
ATOM     89  C   UNL A   1      39.816  34.634  33.842  1.00  0.00     0.095 A 
ATOM     90  C   UNL A   1      39.755  34.347  31.433  1.00  0.00     0.255 A 
ATOM     91  N   UNL A   1      40.448  34.544  32.617  1.00  0.00    -0.258 N 
ATOM     92  O   UNL A   1      40.261  34.241  30.321  1.00  0.00    -0.269 OA
BRANCH  91  93
ATOM     93  C   UNL A   1      41.878  34.688  32.522  1.00  0.00     0.451 C 
ATOM     94  F   UNL A   1      42.389  35.321  33.604  1.00  0.00    -0.185 F 
ATOM     95  F   UNL A   1      42.480  33.478  32.418  1.00  0.00    -0.185 F 
ENDBRANCH  91  93
ENDBRANCH  81  86
ENDBRANCH  75  78
ENDBRANCH  73  74
ENDBRANCH  72  73
ENDBRANCH   1  72
TORSDOF 17
ENDMDL
MODEL 2
REMARK VINA RESULT:     -10.4      6.472     12.672
REMARK SMILES O=C(NCCCCNC(=O)c1cc(-c2ccn(C(F)F)c(=O)c2)ccc1O)c1ccc(-c2c3nc(c(-c4cc(S(=O)(=O)[O-])ccc4F)c4ccc([nH]4)c(-c4cc(S(=O)(=O)[O-])ccc4F)c4nc(c(-c5cc(S(=O)(=O)[O-])ccc5F)c5ccc2[nH]5)C=C4)C=C3)cc1
REMARK SMILES IDX 5 1 4 2 3 3 1 4 2 5 28 7 29 8 90 9 30 10 89 11 31 12 32 13
REMARK SMILES IDX 33 14 83 15 34 16 88 17 82 18 84 19 35 20 87 21 81 22 80 23
REMARK SMILES IDX 36 25 68 26 48 27 67 28 49 29 52 30 66 31 85 32 50 33 51 34
REMARK SMILES IDX 65 36 86 37 53 38 37 39 38 40 46 41 39 42 45 43 47 44 44 45
REMARK SMILES IDX 40 46 41 47 42 48 43 49 69 50 70 51 78 52 71 53 77 54 79 55
REMARK SMILES IDX 76 56 72 57 73 58 74 59 75 60 54 61 55 62 63 63 56 64 62 65
REMARK SMILES IDX 64 66 61 67 57 68 58 69 59 70 60 71 6 72 7 73 8 74 9 75
REMARK SMILES IDX 10 77 11 78 12 79 26 80 13 81 25 82 24 83 27 84 14 86 15 87
REMARK SMILES IDX 23 88 16 89 21 90 17 91 22 92 18 93 19 94 20 95
REMARK H PARENT 3 6 84 24 52 35 8 76 27 85
REMARK Flexibility Score: inf
ROOT
ATOM      1  C   UNL A   1      35.811  21.508  24.788  1.00  0.00     0.023 C 
ENDROOT
BRANCH   1   2
ATOM      2  C   UNL A   1      37.305  21.637  24.514  1.00  0.00     0.116 C 
BRANCH   2   3
ATOM      3  N   UNL A   1      38.082  20.564  25.115  1.00  0.00    -0.352 N 
ATOM      4  O   UNL A   1      39.817  19.576  26.142  1.00  0.00    -0.269 OA
ATOM      5  C   UNL A   1      39.239  20.621  25.852  1.00  0.00     0.251 C 
ATOM      6  H   UNL A   1      37.724  19.659  24.970  1.00  0.00     0.163 HD
BRANCH   5   7
ATOM      7  C   UNL A   1      39.797  21.921  26.292  1.00  0.00     0.039 A 
ATOM      8  C   UNL A   1      39.018  23.072  26.139  1.00  0.00     0.014 A 
ATOM      9  C   UNL A   1      41.094  22.025  26.803  1.00  0.00     0.014 A 
ATOM     10  C   UNL A   1      39.527  24.317  26.521  1.00  0.00     0.010 A 
ATOM     11  C   UNL A   1      41.570  23.252  27.258  1.00  0.00     0.010 A 
ATOM     12  C   UNL A   1      40.805  24.416  27.094  1.00  0.00    -0.014 A 
BRANCH  12  13
ATOM     13  C   UNL A   1      41.383  25.734  27.464  1.00  0.00     0.031 A 
ATOM     14  C   UNL A   1      42.762  26.106  26.986  1.00  0.00     0.074 A 
ATOM     15  C   UNL A   1      40.692  26.581  28.253  1.00  0.00     0.049 A 
ATOM     16  N   UNL A   1      43.457  27.187  27.230  1.00  0.00    -0.248 NA
ATOM     17  C   UNL A   1      43.461  25.124  26.141  1.00  0.00     0.031 C 
ATOM     18  C   UNL A   1      39.365  26.316  28.808  1.00  0.00     0.029 A 
ATOM     19  N   UNL A   1      41.008  27.830  28.727  1.00  0.00    -0.354 N 
ATOM     20  C   UNL A   1      44.675  27.007  26.583  1.00  0.00     0.074 A 
ATOM     21  C   UNL A   1      44.650  25.689  25.992  1.00  0.00     0.031 C 
ATOM     22  C   UNL A   1      38.969  27.380  29.522  1.00  0.00     0.029 A 
ATOM     23  C   UNL A   1      40.026  28.391  29.511  1.00  0.00     0.049 A 
ATOM     24  H   UNL A   1      41.859  28.284  28.525  1.00  0.00     0.167 HD
ATOM     25  C   UNL A   1      45.707  27.875  26.463  1.00  0.00     0.034 A 
ATOM     26  C   UNL A   1      39.979  29.581  30.145  1.00  0.00     0.034 A 
ATOM     27  C   UNL A   1      45.705  29.199  27.026  1.00  0.00     0.049 A 
ATOM     28  C   UNL A   1      41.136  30.537  29.991  1.00  0.00     0.074 A 
ATOM     29  C   UNL A   1      46.682  30.173  26.919  1.00  0.00     0.029 A 
ATOM     30  N   UNL A   1      44.682  29.742  27.790  1.00  0.00    -0.354 N 
ATOM     31  N   UNL A   1      42.248  30.384  29.309  1.00  0.00    -0.248 NA
ATOM     32  C   UNL A   1      41.033  31.834  30.676  1.00  0.00     0.031 C 
ATOM     33  C   UNL A   1      46.274  31.283  27.659  1.00  0.00     0.029 A 
ATOM     34  C   UNL A   1      45.012  31.030  28.174  1.00  0.00     0.049 A 
ATOM     35  H   UNL A   1      43.845  29.279  28.024  1.00  0.00     0.167 HD
ATOM     36  C   UNL A   1      42.960  31.572  29.459  1.00  0.00     0.074 A 
ATOM     37  C   UNL A   1      42.143  32.443  30.276  1.00  0.00     0.031 C 
ATOM     38  C   UNL A   1      44.180  31.905  28.966  1.00  0.00     0.034 A 
BRANCH  25  39
ATOM     39  C   UNL A   1      46.915  27.451  25.663  1.00  0.00     0.023 A 
ATOM     40  C   UNL A   1      47.059  27.863  24.326  1.00  0.00     0.031 A 
ATOM     41  C   UNL A   1      47.861  26.552  26.188  1.00  0.00     0.131 A 
ATOM     42  C   UNL A   1      48.107  27.353  23.550  1.00  0.00     0.055 A 
ATOM     43  C   UNL A   1      48.930  26.082  25.424  1.00  0.00     0.041 A 
ATOM     44  F   UNL A   1      47.769  26.128  27.459  1.00  0.00    -0.206 F 
ATOM     45  C   UNL A   1      49.048  26.473  24.095  1.00  0.00     0.022 A 
BRANCH  42  46
ATOM     46  S   UNL A   1      48.257  27.760  21.789  1.00  0.00     0.124 S 
ATOM     47  O   UNL A   1      46.962  28.380  21.513  1.00  0.00    -0.237 OA
ATOM     48  O   UNL A   1      49.398  28.672  21.783  1.00  0.00    -0.237 OA
ATOM     49  O   UNL A   1      48.477  26.469  21.147  1.00  0.00    -0.744 OA
ENDBRANCH  42  46
ENDBRANCH  25  39
BRANCH  26  50
ATOM     50  C   UNL A   1      38.750  29.950  30.911  1.00  0.00     0.023 A 
ATOM     51  C   UNL A   1      37.743  30.744  30.334  1.00  0.00     0.031 A 
ATOM     52  C   UNL A   1      38.620  29.600  32.266  1.00  0.00     0.131 A 
ATOM     53  C   UNL A   1      36.686  31.214  31.126  1.00  0.00     0.055 A 
ATOM     54  C   UNL A   1      37.529  30.012  33.032  1.00  0.00     0.041 A 
ATOM     55  F   UNL A   1      39.562  28.856  32.865  1.00  0.00    -0.206 F 
ATOM     56  C   UNL A   1      36.564  30.838  32.467  1.00  0.00     0.022 A 
BRANCH  53  57
ATOM     57  S   UNL A   1      35.507  32.433  30.479  1.00  0.00     0.124 S 
ATOM     58  O   UNL A   1      34.429  32.363  31.459  1.00  0.00    -0.237 OA
ATOM     59  O   UNL A   1      36.303  33.658  30.500  1.00  0.00    -0.237 OA
ATOM     60  O   UNL A   1      35.185  31.927  29.149  1.00  0.00    -0.744 OA
ENDBRANCH  53  57
ENDBRANCH  26  50
BRANCH  38  61
ATOM     61  C   UNL A   1      44.737  33.277  29.267  1.00  0.00     0.023 A 
ATOM     62  C   UNL A   1      44.501  34.341  28.374  1.00  0.00     0.031 A 
ATOM     63  C   UNL A   1      45.631  33.488  30.331  1.00  0.00     0.131 A 
ATOM     64  C   UNL A   1      45.187  35.551  28.533  1.00  0.00     0.055 A 
ATOM     65  C   UNL A   1      46.275  34.713  30.513  1.00  0.00     0.041 A 
ATOM     66  F   UNL A   1      45.900  32.502  31.200  1.00  0.00    -0.206 F 
ATOM     67  C   UNL A   1      46.066  35.746  29.603  1.00  0.00     0.022 A 
BRANCH  64  68
ATOM     68  S   UNL A   1      45.043  36.880  27.305  1.00  0.00     0.124 S 
ATOM     69  O   UNL A   1      45.365  38.061  28.102  1.00  0.00    -0.237 OA
ATOM     70  O   UNL A   1      46.051  36.498  26.320  1.00  0.00    -0.237 OA
ATOM     71  O   UNL A   1      43.659  36.792  26.852  1.00  0.00    -0.744 OA
ENDBRANCH  64  68
ENDBRANCH  38  61
ENDBRANCH  12  13
ENDBRANCH   5   7
ENDBRANCH   2   3
ENDBRANCH   1   2
BRANCH   1  72
ATOM     72  C   UNL A   1      35.414  21.447  26.262  1.00  0.00     0.023 C 
BRANCH  72  73
ATOM     73  C   UNL A   1      33.917  21.345  26.535  1.00  0.00     0.116 C 
BRANCH  73  74
ATOM     74  N   UNL A   1      33.447  19.971  26.579  1.00  0.00    -0.352 N 
ATOM     75  C   UNL A   1      32.788  19.265  25.603  1.00  0.00     0.255 C 
ATOM     76  H   UNL A   1      33.624  19.484  27.416  1.00  0.00     0.163 HD
ATOM     77  O   UNL A   1      32.404  18.116  25.806  1.00  0.00    -0.269 OA
BRANCH  75  78
ATOM     78  C   UNL A   1      32.459  19.916  24.320  1.00  0.00     0.082 A 
ATOM     79  C   UNL A   1      32.361  21.315  24.318  1.00  0.00     0.026 A 
ATOM     80  C   UNL A   1      32.238  19.190  23.144  1.00  0.00     0.128 A 
ATOM     81  C   UNL A   1      32.096  21.992  23.125  1.00  0.00    -0.017 A 
ATOM     82  C   UNL A   1      31.982  19.859  21.951  1.00  0.00     0.047 A 
ATOM     83  C   UNL A   1      31.921  21.254  21.942  1.00  0.00     0.012 A 
BRANCH  80  84
ATOM     84  O   UNL A   1      32.283  17.825  23.153  1.00  0.00    -0.507 OA
ATOM     85  H   UNL A   1      32.235  17.350  22.347  1.00  0.00     0.293 HD
ENDBRANCH  80  84
BRANCH  81  86
ATOM     86  C   UNL A   1      31.989  23.461  23.068  1.00  0.00    -0.011 A 
ATOM     87  C   UNL A   1      30.876  24.173  23.664  1.00  0.00     0.027 A 
ATOM     88  C   UNL A   1      32.911  24.150  22.374  1.00  0.00     0.080 A 
ATOM     89  C   UNL A   1      30.722  25.486  23.463  1.00  0.00     0.095 A 
ATOM     90  C   UNL A   1      32.765  25.619  22.159  1.00  0.00     0.255 A 
ATOM     91  N   UNL A   1      31.633  26.201  22.709  1.00  0.00    -0.258 N 
ATOM     92  O   UNL A   1      33.616  26.204  21.498  1.00  0.00    -0.269 OA
BRANCH  91  93
ATOM     93  C   UNL A   1      31.416  27.597  22.434  1.00  0.00     0.451 C 
ATOM     94  F   UNL A   1      30.270  27.797  21.741  1.00  0.00    -0.185 F 
ATOM     95  F   UNL A   1      31.343  28.311  23.585  1.00  0.00    -0.185 F 
ENDBRANCH  91  93
ENDBRANCH  81  86
ENDBRANCH  75  78
ENDBRANCH  73  74
ENDBRANCH  72  73
ENDBRANCH   1  72
TORSDOF 17
ENDMDL
MODEL 3
REMARK VINA RESULT:     -10.4      6.173     12.177
REMARK SMILES O=C(NCCCCNC(=O)c1cc(-c2ccn(C(F)F)c(=O)c2)ccc1O)c1ccc(-c2c3nc(c(-c4cc(S(=O)(=O)[O-])ccc4F)c4ccc([nH]4)c(-c4cc(S(=O)(=O)[O-])ccc4F)c4nc(c(-c5cc(S(=O)(=O)[O-])ccc5F)c5ccc2[nH]5)C=C4)C=C3)cc1
REMARK SMILES IDX 5 1 4 2 3 3 1 4 2 5 28 7 29 8 90 9 30 10 89 11 31 12 32 13
REMARK SMILES IDX 33 14 83 15 34 16 88 17 82 18 84 19 35 20 87 21 81 22 80 23
REMARK SMILES IDX 36 25 68 26 48 27 67 28 49 29 52 30 66 31 85 32 50 33 51 34
REMARK SMILES IDX 65 36 86 37 53 38 37 39 38 40 46 41 39 42 45 43 47 44 44 45
REMARK SMILES IDX 40 46 41 47 42 48 43 49 69 50 70 51 78 52 71 53 77 54 79 55
REMARK SMILES IDX 76 56 72 57 73 58 74 59 75 60 54 61 55 62 63 63 56 64 62 65
REMARK SMILES IDX 64 66 61 67 57 68 58 69 59 70 60 71 6 72 7 73 8 74 9 75
REMARK SMILES IDX 10 77 11 78 12 79 26 80 13 81 25 82 24 83 27 84 14 86 15 87
REMARK SMILES IDX 23 88 16 89 21 90 17 91 22 92 18 93 19 94 20 95
REMARK H PARENT 3 6 84 24 52 35 8 76 27 85
REMARK Flexibility Score: inf
ROOT
ATOM      1  C   UNL A   1      36.652  22.069  24.287  1.00  0.00     0.023 C 
ENDROOT
BRANCH   1   2
ATOM      2  C   UNL A   1      37.250  22.259  25.676  1.00  0.00     0.116 C 
BRANCH   2   3
ATOM      3  N   UNL A   1      38.307  21.304  25.969  1.00  0.00    -0.352 N 
ATOM      4  O   UNL A   1      40.371  20.575  26.468  1.00  0.00    -0.269 OA
ATOM      5  C   UNL A   1      39.584  21.518  26.428  1.00  0.00     0.251 C 
ATOM      6  H   UNL A   1      38.072  20.362  25.815  1.00  0.00     0.163 HD
BRANCH   5   7
ATOM      7  C   UNL A   1      40.020  22.865  26.865  1.00  0.00     0.039 A 
ATOM      8  C   UNL A   1      39.577  23.979  26.146  1.00  0.00     0.014 A 
ATOM      9  C   UNL A   1      40.897  23.036  27.939  1.00  0.00     0.014 A 
ATOM     10  C   UNL A   1      39.993  25.261  26.519  1.00  0.00     0.010 A 
ATOM     11  C   UNL A   1      41.246  24.318  28.360  1.00  0.00     0.010 A 
ATOM     12  C   UNL A   1      40.823  25.442  27.636  1.00  0.00    -0.014 A 
BRANCH  12  13
ATOM     13  C   UNL A   1      41.313  26.791  28.021  1.00  0.00     0.031 A 
ATOM     14  C   UNL A   1      42.736  27.184  27.720  1.00  0.00     0.074 A 
ATOM     15  C   UNL A   1      40.499  27.650  28.668  1.00  0.00     0.049 A 
ATOM     16  N   UNL A   1      43.364  28.294  28.008  1.00  0.00    -0.248 NA
ATOM     17  C   UNL A   1      43.568  26.188  27.026  1.00  0.00     0.031 C 
ATOM     18  C   UNL A   1      39.115  27.369  29.047  1.00  0.00     0.029 A 
ATOM     19  N   UNL A   1      40.717  28.927  29.124  1.00  0.00    -0.354 N 
ATOM     20  C   UNL A   1      44.664  28.123  27.544  1.00  0.00     0.074 A 
ATOM     21  C   UNL A   1      44.752  26.781  27.016  1.00  0.00     0.031 C 
ATOM     22  C   UNL A   1      38.599  28.450  29.651  1.00  0.00     0.029 A 
ATOM     23  C   UNL A   1      39.623  29.490  29.738  1.00  0.00     0.049 A 
ATOM     24  H   UNL A   1      41.578  29.396  29.020  1.00  0.00     0.167 HD
ATOM     25  C   UNL A   1      45.683  29.015  27.527  1.00  0.00     0.034 A 
ATOM     26  C   UNL A   1      39.461  30.704  30.306  1.00  0.00     0.034 A 
ATOM     27  C   UNL A   1      45.571  30.361  28.024  1.00  0.00     0.049 A 
ATOM     28  C   UNL A   1      40.605  31.687  30.268  1.00  0.00     0.074 A 
ATOM     29  C   UNL A   1      46.530  31.359  28.007  1.00  0.00     0.029 A 
ATOM     30  N   UNL A   1      44.439  30.905  28.614  1.00  0.00    -0.354 N 
ATOM     31  N   UNL A   1      41.804  31.538  29.753  1.00  0.00    -0.248 NA
ATOM     32  C   UNL A   1      40.378  33.007  30.872  1.00  0.00     0.031 C 
ATOM     33  C   UNL A   1      45.997  32.486  28.633  1.00  0.00     0.029 A 
ATOM     34  C   UNL A   1      44.683  32.218  28.981  1.00  0.00     0.049 A 
ATOM     35  H   UNL A   1      43.590  30.427  28.752  1.00  0.00     0.167 HD
ATOM     36  C   UNL A   1      42.460  32.752  29.945  1.00  0.00     0.074 A 
ATOM     37  C   UNL A   1      41.517  33.631  30.602  1.00  0.00     0.031 C 
ATOM     38  C   UNL A   1      43.729  33.100  29.610  1.00  0.00     0.034 A 
BRANCH  25  39
ATOM     39  C   UNL A   1      46.999  28.594  26.921  1.00  0.00     0.023 A 
ATOM     40  C   UNL A   1      47.113  28.414  25.531  1.00  0.00     0.031 A 
ATOM     41  C   UNL A   1      48.104  28.265  27.727  1.00  0.00     0.131 A 
ATOM     42  C   UNL A   1      48.294  27.889  24.992  1.00  0.00     0.055 A 
ATOM     43  C   UNL A   1      49.295  27.785  27.182  1.00  0.00     0.041 A 
ATOM     44  F   UNL A   1      48.046  28.418  29.061  1.00  0.00    -0.206 F 
ATOM     45  C   UNL A   1      49.388  27.584  25.809  1.00  0.00     0.022 A 
BRANCH  42  46
ATOM     46  S   UNL A   1      48.439  27.524  23.222  1.00  0.00     0.124 S 
ATOM     47  O   UNL A   1      48.373  26.064  23.210  1.00  0.00    -0.237 OA
ATOM     48  O   UNL A   1      47.268  28.205  22.673  1.00  0.00    -0.237 OA
ATOM     49  O   UNL A   1      49.730  28.090  22.850  1.00  0.00    -0.744 OA
ENDBRANCH  42  46
ENDBRANCH  25  39
BRANCH  26  50
ATOM     50  C   UNL A   1      38.130  31.068  30.878  1.00  0.00     0.023 A 
ATOM     51  C   UNL A   1      37.155  31.718  30.099  1.00  0.00     0.031 A 
ATOM     52  C   UNL A   1      37.857  30.865  32.241  1.00  0.00     0.131 A 
ATOM     53  C   UNL A   1      35.985  32.198  30.704  1.00  0.00     0.055 A 
ATOM     54  C   UNL A   1      36.659  31.282  32.824  1.00  0.00     0.041 A 
ATOM     55  F   UNL A   1      38.761  30.262  33.029  1.00  0.00    -0.206 F 
ATOM     56  C   UNL A   1      35.723  31.968  32.058  1.00  0.00     0.022 A 
BRANCH  53  57
ATOM     57  S   UNL A   1      34.824  33.248  29.786  1.00  0.00     0.124 S 
ATOM     58  O   UNL A   1      34.022  33.826  30.859  1.00  0.00    -0.237 OA
ATOM     59  O   UNL A   1      35.731  34.171  29.108  1.00  0.00    -0.237 OA
ATOM     60  O   UNL A   1      34.128  32.309  28.912  1.00  0.00    -0.744 OA
ENDBRANCH  53  57
ENDBRANCH  26  50
BRANCH  38  61
ATOM     61  C   UNL A   1      44.206  34.499  29.922  1.00  0.00     0.023 A 
ATOM     62  C   UNL A   1      43.969  35.541  29.003  1.00  0.00     0.031 A 
ATOM     63  C   UNL A   1      45.033  34.762  31.027  1.00  0.00     0.131 A 
ATOM     64  C   UNL A   1      44.590  36.784  29.182  1.00  0.00     0.055 A 
ATOM     65  C   UNL A   1      45.610  36.018  31.227  1.00  0.00     0.041 A 
ATOM     66  F   UNL A   1      45.300  33.799  31.922  1.00  0.00    -0.206 F 
ATOM     67  C   UNL A   1      45.402  37.030  30.294  1.00  0.00     0.022 A 
BRANCH  64  68
ATOM     68  S   UNL A   1      44.450  38.091  27.932  1.00  0.00     0.124 S 
ATOM     69  O   UNL A   1      43.047  37.984  27.541  1.00  0.00    -0.237 OA
ATOM     70  O   UNL A   1      44.796  39.286  28.696  1.00  0.00    -0.237 OA
ATOM     71  O   UNL A   1      45.413  37.703  26.907  1.00  0.00    -0.744 OA
ENDBRANCH  64  68
ENDBRANCH  38  61
ENDBRANCH  12  13
ENDBRANCH   5   7
ENDBRANCH   2   3
ENDBRANCH   1   2
BRANCH   1  72
ATOM     72  C   UNL A   1      36.151  23.341  23.605  1.00  0.00     0.023 C 
BRANCH  72  73
ATOM     73  C   UNL A   1      34.681  23.674  23.834  1.00  0.00     0.116 C 
BRANCH  73  74
ATOM     74  N   UNL A   1      33.785  22.779  23.123  1.00  0.00    -0.352 N 
ATOM     75  C   UNL A   1      32.412  22.755  23.145  1.00  0.00     0.255 C 
ATOM     76  H   UNL A   1      34.216  22.103  22.552  1.00  0.00     0.163 HD
ATOM     77  O   UNL A   1      31.787  21.898  22.525  1.00  0.00    -0.269 OA
BRANCH  75  78
ATOM     78  C   UNL A   1      31.673  23.714  23.988  1.00  0.00     0.082 A 
ATOM     79  C   UNL A   1      31.104  24.824  23.347  1.00  0.00     0.026 A 
ATOM     80  C   UNL A   1      31.539  23.552  25.371  1.00  0.00     0.128 A 
ATOM     81  C   UNL A   1      30.354  25.744  24.084  1.00  0.00    -0.017 A 
ATOM     82  C   UNL A   1      30.786  24.460  26.109  1.00  0.00     0.047 A 
ATOM     83  C   UNL A   1      30.189  25.546  25.465  1.00  0.00     0.012 A 
BRANCH  80  84
ATOM     84  O   UNL A   1      32.135  22.499  26.007  1.00  0.00    -0.507 OA
ATOM     85  H   UNL A   1      33.024  22.569  26.295  1.00  0.00     0.293 HD
ENDBRANCH  80  84
BRANCH  81  86
ATOM     86  C   UNL A   1      29.730  26.923  23.457  1.00  0.00    -0.011 A 
ATOM     87  C   UNL A   1      30.507  27.901  22.720  1.00  0.00     0.027 A 
ATOM     88  C   UNL A   1      28.416  27.136  23.643  1.00  0.00     0.080 A 
ATOM     89  C   UNL A   1      29.944  29.038  22.297  1.00  0.00     0.095 A 
ATOM     90  C   UNL A   1      27.770  28.390  23.158  1.00  0.00     0.255 A 
ATOM     91  N   UNL A   1      28.607  29.296  22.525  1.00  0.00    -0.258 N 
ATOM     92  O   UNL A   1      26.573  28.555  23.372  1.00  0.00    -0.269 OA
BRANCH  91  93
ATOM     93  C   UNL A   1      28.030  30.557  22.135  1.00  0.00     0.451 C 
ATOM     94  F   UNL A   1      27.882  31.387  23.194  1.00  0.00    -0.185 F 
ATOM     95  F   UNL A   1      28.808  31.180  21.216  1.00  0.00    -0.185 F 
ENDBRANCH  91  93
ENDBRANCH  81  86
ENDBRANCH  75  78
ENDBRANCH  73  74
ENDBRANCH  72  73
ENDBRANCH   1  72
TORSDOF 17
ENDMDL
