MODEL 1
REMARK VINA RESULT:     -12.4      0.000      0.000
REMARK SMILES C[C@H](C(=O)NCCCCNC(=O)c1ccc(-c2c3nc(c(-c4cc(S(=O)(=O)[O-])ccc4F)c4ccc([nH]4)c(-c4cc(S(=O)(=O)[O-])ccc4F)c4nc(c(-c5cc(S(=O)(=O)[O-])ccc5F)c5ccc2[nH]5)C=C4)C=C3)cc1)c1ccc(-c2ccccc2)c(F)c1
REMARK SMILES IDX 8 1 7 2 6 3 5 4 3 5 4 6 2 8 1 9 76 10 77 11 88 12 78 13
REMARK SMILES IDX 86 14 79 15 87 16 80 17 81 18 85 19 82 20 84 21 83 22 9 23
REMARK SMILES IDX 10 24 11 25 12 27 13 28 14 29 75 30 15 31 74 32 16 33 17 34
REMARK SMILES IDX 18 35 68 36 19 37 73 38 67 39 69 40 20 41 72 42 66 43 65 44
REMARK SMILES IDX 21 46 53 47 33 48 52 49 34 50 37 51 51 52 70 53 35 54 36 55
REMARK SMILES IDX 50 57 71 58 38 59 22 60 23 61 31 62 24 63 30 64 32 65 29 66
REMARK SMILES IDX 25 67 26 68 27 69 28 70 54 71 55 72 63 73 56 74 62 75 64 76
REMARK SMILES IDX 61 77 57 78 58 79 59 80 60 81 39 82 40 83 48 84 41 85 47 86
REMARK SMILES IDX 49 87 46 88 42 89 43 90 44 91 45 92
REMARK H PARENT 5 7 10 26 69 45 37 56
REMARK Flexibility Score: inf
ROOT
ATOM      1  C   UNL A   1      36.494  22.384  23.756  1.00  0.00     0.023 C 
ENDROOT
BRANCH   1   2
ATOM      2  C   UNL A   1      35.223  23.201  23.520  1.00  0.00     0.023 C 
BRANCH   2   3
ATOM      3  C   UNL A   1      35.065  24.470  24.355  1.00  0.00     0.116 C 
BRANCH   3   4
ATOM      4  N   UNL A   1      34.000  25.360  23.930  1.00  0.00    -0.356 N 
ATOM      5  C   UNL A   1      32.872  25.762  24.586  1.00  0.00     0.227 C 
ATOM      6  O   UNL A   1      32.280  26.736  24.104  1.00  0.00    -0.274 OA
ATOM      7  H   UNL A   1      34.108  25.733  23.026  1.00  0.00     0.163 HD
BRANCH   5   8
ATOM      8  C   UNL A   1      32.233  25.013  25.769  1.00  0.00     0.105 C 
ATOM      9  C   UNL A   1      30.818  25.592  25.930  1.00  0.00     0.023 C 
BRANCH   8  10
ATOM     10  C   UNL A   1      32.312  23.493  25.761  1.00  0.00    -0.033 A 
ATOM     11  C   UNL A   1      31.682  22.710  24.787  1.00  0.00     0.005 A 
ATOM     12  C   UNL A   1      33.066  22.824  26.733  1.00  0.00     0.044 A 
ATOM     13  C   UNL A   1      31.936  21.336  24.690  1.00  0.00     0.012 A 
ATOM     14  C   UNL A   1      33.357  21.461  26.596  1.00  0.00     0.131 A 
ATOM     15  C   UNL A   1      32.846  20.687  25.541  1.00  0.00     0.017 A 
ATOM     16  F   UNL A   1      34.229  20.943  27.474  1.00  0.00    -0.206 F 
BRANCH  15  17
ATOM     17  C   UNL A   1      33.279  19.290  25.269  1.00  0.00    -0.015 A 
ATOM     18  C   UNL A   1      34.520  19.025  24.648  1.00  0.00     0.009 A 
ATOM     19  C   UNL A   1      32.517  18.173  25.650  1.00  0.00     0.009 A 
ATOM     20  C   UNL A   1      34.969  17.722  24.414  1.00  0.00     0.001 A 
ATOM     21  C   UNL A   1      32.971  16.866  25.434  1.00  0.00     0.001 A 
ATOM     22  C   UNL A   1      34.193  16.641  24.812  1.00  0.00     0.000 A 
ENDBRANCH  15  17
ENDBRANCH   8  10
ENDBRANCH   5   8
ENDBRANCH   3   4
ENDBRANCH   2   3
ENDBRANCH   1   2
BRANCH   1  23
ATOM     23  C   UNL A   1      36.774  21.972  25.200  1.00  0.00     0.116 C 
BRANCH  23  24
ATOM     24  N   UNL A   1      37.764  20.911  25.322  1.00  0.00    -0.352 N 
ATOM     25  C   UNL A   1      39.032  20.939  25.864  1.00  0.00     0.251 C 
ATOM     26  H   UNL A   1      37.486  20.038  24.962  1.00  0.00     0.163 HD
ATOM     27  O   UNL A   1      39.761  19.956  25.762  1.00  0.00    -0.269 OA
BRANCH  25  28
ATOM     28  C   UNL A   1      39.531  22.166  26.524  1.00  0.00     0.039 A 
ATOM     29  C   UNL A   1      40.507  22.055  27.520  1.00  0.00     0.014 A 
ATOM     30  C   UNL A   1      39.067  23.425  26.140  1.00  0.00     0.014 A 
ATOM     31  C   UNL A   1      41.104  23.208  28.041  1.00  0.00     0.010 A 
ATOM     32  C   UNL A   1      39.719  24.566  26.597  1.00  0.00     0.010 A 
ATOM     33  C   UNL A   1      40.759  24.472  27.536  1.00  0.00    -0.014 A 
BRANCH  33  34
ATOM     34  C   UNL A   1      41.476  25.714  27.938  1.00  0.00     0.031 A 
ATOM     35  C   UNL A   1      40.736  26.803  28.660  1.00  0.00     0.074 A 
ATOM     36  C   UNL A   1      42.745  25.919  27.529  1.00  0.00     0.049 A 
ATOM     37  N   UNL A   1      41.093  28.040  28.895  1.00  0.00    -0.248 NA
ATOM     38  C   UNL A   1      39.389  26.463  29.138  1.00  0.00     0.031 C 
ATOM     39  C   UNL A   1      43.562  24.960  26.782  1.00  0.00     0.029 A 
ATOM     40  N   UNL A   1      43.558  27.021  27.651  1.00  0.00    -0.354 N 
ATOM     41  C   UNL A   1      39.999  28.640  29.509  1.00  0.00     0.074 A 
ATOM     42  C   UNL A   1      38.952  27.639  29.560  1.00  0.00     0.031 C 
ATOM     43  C   UNL A   1      44.753  25.515  26.509  1.00  0.00     0.029 A 
ATOM     44  C   UNL A   1      44.768  26.886  27.011  1.00  0.00     0.049 A 
ATOM     45  H   UNL A   1      43.298  27.830  28.148  1.00  0.00     0.167 HD
ATOM     46  C   UNL A   1      39.883  29.902  29.996  1.00  0.00     0.034 A 
ATOM     47  C   UNL A   1      45.765  27.771  26.816  1.00  0.00     0.034 A 
ATOM     48  C   UNL A   1      40.947  30.876  29.955  1.00  0.00     0.049 A 
ATOM     49  C   UNL A   1      45.625  29.166  27.367  1.00  0.00     0.074 A 
ATOM     50  C   UNL A   1      40.968  32.156  30.482  1.00  0.00     0.029 A 
ATOM     51  N   UNL A   1      42.181  30.682  29.343  1.00  0.00    -0.354 N 
ATOM     52  N   UNL A   1      44.602  29.709  27.983  1.00  0.00    -0.248 NA
ATOM     53  C   UNL A   1      46.778  30.062  27.204  1.00  0.00     0.031 C 
ATOM     54  C   UNL A   1      42.185  32.755  30.138  1.00  0.00     0.029 A 
ATOM     55  C   UNL A   1      42.956  31.826  29.457  1.00  0.00     0.049 A 
ATOM     56  H   UNL A   1      42.462  29.853  28.893  1.00  0.00     0.167 HD
ATOM     57  C   UNL A   1      44.998  31.005  28.305  1.00  0.00     0.074 A 
ATOM     58  C   UNL A   1      46.353  31.159  27.818  1.00  0.00     0.031 C 
ATOM     59  C   UNL A   1      44.305  31.972  28.958  1.00  0.00     0.034 A 
BRANCH  46  60
ATOM     60  C   UNL A   1      38.543  30.295  30.574  1.00  0.00     0.023 A 
ATOM     61  C   UNL A   1      37.533  30.865  29.778  1.00  0.00     0.031 A 
ATOM     62  C   UNL A   1      38.296  30.168  31.953  1.00  0.00     0.131 A 
ATOM     63  C   UNL A   1      36.379  31.390  30.379  1.00  0.00     0.055 A 
ATOM     64  C   UNL A   1      37.100  30.603  32.530  1.00  0.00     0.041 A 
ATOM     65  F   UNL A   1      39.224  29.647  32.770  1.00  0.00    -0.206 F 
ATOM     66  C   UNL A   1      36.143  31.240  31.746  1.00  0.00     0.022 A 
BRANCH  63  67
ATOM     67  S   UNL A   1      35.292  32.443  29.377  1.00  0.00     0.124 S 
ATOM     68  O   UNL A   1      34.353  32.937  30.382  1.00  0.00    -0.237 OA
ATOM     69  O   UNL A   1      36.221  33.426  28.832  1.00  0.00    -0.237 OA
ATOM     70  O   UNL A   1      34.719  31.516  28.404  1.00  0.00    -0.744 OA
ENDBRANCH  63  67
ENDBRANCH  46  60
BRANCH  47  71
ATOM     71  C   UNL A   1      46.969  27.372  26.037  1.00  0.00     0.023 A 
ATOM     72  C   UNL A   1      47.109  27.727  24.686  1.00  0.00     0.031 A 
ATOM     73  C   UNL A   1      48.005  26.635  26.640  1.00  0.00     0.131 A 
ATOM     74  C   UNL A   1      48.250  27.323  23.974  1.00  0.00     0.055 A 
ATOM     75  C   UNL A   1      49.154  26.269  25.938  1.00  0.00     0.041 A 
ATOM     76  F   UNL A   1      47.923  26.285  27.933  1.00  0.00    -0.206 F 
ATOM     77  C   UNL A   1      49.278  26.607  24.594  1.00  0.00     0.022 A 
BRANCH  74  78
ATOM     78  S   UNL A   1      48.357  27.717  22.207  1.00  0.00     0.124 S 
ATOM     79  O   UNL A   1      47.120  28.458  21.992  1.00  0.00    -0.237 OA
ATOM     80  O   UNL A   1      49.591  28.493  22.144  1.00  0.00    -0.237 OA
ATOM     81  O   UNL A   1      48.419  26.404  21.568  1.00  0.00    -0.744 OA
ENDBRANCH  74  78
ENDBRANCH  47  71
BRANCH  59  82
ATOM     82  C   UNL A   1      45.024  33.268  29.235  1.00  0.00     0.023 A 
ATOM     83  C   UNL A   1      45.035  34.328  28.311  1.00  0.00     0.031 A 
ATOM     84  C   UNL A   1      45.700  33.446  30.456  1.00  0.00     0.131 A 
ATOM     85  C   UNL A   1      45.737  35.506  28.610  1.00  0.00     0.055 A 
ATOM     86  C   UNL A   1      46.355  34.637  30.768  1.00  0.00     0.041 A 
ATOM     87  F   UNL A   1      45.724  32.463  31.371  1.00  0.00    -0.206 F 
ATOM     88  C   UNL A   1      46.382  35.672  29.839  1.00  0.00     0.022 A 
BRANCH  85  89
ATOM     89  S   UNL A   1      45.847  36.804  27.348  1.00  0.00     0.124 S 
ATOM     90  O   UNL A   1      44.449  37.191  27.189  1.00  0.00    -0.237 OA
ATOM     91  O   UNL A   1      46.714  37.790  27.985  1.00  0.00    -0.237 OA
ATOM     92  O   UNL A   1      46.433  36.116  26.199  1.00  0.00    -0.744 OA
ENDBRANCH  85  89
ENDBRANCH  59  82
ENDBRANCH  33  34
ENDBRANCH  25  28
ENDBRANCH  23  24
ENDBRANCH   1  23
TORSDOF 16
ENDMDL
MODEL 2
REMARK VINA RESULT:     -12.3      6.121     11.246
REMARK SMILES C[C@H](C(=O)NCCCCNC(=O)c1ccc(-c2c3nc(c(-c4cc(S(=O)(=O)[O-])ccc4F)c4ccc([nH]4)c(-c4cc(S(=O)(=O)[O-])ccc4F)c4nc(c(-c5cc(S(=O)(=O)[O-])ccc5F)c5ccc2[nH]5)C=C4)C=C3)cc1)c1ccc(-c2ccccc2)c(F)c1
REMARK SMILES IDX 8 1 7 2 6 3 5 4 3 5 4 6 2 8 1 9 76 10 77 11 88 12 78 13
REMARK SMILES IDX 86 14 79 15 87 16 80 17 81 18 85 19 82 20 84 21 83 22 9 23
REMARK SMILES IDX 10 24 11 25 12 27 13 28 14 29 75 30 15 31 74 32 16 33 17 34
REMARK SMILES IDX 18 35 68 36 19 37 73 38 67 39 69 40 20 41 72 42 66 43 65 44
REMARK SMILES IDX 21 46 53 47 33 48 52 49 34 50 37 51 51 52 70 53 35 54 36 55
REMARK SMILES IDX 50 57 71 58 38 59 22 60 23 61 31 62 24 63 30 64 32 65 29 66
REMARK SMILES IDX 25 67 26 68 27 69 28 70 54 71 55 72 63 73 56 74 62 75 64 76
REMARK SMILES IDX 61 77 57 78 58 79 59 80 60 81 39 82 40 83 48 84 41 85 47 86
REMARK SMILES IDX 49 87 46 88 42 89 43 90 44 91 45 92
REMARK H PARENT 5 7 10 26 69 45 37 56
REMARK Flexibility Score: inf
ROOT
ATOM      1  C   UNL A   1      32.344  30.170  26.470  1.00  0.00     0.023 C 
ENDROOT
BRANCH   1   2
ATOM      2  C   UNL A   1      31.813  28.924  27.180  1.00  0.00     0.023 C 
BRANCH   2   3
ATOM      3  C   UNL A   1      32.487  27.600  26.827  1.00  0.00     0.116 C 
BRANCH   3   4
ATOM      4  N   UNL A   1      31.744  26.410  27.197  1.00  0.00    -0.356 N 
ATOM      5  C   UNL A   1      31.484  25.276  26.485  1.00  0.00     0.227 C 
ATOM      6  O   UNL A   1      31.066  24.308  27.136  1.00  0.00    -0.274 OA
ATOM      7  H   UNL A   1      31.367  26.424  28.107  1.00  0.00     0.163 HD
BRANCH   5   8
ATOM      8  C   UNL A   1      31.542  25.172  24.950  1.00  0.00     0.105 C 
ATOM      9  C   UNL A   1      31.093  23.744  24.600  1.00  0.00     0.023 C 
BRANCH   8  10
ATOM     10  C   UNL A   1      30.869  26.276  24.148  1.00  0.00    -0.033 A 
ATOM     11  C   UNL A   1      29.482  26.469  24.144  1.00  0.00     0.005 A 
ATOM     12  C   UNL A   1      31.643  27.173  23.401  1.00  0.00     0.044 A 
ATOM     13  C   UNL A   1      28.913  27.607  23.560  1.00  0.00     0.012 A 
ATOM     14  C   UNL A   1      31.072  28.335  22.868  1.00  0.00     0.131 A 
ATOM     15  C   UNL A   1      29.701  28.615  22.978  1.00  0.00     0.017 A 
ATOM     16  F   UNL A   1      31.918  29.222  22.322  1.00  0.00    -0.206 F 
BRANCH  15  17
ATOM     17  C   UNL A   1      29.098  29.917  22.583  1.00  0.00    -0.015 A 
ATOM     18  C   UNL A   1      28.542  30.781  23.553  1.00  0.00     0.009 A 
ATOM     19  C   UNL A   1      29.093  30.378  21.256  1.00  0.00     0.009 A 
ATOM     20  C   UNL A   1      28.004  32.027  23.215  1.00  0.00     0.001 A 
ATOM     21  C   UNL A   1      28.571  31.631  20.915  1.00  0.00     0.001 A 
ATOM     22  C   UNL A   1      28.023  32.453  21.894  1.00  0.00     0.000 A 
ENDBRANCH  15  17
ENDBRANCH   8  10
ENDBRANCH   5   8
ENDBRANCH   3   4
ENDBRANCH   2   3
ENDBRANCH   1   2
BRANCH   1  23
ATOM     23  C   UNL A   1      33.287  31.059  27.277  1.00  0.00     0.116 C 
BRANCH  23  24
ATOM     24  N   UNL A   1      32.869  32.453  27.336  1.00  0.00    -0.352 N 
ATOM     25  C   UNL A   1      33.338  33.487  28.118  1.00  0.00     0.251 C 
ATOM     26  H   UNL A   1      32.139  32.695  26.722  1.00  0.00     0.163 HD
ATOM     27  O   UNL A   1      32.765  34.573  28.102  1.00  0.00    -0.269 OA
BRANCH  25  28
ATOM     28  C   UNL A   1      34.497  33.276  29.013  1.00  0.00     0.039 A 
ATOM     29  C   UNL A   1      34.351  32.458  30.138  1.00  0.00     0.014 A 
ATOM     30  C   UNL A   1      35.736  33.853  28.727  1.00  0.00     0.014 A 
ATOM     31  C   UNL A   1      35.472  32.122  30.904  1.00  0.00     0.010 A 
ATOM     32  C   UNL A   1      36.863  33.450  29.438  1.00  0.00     0.010 A 
ATOM     33  C   UNL A   1      36.748  32.563  30.522  1.00  0.00    -0.014 A 
BRANCH  33  34
ATOM     34  C   UNL A   1      37.990  32.103  31.204  1.00  0.00     0.031 A 
ATOM     35  C   UNL A   1      38.823  31.017  30.584  1.00  0.00     0.074 A 
ATOM     36  C   UNL A   1      38.285  32.555  32.439  1.00  0.00     0.049 A 
ATOM     37  N   UNL A   1      39.796  30.314  31.105  1.00  0.00    -0.248 NA
ATOM     38  C   UNL A   1      38.477  30.643  29.207  1.00  0.00     0.031 C 
ATOM     39  C   UNL A   1      37.532  33.576  33.172  1.00  0.00     0.029 A 
ATOM     40  N   UNL A   1      39.278  32.186  33.315  1.00  0.00    -0.354 N 
ATOM     41  C   UNL A   1      40.151  29.383  30.135  1.00  0.00     0.074 A 
ATOM     42  C   UNL A   1      39.249  29.585  29.017  1.00  0.00     0.031 C 
ATOM     43  C   UNL A   1      38.084  33.746  34.383  1.00  0.00     0.029 A 
ATOM     44  C   UNL A   1      39.196  32.813  34.537  1.00  0.00     0.049 A 
ATOM     45  H   UNL A   1      39.981  31.535  33.089  1.00  0.00     0.167 HD
ATOM     46  C   UNL A   1      41.142  28.456  30.166  1.00  0.00     0.034 A 
ATOM     47  C   UNL A   1      39.908  32.635  35.667  1.00  0.00     0.034 A 
ATOM     48  C   UNL A   1      42.044  28.287  31.281  1.00  0.00     0.049 A 
ATOM     49  C   UNL A   1      41.009  31.608  35.687  1.00  0.00     0.074 A 
ATOM     50  C   UNL A   1      43.128  27.435  31.394  1.00  0.00     0.029 A 
ATOM     51  N   UNL A   1      41.961  28.980  32.484  1.00  0.00    -0.354 N 
ATOM     52  N   UNL A   1      41.363  30.762  34.748  1.00  0.00    -0.248 NA
ATOM     53  C   UNL A   1      41.811  31.519  36.914  1.00  0.00     0.031 C 
ATOM     54  C   UNL A   1      43.662  27.567  32.681  1.00  0.00     0.029 A 
ATOM     55  C   UNL A   1      42.956  28.555  33.351  1.00  0.00     0.049 A 
ATOM     56  H   UNL A   1      41.291  29.672  32.690  1.00  0.00     0.167 HD
ATOM     57  C   UNL A   1      42.448  30.057  35.262  1.00  0.00     0.074 A 
ATOM     58  C   UNL A   1      42.691  30.579  36.592  1.00  0.00     0.031 C 
ATOM     59  C   UNL A   1      43.183  29.076  34.679  1.00  0.00     0.034 A 
BRANCH  46  60
ATOM     60  C   UNL A   1      41.265  27.538  28.972  1.00  0.00     0.023 A 
ATOM     61  C   UNL A   1      42.286  27.700  28.018  1.00  0.00     0.031 A 
ATOM     62  C   UNL A   1      40.309  26.533  28.743  1.00  0.00     0.131 A 
ATOM     63  C   UNL A   1      42.260  26.955  26.829  1.00  0.00     0.055 A 
ATOM     64  C   UNL A   1      40.348  25.725  27.604  1.00  0.00     0.041 A 
ATOM     65  F   UNL A   1      39.301  26.337  29.607  1.00  0.00    -0.206 F 
ATOM     66  C   UNL A   1      41.313  25.950  26.626  1.00  0.00     0.022 A 
BRANCH  63  67
ATOM     67  S   UNL A   1      43.359  27.457  25.475  1.00  0.00     0.124 S 
ATOM     68  O   UNL A   1      44.106  26.226  25.230  1.00  0.00    -0.237 OA
ATOM     69  O   UNL A   1      42.417  27.852  24.435  1.00  0.00    -0.237 OA
ATOM     70  O   UNL A   1      44.142  28.546  26.056  1.00  0.00    -0.744 OA
ENDBRANCH  63  67
ENDBRANCH  46  60
BRANCH  47  71
ATOM     71  C   UNL A   1      39.579  33.429  36.883  1.00  0.00     0.023 A 
ATOM     72  C   UNL A   1      38.802  32.883  37.917  1.00  0.00     0.031 A 
ATOM     73  C   UNL A   1      40.048  34.747  37.031  1.00  0.00     0.131 A 
ATOM     74  C   UNL A   1      38.496  33.662  39.044  1.00  0.00     0.055 A 
ATOM     75  C   UNL A   1      39.773  35.504  38.171  1.00  0.00     0.041 A 
ATOM     76  F   UNL A   1      40.806  35.308  36.076  1.00  0.00    -0.206 F 
ATOM     77  C   UNL A   1      38.986  34.963  39.184  1.00  0.00     0.022 A 
BRANCH  74  78
ATOM     78  S   UNL A   1      37.413  32.959  40.319  1.00  0.00     0.124 S 
ATOM     79  O   UNL A   1      36.206  32.665  39.555  1.00  0.00    -0.237 OA
ATOM     80  O   UNL A   1      38.185  31.807  40.771  1.00  0.00    -0.237 OA
ATOM     81  O   UNL A   1      37.288  34.041  41.293  1.00  0.00    -0.744 OA
ENDBRANCH  74  78
ENDBRANCH  47  71
BRANCH  59  82
ATOM     82  C   UNL A   1      44.360  28.543  35.457  1.00  0.00     0.023 A 
ATOM     83  C   UNL A   1      44.219  27.536  36.427  1.00  0.00     0.031 A 
ATOM     84  C   UNL A   1      45.650  29.046  35.206  1.00  0.00     0.131 A 
ATOM     85  C   UNL A   1      45.344  27.088  37.137  1.00  0.00     0.055 A 
ATOM     86  C   UNL A   1      46.771  28.563  35.879  1.00  0.00     0.041 A 
ATOM     87  F   UNL A   1      45.839  30.011  34.291  1.00  0.00    -0.206 F 
ATOM     88  C   UNL A   1      46.621  27.584  36.856  1.00  0.00     0.022 A 
BRANCH  85  89
ATOM     89  S   UNL A   1      45.115  25.887  38.475  1.00  0.00     0.124 S 
ATOM     90  O   UNL A   1      46.460  25.796  39.035  1.00  0.00    -0.237 OA
ATOM     91  O   UNL A   1      44.117  26.538  39.316  1.00  0.00    -0.237 OA
ATOM     92  O   UNL A   1      44.650  24.686  37.782  1.00  0.00    -0.744 OA
ENDBRANCH  85  89
ENDBRANCH  59  82
ENDBRANCH  33  34
ENDBRANCH  25  28
ENDBRANCH  23  24
ENDBRANCH   1  23
TORSDOF 16
ENDMDL
MODEL 3
REMARK VINA RESULT:     -12.2      1.990      2.316
REMARK SMILES C[C@H](C(=O)NCCCCNC(=O)c1ccc(-c2c3nc(c(-c4cc(S(=O)(=O)[O-])ccc4F)c4ccc([nH]4)c(-c4cc(S(=O)(=O)[O-])ccc4F)c4nc(c(-c5cc(S(=O)(=O)[O-])ccc5F)c5ccc2[nH]5)C=C4)C=C3)cc1)c1ccc(-c2ccccc2)c(F)c1
REMARK SMILES IDX 8 1 7 2 6 3 5 4 3 5 4 6 2 8 1 9 76 10 77 11 88 12 78 13
REMARK SMILES IDX 86 14 79 15 87 16 80 17 81 18 85 19 82 20 84 21 83 22 9 23
REMARK SMILES IDX 10 24 11 25 12 27 13 28 14 29 75 30 15 31 74 32 16 33 17 34
REMARK SMILES IDX 18 35 68 36 19 37 73 38 67 39 69 40 20 41 72 42 66 43 65 44
REMARK SMILES IDX 21 46 53 47 33 48 52 49 34 50 37 51 51 52 70 53 35 54 36 55
REMARK SMILES IDX 50 57 71 58 38 59 22 60 23 61 31 62 24 63 30 64 32 65 29 66
REMARK SMILES IDX 25 67 26 68 27 69 28 70 54 71 55 72 63 73 56 74 62 75 64 76
REMARK SMILES IDX 61 77 57 78 58 79 59 80 60 81 39 82 40 83 48 84 41 85 47 86
REMARK SMILES IDX 49 87 46 88 42 89 43 90 44 91 45 92
REMARK H PARENT 5 7 10 26 69 45 37 56
REMARK Flexibility Score: inf
ROOT
ATOM      1  C   UNL A   1      36.522  22.450  23.823  1.00  0.00     0.023 C 
ENDROOT
BRANCH   1   2
ATOM      2  C   UNL A   1      35.444  23.522  23.659  1.00  0.00     0.023 C 
BRANCH   2   3
ATOM      3  C   UNL A   1      35.214  24.444  24.854  1.00  0.00     0.116 C 
BRANCH   3   4
ATOM      4  N   UNL A   1      34.360  25.589  24.595  1.00  0.00    -0.356 N 
ATOM      5  C   UNL A   1      33.190  25.968  25.185  1.00  0.00     0.227 C 
ATOM      6  O   UNL A   1      32.818  27.128  24.964  1.00  0.00    -0.274 OA
ATOM      7  H   UNL A   1      34.676  26.188  23.880  1.00  0.00     0.163 HD
BRANCH   5   8
ATOM      8  C   UNL A   1      32.259  25.025  25.971  1.00  0.00     0.105 C 
ATOM      9  C   UNL A   1      30.869  25.681  25.951  1.00  0.00     0.023 C 
BRANCH   8  10
ATOM     10  C   UNL A   1      32.283  23.550  25.600  1.00  0.00    -0.033 A 
ATOM     11  C   UNL A   1      31.875  23.080  24.346  1.00  0.00     0.005 A 
ATOM     12  C   UNL A   1      32.758  22.603  26.515  1.00  0.00     0.044 A 
ATOM     13  C   UNL A   1      32.095  21.749  23.967  1.00  0.00     0.012 A 
ATOM     14  C   UNL A   1      33.024  21.289  26.110  1.00  0.00     0.131 A 
ATOM     15  C   UNL A   1      32.752  20.837  24.809  1.00  0.00     0.017 A 
ATOM     16  F   UNL A   1      33.642  20.500  27.002  1.00  0.00    -0.206 F 
BRANCH  15  17
ATOM     17  C   UNL A   1      33.187  19.508  24.298  1.00  0.00    -0.015 A 
ATOM     18  C   UNL A   1      32.414  18.813  23.341  1.00  0.00     0.009 A 
ATOM     19  C   UNL A   1      34.391  18.902  24.692  1.00  0.00     0.009 A 
ATOM     20  C   UNL A   1      32.817  17.581  22.816  1.00  0.00     0.001 A 
ATOM     21  C   UNL A   1      34.807  17.678  24.156  1.00  0.00     0.001 A 
ATOM     22  C   UNL A   1      34.018  17.015  23.222  1.00  0.00     0.000 A 
ENDBRANCH  15  17
ENDBRANCH   8  10
ENDBRANCH   5   8
ENDBRANCH   3   4
ENDBRANCH   2   3
ENDBRANCH   1   2
BRANCH   1  23
ATOM     23  C   UNL A   1      36.691  21.870  25.225  1.00  0.00     0.116 C 
BRANCH  23  24
ATOM     24  N   UNL A   1      37.692  20.815  25.304  1.00  0.00    -0.352 N 
ATOM     25  C   UNL A   1      38.971  20.843  25.819  1.00  0.00     0.251 C 
ATOM     26  H   UNL A   1      37.414  19.948  24.931  1.00  0.00     0.163 HD
ATOM     27  O   UNL A   1      39.706  19.869  25.681  1.00  0.00    -0.269 OA
BRANCH  25  28
ATOM     28  C   UNL A   1      39.474  22.059  26.494  1.00  0.00     0.039 A 
ATOM     29  C   UNL A   1      40.432  21.931  27.506  1.00  0.00     0.014 A 
ATOM     30  C   UNL A   1      39.032  23.327  26.110  1.00  0.00     0.014 A 
ATOM     31  C   UNL A   1      41.033  23.074  28.043  1.00  0.00     0.010 A 
ATOM     32  C   UNL A   1      39.690  24.457  26.584  1.00  0.00     0.010 A 
ATOM     33  C   UNL A   1      40.712  24.345  27.540  1.00  0.00    -0.014 A 
BRANCH  33  34
ATOM     34  C   UNL A   1      41.438  25.576  27.961  1.00  0.00     0.031 A 
ATOM     35  C   UNL A   1      40.691  26.684  28.648  1.00  0.00     0.074 A 
ATOM     36  C   UNL A   1      42.724  25.755  27.598  1.00  0.00     0.049 A 
ATOM     37  N   UNL A   1      41.064  27.916  28.889  1.00  0.00    -0.248 NA
ATOM     38  C   UNL A   1      39.321  26.373  29.077  1.00  0.00     0.031 C 
ATOM     39  C   UNL A   1      43.550  24.775  26.889  1.00  0.00     0.029 A 
ATOM     40  N   UNL A   1      43.553  26.842  27.744  1.00  0.00    -0.354 N 
ATOM     41  C   UNL A   1      39.959  28.540  29.458  1.00  0.00     0.074 A 
ATOM     42  C   UNL A   1      38.892  27.559  29.475  1.00  0.00     0.031 C 
ATOM     43  C   UNL A   1      44.761  25.306  26.657  1.00  0.00     0.029 A 
ATOM     44  C   UNL A   1      44.783  26.679  27.151  1.00  0.00     0.049 A 
ATOM     45  H   UNL A   1      43.290  27.659  28.226  1.00  0.00     0.167 HD
ATOM     46  C   UNL A   1      39.848  29.807  29.932  1.00  0.00     0.034 A 
ATOM     47  C   UNL A   1      45.803  27.545  26.988  1.00  0.00     0.034 A 
ATOM     48  C   UNL A   1      40.932  30.761  29.926  1.00  0.00     0.049 A 
ATOM     49  C   UNL A   1      45.670  28.945  27.524  1.00  0.00     0.074 A 
ATOM     50  C   UNL A   1      40.958  32.043  30.445  1.00  0.00     0.029 A 
ATOM     51  N   UNL A   1      42.184  30.540  29.361  1.00  0.00    -0.354 N 
ATOM     52  N   UNL A   1      44.635  29.512  28.098  1.00  0.00    -0.248 NA
ATOM     53  C   UNL A   1      46.845  29.818  27.399  1.00  0.00     0.031 C 
ATOM     54  C   UNL A   1      42.198  32.618  30.144  1.00  0.00     0.029 A 
ATOM     55  C   UNL A   1      42.976  31.670  29.497  1.00  0.00     0.049 A 
ATOM     56  H   UNL A   1      42.466  29.702  28.927  1.00  0.00     0.167 HD
ATOM     57  C   UNL A   1      45.043  30.802  28.428  1.00  0.00     0.074 A 
ATOM     58  C   UNL A   1      46.418  30.927  27.990  1.00  0.00     0.031 C 
ATOM     59  C   UNL A   1      44.345  31.787  29.048  1.00  0.00     0.034 A 
BRANCH  46  60
ATOM     60  C   UNL A   1      38.496  30.230  30.458  1.00  0.00     0.023 A 
ATOM     61  C   UNL A   1      37.552  30.871  29.636  1.00  0.00     0.031 A 
ATOM     62  C   UNL A   1      38.171  30.056  31.815  1.00  0.00     0.131 A 
ATOM     63  C   UNL A   1      36.388  31.417  30.199  1.00  0.00     0.055 A 
ATOM     64  C   UNL A   1      36.964  30.514  32.349  1.00  0.00     0.041 A 
ATOM     65  F   UNL A   1      39.035  29.465  32.656  1.00  0.00    -0.206 F 
ATOM     66  C   UNL A   1      36.075  31.221  31.545  1.00  0.00     0.022 A 
BRANCH  63  67
ATOM     67  S   UNL A   1      35.396  32.553  29.190  1.00  0.00     0.124 S 
ATOM     68  O   UNL A   1      35.093  31.724  28.025  1.00  0.00    -0.237 OA
ATOM     69  O   UNL A   1      34.273  32.857  30.069  1.00  0.00    -0.237 OA
ATOM     70  O   UNL A   1      36.307  33.666  28.931  1.00  0.00    -0.744 OA
ENDBRANCH  63  67
ENDBRANCH  46  60
BRANCH  47  71
ATOM     71  C   UNL A   1      47.028  27.118  26.257  1.00  0.00     0.023 A 
ATOM     72  C   UNL A   1      48.085  26.480  26.924  1.00  0.00     0.031 A 
ATOM     73  C   UNL A   1      47.152  27.334  24.872  1.00  0.00     0.131 A 
ATOM     74  C   UNL A   1      49.233  26.102  26.210  1.00  0.00     0.055 A 
ATOM     75  C   UNL A   1      48.280  26.922  24.160  1.00  0.00     0.041 A 
ATOM     76  F   UNL A   1      46.162  27.928  24.188  1.00  0.00    -0.206 F 
ATOM     77  C   UNL A   1      49.332  26.308  24.831  1.00  0.00     0.022 A 
BRANCH  74  78
ATOM     78  S   UNL A   1      50.620  25.365  27.118  1.00  0.00     0.124 S 
ATOM     79  O   UNL A   1      49.961  24.279  27.835  1.00  0.00    -0.237 OA
ATOM     80  O   UNL A   1      51.516  24.971  26.037  1.00  0.00    -0.237 OA
ATOM     81  O   UNL A   1      51.103  26.463  27.953  1.00  0.00    -0.744 OA
ENDBRANCH  74  78
ENDBRANCH  47  71
BRANCH  59  82
ATOM     82  C   UNL A   1      45.078  33.071  29.344  1.00  0.00     0.023 A 
ATOM     83  C   UNL A   1      45.803  33.259  30.533  1.00  0.00     0.031 A 
ATOM     84  C   UNL A   1      45.059  34.119  28.405  1.00  0.00     0.131 A 
ATOM     85  C   UNL A   1      46.452  34.482  30.769  1.00  0.00     0.055 A 
ATOM     86  C   UNL A   1      45.746  35.313  28.623  1.00  0.00     0.041 A 
ATOM     87  F   UNL A   1      44.379  33.991  27.255  1.00  0.00    -0.206 F 
ATOM     88  C   UNL A   1      46.441  35.502  29.813  1.00  0.00     0.022 A 
BRANCH  85  89
ATOM     89  S   UNL A   1      47.266  34.748  32.367  1.00  0.00     0.124 S 
ATOM     90  O   UNL A   1      46.271  35.537  33.086  1.00  0.00    -0.237 OA
ATOM     91  O   UNL A   1      47.469  33.386  32.847  1.00  0.00    -0.237 OA
ATOM     92  O   UNL A   1      48.489  35.467  32.013  1.00  0.00    -0.744 OA
ENDBRANCH  85  89
ENDBRANCH  59  82
ENDBRANCH  33  34
ENDBRANCH  25  28
ENDBRANCH  23  24
ENDBRANCH   1  23
TORSDOF 16
ENDMDL
