MODEL 1
REMARK VINA RESULT:     -12.0      0.000      0.000
REMARK SMILES COc1ccc(NC(=O)NCc2ccc(C(=O)NCCCCNC(=O)c3ccc(-c4c5nc(c(-c6cc(S(=O)(=O)[O-])ccc6F)c6ccc([nH]6)c(-c6cc(S(=O)(=O)[O-])ccc6F)c6nc(c(-c7cc(S(=O)(=O)[O-])ccc7F)c7ccc4[nH]7)C=C6)C=C5)cc3)cc2)c(OC)c1
REMARK SMILES IDX 20 1 19 2 18 3 16 4 17 5 15 7 12 8 13 9 90 10 14 11 89 12
REMARK SMILES IDX 11 13 10 14 7 15 8 16 9 18 6 20 3 21 4 22 94 23 5 24 91 25
REMARK SMILES IDX 2 26 1 27 92 28 93 29 21 30 22 31 23 32 24 33 25 35 26 36
REMARK SMILES IDX 27 37 88 38 28 39 87 40 29 41 30 42 31 43 81 44 32 45 86 46
REMARK SMILES IDX 80 47 82 48 33 49 85 50 79 51 78 52 34 54 66 55 46 56 65 57
REMARK SMILES IDX 47 58 50 59 64 60 83 61 48 62 49 63 63 65 84 66 51 67 35 68
REMARK SMILES IDX 36 69 44 70 37 71 43 72 45 73 42 74 38 75 39 76 40 77 41 78
REMARK SMILES IDX 67 79 68 80 76 81 69 82 75 83 77 84 74 85 70 86 71 87 72 88
REMARK SMILES IDX 73 89 52 90 53 91 61 92 54 93 60 94 62 95 59 96 55 97 56 98
REMARK SMILES IDX 57 99 58 100
REMARK H PARENT 18 6 7 17 10 19 23 34 82 53 50 64
REMARK Flexibility Score: inf
ROOT
ATOM      1  C   UNL A   1      30.620  31.631  25.394  1.00  0.00     0.023 C 
ENDROOT
BRANCH   1   2
ATOM      2  C   UNL A   1      30.680  30.276  24.685  1.00  0.00     0.116 C 
BRANCH   2   3
ATOM      3  N   UNL A   1      29.931  30.336  23.450  1.00  0.00    -0.352 N 
ATOM      4  C   UNL A   1      29.647  29.365  22.527  1.00  0.00     0.251 C 
ATOM      5  O   UNL A   1      29.018  29.693  21.520  1.00  0.00    -0.269 OA
ATOM      6  H   UNL A   1      29.562  31.224  23.237  1.00  0.00     0.163 HD
BRANCH   4   7
ATOM      7  C   UNL A   1      29.979  27.927  22.737  1.00  0.00     0.039 A 
ATOM      8  C   UNL A   1      30.598  25.284  23.494  1.00  0.00    -0.029 A 
ATOM      9  C   UNL A   1      29.473  25.948  24.020  1.00  0.00     0.006 A 
ATOM     10  C   UNL A   1      31.350  25.914  22.512  1.00  0.00     0.006 A 
ATOM     11  C   UNL A   1      29.172  27.253  23.655  1.00  0.00     0.014 A 
ATOM     12  C   UNL A   1      31.022  27.220  22.123  1.00  0.00     0.014 A 
BRANCH   8  13
ATOM     13  C   UNL A   1      30.920  23.967  24.133  1.00  0.00     0.153 C 
BRANCH  13  14
ATOM     14  N   UNL A   1      30.203  23.534  25.304  1.00  0.00    -0.334 N 
ATOM     15  N   UNL A   1      31.525  24.470  27.060  1.00  0.00    -0.305 N 
ATOM     16  C   UNL A   1      30.470  23.746  26.613  1.00  0.00     0.319 C 
ATOM     17  H   UNL A   1      31.735  24.301  28.007  1.00  0.00     0.172 HD
ATOM     18  O   UNL A   1      29.765  23.157  27.440  1.00  0.00    -0.248 OA
ATOM     19  H   UNL A   1      29.395  23.002  25.124  1.00  0.00     0.165 HD
BRANCH  15  20
ATOM     20  C   UNL A   1      32.386  25.410  26.464  1.00  0.00     0.085 A 
ATOM     21  C   UNL A   1      33.854  27.057  24.741  1.00  0.00     0.122 A 
ATOM     22  C   UNL A   1      32.810  27.585  25.501  1.00  0.00     0.049 A 
ATOM     23  C   UNL A   1      34.277  25.751  24.981  1.00  0.00     0.095 A 
ATOM     24  C   UNL A   1      32.094  26.770  26.383  1.00  0.00     0.034 A 
ATOM     25  C   UNL A   1      33.574  24.946  25.885  1.00  0.00     0.146 A 
BRANCH  21  26
ATOM     26  O   UNL A   1      34.393  27.908  23.817  1.00  0.00    -0.497 OA
ATOM     27  C   UNL A   1      33.585  29.022  23.447  1.00  0.00     0.278 C 
ENDBRANCH  21  26
BRANCH  25  28
ATOM     28  O   UNL A   1      33.963  23.656  26.159  1.00  0.00    -0.494 OA
ATOM     29  C   UNL A   1      34.335  22.948  24.975  1.00  0.00     0.278 C 
ENDBRANCH  25  28
ENDBRANCH  15  20
ENDBRANCH  13  14
ENDBRANCH   8  13
ENDBRANCH   4   7
ENDBRANCH   2   3
ENDBRANCH   1   2
BRANCH   1  30
ATOM     30  C   UNL A   1      31.303  31.652  26.758  1.00  0.00     0.023 C 
BRANCH  30  31
ATOM     31  C   UNL A   1      32.584  32.466  26.804  1.00  0.00     0.116 C 
BRANCH  31  32
ATOM     32  N   UNL A   1      32.406  33.780  27.406  1.00  0.00    -0.352 N 
ATOM     33  C   UNL A   1      33.177  34.366  28.380  1.00  0.00     0.251 C 
ATOM     34  H   UNL A   1      31.644  34.310  27.077  1.00  0.00     0.163 HD
ATOM     35  O   UNL A   1      32.848  35.440  28.875  1.00  0.00    -0.269 OA
BRANCH  33  36
ATOM     36  C   UNL A   1      34.373  33.644  28.849  1.00  0.00     0.039 A 
ATOM     37  C   UNL A   1      35.625  34.238  28.685  1.00  0.00     0.014 A 
ATOM     38  C   UNL A   1      34.238  32.435  29.536  1.00  0.00     0.014 A 
ATOM     39  C   UNL A   1      36.742  33.647  29.273  1.00  0.00     0.010 A 
ATOM     40  C   UNL A   1      35.338  31.889  30.184  1.00  0.00     0.010 A 
ATOM     41  C   UNL A   1      36.600  32.491  30.058  1.00  0.00    -0.014 A 
BRANCH  41  42
ATOM     42  C   UNL A   1      37.765  31.881  30.746  1.00  0.00     0.031 A 
ATOM     43  C   UNL A   1      38.577  30.833  30.039  1.00  0.00     0.074 A 
ATOM     44  C   UNL A   1      38.041  32.221  32.019  1.00  0.00     0.049 A 
ATOM     45  N   UNL A   1      39.576  30.118  30.486  1.00  0.00    -0.248 NA
ATOM     46  C   UNL A   1      38.188  30.524  28.654  1.00  0.00     0.031 C 
ATOM     47  C   UNL A   1      37.288  33.191  32.820  1.00  0.00     0.029 A 
ATOM     48  N   UNL A   1      39.024  31.782  32.871  1.00  0.00    -0.354 N 
ATOM     49  C   UNL A   1      39.926  29.265  29.445  1.00  0.00     0.074 A 
ATOM     50  C   UNL A   1      38.987  29.506  28.371  1.00  0.00     0.031 C 
ATOM     51  C   UNL A   1      37.852  33.289  34.035  1.00  0.00     0.029 A 
ATOM     52  C   UNL A   1      38.978  32.364  34.116  1.00  0.00     0.049 A 
ATOM     53  H   UNL A   1      39.699  31.114  32.613  1.00  0.00     0.167 HD
ATOM     54  C   UNL A   1      40.951  28.380  29.384  1.00  0.00     0.034 A 
ATOM     55  C   UNL A   1      39.750  32.165  35.202  1.00  0.00     0.034 A 
ATOM     56  C   UNL A   1      41.886  28.168  30.460  1.00  0.00     0.049 A 
ATOM     57  C   UNL A   1      40.883  31.172  35.111  1.00  0.00     0.074 A 
ATOM     58  C   UNL A   1      42.994  27.339  30.491  1.00  0.00     0.029 A 
ATOM     59  N   UNL A   1      41.820  28.787  31.703  1.00  0.00    -0.354 N 
ATOM     60  N   UNL A   1      41.234  30.409  34.101  1.00  0.00    -0.248 NA
ATOM     61  C   UNL A   1      41.729  31.025  36.301  1.00  0.00     0.031 C 
ATOM     62  C   UNL A   1      43.562  27.414  31.767  1.00  0.00     0.029 A 
ATOM     63  C   UNL A   1      42.852  28.342  32.513  1.00  0.00     0.049 A 
ATOM     64  H   UNL A   1      41.138  29.447  31.968  1.00  0.00     0.167 HD
ATOM     65  C   UNL A   1      42.361  29.713  34.526  1.00  0.00     0.074 A 
ATOM     66  C   UNL A   1      42.638  30.159  35.877  1.00  0.00     0.031 C 
ATOM     67  C   UNL A   1      43.106  28.793  33.861  1.00  0.00     0.034 A 
BRANCH  54  68
ATOM     68  C   UNL A   1      41.089  27.571  28.118  1.00  0.00     0.023 A 
ATOM     69  C   UNL A   1      40.753  26.205  28.076  1.00  0.00     0.031 A 
ATOM     70  C   UNL A   1      41.599  28.158  26.947  1.00  0.00     0.131 A 
ATOM     71  C   UNL A   1      41.007  25.457  26.917  1.00  0.00     0.055 A 
ATOM     72  C   UNL A   1      41.771  27.426  25.770  1.00  0.00     0.041 A 
ATOM     73  F   UNL A   1      41.957  29.452  26.931  1.00  0.00    -0.206 F 
ATOM     74  C   UNL A   1      41.489  26.062  25.755  1.00  0.00     0.022 A 
BRANCH  71  75
ATOM     75  S   UNL A   1      40.837  23.653  26.998  1.00  0.00     0.124 S 
ATOM     76  O   UNL A   1      41.308  23.374  28.354  1.00  0.00    -0.237 OA
ATOM     77  O   UNL A   1      39.410  23.460  26.766  1.00  0.00    -0.237 OA
ATOM     78  O   UNL A   1      41.714  23.176  25.932  1.00  0.00    -0.744 OA
ENDBRANCH  71  75
ENDBRANCH  54  68
BRANCH  55  79
ATOM     79  C   UNL A   1      39.489  32.909  36.466  1.00  0.00     0.023 A 
ATOM     80  C   UNL A   1      38.629  32.389  37.446  1.00  0.00     0.031 A 
ATOM     81  C   UNL A   1      40.065  34.171  36.696  1.00  0.00     0.131 A 
ATOM     82  C   UNL A   1      38.329  33.147  38.587  1.00  0.00     0.055 A 
ATOM     83  C   UNL A   1      39.802  34.901  37.857  1.00  0.00     0.041 A 
ATOM     84  F   UNL A   1      40.901  34.710  35.795  1.00  0.00    -0.206 F 
ATOM     85  C   UNL A   1      38.918  34.395  38.805  1.00  0.00     0.022 A 
BRANCH  82  86
ATOM     86  S   UNL A   1      37.088  32.514  39.749  1.00  0.00     0.124 S 
ATOM     87  O   UNL A   1      35.911  32.400  38.893  1.00  0.00    -0.237 OA
ATOM     88  O   UNL A   1      37.692  31.258  40.181  1.00  0.00    -0.237 OA
ATOM     89  O   UNL A   1      37.017  33.554  40.773  1.00  0.00    -0.744 OA
ENDBRANCH  82  86
ENDBRANCH  55  79
BRANCH  67  90
ATOM     90  C   UNL A   1      44.316  28.248  34.577  1.00  0.00     0.023 A 
ATOM     91  C   UNL A   1      44.248  27.083  35.360  1.00  0.00     0.031 A 
ATOM     92  C   UNL A   1      45.550  28.913  34.479  1.00  0.00     0.131 A 
ATOM     93  C   UNL A   1      45.384  26.648  36.059  1.00  0.00     0.055 A 
ATOM     94  C   UNL A   1      46.691  28.442  35.131  1.00  0.00     0.041 A 
ATOM     95  F   UNL A   1      45.668  30.030  33.743  1.00  0.00    -0.206 F 
ATOM     96  C   UNL A   1      46.608  27.311  35.937  1.00  0.00     0.022 A 
BRANCH  93  97
ATOM     97  S   UNL A   1      45.219  25.248  37.201  1.00  0.00     0.124 S 
ATOM     98  O   UNL A   1      45.742  25.806  38.443  1.00  0.00    -0.237 OA
ATOM     99  O   UNL A   1      43.782  24.991  37.173  1.00  0.00    -0.237 OA
ATOM    100  O   UNL A   1      46.045  24.208  36.591  1.00  0.00    -0.744 OA
ENDBRANCH  93  97
ENDBRANCH  67  90
ENDBRANCH  41  42
ENDBRANCH  33  36
ENDBRANCH  31  32
ENDBRANCH  30  31
ENDBRANCH   1  30
TORSDOF 19
ENDMDL
MODEL 2
REMARK VINA RESULT:     -11.6      1.811      2.563
REMARK SMILES COc1ccc(NC(=O)NCc2ccc(C(=O)NCCCCNC(=O)c3ccc(-c4c5nc(c(-c6cc(S(=O)(=O)[O-])ccc6F)c6ccc([nH]6)c(-c6cc(S(=O)(=O)[O-])ccc6F)c6nc(c(-c7cc(S(=O)(=O)[O-])ccc7F)c7ccc4[nH]7)C=C6)C=C5)cc3)cc2)c(OC)c1
REMARK SMILES IDX 20 1 19 2 18 3 16 4 17 5 15 7 12 8 13 9 90 10 14 11 89 12
REMARK SMILES IDX 11 13 10 14 7 15 8 16 9 18 6 20 3 21 4 22 94 23 5 24 91 25
REMARK SMILES IDX 2 26 1 27 92 28 93 29 21 30 22 31 23 32 24 33 25 35 26 36
REMARK SMILES IDX 27 37 88 38 28 39 87 40 29 41 30 42 31 43 81 44 32 45 86 46
REMARK SMILES IDX 80 47 82 48 33 49 85 50 79 51 78 52 34 54 66 55 46 56 65 57
REMARK SMILES IDX 47 58 50 59 64 60 83 61 48 62 49 63 63 65 84 66 51 67 35 68
REMARK SMILES IDX 36 69 44 70 37 71 43 72 45 73 42 74 38 75 39 76 40 77 41 78
REMARK SMILES IDX 67 79 68 80 76 81 69 82 75 83 77 84 74 85 70 86 71 87 72 88
REMARK SMILES IDX 73 89 52 90 53 91 61 92 54 93 60 94 62 95 59 96 55 97 56 98
REMARK SMILES IDX 57 99 58 100
REMARK H PARENT 18 6 7 17 10 19 23 34 82 53 50 64
REMARK Flexibility Score: inf
ROOT
ATOM      1  C   UNL A   1      32.646  29.500  27.184  1.00  0.00     0.023 C 
ENDROOT
BRANCH   1   2
ATOM      2  C   UNL A   1      33.772  28.879  26.354  1.00  0.00     0.116 C 
BRANCH   2   3
ATOM      3  N   UNL A   1      33.717  29.384  25.000  1.00  0.00    -0.352 N 
ATOM      4  C   UNL A   1      33.405  28.757  23.823  1.00  0.00     0.251 C 
ATOM      5  O   UNL A   1      33.480  29.413  22.783  1.00  0.00    -0.269 OA
ATOM      6  H   UNL A   1      33.941  30.338  24.909  1.00  0.00     0.163 HD
BRANCH   4   7
ATOM      7  C   UNL A   1      32.892  27.359  23.762  1.00  0.00     0.039 A 
ATOM      8  C   UNL A   1      31.833  24.758  24.002  1.00  0.00    -0.029 A 
ATOM      9  C   UNL A   1      31.084  25.889  24.383  1.00  0.00     0.006 A 
ATOM     10  C   UNL A   1      33.073  24.946  23.407  1.00  0.00     0.006 A 
ATOM     11  C   UNL A   1      31.607  27.169  24.275  1.00  0.00     0.014 A 
ATOM     12  C   UNL A   1      33.583  26.243  23.269  1.00  0.00     0.014 A 
BRANCH   8  13
ATOM     13  C   UNL A   1      31.230  23.437  24.371  1.00  0.00     0.153 C 
BRANCH  13  14
ATOM     14  N   UNL A   1      30.321  23.339  25.483  1.00  0.00    -0.334 N 
ATOM     15  N   UNL A   1      31.665  22.230  27.118  1.00  0.00    -0.305 N 
ATOM     16  C   UNL A   1      30.503  22.796  26.709  1.00  0.00     0.319 C 
ATOM     17  H   UNL A   1      31.555  21.649  27.904  1.00  0.00     0.172 HD
ATOM     18  O   UNL A   1      29.518  22.723  27.452  1.00  0.00    -0.248 OA
ATOM     19  H   UNL A   1      29.430  23.728  25.328  1.00  0.00     0.165 HD
BRANCH  15  20
ATOM     20  C   UNL A   1      32.995  22.295  26.661  1.00  0.00     0.085 A 
ATOM     21  C   UNL A   1      35.371  22.604  25.213  1.00  0.00     0.122 A 
ATOM     22  C   UNL A   1      35.020  23.528  26.198  1.00  0.00     0.049 A 
ATOM     23  C   UNL A   1      34.625  21.433  25.083  1.00  0.00     0.095 A 
ATOM     24  C   UNL A   1      33.848  23.360  26.942  1.00  0.00     0.034 A 
ATOM     25  C   UNL A   1      33.467  21.256  25.849  1.00  0.00     0.146 A 
BRANCH  21  26
ATOM     26  O   UNL A   1      36.461  22.937  24.459  1.00  0.00    -0.497 OA
ATOM     27  C   UNL A   1      36.245  23.015  23.051  1.00  0.00     0.278 C 
ENDBRANCH  21  26
BRANCH  25  28
ATOM     28  O   UNL A   1      32.709  20.113  25.760  1.00  0.00    -0.494 OA
ATOM     29  C   UNL A   1      32.540  19.688  24.406  1.00  0.00     0.278 C 
ENDBRANCH  25  28
ENDBRANCH  15  20
ENDBRANCH  13  14
ENDBRANCH   8  13
ENDBRANCH   4   7
ENDBRANCH   2   3
ENDBRANCH   1   2
BRANCH   1  30
ATOM     30  C   UNL A   1      32.385  30.972  26.878  1.00  0.00     0.023 C 
BRANCH  30  31
ATOM     31  C   UNL A   1      33.446  31.919  27.410  1.00  0.00     0.116 C 
BRANCH  31  32
ATOM     32  N   UNL A   1      32.945  33.266  27.648  1.00  0.00    -0.352 N 
ATOM     33  C   UNL A   1      33.370  34.162  28.598  1.00  0.00     0.251 C 
ATOM     34  H   UNL A   1      32.215  33.568  27.060  1.00  0.00     0.163 HD
ATOM     35  O   UNL A   1      32.784  35.227  28.758  1.00  0.00    -0.269 OA
BRANCH  33  36
ATOM     36  C   UNL A   1      34.512  33.783  29.450  1.00  0.00     0.039 A 
ATOM     37  C   UNL A   1      34.277  33.001  30.581  1.00  0.00     0.014 A 
ATOM     38  C   UNL A   1      35.813  34.121  29.068  1.00  0.00     0.014 A 
ATOM     39  C   UNL A   1      35.362  32.497  31.297  1.00  0.00     0.010 A 
ATOM     40  C   UNL A   1      36.891  33.554  29.737  1.00  0.00     0.010 A 
ATOM     41  C   UNL A   1      36.674  32.738  30.857  1.00  0.00    -0.014 A 
BRANCH  41  42
ATOM     42  C   UNL A   1      37.841  32.158  31.567  1.00  0.00     0.031 A 
ATOM     43  C   UNL A   1      38.645  31.073  30.908  1.00  0.00     0.074 A 
ATOM     44  C   UNL A   1      38.128  32.560  32.820  1.00  0.00     0.049 A 
ATOM     45  N   UNL A   1      39.644  30.377  31.383  1.00  0.00    -0.248 NA
ATOM     46  C   UNL A   1      38.245  30.697  29.542  1.00  0.00     0.031 C 
ATOM     47  C   UNL A   1      37.384  33.571  33.576  1.00  0.00     0.029 A 
ATOM     48  N   UNL A   1      39.114  32.160  33.686  1.00  0.00    -0.354 N 
ATOM     49  C   UNL A   1      39.983  29.472  30.384  1.00  0.00     0.074 A 
ATOM     50  C   UNL A   1      39.038  29.664  29.305  1.00  0.00     0.031 C 
ATOM     51  C   UNL A   1      37.956  33.728  34.781  1.00  0.00     0.029 A 
ATOM     52  C   UNL A   1      39.079  32.803  34.901  1.00  0.00     0.049 A 
ATOM     53  H   UNL A   1      39.785  31.477  33.457  1.00  0.00     0.167 HD
ATOM     54  C   UNL A   1      41.005  28.581  30.359  1.00  0.00     0.034 A 
ATOM     55  C   UNL A   1      39.858  32.655  35.990  1.00  0.00     0.034 A 
ATOM     56  C   UNL A   1      41.946  28.418  31.438  1.00  0.00     0.049 A 
ATOM     57  C   UNL A   1      40.986  31.654  35.942  1.00  0.00     0.074 A 
ATOM     58  C   UNL A   1      43.051  27.588  31.503  1.00  0.00     0.029 A 
ATOM     59  N   UNL A   1      41.891  29.099  32.649  1.00  0.00    -0.354 N 
ATOM     60  N   UNL A   1      41.327  30.841  34.968  1.00  0.00    -0.248 NA
ATOM     61  C   UNL A   1      41.840  31.562  37.131  1.00  0.00     0.031 C 
ATOM     62  C   UNL A   1      43.629  27.724  32.770  1.00  0.00     0.029 A 
ATOM     63  C   UNL A   1      42.927  28.690  33.474  1.00  0.00     0.049 A 
ATOM     64  H   UNL A   1      41.214  29.774  32.886  1.00  0.00     0.167 HD
ATOM     65  C   UNL A   1      42.455  30.162  35.419  1.00  0.00     0.074 A 
ATOM     66  C   UNL A   1      42.743  30.673  36.745  1.00  0.00     0.031 C 
ATOM     67  C   UNL A   1      43.191  29.207  34.796  1.00  0.00     0.034 A 
BRANCH  54  68
ATOM     68  C   UNL A   1      41.131  27.709  29.134  1.00  0.00     0.023 A 
ATOM     69  C   UNL A   1      42.124  27.941  28.164  1.00  0.00     0.031 A 
ATOM     70  C   UNL A   1      40.226  26.657  28.910  1.00  0.00     0.131 A 
ATOM     71  C   UNL A   1      42.137  27.188  26.981  1.00  0.00     0.055 A 
ATOM     72  C   UNL A   1      40.297  25.856  27.768  1.00  0.00     0.041 A 
ATOM     73  F   UNL A   1      39.244  26.401  29.788  1.00  0.00    -0.206 F 
ATOM     74  C   UNL A   1      41.247  26.129  26.787  1.00  0.00     0.022 A 
BRANCH  71  75
ATOM     75  S   UNL A   1      43.239  27.706  25.638  1.00  0.00     0.124 S 
ATOM     76  O   UNL A   1      42.283  28.019  24.577  1.00  0.00    -0.237 OA
ATOM     77  O   UNL A   1      43.937  28.845  26.224  1.00  0.00    -0.237 OA
ATOM     78  O   UNL A   1      44.064  26.525  25.394  1.00  0.00    -0.744 OA
ENDBRANCH  71  75
ENDBRANCH  54  68
BRANCH  55  79
ATOM     79  C   UNL A   1      39.609  33.462  37.218  1.00  0.00     0.023 A 
ATOM     80  C   UNL A   1      39.036  32.880  38.360  1.00  0.00     0.031 A 
ATOM     81  C   UNL A   1      39.902  34.836  37.253  1.00  0.00     0.131 A 
ATOM     82  C   UNL A   1      38.729  33.679  39.472  1.00  0.00     0.055 A 
ATOM     83  C   UNL A   1      39.640  35.617  38.381  1.00  0.00     0.041 A 
ATOM     84  F   UNL A   1      40.459  35.439  36.191  1.00  0.00    -0.206 F 
ATOM     85  C   UNL A   1      39.036  35.042  39.494  1.00  0.00     0.022 A 
BRANCH  82  86
ATOM     86  S   UNL A   1      37.840  32.926  40.862  1.00  0.00     0.124 S 
ATOM     87  O   UNL A   1      36.490  33.443  40.668  1.00  0.00    -0.237 OA
ATOM     88  O   UNL A   1      38.026  31.502  40.604  1.00  0.00    -0.237 OA
ATOM     89  O   UNL A   1      38.543  33.441  42.035  1.00  0.00    -0.744 OA
ENDBRANCH  82  86
ENDBRANCH  55  79
BRANCH  67  90
ATOM     90  C   UNL A   1      44.404  28.693  35.530  1.00  0.00     0.023 A 
ATOM     91  C   UNL A   1      44.310  27.667  36.486  1.00  0.00     0.031 A 
ATOM     92  C   UNL A   1      45.670  29.248  35.274  1.00  0.00     0.131 A 
ATOM     93  C   UNL A   1      45.454  27.264  37.190  1.00  0.00     0.055 A 
ATOM     94  C   UNL A   1      46.814  28.803  35.936  1.00  0.00     0.041 A 
ATOM     95  F   UNL A   1      45.815  30.231  34.370  1.00  0.00    -0.206 F 
ATOM     96  C   UNL A   1      46.708  27.814  36.910  1.00  0.00     0.022 A 
BRANCH  93  97
ATOM     97  S   UNL A   1      45.268  26.067  38.540  1.00  0.00     0.124 S 
ATOM     98  O   UNL A   1      45.103  24.813  37.813  1.00  0.00    -0.237 OA
ATOM     99  O   UNL A   1      46.523  26.221  39.269  1.00  0.00    -0.237 OA
ATOM    100  O   UNL A   1      44.079  26.533  39.251  1.00  0.00    -0.744 OA
ENDBRANCH  93  97
ENDBRANCH  67  90
ENDBRANCH  41  42
ENDBRANCH  33  36
ENDBRANCH  31  32
ENDBRANCH  30  31
ENDBRANCH   1  30
TORSDOF 19
ENDMDL
MODEL 3
REMARK VINA RESULT:     -11.5      6.024     11.021
REMARK SMILES COc1ccc(NC(=O)NCc2ccc(C(=O)NCCCCNC(=O)c3ccc(-c4c5nc(c(-c6cc(S(=O)(=O)[O-])ccc6F)c6ccc([nH]6)c(-c6cc(S(=O)(=O)[O-])ccc6F)c6nc(c(-c7cc(S(=O)(=O)[O-])ccc7F)c7ccc4[nH]7)C=C6)C=C5)cc3)cc2)c(OC)c1
REMARK SMILES IDX 20 1 19 2 18 3 16 4 17 5 15 7 12 8 13 9 90 10 14 11 89 12
REMARK SMILES IDX 11 13 10 14 7 15 8 16 9 18 6 20 3 21 4 22 94 23 5 24 91 25
REMARK SMILES IDX 2 26 1 27 92 28 93 29 21 30 22 31 23 32 24 33 25 35 26 36
REMARK SMILES IDX 27 37 88 38 28 39 87 40 29 41 30 42 31 43 81 44 32 45 86 46
REMARK SMILES IDX 80 47 82 48 33 49 85 50 79 51 78 52 34 54 66 55 46 56 65 57
REMARK SMILES IDX 47 58 50 59 64 60 83 61 48 62 49 63 63 65 84 66 51 67 35 68
REMARK SMILES IDX 36 69 44 70 37 71 43 72 45 73 42 74 38 75 39 76 40 77 41 78
REMARK SMILES IDX 67 79 68 80 76 81 69 82 75 83 77 84 74 85 70 86 71 87 72 88
REMARK SMILES IDX 73 89 52 90 53 91 61 92 54 93 60 94 62 95 59 96 55 97 56 98
REMARK SMILES IDX 57 99 58 100
REMARK H PARENT 18 6 7 17 10 19 23 34 82 53 50 64
REMARK Flexibility Score: inf
ROOT
ATOM      1  C   UNL A   1      37.010  19.999  25.003  1.00  0.00     0.023 C 
ENDROOT
BRANCH   1   2
ATOM      2  C   UNL A   1      35.608  20.612  24.984  1.00  0.00     0.116 C 
BRANCH   2   3
ATOM      3  N   UNL A   1      34.620  19.579  25.201  1.00  0.00    -0.352 N 
ATOM      4  C   UNL A   1      33.253  19.619  25.133  1.00  0.00     0.251 C 
ATOM      5  O   UNL A   1      32.631  18.593  25.414  1.00  0.00    -0.269 OA
ATOM      6  H   UNL A   1      34.993  18.698  25.436  1.00  0.00     0.163 HD
BRANCH   4   7
ATOM      7  C   UNL A   1      32.502  20.810  24.646  1.00  0.00     0.039 A 
ATOM      8  C   UNL A   1      31.405  23.189  23.605  1.00  0.00    -0.029 A 
ATOM      9  C   UNL A   1      32.204  22.344  22.809  1.00  0.00     0.006 A 
ATOM     10  C   UNL A   1      31.076  22.783  24.890  1.00  0.00     0.006 A 
ATOM     11  C   UNL A   1      32.752  21.178  23.323  1.00  0.00     0.014 A 
ATOM     12  C   UNL A   1      31.605  21.588  25.394  1.00  0.00     0.014 A 
BRANCH   8  13
ATOM     13  C   UNL A   1      31.061  24.510  22.988  1.00  0.00     0.153 C 
BRANCH  13  14
ATOM     14  N   UNL A   1      31.663  24.910  21.743  1.00  0.00    -0.334 N 
ATOM     15  N   UNL A   1      33.717  25.881  22.484  1.00  0.00    -0.305 N 
ATOM     16  C   UNL A   1      32.843  25.530  21.508  1.00  0.00     0.319 C 
ATOM     17  H   UNL A   1      34.374  26.552  22.189  1.00  0.00     0.172 HD
ATOM     18  O   UNL A   1      33.081  25.882  20.348  1.00  0.00    -0.248 OA
ATOM     19  H   UNL A   1      31.136  24.701  20.939  1.00  0.00     0.165 HD
BRANCH  15  20
ATOM     20  C   UNL A   1      33.887  25.495  23.827  1.00  0.00     0.085 A 
ATOM     21  C   UNL A   1      33.669  24.447  26.413  1.00  0.00     0.122 A 
ATOM     22  C   UNL A   1      34.569  23.893  25.502  1.00  0.00     0.049 A 
ATOM     23  C   UNL A   1      33.015  25.635  26.087  1.00  0.00     0.095 A 
ATOM     24  C   UNL A   1      34.700  24.433  24.219  1.00  0.00     0.034 A 
ATOM     25  C   UNL A   1      33.170  26.188  24.810  1.00  0.00     0.146 A 
BRANCH  21  26
ATOM     26  O   UNL A   1      33.525  23.760  27.586  1.00  0.00    -0.497 OA
ATOM     27  C   UNL A   1      34.223  22.519  27.671  1.00  0.00     0.278 C 
ENDBRANCH  21  26
BRANCH  25  28
ATOM     28  O   UNL A   1      32.553  27.362  24.451  1.00  0.00    -0.494 OA
ATOM     29  C   UNL A   1      31.271  27.501  25.067  1.00  0.00     0.278 C 
ENDBRANCH  25  28
ENDBRANCH  15  20
ENDBRANCH  13  14
ENDBRANCH   8  13
ENDBRANCH   4   7
ENDBRANCH   2   3
ENDBRANCH   1   2
BRANCH   1  30
ATOM     30  C   UNL A   1      38.139  21.025  24.959  1.00  0.00     0.023 C 
BRANCH  30  31
ATOM     31  C   UNL A   1      39.117  20.928  26.118  1.00  0.00     0.116 C 
BRANCH  31  32
ATOM     32  N   UNL A   1      39.969  19.749  26.051  1.00  0.00    -0.352 N 
ATOM     33  C   UNL A   1      41.339  19.701  26.129  1.00  0.00     0.251 C 
ATOM     34  H   UNL A   1      39.509  18.886  25.935  1.00  0.00     0.163 HD
ATOM     35  O   UNL A   1      41.938  18.646  25.949  1.00  0.00    -0.269 OA
BRANCH  33  36
ATOM     36  C   UNL A   1      42.067  20.958  26.379  1.00  0.00     0.039 A 
ATOM     37  C   UNL A   1      42.366  21.790  25.299  1.00  0.00     0.014 A 
ATOM     38  C   UNL A   1      42.357  21.351  27.689  1.00  0.00     0.014 A 
ATOM     39  C   UNL A   1      42.900  23.055  25.542  1.00  0.00     0.010 A 
ATOM     40  C   UNL A   1      42.816  22.639  27.931  1.00  0.00     0.010 A 
ATOM     41  C   UNL A   1      43.092  23.502  26.860  1.00  0.00    -0.014 A 
BRANCH  41  42
ATOM     42  C   UNL A   1      43.599  24.867  27.142  1.00  0.00     0.031 A 
ATOM     43  C   UNL A   1      42.660  25.909  27.681  1.00  0.00     0.074 A 
ATOM     44  C   UNL A   1      44.876  25.180  26.848  1.00  0.00     0.049 A 
ATOM     45  N   UNL A   1      42.876  27.177  27.916  1.00  0.00    -0.248 NA
ATOM     46  C   UNL A   1      41.283  25.471  27.960  1.00  0.00     0.031 C 
ATOM     47  C   UNL A   1      45.862  24.261  26.274  1.00  0.00     0.029 A 
ATOM     48  N   UNL A   1      45.562  26.360  26.980  1.00  0.00    -0.354 N 
ATOM     49  C   UNL A   1      41.661  27.692  28.354  1.00  0.00     0.074 A 
ATOM     50  C   UNL A   1      40.698  26.613  28.287  1.00  0.00     0.031 C 
ATOM     51  C   UNL A   1      47.031  24.906  26.127  1.00  0.00     0.029 A 
ATOM     52  C   UNL A   1      46.869  26.292  26.555  1.00  0.00     0.049 A 
ATOM     53  H   UNL A   1      45.157  27.180  27.345  1.00  0.00     0.167 HD
ATOM     54  C   UNL A   1      41.381  28.943  28.796  1.00  0.00     0.034 A 
ATOM     55  C   UNL A   1      47.822  27.242  26.510  1.00  0.00     0.034 A 
ATOM     56  C   UNL A   1      42.360  29.998  28.872  1.00  0.00     0.049 A 
ATOM     57  C   UNL A   1      47.488  28.628  27.003  1.00  0.00     0.074 A 
ATOM     58  C   UNL A   1      42.206  31.286  29.353  1.00  0.00     0.029 A 
ATOM     59  N   UNL A   1      43.680  29.889  28.451  1.00  0.00    -0.354 N 
ATOM     60  N   UNL A   1      46.347  29.087  27.464  1.00  0.00    -0.248 NA
ATOM     61  C   UNL A   1      48.571  29.617  26.981  1.00  0.00     0.031 C 
ATOM     62  C   UNL A   1      43.412  31.971  29.170  1.00  0.00     0.029 A 
ATOM     63  C   UNL A   1      44.342  31.091  28.638  1.00  0.00     0.049 A 
ATOM     64  H   UNL A   1      44.085  29.074  28.073  1.00  0.00     0.167 HD
ATOM     65  C   UNL A   1      46.586  30.412  27.815  1.00  0.00     0.074 A 
ATOM     66  C   UNL A   1      47.982  30.671  27.526  1.00  0.00     0.031 C 
ATOM     67  C   UNL A   1      45.733  31.332  28.335  1.00  0.00     0.034 A 
BRANCH  54  68
ATOM     68  C   UNL A   1      39.957  29.228  29.207  1.00  0.00     0.023 A 
ATOM     69  C   UNL A   1      39.578  29.287  30.561  1.00  0.00     0.031 A 
ATOM     70  C   UNL A   1      38.956  29.404  28.236  1.00  0.00     0.131 A 
ATOM     71  C   UNL A   1      38.227  29.434  30.904  1.00  0.00     0.055 A 
ATOM     72  C   UNL A   1      37.624  29.634  28.586  1.00  0.00     0.041 A 
ATOM     73  F   UNL A   1      39.252  29.337  26.929  1.00  0.00    -0.206 F 
ATOM     74  C   UNL A   1      37.249  29.635  29.927  1.00  0.00     0.022 A 
BRANCH  71  75
ATOM     75  S   UNL A   1      37.746  29.213  32.639  1.00  0.00     0.124 S 
ATOM     76  O   UNL A   1      38.792  29.964  33.331  1.00  0.00    -0.237 OA
ATOM     77  O   UNL A   1      36.411  29.798  32.673  1.00  0.00    -0.237 OA
ATOM     78  O   UNL A   1      37.801  27.766  32.829  1.00  0.00    -0.744 OA
ENDBRANCH  71  75
ENDBRANCH  54  68
BRANCH  55  79
ATOM     79  C   UNL A   1      49.180  26.929  25.980  1.00  0.00     0.023 A 
ATOM     80  C   UNL A   1      50.249  26.657  26.850  1.00  0.00     0.031 A 
ATOM     81  C   UNL A   1      49.439  26.938  24.599  1.00  0.00     0.131 A 
ATOM     82  C   UNL A   1      51.537  26.454  26.332  1.00  0.00     0.055 A 
ATOM     83  C   UNL A   1      50.713  26.686  24.086  1.00  0.00     0.041 A 
ATOM     84  F   UNL A   1      48.451  27.184  23.724  1.00  0.00    -0.206 F 
ATOM     85  C   UNL A   1      51.774  26.456  24.955  1.00  0.00     0.022 A 
BRANCH  82  86
ATOM     86  S   UNL A   1      52.919  26.269  27.492  1.00  0.00     0.124 S 
ATOM     87  O   UNL A   1      53.686  25.194  26.872  1.00  0.00    -0.237 OA
ATOM     88  O   UNL A   1      53.525  27.596  27.454  1.00  0.00    -0.237 OA
ATOM     89  O   UNL A   1      52.263  25.922  28.751  1.00  0.00    -0.744 OA
ENDBRANCH  82  86
ENDBRANCH  55  79
BRANCH  67  90
ATOM     90  C   UNL A   1      46.309  32.686  28.664  1.00  0.00     0.023 A 
ATOM     91  C   UNL A   1      46.256  33.753  27.751  1.00  0.00     0.031 A 
ATOM     92  C   UNL A   1      46.927  32.905  29.907  1.00  0.00     0.131 A 
ATOM     93  C   UNL A   1      46.860  34.977  28.074  1.00  0.00     0.055 A 
ATOM     94  C   UNL A   1      47.475  34.143  30.246  1.00  0.00     0.041 A 
ATOM     95  F   UNL A   1      47.003  31.919  30.816  1.00  0.00    -0.206 F 
ATOM     96  C   UNL A   1      47.455  35.183  29.322  1.00  0.00     0.022 A 
BRANCH  93  97
ATOM     97  S   UNL A   1      46.932  36.273  26.808  1.00  0.00     0.124 S 
ATOM     98  O   UNL A   1      48.320  36.711  26.900  1.00  0.00    -0.237 OA
ATOM     99  O   UNL A   1      46.572  35.544  25.595  1.00  0.00    -0.237 OA
ATOM    100  O   UNL A   1      45.942  37.249  27.259  1.00  0.00    -0.744 OA
ENDBRANCH  93  97
ENDBRANCH  67  90
ENDBRANCH  41  42
ENDBRANCH  33  36
ENDBRANCH  31  32
ENDBRANCH  30  31
ENDBRANCH   1  30
TORSDOF 19
ENDMDL
