MODEL 1
REMARK VINA RESULT:     -11.7      0.000      0.000
REMARK SMILES O=C(C[NH+]1CC(c2nc(-c3cccs3)no2)C1)NCCCCNC(=O)c1ccc(-c2c3nc(c(-c4cc(S(=O)(=O)[O-])ccc4F)c4ccc([nH]4)c(-c4cc(S(=O)(=O)[O-])ccc4F)c4nc(c(-c5cc(S(=O)(=O)[O-])ccc5F)c5ccc2[nH]5)C=C4)C=C3)cc1
REMARK SMILES IDX 20 1 19 2 18 3 1 4 2 5 3 7 4 8 5 9 17 10 6 12 7 13 8 14
REMARK SMILES IDX 16 15 9 16 15 17 10 18 11 19 14 20 12 21 13 22 21 23 22 24
REMARK SMILES IDX 23 25 24 26 25 28 26 29 27 30 88 31 28 32 87 33 29 34 30 35
REMARK SMILES IDX 31 36 81 37 32 38 86 39 80 40 82 41 33 42 85 43 79 44 78 45
REMARK SMILES IDX 34 47 66 48 46 49 65 50 47 51 50 52 64 53 83 54 48 55 49 56
REMARK SMILES IDX 63 58 84 59 51 60 35 61 36 62 44 63 37 64 43 65 45 66 42 67
REMARK SMILES IDX 38 68 39 69 40 70 41 71 67 72 68 73 76 74 69 75 75 76 77 77
REMARK SMILES IDX 74 78 70 79 71 80 72 81 73 82 52 83 53 84 61 85 54 86 60 87
REMARK SMILES IDX 62 88 59 89 55 90 56 91 57 92 58 93
REMARK H PARENT 18 6 4 11 23 27 82 46 50 57
REMARK Flexibility Score: inf
ROOT
ATOM      1  C   UNL A   1      31.813  30.190  26.644  1.00  0.00     0.023 C 
ENDROOT
BRANCH   1   2
ATOM      2  C   UNL A   1      32.362  29.747  25.288  1.00  0.00     0.116 C 
BRANCH   2   3
ATOM      3  N   UNL A   1      32.041  28.369  24.981  1.00  0.00    -0.351 N 
ATOM      4  O   UNL A   1      34.045  27.861  23.986  1.00  0.00    -0.269 OA
ATOM      5  C   UNL A   1      32.930  27.512  24.368  1.00  0.00     0.275 C 
ATOM      6  H   UNL A   1      31.148  28.029  25.221  1.00  0.00     0.163 HD
BRANCH   5   7
ATOM      7  C   UNL A   1      32.396  26.097  24.114  1.00  0.00     0.363 C 
BRANCH   7   8
ATOM      8  N   UNL A   1      33.511  25.161  23.863  1.00  0.00    -0.325 N 
ATOM      9  C   UNL A   1      33.854  24.339  25.065  1.00  0.00     0.282 C 
ATOM     10  C   UNL A   1      32.969  23.905  23.267  1.00  0.00     0.282 C 
ATOM     11  H   UNL A   1      34.208  25.754  23.413  1.00  0.00     0.348 HD
ATOM     12  C   UNL A   1      34.020  23.128  24.107  1.00  0.00     0.188 C 
BRANCH  12  13
ATOM     13  C   UNL A   1      33.476  21.797  24.580  1.00  0.00     0.241 A 
ATOM     14  N   UNL A   1      34.174  20.682  24.564  1.00  0.00    -0.190 NA
ATOM     15  O   UNL A   1      32.178  21.603  24.957  1.00  0.00    -0.338 OA
ATOM     16  C   UNL A   1      33.229  19.732  24.886  1.00  0.00     0.212 A 
ATOM     17  N   UNL A   1      32.019  20.238  25.162  1.00  0.00    -0.056 NA
BRANCH  16  18
ATOM     18  C   UNL A   1      33.508  18.263  24.814  1.00  0.00     0.075 A 
ATOM     19  C   UNL A   1      34.628  17.715  24.223  1.00  0.00     0.024 A 
ATOM     20  S   UNL A   1      32.445  17.058  25.399  1.00  0.00    -0.140 S 
ATOM     21  C   UNL A   1      34.589  16.287  24.218  1.00  0.00     0.012 A 
ATOM     22  C   UNL A   1      33.447  15.801  24.813  1.00  0.00     0.065 A 
ENDBRANCH  16  18
ENDBRANCH  12  13
ENDBRANCH   7   8
ENDBRANCH   5   7
ENDBRANCH   2   3
ENDBRANCH   1   2
BRANCH   1  23
ATOM     23  C   UNL A   1      31.606  31.698  26.801  1.00  0.00     0.023 C 
BRANCH  23  24
ATOM     24  C   UNL A   1      32.822  32.485  27.282  1.00  0.00     0.116 C 
BRANCH  24  25
ATOM     25  N   UNL A   1      32.517  33.872  27.592  1.00  0.00    -0.352 N 
ATOM     26  C   UNL A   1      33.089  34.708  28.524  1.00  0.00     0.251 C 
ATOM     27  H   UNL A   1      31.794  34.272  27.056  1.00  0.00     0.163 HD
ATOM     28  O   UNL A   1      32.588  35.811  28.732  1.00  0.00    -0.269 OA
BRANCH  26  29
ATOM     29  C   UNL A   1      34.275  34.272  29.298  1.00  0.00     0.039 A 
ATOM     30  C   UNL A   1      34.081  33.649  30.535  1.00  0.00     0.014 A 
ATOM     31  C   UNL A   1      35.572  34.470  28.818  1.00  0.00     0.014 A 
ATOM     32  C   UNL A   1      35.178  33.158  31.248  1.00  0.00     0.010 A 
ATOM     33  C   UNL A   1      36.658  33.912  29.493  1.00  0.00     0.010 A 
ATOM     34  C   UNL A   1      36.474  33.244  30.714  1.00  0.00    -0.014 A 
BRANCH  34  35
ATOM     35  C   UNL A   1      37.641  32.634  31.412  1.00  0.00     0.031 A 
ATOM     36  C   UNL A   1      38.369  31.467  30.800  1.00  0.00     0.074 A 
ATOM     37  C   UNL A   1      38.010  33.094  32.625  1.00  0.00     0.049 A 
ATOM     38  N   UNL A   1      39.351  30.753  31.290  1.00  0.00    -0.248 NA
ATOM     39  C   UNL A   1      37.913  31.027  29.473  1.00  0.00     0.031 C 
ATOM     40  C   UNL A   1      37.367  34.198  33.342  1.00  0.00     0.029 A 
ATOM     41  N   UNL A   1      39.009  32.688  33.476  1.00  0.00    -0.354 N 
ATOM     42  C   UNL A   1      39.626  29.778  30.336  1.00  0.00     0.074 A 
ATOM     43  C   UNL A   1      38.662  29.954  29.272  1.00  0.00     0.031 C 
ATOM     44  C   UNL A   1      38.001  34.396  34.508  1.00  0.00     0.029 A 
ATOM     45  C   UNL A   1      39.060  33.403  34.653  1.00  0.00     0.049 A 
ATOM     46  H   UNL A   1      39.632  31.955  33.266  1.00  0.00     0.167 HD
ATOM     47  C   UNL A   1      40.606  28.839  30.339  1.00  0.00     0.034 A 
ATOM     48  C   UNL A   1      39.856  33.265  35.733  1.00  0.00     0.034 A 
ATOM     49  C   UNL A   1      41.565  28.679  31.406  1.00  0.00     0.049 A 
ATOM     50  C   UNL A   1      40.909  32.184  35.731  1.00  0.00     0.074 A 
ATOM     51  C   UNL A   1      42.623  27.790  31.487  1.00  0.00     0.029 A 
ATOM     52  N   UNL A   1      41.579  29.415  32.585  1.00  0.00    -0.354 N 
ATOM     53  N   UNL A   1      41.184  31.299  34.800  1.00  0.00    -0.248 NA
ATOM     54  C   UNL A   1      41.766  32.091  36.920  1.00  0.00     0.031 C 
ATOM     55  C   UNL A   1      43.226  27.934  32.741  1.00  0.00     0.029 A 
ATOM     56  C   UNL A   1      42.603  28.975  33.410  1.00  0.00     0.049 A 
ATOM     57  H   UNL A   1      40.951  30.142  32.802  1.00  0.00     0.167 HD
ATOM     58  C   UNL A   1      42.269  30.568  35.281  1.00  0.00     0.074 A 
ATOM     59  C   UNL A   1      42.606  31.128  36.573  1.00  0.00     0.031 C 
ATOM     60  C   UNL A   1      42.928  29.533  34.702  1.00  0.00     0.034 A 
BRANCH  47  61
ATOM     61  C   UNL A   1      40.671  27.897  29.159  1.00  0.00     0.023 A 
ATOM     62  C   UNL A   1      41.599  28.080  28.118  1.00  0.00     0.031 A 
ATOM     63  C   UNL A   1      39.786  26.808  29.064  1.00  0.00     0.131 A 
ATOM     64  C   UNL A   1      41.570  27.237  26.996  1.00  0.00     0.055 A 
ATOM     65  C   UNL A   1      39.820  25.921  27.986  1.00  0.00     0.041 A 
ATOM     66  F   UNL A   1      38.863  26.592  30.014  1.00  0.00    -0.206 F 
ATOM     67  C   UNL A   1      40.707  26.142  26.935  1.00  0.00     0.022 A 
BRANCH  64  68
ATOM     68  S   UNL A   1      42.575  27.683  25.554  1.00  0.00     0.124 S 
ATOM     69  O   UNL A   1      41.849  28.842  25.037  1.00  0.00    -0.237 OA
ATOM     70  O   UNL A   1      43.877  27.957  26.149  1.00  0.00    -0.237 OA
ATOM     71  O   UNL A   1      42.511  26.492  24.710  1.00  0.00    -0.744 OA
ENDBRANCH  64  68
ENDBRANCH  47  61
BRANCH  48  72
ATOM     72  C   UNL A   1      39.683  34.153  36.922  1.00  0.00     0.023 A 
ATOM     73  C   UNL A   1      39.134  33.665  38.118  1.00  0.00     0.031 A 
ATOM     74  C   UNL A   1      40.013  35.518  36.859  1.00  0.00     0.131 A 
ATOM     75  C   UNL A   1      38.880  34.545  39.182  1.00  0.00     0.055 A 
ATOM     76  C   UNL A   1      39.817  36.377  37.942  1.00  0.00     0.041 A 
ATOM     77  F   UNL A   1      40.541  36.039  35.740  1.00  0.00    -0.206 F 
ATOM     78  C   UNL A   1      39.233  35.894  39.109  1.00  0.00     0.022 A 
BRANCH  75  79
ATOM     79  S   UNL A   1      37.985  33.919  40.631  1.00  0.00     0.124 S 
ATOM     80  O   UNL A   1      39.053  33.266  41.380  1.00  0.00    -0.237 OA
ATOM     81  O   UNL A   1      37.452  35.148  41.211  1.00  0.00    -0.237 OA
ATOM     82  O   UNL A   1      36.988  33.020  40.053  1.00  0.00    -0.744 OA
ENDBRANCH  75  79
ENDBRANCH  48  72
BRANCH  60  83
ATOM     83  C   UNL A   1      44.119  28.971  35.445  1.00  0.00     0.023 A 
ATOM     84  C   UNL A   1      43.987  27.940  36.392  1.00  0.00     0.031 A 
ATOM     85  C   UNL A   1      45.406  29.487  35.207  1.00  0.00     0.131 A 
ATOM     86  C   UNL A   1      45.112  27.498  37.105  1.00  0.00     0.055 A 
ATOM     87  C   UNL A   1      46.531  28.997  35.872  1.00  0.00     0.041 A 
ATOM     88  F   UNL A   1      45.592  30.476  34.318  1.00  0.00    -0.206 F 
ATOM     89  C   UNL A   1      46.385  28.006  36.837  1.00  0.00     0.022 A 
BRANCH  86  90
ATOM     90  S   UNL A   1      44.873  26.318  38.464  1.00  0.00     0.124 S 
ATOM     91  O   UNL A   1      46.063  25.481  38.350  1.00  0.00    -0.237 OA
ATOM     92  O   UNL A   1      44.818  27.193  39.630  1.00  0.00    -0.237 OA
ATOM     93  O   UNL A   1      43.614  25.656  38.127  1.00  0.00    -0.744 OA
ENDBRANCH  86  90
ENDBRANCH  60  83
ENDBRANCH  34  35
ENDBRANCH  26  29
ENDBRANCH  24  25
ENDBRANCH  23  24
ENDBRANCH   1  23
TORSDOF 17
ENDMDL
MODEL 2
REMARK VINA RESULT:     -11.4      3.272      4.806
REMARK SMILES O=C(C[NH+]1CC(c2nc(-c3cccs3)no2)C1)NCCCCNC(=O)c1ccc(-c2c3nc(c(-c4cc(S(=O)(=O)[O-])ccc4F)c4ccc([nH]4)c(-c4cc(S(=O)(=O)[O-])ccc4F)c4nc(c(-c5cc(S(=O)(=O)[O-])ccc5F)c5ccc2[nH]5)C=C4)C=C3)cc1
REMARK SMILES IDX 20 1 19 2 18 3 1 4 2 5 3 7 4 8 5 9 17 10 6 12 7 13 8 14
REMARK SMILES IDX 16 15 9 16 15 17 10 18 11 19 14 20 12 21 13 22 21 23 22 24
REMARK SMILES IDX 23 25 24 26 25 28 26 29 27 30 88 31 28 32 87 33 29 34 30 35
REMARK SMILES IDX 31 36 81 37 32 38 86 39 80 40 82 41 33 42 85 43 79 44 78 45
REMARK SMILES IDX 34 47 66 48 46 49 65 50 47 51 50 52 64 53 83 54 48 55 49 56
REMARK SMILES IDX 63 58 84 59 51 60 35 61 36 62 44 63 37 64 43 65 45 66 42 67
REMARK SMILES IDX 38 68 39 69 40 70 41 71 67 72 68 73 76 74 69 75 75 76 77 77
REMARK SMILES IDX 74 78 70 79 71 80 72 81 73 82 52 83 53 84 61 85 54 86 60 87
REMARK SMILES IDX 62 88 59 89 55 90 56 91 57 92 58 93
REMARK H PARENT 18 6 4 11 23 27 82 46 50 57
REMARK Flexibility Score: inf
ROOT
ATOM      1  C   UNL A   1      31.845  30.080  26.954  1.00  0.00     0.023 C 
ENDROOT
BRANCH   1   2
ATOM      2  C   UNL A   1      33.316  29.813  26.637  1.00  0.00     0.116 C 
BRANCH   2   3
ATOM      3  N   UNL A   1      33.529  28.509  26.043  1.00  0.00    -0.351 N 
ATOM      4  O   UNL A   1      32.957  29.112  23.904  1.00  0.00    -0.269 OA
ATOM      5  C   UNL A   1      33.356  28.262  24.699  1.00  0.00     0.275 C 
ATOM      6  H   UNL A   1      33.810  27.767  26.626  1.00  0.00     0.163 HD
BRANCH   5   7
ATOM      7  C   UNL A   1      33.616  26.814  24.267  1.00  0.00     0.363 C 
BRANCH   7   8
ATOM      8  N   UNL A   1      32.362  26.032  24.296  1.00  0.00    -0.325 N 
ATOM      9  C   UNL A   1      31.267  26.728  25.040  1.00  0.00     0.282 C 
ATOM     10  C   UNL A   1      31.581  26.316  23.056  1.00  0.00     0.282 C 
ATOM     11  H   UNL A   1      32.681  25.104  24.572  1.00  0.00     0.348 HD
ATOM     12  C   UNL A   1      30.296  26.249  23.926  1.00  0.00     0.188 C 
BRANCH  12  13
ATOM     13  C   UNL A   1      29.253  27.237  23.451  1.00  0.00     0.241 A 
ATOM     14  N   UNL A   1      29.543  28.326  22.771  1.00  0.00    -0.190 NA
ATOM     15  O   UNL A   1      27.931  27.156  23.782  1.00  0.00    -0.338 OA
ATOM     16  C   UNL A   1      28.335  28.989  22.740  1.00  0.00     0.212 A 
ATOM     17  N   UNL A   1      27.327  28.314  23.308  1.00  0.00    -0.056 NA
BRANCH  16  18
ATOM     18  C   UNL A   1      28.199  30.388  22.223  1.00  0.00     0.075 A 
ATOM     19  C   UNL A   1      28.109  30.714  20.885  1.00  0.00     0.024 A 
ATOM     20  S   UNL A   1      28.199  31.779  23.217  1.00  0.00    -0.140 S 
ATOM     21  C   UNL A   1      28.080  32.127  20.677  1.00  0.00     0.012 A 
ATOM     22  C   UNL A   1      28.140  32.823  21.864  1.00  0.00     0.065 A 
ENDBRANCH  16  18
ENDBRANCH  12  13
ENDBRANCH   7   8
ENDBRANCH   5   7
ENDBRANCH   2   3
ENDBRANCH   1   2
BRANCH   1  23
ATOM     23  C   UNL A   1      31.417  31.547  26.866  1.00  0.00     0.023 C 
BRANCH  23  24
ATOM     24  C   UNL A   1      32.528  32.541  26.538  1.00  0.00     0.116 C 
BRANCH  24  25
ATOM     25  N   UNL A   1      32.378  33.811  27.229  1.00  0.00    -0.352 N 
ATOM     26  C   UNL A   1      33.085  34.317  28.296  1.00  0.00     0.251 C 
ATOM     27  H   UNL A   1      31.666  34.396  26.883  1.00  0.00     0.163 HD
ATOM     28  O   UNL A   1      32.707  35.356  28.831  1.00  0.00    -0.269 OA
BRANCH  26  29
ATOM     29  C   UNL A   1      34.270  33.598  28.822  1.00  0.00     0.039 A 
ATOM     30  C   UNL A   1      35.539  34.146  28.611  1.00  0.00     0.014 A 
ATOM     31  C   UNL A   1      34.143  32.394  29.519  1.00  0.00     0.014 A 
ATOM     32  C   UNL A   1      36.666  33.531  29.164  1.00  0.00     0.010 A 
ATOM     33  C   UNL A   1      35.258  31.824  30.134  1.00  0.00     0.010 A 
ATOM     34  C   UNL A   1      36.533  32.389  29.969  1.00  0.00    -0.014 A 
BRANCH  34  35
ATOM     35  C   UNL A   1      37.709  31.780  30.651  1.00  0.00     0.031 A 
ATOM     36  C   UNL A   1      38.544  30.742  29.949  1.00  0.00     0.074 A 
ATOM     37  C   UNL A   1      37.994  32.120  31.925  1.00  0.00     0.049 A 
ATOM     38  N   UNL A   1      39.553  30.043  30.404  1.00  0.00    -0.248 NA
ATOM     39  C   UNL A   1      38.177  30.430  28.560  1.00  0.00     0.031 C 
ATOM     40  C   UNL A   1      37.243  33.088  32.728  1.00  0.00     0.029 A 
ATOM     41  N   UNL A   1      38.982  31.685  32.774  1.00  0.00    -0.354 N 
ATOM     42  C   UNL A   1      39.937  29.205  29.362  1.00  0.00     0.074 A 
ATOM     43  C   UNL A   1      39.009  29.439  28.276  1.00  0.00     0.031 C 
ATOM     44  C   UNL A   1      37.812  33.191  33.940  1.00  0.00     0.029 A 
ATOM     45  C   UNL A   1      38.932  32.261  34.025  1.00  0.00     0.049 A 
ATOM     46  H   UNL A   1      39.663  31.024  32.514  1.00  0.00     0.167 HD
ATOM     47  C   UNL A   1      40.980  28.339  29.308  1.00  0.00     0.034 A 
ATOM     48  C   UNL A   1      39.689  32.051  35.122  1.00  0.00     0.034 A 
ATOM     49  C   UNL A   1      41.902  28.120  30.397  1.00  0.00     0.049 A 
ATOM     50  C   UNL A   1      40.816  31.050  35.051  1.00  0.00     0.074 A 
ATOM     51  C   UNL A   1      43.016  27.299  30.430  1.00  0.00     0.029 A 
ATOM     52  N   UNL A   1      41.813  28.713  31.650  1.00  0.00    -0.354 N 
ATOM     53  N   UNL A   1      41.192  30.298  34.041  1.00  0.00    -0.248 NA
ATOM     54  C   UNL A   1      41.626  30.876  36.263  1.00  0.00     0.031 C 
ATOM     55  C   UNL A   1      43.554  27.336  31.721  1.00  0.00     0.029 A 
ATOM     56  C   UNL A   1      42.831  28.250  32.471  1.00  0.00     0.049 A 
ATOM     57  H   UNL A   1      41.127  29.367  31.916  1.00  0.00     0.167 HD
ATOM     58  C   UNL A   1      42.305  29.590  34.490  1.00  0.00     0.074 A 
ATOM     59  C   UNL A   1      42.546  30.017  35.853  1.00  0.00     0.031 C 
ATOM     60  C   UNL A   1      43.061  28.674  33.832  1.00  0.00     0.034 A 
BRANCH  47  61
ATOM     61  C   UNL A   1      41.162  27.546  28.034  1.00  0.00     0.023 A 
ATOM     62  C   UNL A   1      40.809  26.187  27.952  1.00  0.00     0.031 A 
ATOM     63  C   UNL A   1      41.712  28.150  26.889  1.00  0.00     0.131 A 
ATOM     64  C   UNL A   1      41.077  25.462  26.781  1.00  0.00     0.055 A 
ATOM     65  C   UNL A   1      41.895  27.444  25.698  1.00  0.00     0.041 A 
ATOM     66  F   UNL A   1      42.090  29.438  26.910  1.00  0.00    -0.206 F 
ATOM     67  C   UNL A   1      41.591  26.087  25.644  1.00  0.00     0.022 A 
BRANCH  64  68
ATOM     68  S   UNL A   1      40.881  23.659  26.817  1.00  0.00     0.124 S 
ATOM     69  O   UNL A   1      41.817  23.241  25.775  1.00  0.00    -0.237 OA
ATOM     70  O   UNL A   1      41.258  23.327  28.186  1.00  0.00    -0.237 OA
ATOM     71  O   UNL A   1      39.470  23.461  26.492  1.00  0.00    -0.744 OA
ENDBRANCH  64  68
ENDBRANCH  47  61
BRANCH  48  72
ATOM     72  C   UNL A   1      39.403  32.782  36.392  1.00  0.00     0.023 A 
ATOM     73  C   UNL A   1      38.538  32.245  37.359  1.00  0.00     0.031 A 
ATOM     74  C   UNL A   1      39.948  34.055  36.634  1.00  0.00     0.131 A 
ATOM     75  C   UNL A   1      38.200  33.001  38.493  1.00  0.00     0.055 A 
ATOM     76  C   UNL A   1      39.658  34.777  37.793  1.00  0.00     0.041 A 
ATOM     77  F   UNL A   1      40.783  34.617  35.743  1.00  0.00    -0.206 F 
ATOM     78  C   UNL A   1      38.767  34.255  38.725  1.00  0.00     0.022 A 
BRANCH  75  79
ATOM     79  S   UNL A   1      36.925  32.361  39.614  1.00  0.00     0.124 S 
ATOM     80  O   UNL A   1      37.233  33.071  40.850  1.00  0.00    -0.237 OA
ATOM     81  O   UNL A   1      35.696  32.759  38.933  1.00  0.00    -0.237 OA
ATOM     82  O   UNL A   1      37.185  30.923  39.638  1.00  0.00    -0.744 OA
ENDBRANCH  75  79
ENDBRANCH  48  72
BRANCH  60  83
ATOM     83  C   UNL A   1      44.255  28.110  34.566  1.00  0.00     0.023 A 
ATOM     84  C   UNL A   1      44.175  26.927  35.322  1.00  0.00     0.031 A 
ATOM     85  C   UNL A   1      45.493  28.776  34.514  1.00  0.00     0.131 A 
ATOM     86  C   UNL A   1      45.294  26.479  36.041  1.00  0.00     0.055 A 
ATOM     87  C   UNL A   1      46.621  28.289  35.178  1.00  0.00     0.041 A 
ATOM     88  F   UNL A   1      45.629  29.913  33.814  1.00  0.00    -0.206 F 
ATOM     89  C   UNL A   1      46.521  27.142  35.958  1.00  0.00     0.022 A 
BRANCH  86  90
ATOM     90  S   UNL A   1      45.097  25.071  37.170  1.00  0.00     0.124 S 
ATOM     91  O   UNL A   1      46.209  25.268  38.094  1.00  0.00    -0.237 OA
ATOM     92  O   UNL A   1      43.764  25.296  37.718  1.00  0.00    -0.237 OA
ATOM     93  O   UNL A   1      45.218  23.908  36.293  1.00  0.00    -0.744 OA
ENDBRANCH  86  90
ENDBRANCH  60  83
ENDBRANCH  34  35
ENDBRANCH  26  29
ENDBRANCH  24  25
ENDBRANCH  23  24
ENDBRANCH   1  23
TORSDOF 17
ENDMDL
MODEL 3
REMARK VINA RESULT:     -11.4      2.762      3.436
REMARK SMILES O=C(C[NH+]1CC(c2nc(-c3cccs3)no2)C1)NCCCCNC(=O)c1ccc(-c2c3nc(c(-c4cc(S(=O)(=O)[O-])ccc4F)c4ccc([nH]4)c(-c4cc(S(=O)(=O)[O-])ccc4F)c4nc(c(-c5cc(S(=O)(=O)[O-])ccc5F)c5ccc2[nH]5)C=C4)C=C3)cc1
REMARK SMILES IDX 20 1 19 2 18 3 1 4 2 5 3 7 4 8 5 9 17 10 6 12 7 13 8 14
REMARK SMILES IDX 16 15 9 16 15 17 10 18 11 19 14 20 12 21 13 22 21 23 22 24
REMARK SMILES IDX 23 25 24 26 25 28 26 29 27 30 88 31 28 32 87 33 29 34 30 35
REMARK SMILES IDX 31 36 81 37 32 38 86 39 80 40 82 41 33 42 85 43 79 44 78 45
REMARK SMILES IDX 34 47 66 48 46 49 65 50 47 51 50 52 64 53 83 54 48 55 49 56
REMARK SMILES IDX 63 58 84 59 51 60 35 61 36 62 44 63 37 64 43 65 45 66 42 67
REMARK SMILES IDX 38 68 39 69 40 70 41 71 67 72 68 73 76 74 69 75 75 76 77 77
REMARK SMILES IDX 74 78 70 79 71 80 72 81 73 82 52 83 53 84 61 85 54 86 60 87
REMARK SMILES IDX 62 88 59 89 55 90 56 91 57 92 58 93
REMARK H PARENT 18 6 4 11 23 27 82 46 50 57
REMARK Flexibility Score: inf
ROOT
ATOM      1  C   UNL A   1      30.785  29.186  24.125  1.00  0.00     0.023 C 
ENDROOT
BRANCH   1   2
ATOM      2  C   UNL A   1      31.332  28.809  22.749  1.00  0.00     0.116 C 
BRANCH   2   3
ATOM      3  N   UNL A   1      31.475  27.378  22.580  1.00  0.00    -0.351 N 
ATOM      4  O   UNL A   1      33.714  27.408  22.079  1.00  0.00    -0.269 OA
ATOM      5  C   UNL A   1      32.678  26.776  22.280  1.00  0.00     0.275 C 
ATOM      6  H   UNL A   1      30.678  26.810  22.684  1.00  0.00     0.163 HD
BRANCH   5   7
ATOM      7  C   UNL A   1      32.621  25.252  22.126  1.00  0.00     0.363 C 
BRANCH   7   8
ATOM      8  N   UNL A   1      33.760  24.618  22.820  1.00  0.00    -0.325 N 
ATOM      9  C   UNL A   1      33.440  24.252  24.235  1.00  0.00     0.282 C 
ATOM     10  C   UNL A   1      33.755  23.154  22.531  1.00  0.00     0.282 C 
ATOM     11  H   UNL A   1      34.535  25.243  22.599  1.00  0.00     0.348 HD
ATOM     12  C   UNL A   1      34.217  22.928  23.997  1.00  0.00     0.188 C 
BRANCH  12  13
ATOM     13  C   UNL A   1      33.618  21.665  24.578  1.00  0.00     0.241 A 
ATOM     14  N   UNL A   1      34.239  20.505  24.587  1.00  0.00    -0.190 NA
ATOM     15  O   UNL A   1      32.335  21.581  25.039  1.00  0.00    -0.338 OA
ATOM     16  C   UNL A   1      33.256  19.641  25.018  1.00  0.00     0.212 A 
ATOM     17  N   UNL A   1      32.101  20.244  25.332  1.00  0.00    -0.056 NA
BRANCH  16  18
ATOM     18  C   UNL A   1      33.433  18.155  25.017  1.00  0.00     0.075 A 
ATOM     19  C   UNL A   1      32.451  17.257  25.382  1.00  0.00     0.024 A 
ATOM     20  S   UNL A   1      34.899  17.367  24.623  1.00  0.00    -0.140 S 
ATOM     21  C   UNL A   1      32.924  15.910  25.374  1.00  0.00     0.012 A 
ATOM     22  C   UNL A   1      34.245  15.830  24.996  1.00  0.00     0.065 A 
ENDBRANCH  16  18
ENDBRANCH  12  13
ENDBRANCH   7   8
ENDBRANCH   5   7
ENDBRANCH   2   3
ENDBRANCH   1   2
BRANCH   1  23
ATOM     23  C   UNL A   1      31.597  28.665  25.313  1.00  0.00     0.023 C 
BRANCH  23  24
ATOM     24  C   UNL A   1      32.816  29.500  25.697  1.00  0.00     0.116 C 
BRANCH  24  25
ATOM     25  N   UNL A   1      32.472  30.847  26.121  1.00  0.00    -0.352 N 
ATOM     26  C   UNL A   1      33.091  31.660  27.043  1.00  0.00     0.251 C 
ATOM     27  H   UNL A   1      31.680  31.236  25.683  1.00  0.00     0.163 HD
ATOM     28  O   UNL A   1      32.558  32.719  27.367  1.00  0.00    -0.269 OA
BRANCH  26  29
ATOM     29  C   UNL A   1      34.370  31.249  27.670  1.00  0.00     0.039 A 
ATOM     30  C   UNL A   1      35.343  32.223  27.917  1.00  0.00     0.014 A 
ATOM     31  C   UNL A   1      34.618  29.919  28.017  1.00  0.00     0.014 A 
ATOM     32  C   UNL A   1      36.524  31.876  28.579  1.00  0.00     0.010 A 
ATOM     33  C   UNL A   1      35.761  29.590  28.745  1.00  0.00     0.010 A 
ATOM     34  C   UNL A   1      36.726  30.566  29.040  1.00  0.00    -0.014 A 
BRANCH  34  35
ATOM     35  C   UNL A   1      37.932  30.203  29.837  1.00  0.00     0.031 A 
ATOM     36  C   UNL A   1      38.935  29.219  29.296  1.00  0.00     0.074 A 
ATOM     37  C   UNL A   1      38.095  30.716  31.075  1.00  0.00     0.049 A 
ATOM     38  N   UNL A   1      39.999  28.719  29.872  1.00  0.00    -0.248 NA
ATOM     39  C   UNL A   1      38.693  28.710  27.938  1.00  0.00     0.031 C 
ATOM     40  C   UNL A   1      37.178  31.653  31.727  1.00  0.00     0.029 A 
ATOM     41  N   UNL A   1      39.081  30.516  32.010  1.00  0.00    -0.354 N 
ATOM     42  C   UNL A   1      40.550  27.832  28.951  1.00  0.00     0.074 A 
ATOM     43  C   UNL A   1      39.663  27.817  27.808  1.00  0.00     0.031 C 
ATOM     44  C   UNL A   1      37.658  31.965  32.942  1.00  0.00     0.029 A 
ATOM     45  C   UNL A   1      38.884  31.212  33.182  1.00  0.00     0.049 A 
ATOM     46  H   UNL A   1      39.857  29.930  31.857  1.00  0.00     0.167 HD
ATOM     47  C   UNL A   1      41.699  27.117  29.043  1.00  0.00     0.034 A 
ATOM     48  C   UNL A   1      39.597  31.229  34.327  1.00  0.00     0.034 A 
ATOM     49  C   UNL A   1      42.577  27.147  30.188  1.00  0.00     0.049 A 
ATOM     50  C   UNL A   1      40.848  30.390  34.420  1.00  0.00     0.074 A 
ATOM     51  C   UNL A   1      43.786  26.496  30.363  1.00  0.00     0.029 A 
ATOM     52  N   UNL A   1      42.339  27.856  31.359  1.00  0.00    -0.354 N 
ATOM     53  N   UNL A   1      41.377  29.592  33.522  1.00  0.00    -0.248 NA
ATOM     54  C   UNL A   1      41.603  30.463  35.678  1.00  0.00     0.031 C 
ATOM     55  C   UNL A   1      44.239  26.747  31.663  1.00  0.00     0.029 A 
ATOM     56  C   UNL A   1      43.360  27.629  32.270  1.00  0.00     0.049 A 
ATOM     57  H   UNL A   1      41.559  28.435  31.518  1.00  0.00     0.167 HD
ATOM     58  C   UNL A   1      42.546  29.096  34.097  1.00  0.00     0.074 A 
ATOM     59  C   UNL A   1      42.650  29.698  35.409  1.00  0.00     0.031 C 
ATOM     60  C   UNL A   1      43.452  28.227  33.582  1.00  0.00     0.034 A 
BRANCH  47  61
ATOM     61  C   UNL A   1      42.058  26.223  27.878  1.00  0.00     0.023 A 
ATOM     62  C   UNL A   1      41.586  24.900  27.789  1.00  0.00     0.031 A 
ATOM     63  C   UNL A   1      42.895  26.690  26.850  1.00  0.00     0.131 A 
ATOM     64  C   UNL A   1      42.013  24.073  26.740  1.00  0.00     0.055 A 
ATOM     65  C   UNL A   1      43.247  25.888  25.762  1.00  0.00     0.041 A 
ATOM     66  F   UNL A   1      43.396  27.935  26.888  1.00  0.00    -0.206 F 
ATOM     67  C   UNL A   1      42.817  24.565  25.710  1.00  0.00     0.022 A 
BRANCH  64  68
ATOM     68  S   UNL A   1      41.623  22.304  26.821  1.00  0.00     0.124 S 
ATOM     69  O   UNL A   1      40.185  22.331  27.080  1.00  0.00    -0.237 OA
ATOM     70  O   UNL A   1      42.026  21.830  25.502  1.00  0.00    -0.237 OA
ATOM     71  O   UNL A   1      42.439  21.823  27.934  1.00  0.00    -0.744 OA
ENDBRANCH  64  68
ENDBRANCH  47  61
BRANCH  48  72
ATOM     72  C   UNL A   1      39.144  32.048  35.491  1.00  0.00     0.023 A 
ATOM     73  C   UNL A   1      39.597  33.364  35.672  1.00  0.00     0.031 A 
ATOM     74  C   UNL A   1      38.291  31.506  36.469  1.00  0.00     0.131 A 
ATOM     75  C   UNL A   1      39.243  34.073  36.831  1.00  0.00     0.055 A 
ATOM     76  C   UNL A   1      37.891  32.238  37.589  1.00  0.00     0.041 A 
ATOM     77  F   UNL A   1      37.826  30.252  36.346  1.00  0.00    -0.206 F 
ATOM     78  C   UNL A   1      38.381  33.526  37.782  1.00  0.00     0.022 A 
BRANCH  75  79
ATOM     79  S   UNL A   1      40.012  35.690  37.128  1.00  0.00     0.124 S 
ATOM     80  O   UNL A   1      39.328  36.124  38.340  1.00  0.00    -0.237 OA
ATOM     81  O   UNL A   1      41.420  35.333  37.277  1.00  0.00    -0.237 OA
ATOM     82  O   UNL A   1      39.687  36.448  35.921  1.00  0.00    -0.744 OA
ENDBRANCH  75  79
ENDBRANCH  48  72
BRANCH  60  83
ATOM     83  C   UNL A   1      44.667  27.915  34.426  1.00  0.00     0.023 A 
ATOM     84  C   UNL A   1      45.830  28.703  34.378  1.00  0.00     0.031 A 
ATOM     85  C   UNL A   1      44.660  26.802  35.286  1.00  0.00     0.131 A 
ATOM     86  C   UNL A   1      46.956  28.334  35.129  1.00  0.00     0.055 A 
ATOM     87  C   UNL A   1      45.760  26.478  36.082  1.00  0.00     0.041 A 
ATOM     88  F   UNL A   1      43.579  26.009  35.370  1.00  0.00    -0.206 F 
ATOM     89  C   UNL A   1      46.922  27.238  35.995  1.00  0.00     0.022 A 
BRANCH  86  90
ATOM     90  S   UNL A   1      48.505  29.248  34.884  1.00  0.00     0.124 S 
ATOM     91  O   UNL A   1      48.222  30.002  33.668  1.00  0.00    -0.237 OA
ATOM     92  O   UNL A   1      48.603  30.030  36.111  1.00  0.00    -0.237 OA
ATOM     93  O   UNL A   1      49.507  28.192  34.741  1.00  0.00    -0.744 OA
ENDBRANCH  86  90
ENDBRANCH  60  83
ENDBRANCH  34  35
ENDBRANCH  26  29
ENDBRANCH  24  25
ENDBRANCH  23  24
ENDBRANCH   1  23
TORSDOF 17
ENDMDL
