MODEL 1
REMARK VINA RESULT:     -11.0      0.000      0.000
REMARK SMILES CCCc1noc(C2C[NH+](CC(=O)NCCCCNC(=O)c3ccc(-c4c5nc(c(-c6cc(S(=O)(=O)[O-])ccc6F)c6ccc([nH]6)c(-c6cc(S(=O)(=O)[O-])ccc6F)c6nc(c(-c7cc(S(=O)(=O)[O-])ccc7F)c7ccc4[nH]7)C=C6)C=C5)cc3)C2)n1
REMARK SMILES IDX 16 1 15 2 14 3 12 4 13 5 11 7 10 8 8 9 9 10 85 11 7 13 4 14
REMARK SMILES IDX 5 15 86 16 6 17 3 18 2 19 1 20 17 21 18 22 19 23 20 24 21 26
REMARK SMILES IDX 22 27 23 28 84 29 24 30 83 31 25 32 26 33 27 34 77 35 28 36
REMARK SMILES IDX 82 37 76 38 78 39 29 40 81 41 75 42 74 43 30 45 62 46 42 47
REMARK SMILES IDX 61 48 43 49 46 50 60 51 79 52 44 53 45 54 59 56 80 57 47 58
REMARK SMILES IDX 31 59 32 60 40 61 33 62 39 63 41 64 38 65 34 66 35 67 36 68
REMARK SMILES IDX 37 69 63 70 64 71 72 72 65 73 71 74 73 75 70 76 66 77 67 78
REMARK SMILES IDX 68 79 69 80 48 81 49 82 57 83 50 84 56 85 58 86 55 87 51 88
REMARK SMILES IDX 52 89 53 90 54 91
REMARK H PARENT 14 6 10 12 19 25 78 44 46 55
REMARK Flexibility Score: inf
ROOT
ATOM      1  C   UNL A   1      35.984  23.455  23.576  1.00  0.00     0.023 C 
ENDROOT
BRANCH   1   2
ATOM      2  C   UNL A   1      34.514  23.407  23.144  1.00  0.00     0.116 C 
BRANCH   2   3
ATOM      3  N   UNL A   1      33.705  24.472  23.717  1.00  0.00    -0.351 N 
ATOM      4  C   UNL A   1      33.326  24.725  25.007  1.00  0.00     0.275 C 
ATOM      5  O   UNL A   1      32.604  25.708  25.199  1.00  0.00    -0.269 OA
ATOM      6  H   UNL A   1      33.371  25.124  23.060  1.00  0.00     0.163 HD
BRANCH   4   7
ATOM      7  C   UNL A   1      33.739  23.815  26.172  1.00  0.00     0.363 C 
BRANCH   7   8
ATOM      8  N   UNL A   1      32.772  22.792  26.670  1.00  0.00    -0.325 N 
ATOM      9  C   UNL A   1      32.958  21.129  25.361  1.00  0.00     0.188 C 
ATOM     10  C   UNL A   1      31.870  22.180  25.646  1.00  0.00     0.282 C 
ATOM     11  C   UNL A   1      33.389  21.457  26.820  1.00  0.00     0.282 C 
ATOM     12  H   UNL A   1      32.378  23.323  27.447  1.00  0.00     0.348 HD
BRANCH   9  13
ATOM     13  C   UNL A   1      32.621  19.688  25.101  1.00  0.00     0.241 A 
ATOM     14  C   UNL A   1      32.533  17.596  25.131  1.00  0.00     0.171 A 
ATOM     15  N   UNL A   1      32.438  17.887  23.831  1.00  0.00    -0.062 NA
ATOM     16  N   UNL A   1      32.643  18.690  25.961  1.00  0.00    -0.196 NA
ATOM     17  O   UNL A   1      32.462  19.267  23.808  1.00  0.00    -0.339 OA
BRANCH  14  18
ATOM     18  C   UNL A   1      32.618  16.194  25.610  1.00  0.00     0.081 C 
BRANCH  18  19
ATOM     19  C   UNL A   1      33.784  15.398  25.019  1.00  0.00     0.005 C 
ATOM     20  C   UNL A   1      35.156  16.000  25.301  1.00  0.00     0.004 C 
ENDBRANCH  18  19
ENDBRANCH  14  18
ENDBRANCH   9  13
ENDBRANCH   7   8
ENDBRANCH   4   7
ENDBRANCH   2   3
ENDBRANCH   1   2
BRANCH   1  21
ATOM     21  C   UNL A   1      36.618  22.122  23.962  1.00  0.00     0.023 C 
BRANCH  21  22
ATOM     22  C   UNL A   1      36.917  21.976  25.445  1.00  0.00     0.116 C 
BRANCH  22  23
ATOM     23  N   UNL A   1      37.917  20.953  25.718  1.00  0.00    -0.352 N 
ATOM     24  C   UNL A   1      39.205  21.091  26.185  1.00  0.00     0.251 C 
ATOM     25  H   UNL A   1      37.629  20.027  25.545  1.00  0.00     0.163 HD
ATOM     26  O   UNL A   1      39.947  20.123  26.211  1.00  0.00    -0.269 OA
BRANCH  24  27
ATOM     27  C   UNL A   1      39.678  22.423  26.618  1.00  0.00     0.039 A 
ATOM     28  C   UNL A   1      40.700  22.503  27.567  1.00  0.00     0.014 A 
ATOM     29  C   UNL A   1      39.132  23.585  26.068  1.00  0.00     0.014 A 
ATOM     30  C   UNL A   1      41.223  23.752  27.910  1.00  0.00     0.010 A 
ATOM     31  C   UNL A   1      39.715  24.815  26.339  1.00  0.00     0.010 A 
ATOM     32  C   UNL A   1      40.759  24.913  27.271  1.00  0.00    -0.014 A 
BRANCH  32  33
ATOM     33  C   UNL A   1      41.322  26.251  27.578  1.00  0.00     0.031 A 
ATOM     34  C   UNL A   1      42.713  26.593  27.114  1.00  0.00     0.074 A 
ATOM     35  C   UNL A   1      40.622  27.115  28.339  1.00  0.00     0.049 A 
ATOM     36  N   UNL A   1      43.441  27.645  27.380  1.00  0.00    -0.248 NA
ATOM     37  C   UNL A   1      43.388  25.590  26.276  1.00  0.00     0.031 C 
ATOM     38  C   UNL A   1      39.285  26.871  28.886  1.00  0.00     0.029 A 
ATOM     39  N   UNL A   1      40.942  28.368  28.796  1.00  0.00    -0.354 N 
ATOM     40  C   UNL A   1      44.668  27.420  26.764  1.00  0.00     0.074 A 
ATOM     41  C   UNL A   1      44.604  26.101  26.172  1.00  0.00     0.031 C 
ATOM     42  C   UNL A   1      38.892  27.949  29.583  1.00  0.00     0.029 A 
ATOM     43  C   UNL A   1      39.962  28.941  29.572  1.00  0.00     0.049 A 
ATOM     44  H   UNL A   1      41.794  28.815  28.588  1.00  0.00     0.167 HD
ATOM     45  C   UNL A   1      45.737  28.248  26.677  1.00  0.00     0.034 A 
ATOM     46  C   UNL A   1      39.938  30.127  30.212  1.00  0.00     0.034 A 
ATOM     47  C   UNL A   1      45.766  29.571  27.249  1.00  0.00     0.049 A 
ATOM     48  C   UNL A   1      41.136  31.034  30.099  1.00  0.00     0.074 A 
ATOM     49  C   UNL A   1      46.767  30.525  27.172  1.00  0.00     0.029 A 
ATOM     50  N   UNL A   1      44.745  30.130  28.008  1.00  0.00    -0.354 N 
ATOM     51  N   UNL A   1      42.273  30.828  29.472  1.00  0.00    -0.248 NA
ATOM     52  C   UNL A   1      41.045  32.337  30.769  1.00  0.00     0.031 C 
ATOM     53  C   UNL A   1      46.375  31.633  27.932  1.00  0.00     0.029 A 
ATOM     54  C   UNL A   1      45.101  31.403  28.425  1.00  0.00     0.049 A 
ATOM     55  H   UNL A   1      43.891  29.685  28.219  1.00  0.00     0.167 HD
ATOM     56  C   UNL A   1      43.019  31.989  29.650  1.00  0.00     0.074 A 
ATOM     57  C   UNL A   1      42.197  32.895  30.428  1.00  0.00     0.031 C 
ATOM     58  C   UNL A   1      44.268  32.285  29.210  1.00  0.00     0.034 A 
BRANCH  45  59
ATOM     59  C   UNL A   1      46.957  27.730  25.953  1.00  0.00     0.023 A 
ATOM     60  C   UNL A   1      47.214  28.057  24.610  1.00  0.00     0.031 A 
ATOM     61  C   UNL A   1      47.853  26.859  26.599  1.00  0.00     0.131 A 
ATOM     62  C   UNL A   1      48.279  27.448  23.930  1.00  0.00     0.055 A 
ATOM     63  C   UNL A   1      48.965  26.327  25.942  1.00  0.00     0.041 A 
ATOM     64  F   UNL A   1      47.653  26.494  27.875  1.00  0.00    -0.206 F 
ATOM     65  C   UNL A   1      49.173  26.605  24.594  1.00  0.00     0.022 A 
BRANCH  62  66
ATOM     66  S   UNL A   1      48.384  27.650  22.130  1.00  0.00     0.124 S 
ATOM     67  O   UNL A   1      47.085  28.246  21.826  1.00  0.00    -0.237 OA
ATOM     68  O   UNL A   1      49.540  28.525  21.978  1.00  0.00    -0.237 OA
ATOM     69  O   UNL A   1      48.565  26.284  21.642  1.00  0.00    -0.744 OA
ENDBRANCH  62  66
ENDBRANCH  45  59
BRANCH  46  70
ATOM     70  C   UNL A   1      38.749  30.528  31.017  1.00  0.00     0.023 A 
ATOM     71  C   UNL A   1      37.665  31.190  30.420  1.00  0.00     0.031 A 
ATOM     72  C   UNL A   1      38.695  30.290  32.402  1.00  0.00     0.131 A 
ATOM     73  C   UNL A   1      36.593  31.633  31.210  1.00  0.00     0.055 A 
ATOM     74  C   UNL A   1      37.604  30.688  33.176  1.00  0.00     0.041 A 
ATOM     75  F   UNL A   1      39.702  29.653  33.021  1.00  0.00    -0.206 F 
ATOM     76  C   UNL A   1      36.550  31.375  32.583  1.00  0.00     0.022 A 
BRANCH  73  77
ATOM     77  S   UNL A   1      35.289  32.622  30.430  1.00  0.00     0.124 S 
ATOM     78  O   UNL A   1      34.288  32.684  31.488  1.00  0.00    -0.237 OA
ATOM     79  O   UNL A   1      35.990  33.869  30.137  1.00  0.00    -0.237 OA
ATOM     80  O   UNL A   1      34.914  31.831  29.260  1.00  0.00    -0.744 OA
ENDBRANCH  73  77
ENDBRANCH  46  70
BRANCH  58  81
ATOM     81  C   UNL A   1      44.795  33.661  29.527  1.00  0.00     0.023 A 
ATOM     82  C   UNL A   1      44.692  34.721  28.611  1.00  0.00     0.031 A 
ATOM     83  C   UNL A   1      45.420  33.910  30.763  1.00  0.00     0.131 A 
ATOM     84  C   UNL A   1      45.254  35.968  28.921  1.00  0.00     0.055 A 
ATOM     85  C   UNL A   1      45.925  35.168  31.089  1.00  0.00     0.041 A 
ATOM     86  F   UNL A   1      45.546  32.931  31.674  1.00  0.00    -0.206 F 
ATOM     87  C   UNL A   1      45.855  36.203  30.161  1.00  0.00     0.022 A 
BRANCH  84  88
ATOM     88  S   UNL A   1      45.266  37.259  27.648  1.00  0.00     0.124 S 
ATOM     89  O   UNL A   1      43.887  37.228  27.171  1.00  0.00    -0.237 OA
ATOM     90  O   UNL A   1      45.650  38.445  28.408  1.00  0.00    -0.237 OA
ATOM     91  O   UNL A   1      46.264  36.789  26.691  1.00  0.00    -0.744 OA
ENDBRANCH  84  88
ENDBRANCH  58  81
ENDBRANCH  32  33
ENDBRANCH  24  27
ENDBRANCH  22  23
ENDBRANCH  21  22
ENDBRANCH   1  21
TORSDOF 18
ENDMDL
MODEL 2
REMARK VINA RESULT:     -10.9      5.821      8.646
REMARK SMILES CCCc1noc(C2C[NH+](CC(=O)NCCCCNC(=O)c3ccc(-c4c5nc(c(-c6cc(S(=O)(=O)[O-])ccc6F)c6ccc([nH]6)c(-c6cc(S(=O)(=O)[O-])ccc6F)c6nc(c(-c7cc(S(=O)(=O)[O-])ccc7F)c7ccc4[nH]7)C=C6)C=C5)cc3)C2)n1
REMARK SMILES IDX 16 1 15 2 14 3 12 4 13 5 11 7 10 8 8 9 9 10 85 11 7 13 4 14
REMARK SMILES IDX 5 15 86 16 6 17 3 18 2 19 1 20 17 21 18 22 19 23 20 24 21 26
REMARK SMILES IDX 22 27 23 28 84 29 24 30 83 31 25 32 26 33 27 34 77 35 28 36
REMARK SMILES IDX 82 37 76 38 78 39 29 40 81 41 75 42 74 43 30 45 62 46 42 47
REMARK SMILES IDX 61 48 43 49 46 50 60 51 79 52 44 53 45 54 59 56 80 57 47 58
REMARK SMILES IDX 31 59 32 60 40 61 33 62 39 63 41 64 38 65 34 66 35 67 36 68
REMARK SMILES IDX 37 69 63 70 64 71 72 72 65 73 71 74 73 75 70 76 66 77 67 78
REMARK SMILES IDX 68 79 69 80 48 81 49 82 57 83 50 84 56 85 58 86 55 87 51 88
REMARK SMILES IDX 52 89 53 90 54 91
REMARK H PARENT 14 6 10 12 19 25 78 44 46 55
REMARK Flexibility Score: inf
ROOT
ATOM      1  C   UNL A   1      31.327  31.039  25.737  1.00  0.00     0.023 C 
ENDROOT
BRANCH   1   2
ATOM      2  C   UNL A   1      31.364  29.674  25.041  1.00  0.00     0.116 C 
BRANCH   2   3
ATOM      3  N   UNL A   1      30.833  29.697  23.687  1.00  0.00    -0.351 N 
ATOM      4  C   UNL A   1      30.197  28.736  22.949  1.00  0.00     0.275 C 
ATOM      5  O   UNL A   1      29.870  29.035  21.796  1.00  0.00    -0.269 OA
ATOM      6  H   UNL A   1      30.952  30.555  23.219  1.00  0.00     0.163 HD
BRANCH   4   7
ATOM      7  C   UNL A   1      29.927  27.329  23.501  1.00  0.00     0.363 C 
BRANCH   7   8
ATOM      8  N   UNL A   1      30.966  26.271  23.326  1.00  0.00    -0.325 N 
ATOM      9  C   UNL A   1      31.321  25.476  25.264  1.00  0.00     0.188 C 
ATOM     10  C   UNL A   1      32.129  26.323  24.265  1.00  0.00     0.282 C 
ATOM     11  C   UNL A   1      30.590  24.998  23.975  1.00  0.00     0.282 C 
ATOM     12  H   UNL A   1      31.114  26.372  22.321  1.00  0.00     0.348 HD
BRANCH   9  13
ATOM     13  C   UNL A   1      31.958  24.388  26.080  1.00  0.00     0.241 A 
ATOM     14  C   UNL A   1      32.853  22.610  26.731  1.00  0.00     0.171 A 
ATOM     15  N   UNL A   1      32.017  22.913  27.727  1.00  0.00    -0.062 NA
ATOM     16  N   UNL A   1      32.853  23.506  25.684  1.00  0.00    -0.196 NA
ATOM     17  O   UNL A   1      31.448  24.103  27.319  1.00  0.00    -0.339 OA
BRANCH  14  18
ATOM     18  C   UNL A   1      33.632  21.347  26.726  1.00  0.00     0.081 C 
BRANCH  18  19
ATOM     19  C   UNL A   1      34.018  20.853  25.329  1.00  0.00     0.005 C 
ATOM     20  C   UNL A   1      35.507  20.965  25.019  1.00  0.00     0.004 C 
ENDBRANCH  18  19
ENDBRANCH  14  18
ENDBRANCH   9  13
ENDBRANCH   7   8
ENDBRANCH   4   7
ENDBRANCH   2   3
ENDBRANCH   1   2
BRANCH   1  21
ATOM     21  C   UNL A   1      31.985  31.114  27.111  1.00  0.00     0.023 C 
BRANCH  21  22
ATOM     22  C   UNL A   1      33.205  32.017  27.175  1.00  0.00     0.116 C 
BRANCH  22  23
ATOM     23  N   UNL A   1      32.866  33.399  27.484  1.00  0.00    -0.352 N 
ATOM     24  C   UNL A   1      33.365  34.222  28.469  1.00  0.00     0.251 C 
ATOM     25  H   UNL A   1      32.181  33.804  26.904  1.00  0.00     0.163 HD
ATOM     26  O   UNL A   1      32.849  35.309  28.669  1.00  0.00    -0.269 OA
BRANCH  24  27
ATOM     27  C   UNL A   1      34.503  33.759  29.291  1.00  0.00     0.039 A 
ATOM     28  C   UNL A   1      34.268  32.843  30.319  1.00  0.00     0.014 A 
ATOM     29  C   UNL A   1      35.799  34.207  29.026  1.00  0.00     0.014 A 
ATOM     30  C   UNL A   1      35.347  32.323  31.036  1.00  0.00     0.010 A 
ATOM     31  C   UNL A   1      36.876  33.620  29.676  1.00  0.00     0.010 A 
ATOM     32  C   UNL A   1      36.662  32.679  30.695  1.00  0.00    -0.014 A 
BRANCH  32  33
ATOM     33  C   UNL A   1      37.834  32.112  31.406  1.00  0.00     0.031 A 
ATOM     34  C   UNL A   1      38.635  31.016  30.756  1.00  0.00     0.074 A 
ATOM     35  C   UNL A   1      38.121  32.521  32.658  1.00  0.00     0.049 A 
ATOM     36  N   UNL A   1      39.610  30.297  31.248  1.00  0.00    -0.248 NA
ATOM     37  C   UNL A   1      38.253  30.653  29.383  1.00  0.00     0.031 C 
ATOM     38  C   UNL A   1      37.383  33.542  33.406  1.00  0.00     0.029 A 
ATOM     39  N   UNL A   1      39.103  32.119  33.528  1.00  0.00    -0.354 N 
ATOM     40  C   UNL A   1      39.940  29.381  30.255  1.00  0.00     0.074 A 
ATOM     41  C   UNL A   1      39.013  29.592  29.164  1.00  0.00     0.031 C 
ATOM     42  C   UNL A   1      37.953  33.701  34.612  1.00  0.00     0.029 A 
ATOM     43  C   UNL A   1      39.065  32.765  34.741  1.00  0.00     0.049 A 
ATOM     44  H   UNL A   1      39.770  31.431  33.304  1.00  0.00     0.167 HD
ATOM     45  C   UNL A   1      40.940  28.466  30.245  1.00  0.00     0.034 A 
ATOM     46  C   UNL A   1      39.835  32.610  35.836  1.00  0.00     0.034 A 
ATOM     47  C   UNL A   1      41.870  28.294  31.332  1.00  0.00     0.049 A 
ATOM     48  C   UNL A   1      40.944  31.590  35.802  1.00  0.00     0.074 A 
ATOM     49  C   UNL A   1      42.962  27.446  31.410  1.00  0.00     0.029 A 
ATOM     50  N   UNL A   1      41.819  28.985  32.537  1.00  0.00    -0.354 N 
ATOM     51  N   UNL A   1      41.276  30.762  34.837  1.00  0.00    -0.248 NA
ATOM     52  C   UNL A   1      41.790  31.492  36.998  1.00  0.00     0.031 C 
ATOM     53  C   UNL A   1      43.532  27.582  32.681  1.00  0.00     0.029 A 
ATOM     54  C   UNL A   1      42.843  28.565  33.372  1.00  0.00     0.049 A 
ATOM     55  H   UNL A   1      41.152  29.673  32.765  1.00  0.00     0.167 HD
ATOM     56  C   UNL A   1      42.387  30.064  35.302  1.00  0.00     0.074 A 
ATOM     57  C   UNL A   1      42.677  30.582  36.624  1.00  0.00     0.031 C 
ATOM     58  C   UNL A   1      43.107  29.088  34.693  1.00  0.00     0.034 A 
BRANCH  45  59
ATOM     59  C   UNL A   1      41.056  27.580  29.027  1.00  0.00     0.023 A 
ATOM     60  C   UNL A   1      42.051  27.786  28.055  1.00  0.00     0.031 A 
ATOM     61  C   UNL A   1      40.130  26.544  28.809  1.00  0.00     0.131 A 
ATOM     62  C   UNL A   1      42.043  27.034  26.872  1.00  0.00     0.055 A 
ATOM     63  C   UNL A   1      40.183  25.738  27.668  1.00  0.00     0.041 A 
ATOM     64  F   UNL A   1      39.145  26.310  29.689  1.00  0.00    -0.206 F 
ATOM     65  C   UNL A   1      41.132  25.993  26.683  1.00  0.00     0.022 A 
BRANCH  62  66
ATOM     66  S   UNL A   1      43.139  27.541  25.518  1.00  0.00     0.124 S 
ATOM     67  O   UNL A   1      43.679  26.255  25.081  1.00  0.00    -0.237 OA
ATOM     68  O   UNL A   1      42.220  28.195  24.595  1.00  0.00    -0.237 OA
ATOM     69  O   UNL A   1      44.104  28.423  26.171  1.00  0.00    -0.744 OA
ENDBRANCH  62  66
ENDBRANCH  45  59
BRANCH  46  70
ATOM     70  C   UNL A   1      39.589  33.431  37.057  1.00  0.00     0.023 A 
ATOM     71  C   UNL A   1      40.341  34.589  37.309  1.00  0.00     0.031 A 
ATOM     72  C   UNL A   1      38.626  33.048  38.007  1.00  0.00     0.131 A 
ATOM     73  C   UNL A   1      40.150  35.300  38.504  1.00  0.00     0.055 A 
ATOM     74  C   UNL A   1      38.405  33.787  39.171  1.00  0.00     0.041 A 
ATOM     75  F   UNL A   1      37.875  31.952  37.810  1.00  0.00    -0.206 F 
ATOM     76  C   UNL A   1      39.179  34.914  39.431  1.00  0.00     0.022 A 
BRANCH  73  77
ATOM     77  S   UNL A   1      41.248  36.697  38.867  1.00  0.00     0.124 S 
ATOM     78  O   UNL A   1      40.299  37.719  39.293  1.00  0.00    -0.237 OA
ATOM     79  O   UNL A   1      42.106  36.144  39.910  1.00  0.00    -0.237 OA
ATOM     80  O   UNL A   1      41.909  36.953  37.588  1.00  0.00    -0.744 OA
ENDBRANCH  73  77
ENDBRANCH  46  70
BRANCH  58  81
ATOM     81  C   UNL A   1      44.300  28.553  35.441  1.00  0.00     0.023 A 
ATOM     82  C   UNL A   1      44.175  27.532  36.399  1.00  0.00     0.031 A 
ATOM     83  C   UNL A   1      45.581  29.083  35.199  1.00  0.00     0.131 A 
ATOM     84  C   UNL A   1      45.302  27.110  37.120  1.00  0.00     0.055 A 
ATOM     85  C   UNL A   1      46.707  28.618  35.878  1.00  0.00     0.041 A 
ATOM     86  F   UNL A   1      45.756  30.061  34.296  1.00  0.00    -0.206 F 
ATOM     87  C   UNL A   1      46.570  27.634  36.854  1.00  0.00     0.022 A 
BRANCH  84  88
ATOM     88  S   UNL A   1      45.076  25.924  38.473  1.00  0.00     0.124 S 
ATOM     89  O   UNL A   1      46.422  25.840  39.030  1.00  0.00    -0.237 OA
ATOM     90  O   UNL A   1      44.081  26.589  39.309  1.00  0.00    -0.237 OA
ATOM     91  O   UNL A   1      44.608  24.716  37.796  1.00  0.00    -0.744 OA
ENDBRANCH  84  88
ENDBRANCH  58  81
ENDBRANCH  32  33
ENDBRANCH  24  27
ENDBRANCH  22  23
ENDBRANCH  21  22
ENDBRANCH   1  21
TORSDOF 18
ENDMDL
MODEL 3
REMARK VINA RESULT:     -10.8      5.577      8.588
REMARK SMILES CCCc1noc(C2C[NH+](CC(=O)NCCCCNC(=O)c3ccc(-c4c5nc(c(-c6cc(S(=O)(=O)[O-])ccc6F)c6ccc([nH]6)c(-c6cc(S(=O)(=O)[O-])ccc6F)c6nc(c(-c7cc(S(=O)(=O)[O-])ccc7F)c7ccc4[nH]7)C=C6)C=C5)cc3)C2)n1
REMARK SMILES IDX 16 1 15 2 14 3 12 4 13 5 11 7 10 8 8 9 9 10 85 11 7 13 4 14
REMARK SMILES IDX 5 15 86 16 6 17 3 18 2 19 1 20 17 21 18 22 19 23 20 24 21 26
REMARK SMILES IDX 22 27 23 28 84 29 24 30 83 31 25 32 26 33 27 34 77 35 28 36
REMARK SMILES IDX 82 37 76 38 78 39 29 40 81 41 75 42 74 43 30 45 62 46 42 47
REMARK SMILES IDX 61 48 43 49 46 50 60 51 79 52 44 53 45 54 59 56 80 57 47 58
REMARK SMILES IDX 31 59 32 60 40 61 33 62 39 63 41 64 38 65 34 66 35 67 36 68
REMARK SMILES IDX 37 69 63 70 64 71 72 72 65 73 71 74 73 75 70 76 66 77 67 78
REMARK SMILES IDX 68 79 69 80 48 81 49 82 57 83 50 84 56 85 58 86 55 87 51 88
REMARK SMILES IDX 52 89 53 90 54 91
REMARK H PARENT 14 6 10 12 19 25 78 44 46 55
REMARK Flexibility Score: inf
ROOT
ATOM      1  C   UNL A   1      31.860  30.116  26.781  1.00  0.00     0.023 C 
ENDROOT
BRANCH   1   2
ATOM      2  C   UNL A   1      31.892  29.331  25.465  1.00  0.00     0.116 C 
BRANCH   2   3
ATOM      3  N   UNL A   1      31.078  29.922  24.415  1.00  0.00    -0.351 N 
ATOM      4  C   UNL A   1      30.414  29.358  23.360  1.00  0.00     0.275 C 
ATOM      5  O   UNL A   1      29.809  30.122  22.601  1.00  0.00    -0.269 OA
ATOM      6  H   UNL A   1      30.989  30.901  24.474  1.00  0.00     0.163 HD
BRANCH   4   7
ATOM      7  C   UNL A   1      30.440  27.846  23.094  1.00  0.00     0.363 C 
BRANCH   7   8
ATOM      8  N   UNL A   1      31.507  27.285  22.212  1.00  0.00    -0.325 N 
ATOM      9  C   UNL A   1      32.461  25.765  23.348  1.00  0.00     0.188 C 
ATOM     10  C   UNL A   1      32.866  27.153  22.820  1.00  0.00     0.282 C 
ATOM     11  C   UNL A   1      31.469  25.809  22.150  1.00  0.00     0.282 C 
ATOM     12  H   UNL A   1      31.364  27.889  21.402  1.00  0.00     0.348 HD
BRANCH   9  13
ATOM     13  C   UNL A   1      33.416  24.605  23.347  1.00  0.00     0.241 A 
ATOM     14  C   UNL A   1      34.786  23.115  23.883  1.00  0.00     0.171 A 
ATOM     15  N   UNL A   1      35.232  23.525  22.694  1.00  0.00    -0.062 NA
ATOM     16  N   UNL A   1      33.651  23.757  24.328  1.00  0.00    -0.196 NA
ATOM     17  O   UNL A   1      34.314  24.485  22.319  1.00  0.00    -0.339 OA
BRANCH  14  18
ATOM     18  C   UNL A   1      35.531  22.118  24.692  1.00  0.00     0.081 C 
BRANCH  18  19
ATOM     19  C   UNL A   1      37.037  22.376  24.776  1.00  0.00     0.005 C 
ATOM     20  C   UNL A   1      37.413  23.617  25.579  1.00  0.00     0.004 C 
ENDBRANCH  18  19
ENDBRANCH  14  18
ENDBRANCH   9  13
ENDBRANCH   7   8
ENDBRANCH   4   7
ENDBRANCH   2   3
ENDBRANCH   1   2
BRANCH   1  21
ATOM     21  C   UNL A   1      31.787  31.635  26.659  1.00  0.00     0.023 C 
BRANCH  21  22
ATOM     22  C   UNL A   1      32.934  32.373  27.329  1.00  0.00     0.116 C 
BRANCH  22  23
ATOM     23  N   UNL A   1      32.613  33.764  27.620  1.00  0.00    -0.352 N 
ATOM     24  C   UNL A   1      33.142  34.603  28.575  1.00  0.00     0.251 C 
ATOM     25  H   UNL A   1      31.917  34.163  27.049  1.00  0.00     0.163 HD
ATOM     26  O   UNL A   1      32.640  35.697  28.766  1.00  0.00    -0.269 OA
BRANCH  24  27
ATOM     27  C   UNL A   1      34.296  34.146  29.378  1.00  0.00     0.039 A 
ATOM     28  C   UNL A   1      34.066  33.380  30.523  1.00  0.00     0.014 A 
ATOM     29  C   UNL A   1      35.601  34.451  28.983  1.00  0.00     0.014 A 
ATOM     30  C   UNL A   1      35.150  32.860  31.233  1.00  0.00     0.010 A 
ATOM     31  C   UNL A   1      36.674  33.857  29.634  1.00  0.00     0.010 A 
ATOM     32  C   UNL A   1      36.461  33.064  30.772  1.00  0.00    -0.014 A 
BRANCH  32  33
ATOM     33  C   UNL A   1      37.633  32.489  31.476  1.00  0.00     0.031 A 
ATOM     34  C   UNL A   1      38.393  31.354  30.843  1.00  0.00     0.074 A 
ATOM     35  C   UNL A   1      37.957  32.928  32.708  1.00  0.00     0.049 A 
ATOM     36  N   UNL A   1      39.360  30.626  31.337  1.00  0.00    -0.248 NA
ATOM     37  C   UNL A   1      37.973  30.959  29.490  1.00  0.00     0.031 C 
ATOM     38  C   UNL A   1      37.261  33.989  33.440  1.00  0.00     0.029 A 
ATOM     39  N   UNL A   1      38.947  32.528  33.569  1.00  0.00    -0.354 N 
ATOM     40  C   UNL A   1      39.646  29.672  30.366  1.00  0.00     0.074 A 
ATOM     41  C   UNL A   1      38.701  29.874  29.288  1.00  0.00     0.031 C 
ATOM     42  C   UNL A   1      37.861  34.170  34.628  1.00  0.00     0.029 A 
ATOM     43  C   UNL A   1      38.952  33.211  34.763  1.00  0.00     0.049 A 
ATOM     44  H   UNL A   1      39.593  31.817  33.353  1.00  0.00     0.167 HD
ATOM     45  C   UNL A   1      40.623  28.732  30.362  1.00  0.00     0.034 A 
ATOM     46  C   UNL A   1      39.742  33.069  35.846  1.00  0.00     0.034 A 
ATOM     47  C   UNL A   1      41.572  28.569  31.435  1.00  0.00     0.049 A 
ATOM     48  C   UNL A   1      40.824  32.022  35.820  1.00  0.00     0.074 A 
ATOM     49  C   UNL A   1      42.644  27.697  31.516  1.00  0.00     0.029 A 
ATOM     50  N   UNL A   1      41.564  29.298  32.619  1.00  0.00    -0.354 N 
ATOM     51  N   UNL A   1      41.115  31.156  34.874  1.00  0.00    -0.248 NA
ATOM     52  C   UNL A   1      41.692  31.938  37.000  1.00  0.00     0.031 C 
ATOM     53  C   UNL A   1      43.245  27.857  32.770  1.00  0.00     0.029 A 
ATOM     54  C   UNL A   1      42.595  28.877  33.445  1.00  0.00     0.049 A 
ATOM     55  H   UNL A   1      40.919  30.009  32.839  1.00  0.00     0.167 HD
ATOM     56  C   UNL A   1      42.218  30.445  35.337  1.00  0.00     0.074 A 
ATOM     57  C   UNL A   1      42.549  30.995  36.637  1.00  0.00     0.031 C 
ATOM     58  C   UNL A   1      42.900  29.433  34.743  1.00  0.00     0.034 A 
BRANCH  45  59
ATOM     59  C   UNL A   1      40.691  27.808  29.170  1.00  0.00     0.023 A 
ATOM     60  C   UNL A   1      41.629  27.997  28.140  1.00  0.00     0.031 A 
ATOM     61  C   UNL A   1      39.774  26.749  29.036  1.00  0.00     0.131 A 
ATOM     62  C   UNL A   1      41.573  27.205  26.985  1.00  0.00     0.055 A 
ATOM     63  C   UNL A   1      39.782  25.905  27.922  1.00  0.00     0.041 A 
ATOM     64  F   UNL A   1      38.841  26.529  29.975  1.00  0.00    -0.206 F 
ATOM     65  C   UNL A   1      40.672  26.143  26.879  1.00  0.00     0.022 A 
BRANCH  62  66
ATOM     66  S   UNL A   1      42.587  27.683  25.558  1.00  0.00     0.124 S 
ATOM     67  O   UNL A   1      42.496  26.490  24.720  1.00  0.00    -0.237 OA
ATOM     68  O   UNL A   1      41.895  28.867  25.062  1.00  0.00    -0.237 OA
ATOM     69  O   UNL A   1      43.904  27.928  26.141  1.00  0.00    -0.744 OA
ENDBRANCH  62  66
ENDBRANCH  45  59
BRANCH  46  70
ATOM     70  C   UNL A   1      39.542  33.933  37.045  1.00  0.00     0.023 A 
ATOM     71  C   UNL A   1      38.916  33.431  38.198  1.00  0.00     0.031 A 
ATOM     72  C   UNL A   1      39.938  35.282  37.043  1.00  0.00     0.131 A 
ATOM     73  C   UNL A   1      38.664  34.283  39.284  1.00  0.00     0.055 A 
ATOM     74  C   UNL A   1      39.729  36.113  38.145  1.00  0.00     0.041 A 
ATOM     75  F   UNL A   1      40.548  35.809  35.969  1.00  0.00    -0.206 F 
ATOM     76  C   UNL A   1      39.076  35.618  39.270  1.00  0.00     0.022 A 
BRANCH  73  77
ATOM     77  S   UNL A   1      37.713  33.641  40.688  1.00  0.00     0.124 S 
ATOM     78  O   UNL A   1      38.659  32.705  41.285  1.00  0.00    -0.237 OA
ATOM     79  O   UNL A   1      37.444  34.855  41.452  1.00  0.00    -0.237 OA
ATOM     80  O   UNL A   1      36.544  33.031  40.058  1.00  0.00    -0.744 OA
ENDBRANCH  73  77
ENDBRANCH  46  70
BRANCH  58  81
ATOM     81  C   UNL A   1      44.096  28.891  35.483  1.00  0.00     0.023 A 
ATOM     82  C   UNL A   1      45.390  29.395  35.267  1.00  0.00     0.031 A 
ATOM     83  C   UNL A   1      43.937  27.845  36.411  1.00  0.00     0.131 A 
ATOM     84  C   UNL A   1      46.483  28.817  35.928  1.00  0.00     0.055 A 
ATOM     85  C   UNL A   1      45.021  27.314  37.110  1.00  0.00     0.041 A 
ATOM     86  F   UNL A   1      42.723  27.327  36.654  1.00  0.00    -0.206 F 
ATOM     87  C   UNL A   1      46.305  27.791  36.861  1.00  0.00     0.022 A 
BRANCH  84  88
ATOM     88  S   UNL A   1      48.155  29.366  35.491  1.00  0.00     0.124 S 
ATOM     89  O   UNL A   1      48.343  28.753  34.180  1.00  0.00    -0.237 OA
ATOM     90  O   UNL A   1      48.019  30.820  35.501  1.00  0.00    -0.237 OA
ATOM     91  O   UNL A   1      48.987  28.816  36.559  1.00  0.00    -0.744 OA
ENDBRANCH  84  88
ENDBRANCH  58  81
ENDBRANCH  32  33
ENDBRANCH  24  27
ENDBRANCH  22  23
ENDBRANCH  21  22
ENDBRANCH   1  21
TORSDOF 18
ENDMDL
