MODEL 1
REMARK VINA RESULT:     -10.4      0.000      0.000
REMARK SMILES O=C(NCCCCNC(=O)[C@@H]1CSc2ccccc21)c1ccc(-c2c3nc(c(-c4cc(S(=O)(=O)[O-])ccc4F)c4ccc([nH]4)c(-c4cc(S(=O)(=O)[O-])ccc4F)c4nc(c(-c5cc(S(=O)(=O)[O-])ccc5F)c5ccc2[nH]5)C=C4)C=C3)cc1
REMARK SMILES IDX 4 1 3 2 1 3 2 4 20 6 21 7 82 8 22 9 81 10 23 11 24 12 25 13
REMARK SMILES IDX 75 14 26 15 80 16 74 17 76 18 27 19 79 20 73 21 72 22 28 24
REMARK SMILES IDX 60 25 40 26 59 27 41 28 44 29 58 30 77 31 42 32 43 33 57 35
REMARK SMILES IDX 78 36 45 37 29 38 30 39 38 40 31 41 37 42 39 43 36 44 32 45
REMARK SMILES IDX 33 46 34 47 35 48 61 49 62 50 70 51 63 52 69 53 71 54 68 55
REMARK SMILES IDX 64 56 65 57 66 58 67 59 46 60 47 61 55 62 48 63 54 64 56 65
REMARK SMILES IDX 53 66 49 67 50 68 51 69 52 70 5 71 6 72 7 73 8 74 9 75 10 77
REMARK SMILES IDX 11 78 12 79 19 80 13 81 14 82 18 83 15 84 17 85 16 86
REMARK H PARENT 3 5 76 23 44 34 8 76
REMARK Flexibility Score: inf
ROOT
ATOM      1  C   UNL A   1      34.936  33.130  28.269  1.00  0.00     0.116 C 
ENDROOT
BRANCH   1   2
ATOM      2  N   UNL A   1      34.064  32.068  27.789  1.00  0.00    -0.352 N 
ATOM      3  O   UNL A   1      33.572  29.982  27.079  1.00  0.00    -0.269 OA
ATOM      4  C   UNL A   1      34.361  30.737  27.638  1.00  0.00     0.251 C 
ATOM      5  H   UNL A   1      33.150  32.337  27.542  1.00  0.00     0.163 HD
BRANCH   4   6
ATOM      6  C   UNL A   1      35.652  30.232  28.146  1.00  0.00     0.039 A 
ATOM      7  C   UNL A   1      35.718  29.710  29.439  1.00  0.00     0.014 A 
ATOM      8  C   UNL A   1      36.788  30.262  27.332  1.00  0.00     0.014 A 
ATOM      9  C   UNL A   1      36.925  29.194  29.909  1.00  0.00     0.010 A 
ATOM     10  C   UNL A   1      37.964  29.670  27.770  1.00  0.00     0.010 A 
ATOM     11  C   UNL A   1      38.054  29.161  29.073  1.00  0.00    -0.014 A 
BRANCH  11  12
ATOM     12  C   UNL A   1      39.360  28.656  29.556  1.00  0.00     0.031 A 
ATOM     13  C   UNL A   1      40.069  29.381  30.664  1.00  0.00     0.074 A 
ATOM     14  C   UNL A   1      39.936  27.596  28.957  1.00  0.00     0.049 A 
ATOM     15  N   UNL A   1      41.247  29.149  31.179  1.00  0.00    -0.248 NA
ATOM     16  C   UNL A   1      39.376  30.541  31.249  1.00  0.00     0.031 C 
ATOM     17  C   UNL A   1      39.352  26.845  27.847  1.00  0.00     0.029 A 
ATOM     18  N   UNL A   1      41.139  26.978  29.188  1.00  0.00    -0.354 N 
ATOM     19  C   UNL A   1      41.446  30.147  32.126  1.00  0.00     0.074 A 
ATOM     20  C   UNL A   1      40.297  31.020  32.071  1.00  0.00     0.031 C 
ATOM     21  C   UNL A   1      40.186  25.851  27.509  1.00  0.00     0.029 A 
ATOM     22  C   UNL A   1      41.388  25.926  28.339  1.00  0.00     0.049 A 
ATOM     23  H   UNL A   1      41.764  27.261  29.894  1.00  0.00     0.167 HD
ATOM     24  C   UNL A   1      42.483  30.300  32.981  1.00  0.00     0.034 A 
ATOM     25  C   UNL A   1      42.466  25.121  28.229  1.00  0.00     0.034 A 
ATOM     26  C   UNL A   1      43.597  29.390  33.043  1.00  0.00     0.049 A 
ATOM     27  C   UNL A   1      43.614  25.306  29.188  1.00  0.00     0.074 A 
ATOM     28  C   UNL A   1      44.648  29.396  33.940  1.00  0.00     0.029 A 
ATOM     29  N   UNL A   1      43.814  28.328  32.176  1.00  0.00    -0.354 N 
ATOM     30  N   UNL A   1      43.742  26.183  30.157  1.00  0.00    -0.248 NA
ATOM     31  C   UNL A   1      44.760  24.397  29.051  1.00  0.00     0.031 C 
ATOM     32  C   UNL A   1      45.545  28.398  33.562  1.00  0.00     0.029 A 
ATOM     33  C   UNL A   1      45.011  27.705  32.486  1.00  0.00     0.049 A 
ATOM     34  H   UNL A   1      43.206  28.058  31.450  1.00  0.00     0.167 HD
ATOM     35  C   UNL A   1      44.973  25.925  30.753  1.00  0.00     0.074 A 
ATOM     36  C   UNL A   1      45.542  24.793  30.051  1.00  0.00     0.031 C 
ATOM     37  C   UNL A   1      45.575  26.573  31.783  1.00  0.00     0.034 A 
BRANCH  24  38
ATOM     38  C   UNL A   1      42.476  31.474  33.930  1.00  0.00     0.023 A 
ATOM     39  C   UNL A   1      41.697  31.416  35.101  1.00  0.00     0.031 A 
ATOM     40  C   UNL A   1      43.134  32.680  33.630  1.00  0.00     0.131 A 
ATOM     41  C   UNL A   1      41.571  32.552  35.910  1.00  0.00     0.055 A 
ATOM     42  C   UNL A   1      43.049  33.792  34.468  1.00  0.00     0.041 A 
ATOM     43  F   UNL A   1      43.884  32.792  32.521  1.00  0.00    -0.206 F 
ATOM     44  C   UNL A   1      42.252  33.734  35.608  1.00  0.00     0.022 A 
BRANCH  41  45
ATOM     45  S   UNL A   1      40.455  32.563  37.339  1.00  0.00     0.124 S 
ATOM     46  O   UNL A   1      39.950  33.934  37.312  1.00  0.00    -0.237 OA
ATOM     47  O   UNL A   1      39.485  31.533  36.976  1.00  0.00    -0.237 OA
ATOM     48  O   UNL A   1      41.323  32.242  38.467  1.00  0.00    -0.744 OA
ENDBRANCH  41  45
ENDBRANCH  24  38
BRANCH  25  49
ATOM     49  C   UNL A   1      42.440  24.039  27.203  1.00  0.00     0.023 A 
ATOM     50  C   UNL A   1      41.767  22.828  27.453  1.00  0.00     0.031 A 
ATOM     51  C   UNL A   1      43.231  24.130  26.046  1.00  0.00     0.131 A 
ATOM     52  C   UNL A   1      41.986  21.725  26.618  1.00  0.00     0.055 A 
ATOM     53  C   UNL A   1      43.381  23.052  25.172  1.00  0.00     0.041 A 
ATOM     54  F   UNL A   1      43.900  25.260  25.771  1.00  0.00    -0.206 F 
ATOM     55  C   UNL A   1      42.776  21.834  25.469  1.00  0.00     0.022 A 
BRANCH  52  56
ATOM     56  S   UNL A   1      41.391  20.076  27.087  1.00  0.00     0.124 S 
ATOM     57  O   UNL A   1      40.377  19.814  26.070  1.00  0.00    -0.237 OA
ATOM     58  O   UNL A   1      42.612  19.282  26.981  1.00  0.00    -0.237 OA
ATOM     59  O   UNL A   1      40.889  20.262  28.444  1.00  0.00    -0.744 OA
ENDBRANCH  52  56
ENDBRANCH  25  49
BRANCH  37  60
ATOM     60  C   UNL A   1      46.941  26.115  32.239  1.00  0.00     0.023 A 
ATOM     61  C   UNL A   1      48.073  26.384  31.444  1.00  0.00     0.031 A 
ATOM     62  C   UNL A   1      47.089  25.249  33.335  1.00  0.00     0.131 A 
ATOM     63  C   UNL A   1      49.285  25.735  31.714  1.00  0.00     0.055 A 
ATOM     64  C   UNL A   1      48.314  24.652  33.635  1.00  0.00     0.041 A 
ATOM     65  F   UNL A   1      46.038  24.953  34.117  1.00  0.00    -0.206 F 
ATOM     66  C   UNL A   1      49.413  24.876  32.810  1.00  0.00     0.022 A 
BRANCH  63  67
ATOM     67  S   UNL A   1      50.700  25.890  30.588  1.00  0.00     0.124 S 
ATOM     68  O   UNL A   1      50.820  27.340  30.452  1.00  0.00    -0.237 OA
ATOM     69  O   UNL A   1      51.767  25.244  31.347  1.00  0.00    -0.237 OA
ATOM     70  O   UNL A   1      50.270  25.187  29.383  1.00  0.00    -0.744 OA
ENDBRANCH  63  67
ENDBRANCH  37  60
ENDBRANCH  11  12
ENDBRANCH   4   6
ENDBRANCH   1   2
BRANCH   1  71
ATOM     71  C   UNL A   1      34.493  34.511  27.810  1.00  0.00     0.023 C 
BRANCH  71  72
ATOM     72  C   UNL A   1      34.051  35.443  28.935  1.00  0.00     0.023 C 
BRANCH  72  73
ATOM     73  C   UNL A   1      33.881  34.760  30.293  1.00  0.00     0.116 C 
BRANCH  73  74
ATOM     74  N   UNL A   1      34.118  35.678  31.391  1.00  0.00    -0.356 N 
ATOM     75  C   UNL A   1      34.750  35.498  32.585  1.00  0.00     0.228 C 
ATOM     76  H   UNL A   1      33.761  36.586  31.249  1.00  0.00     0.163 HD
ATOM     77  O   UNL A   1      34.775  36.462  33.358  1.00  0.00    -0.274 OA
BRANCH  75  78
ATOM     78  C   UNL A   1      35.489  34.215  32.960  1.00  0.00     0.120 C 
ATOM     79  C   UNL A   1      35.268  33.891  34.447  1.00  0.00     0.093 C 
ATOM     80  C   UNL A   1      36.966  34.197  32.664  1.00  0.00    -0.021 A 
ATOM     81  S   UNL A   1      36.886  33.646  35.253  1.00  0.00    -0.125 SA
ATOM     82  C   UNL A   1      37.787  33.986  33.772  1.00  0.00     0.011 A 
ATOM     83  C   UNL A   1      37.528  34.435  31.411  1.00  0.00     0.006 A 
ATOM     84  C   UNL A   1      39.163  34.125  33.677  1.00  0.00     0.015 A 
ATOM     85  C   UNL A   1      38.915  34.566  31.305  1.00  0.00     0.000 A 
ATOM     86  C   UNL A   1      39.726  34.437  32.438  1.00  0.00     0.001 A 
ENDBRANCH  75  78
ENDBRANCH  73  74
ENDBRANCH  72  73
ENDBRANCH  71  72
ENDBRANCH   1  71
TORSDOF 14
ENDMDL
MODEL 2
REMARK VINA RESULT:     -10.4      4.239     10.575
REMARK SMILES O=C(NCCCCNC(=O)[C@@H]1CSc2ccccc21)c1ccc(-c2c3nc(c(-c4cc(S(=O)(=O)[O-])ccc4F)c4ccc([nH]4)c(-c4cc(S(=O)(=O)[O-])ccc4F)c4nc(c(-c5cc(S(=O)(=O)[O-])ccc5F)c5ccc2[nH]5)C=C4)C=C3)cc1
REMARK SMILES IDX 4 1 3 2 1 3 2 4 20 6 21 7 82 8 22 9 81 10 23 11 24 12 25 13
REMARK SMILES IDX 75 14 26 15 80 16 74 17 76 18 27 19 79 20 73 21 72 22 28 24
REMARK SMILES IDX 60 25 40 26 59 27 41 28 44 29 58 30 77 31 42 32 43 33 57 35
REMARK SMILES IDX 78 36 45 37 29 38 30 39 38 40 31 41 37 42 39 43 36 44 32 45
REMARK SMILES IDX 33 46 34 47 35 48 61 49 62 50 70 51 63 52 69 53 71 54 68 55
REMARK SMILES IDX 64 56 65 57 66 58 67 59 46 60 47 61 55 62 48 63 54 64 56 65
REMARK SMILES IDX 53 66 49 67 50 68 51 69 52 70 5 71 6 72 7 73 8 74 9 75 10 77
REMARK SMILES IDX 11 78 12 79 19 80 13 81 14 82 18 83 15 84 17 85 16 86
REMARK H PARENT 3 5 76 23 44 34 8 76
REMARK Flexibility Score: inf
ROOT
ATOM      1  C   UNL A   1      32.718  32.715  27.247  1.00  0.00     0.116 C 
ENDROOT
BRANCH   1   2
ATOM      2  N   UNL A   1      32.479  34.088  27.667  1.00  0.00    -0.352 N 
ATOM      3  O   UNL A   1      32.693  35.888  29.014  1.00  0.00    -0.269 OA
ATOM      4  C   UNL A   1      33.104  34.783  28.671  1.00  0.00     0.251 C 
ATOM      5  H   UNL A   1      31.784  34.577  27.171  1.00  0.00     0.163 HD
BRANCH   4   6
ATOM      6  C   UNL A   1      34.269  34.174  29.344  1.00  0.00     0.039 A 
ATOM      7  C   UNL A   1      35.551  34.445  28.863  1.00  0.00     0.014 A 
ATOM      8  C   UNL A   1      34.085  33.350  30.458  1.00  0.00     0.014 A 
ATOM      9  C   UNL A   1      36.656  33.905  29.520  1.00  0.00     0.010 A 
ATOM     10  C   UNL A   1      35.189  32.887  31.160  1.00  0.00     0.010 A 
ATOM     11  C   UNL A   1      36.483  33.131  30.679  1.00  0.00    -0.014 A 
BRANCH  11  12
ATOM     12  C   UNL A   1      37.633  32.511  31.376  1.00  0.00     0.031 A 
ATOM     13  C   UNL A   1      38.365  31.370  30.725  1.00  0.00     0.074 A 
ATOM     14  C   UNL A   1      37.976  32.923  32.611  1.00  0.00     0.049 A 
ATOM     15  N   UNL A   1      39.344  30.645  31.195  1.00  0.00    -0.248 NA
ATOM     16  C   UNL A   1      37.913  30.972  29.382  1.00  0.00     0.031 C 
ATOM     17  C   UNL A   1      37.308  33.993  33.349  1.00  0.00     0.029 A 
ATOM     18  N   UNL A   1      38.956  32.485  33.465  1.00  0.00    -0.354 N 
ATOM     19  C   UNL A   1      39.606  29.691  30.219  1.00  0.00     0.074 A 
ATOM     20  C   UNL A   1      38.644  29.890  29.161  1.00  0.00     0.031 C 
ATOM     21  C   UNL A   1      37.913  34.147  34.535  1.00  0.00     0.029 A 
ATOM     22  C   UNL A   1      38.976  33.151  34.667  1.00  0.00     0.049 A 
ATOM     23  H   UNL A   1      39.586  31.762  33.238  1.00  0.00     0.167 HD
ATOM     24  C   UNL A   1      40.580  28.753  30.200  1.00  0.00     0.034 A 
ATOM     25  C   UNL A   1      39.751  32.973  35.759  1.00  0.00     0.034 A 
ATOM     26  C   UNL A   1      41.553  28.602  31.251  1.00  0.00     0.049 A 
ATOM     27  C   UNL A   1      40.831  31.923  35.722  1.00  0.00     0.074 A 
ATOM     28  C   UNL A   1      42.643  27.753  31.283  1.00  0.00     0.029 A 
ATOM     29  N   UNL A   1      41.553  29.301  32.450  1.00  0.00    -0.354 N 
ATOM     30  N   UNL A   1      41.144  31.101  34.747  1.00  0.00    -0.248 NA
ATOM     31  C   UNL A   1      41.667  31.774  36.921  1.00  0.00     0.031 C 
ATOM     32  C   UNL A   1      43.245  27.871  32.534  1.00  0.00     0.029 A 
ATOM     33  C   UNL A   1      42.592  28.861  33.252  1.00  0.00     0.049 A 
ATOM     34  H   UNL A   1      40.907  30.004  32.694  1.00  0.00     0.167 HD
ATOM     35  C   UNL A   1      42.220  30.347  35.208  1.00  0.00     0.074 A 
ATOM     36  C   UNL A   1      42.520  30.827  36.541  1.00  0.00     0.031 C 
ATOM     37  C   UNL A   1      42.889  29.345  34.582  1.00  0.00     0.034 A 
BRANCH  24  38
ATOM     38  C   UNL A   1      40.669  27.819  29.017  1.00  0.00     0.023 A 
ATOM     39  C   UNL A   1      41.573  28.099  27.976  1.00  0.00     0.031 A 
ATOM     40  C   UNL A   1      39.792  26.731  28.859  1.00  0.00     0.131 A 
ATOM     41  C   UNL A   1      41.558  27.322  26.812  1.00  0.00     0.055 A 
ATOM     42  C   UNL A   1      39.819  25.926  27.719  1.00  0.00     0.041 A 
ATOM     43  F   UNL A   1      38.903  26.424  29.818  1.00  0.00    -0.206 F 
ATOM     44  C   UNL A   1      40.696  26.230  26.683  1.00  0.00     0.022 A 
BRANCH  41  45
ATOM     45  S   UNL A   1      42.599  27.747  25.389  1.00  0.00     0.124 S 
ATOM     46  O   UNL A   1      43.866  28.080  26.035  1.00  0.00    -0.237 OA
ATOM     47  O   UNL A   1      42.595  26.502  24.626  1.00  0.00    -0.237 OA
ATOM     48  O   UNL A   1      41.903  28.869  24.768  1.00  0.00    -0.744 OA
ENDBRANCH  41  45
ENDBRANCH  24  38
BRANCH  25  49
ATOM     49  C   UNL A   1      39.543  33.876  36.928  1.00  0.00     0.023 A 
ATOM     50  C   UNL A   1      40.404  34.966  37.156  1.00  0.00     0.031 A 
ATOM     51  C   UNL A   1      38.603  33.555  37.921  1.00  0.00     0.131 A 
ATOM     52  C   UNL A   1      40.380  35.624  38.392  1.00  0.00     0.055 A 
ATOM     53  C   UNL A   1      38.528  34.268  39.119  1.00  0.00     0.041 A 
ATOM     54  F   UNL A   1      37.768  32.518  37.753  1.00  0.00    -0.206 F 
ATOM     55  C   UNL A   1      39.436  35.293  39.370  1.00  0.00     0.022 A 
BRANCH  52  56
ATOM     56  S   UNL A   1      41.678  36.813  38.833  1.00  0.00     0.124 S 
ATOM     57  O   UNL A   1      42.431  36.084  39.850  1.00  0.00    -0.237 OA
ATOM     58  O   UNL A   1      42.357  36.995  37.553  1.00  0.00    -0.237 OA
ATOM     59  O   UNL A   1      40.935  37.974  39.312  1.00  0.00    -0.744 OA
ENDBRANCH  52  56
ENDBRANCH  25  49
BRANCH  37  60
ATOM     60  C   UNL A   1      44.019  28.654  35.308  1.00  0.00     0.023 A 
ATOM     61  C   UNL A   1      43.744  27.565  36.160  1.00  0.00     0.031 A 
ATOM     62  C   UNL A   1      45.317  29.194  35.318  1.00  0.00     0.131 A 
ATOM     63  C   UNL A   1      44.732  27.100  37.039  1.00  0.00     0.055 A 
ATOM     64  C   UNL A   1      46.314  28.688  36.153  1.00  0.00     0.041 A 
ATOM     65  F   UNL A   1      45.626  30.238  34.532  1.00  0.00    -0.206 F 
ATOM     66  C   UNL A   1      46.017  27.651  37.034  1.00  0.00     0.022 A 
BRANCH  63  67
ATOM     67  S   UNL A   1      44.350  25.849  38.296  1.00  0.00     0.124 S 
ATOM     68  O   UNL A   1      43.144  25.231  37.751  1.00  0.00    -0.237 OA
ATOM     69  O   UNL A   1      45.547  25.012  38.268  1.00  0.00    -0.237 OA
ATOM     70  O   UNL A   1      44.153  26.624  39.517  1.00  0.00    -0.744 OA
ENDBRANCH  63  67
ENDBRANCH  37  60
ENDBRANCH  11  12
ENDBRANCH   4   6
ENDBRANCH   1   2
BRANCH   1  71
ATOM     71  C   UNL A   1      31.470  32.037  26.702  1.00  0.00     0.023 C 
BRANCH  71  72
ATOM     72  C   UNL A   1      31.667  30.581  26.289  1.00  0.00     0.023 C 
BRANCH  72  73
ATOM     73  C   UNL A   1      33.106  30.078  26.408  1.00  0.00     0.116 C 
BRANCH  73  74
ATOM     74  N   UNL A   1      33.606  29.574  25.143  1.00  0.00    -0.356 N 
ATOM     75  C   UNL A   1      33.672  28.305  24.651  1.00  0.00     0.228 C 
ATOM     76  H   UNL A   1      33.957  30.266  24.536  1.00  0.00     0.163 HD
ATOM     77  O   UNL A   1      34.187  28.160  23.537  1.00  0.00    -0.274 OA
BRANCH  75  78
ATOM     78  C   UNL A   1      33.069  27.095  25.362  1.00  0.00     0.120 C 
ATOM     79  C   UNL A   1      34.072  25.929  25.370  1.00  0.00     0.093 C 
ATOM     80  C   UNL A   1      31.748  26.608  24.825  1.00  0.00    -0.021 A 
ATOM     81  S   UNL A   1      33.262  24.439  24.696  1.00  0.00    -0.125 SA
ATOM     82  C   UNL A   1      31.743  25.284  24.386  1.00  0.00     0.011 A 
ATOM     83  C   UNL A   1      30.606  27.395  24.690  1.00  0.00     0.006 A 
ATOM     84  C   UNL A   1      30.653  24.763  23.704  1.00  0.00     0.015 A 
ATOM     85  C   UNL A   1      29.501  26.874  24.014  1.00  0.00     0.000 A 
ATOM     86  C   UNL A   1      29.534  25.572  23.501  1.00  0.00     0.001 A 
ENDBRANCH  75  78
ENDBRANCH  73  74
ENDBRANCH  72  73
ENDBRANCH  71  72
ENDBRANCH   1  71
TORSDOF 14
ENDMDL
MODEL 3
REMARK VINA RESULT:     -10.3      3.383      5.999
REMARK SMILES O=C(NCCCCNC(=O)[C@@H]1CSc2ccccc21)c1ccc(-c2c3nc(c(-c4cc(S(=O)(=O)[O-])ccc4F)c4ccc([nH]4)c(-c4cc(S(=O)(=O)[O-])ccc4F)c4nc(c(-c5cc(S(=O)(=O)[O-])ccc5F)c5ccc2[nH]5)C=C4)C=C3)cc1
REMARK SMILES IDX 4 1 3 2 1 3 2 4 20 6 21 7 82 8 22 9 81 10 23 11 24 12 25 13
REMARK SMILES IDX 75 14 26 15 80 16 74 17 76 18 27 19 79 20 73 21 72 22 28 24
REMARK SMILES IDX 60 25 40 26 59 27 41 28 44 29 58 30 77 31 42 32 43 33 57 35
REMARK SMILES IDX 78 36 45 37 29 38 30 39 38 40 31 41 37 42 39 43 36 44 32 45
REMARK SMILES IDX 33 46 34 47 35 48 61 49 62 50 70 51 63 52 69 53 71 54 68 55
REMARK SMILES IDX 64 56 65 57 66 58 67 59 46 60 47 61 55 62 48 63 54 64 56 65
REMARK SMILES IDX 53 66 49 67 50 68 51 69 52 70 5 71 6 72 7 73 8 74 9 75 10 77
REMARK SMILES IDX 11 78 12 79 19 80 13 81 14 82 18 83 15 84 17 85 16 86
REMARK H PARENT 3 5 76 23 44 34 8 76
REMARK Flexibility Score: inf
ROOT
ATOM      1  C   UNL A   1      33.989  28.891  25.877  1.00  0.00     0.116 C 
ENDROOT
BRANCH   1   2
ATOM      2  N   UNL A   1      33.722  30.219  26.409  1.00  0.00    -0.352 N 
ATOM      3  O   UNL A   1      33.958  31.935  27.858  1.00  0.00    -0.269 OA
ATOM      4  C   UNL A   1      34.391  30.877  27.410  1.00  0.00     0.251 C 
ATOM      5  H   UNL A   1      32.969  30.705  26.000  1.00  0.00     0.163 HD
BRANCH   4   6
ATOM      6  C   UNL A   1      35.630  30.284  27.950  1.00  0.00     0.039 A 
ATOM      7  C   UNL A   1      36.826  30.453  27.251  1.00  0.00     0.014 A 
ATOM      8  C   UNL A   1      35.604  29.577  29.156  1.00  0.00     0.014 A 
ATOM      9  C   UNL A   1      38.007  29.930  27.778  1.00  0.00     0.010 A 
ATOM     10  C   UNL A   1      36.791  29.134  29.720  1.00  0.00     0.010 A 
ATOM     11  C   UNL A   1      37.999  29.276  29.021  1.00  0.00    -0.014 A 
BRANCH  11  12
ATOM     12  C   UNL A   1      39.228  28.675  29.588  1.00  0.00     0.031 A 
ATOM     13  C   UNL A   1      39.835  29.265  30.829  1.00  0.00     0.074 A 
ATOM     14  C   UNL A   1      39.831  27.651  28.956  1.00  0.00     0.049 A 
ATOM     15  N   UNL A   1      40.942  28.937  31.441  1.00  0.00    -0.248 NA
ATOM     16  C   UNL A   1      39.120  30.394  31.446  1.00  0.00     0.031 C 
ATOM     17  C   UNL A   1      39.348  27.029  27.724  1.00  0.00     0.029 A 
ATOM     18  N   UNL A   1      40.982  26.964  29.251  1.00  0.00    -0.354 N 
ATOM     19  C   UNL A   1      41.068  29.835  32.495  1.00  0.00     0.074 A 
ATOM     20  C   UNL A   1      39.961  30.757  32.402  1.00  0.00     0.031 C 
ATOM     21  C   UNL A   1      40.182  26.037  27.382  1.00  0.00     0.029 A 
ATOM     22  C   UNL A   1      41.288  25.985  28.337  1.00  0.00     0.049 A 
ATOM     23  H   UNL A   1      41.535  27.155  30.043  1.00  0.00     0.167 HD
ATOM     24  C   UNL A   1      42.010  29.865  33.465  1.00  0.00     0.034 A 
ATOM     25  C   UNL A   1      42.345  25.148  28.265  1.00  0.00     0.034 A 
ATOM     26  C   UNL A   1      43.082  28.908  33.557  1.00  0.00     0.049 A 
ATOM     27  C   UNL A   1      43.387  25.196  29.353  1.00  0.00     0.074 A 
ATOM     28  C   UNL A   1      44.028  28.787  34.556  1.00  0.00     0.029 A 
ATOM     29  N   UNL A   1      43.357  27.920  32.621  1.00  0.00    -0.354 N 
ATOM     30  N   UNL A   1      43.436  25.974  30.409  1.00  0.00    -0.248 NA
ATOM     31  C   UNL A   1      44.512  24.256  29.252  1.00  0.00     0.031 C 
ATOM     32  C   UNL A   1      44.928  27.791  34.181  1.00  0.00     0.029 A 
ATOM     33  C   UNL A   1      44.493  27.222  32.993  1.00  0.00     0.049 A 
ATOM     34  H   UNL A   1      42.824  27.744  31.811  1.00  0.00     0.167 HD
ATOM     35  C   UNL A   1      44.587  25.611  31.104  1.00  0.00     0.074 A 
ATOM     36  C   UNL A   1      45.192  24.525  30.361  1.00  0.00     0.031 C 
ATOM     37  C   UNL A   1      45.093  26.136  32.249  1.00  0.00     0.034 A 
BRANCH  24  38
ATOM     38  C   UNL A   1      41.938  30.946  34.516  1.00  0.00     0.023 A 
ATOM     39  C   UNL A   1      40.823  31.010  35.372  1.00  0.00     0.031 A 
ATOM     40  C   UNL A   1      42.896  31.972  34.599  1.00  0.00     0.131 A 
ATOM     41  C   UNL A   1      40.678  32.091  36.249  1.00  0.00     0.055 A 
ATOM     42  C   UNL A   1      42.775  33.019  35.512  1.00  0.00     0.041 A 
ATOM     43  F   UNL A   1      43.975  31.965  33.799  1.00  0.00    -0.206 F 
ATOM     44  C   UNL A   1      41.654  33.089  36.333  1.00  0.00     0.022 A 
BRANCH  41  45
ATOM     45  S   UNL A   1      39.182  32.288  37.255  1.00  0.00     0.124 S 
ATOM     46  O   UNL A   1      38.486  31.029  37.002  1.00  0.00    -0.237 OA
ATOM     47  O   UNL A   1      39.736  32.437  38.598  1.00  0.00    -0.237 OA
ATOM     48  O   UNL A   1      38.541  33.476  36.701  1.00  0.00    -0.744 OA
ENDBRANCH  41  45
ENDBRANCH  24  38
BRANCH  25  49
ATOM     49  C   UNL A   1      42.396  24.166  27.143  1.00  0.00     0.023 A 
ATOM     50  C   UNL A   1      41.765  22.913  27.256  1.00  0.00     0.031 A 
ATOM     51  C   UNL A   1      43.220  24.395  26.029  1.00  0.00     0.131 A 
ATOM     52  C   UNL A   1      42.056  21.902  26.331  1.00  0.00     0.055 A 
ATOM     53  C   UNL A   1      43.442  23.410  25.065  1.00  0.00     0.041 A 
ATOM     54  F   UNL A   1      43.850  25.570  25.883  1.00  0.00    -0.206 F 
ATOM     55  C   UNL A   1      42.878  22.147  25.227  1.00  0.00     0.022 A 
BRANCH  52  56
ATOM     56  S   UNL A   1      41.514  20.195  26.625  1.00  0.00     0.124 S 
ATOM     57  O   UNL A   1      40.078  20.359  26.832  1.00  0.00    -0.237 OA
ATOM     58  O   UNL A   1      41.902  19.545  25.376  1.00  0.00    -0.237 OA
ATOM     59  O   UNL A   1      42.277  19.787  27.799  1.00  0.00    -0.744 OA
ENDBRANCH  52  56
ENDBRANCH  25  49
BRANCH  37  60
ATOM     60  C   UNL A   1      46.386  25.582  32.801  1.00  0.00     0.023 A 
ATOM     61  C   UNL A   1      46.354  24.547  33.757  1.00  0.00     0.031 A 
ATOM     62  C   UNL A   1      47.616  26.208  32.540  1.00  0.00     0.131 A 
ATOM     63  C   UNL A   1      47.515  24.220  34.470  1.00  0.00     0.055 A 
ATOM     64  C   UNL A   1      48.783  25.837  33.211  1.00  0.00     0.041 A 
ATOM     65  F   UNL A   1      47.697  27.206  31.645  1.00  0.00    -0.206 F 
ATOM     66  C   UNL A   1      48.731  24.854  34.196  1.00  0.00     0.022 A 
BRANCH  63  67
ATOM     67  S   UNL A   1      47.463  23.047  35.854  1.00  0.00     0.124 S 
ATOM     68  O   UNL A   1      48.416  22.028  35.421  1.00  0.00    -0.237 OA
ATOM     69  O   UNL A   1      47.902  23.876  36.974  1.00  0.00    -0.237 OA
ATOM     70  O   UNL A   1      46.070  22.616  35.899  1.00  0.00    -0.744 OA
ENDBRANCH  63  67
ENDBRANCH  37  60
ENDBRANCH  11  12
ENDBRANCH   4   6
ENDBRANCH   1   2
BRANCH   1  71
ATOM     71  C   UNL A   1      33.201  27.800  26.586  1.00  0.00     0.023 C 
BRANCH  71  72
ATOM     72  C   UNL A   1      31.688  27.895  26.413  1.00  0.00     0.023 C 
BRANCH  72  73
ATOM     73  C   UNL A   1      31.031  26.624  25.873  1.00  0.00     0.116 C 
BRANCH  73  74
ATOM     74  N   UNL A   1      31.131  25.525  26.814  1.00  0.00    -0.356 N 
ATOM     75  C   UNL A   1      31.533  24.234  26.639  1.00  0.00     0.228 C 
ATOM     76  H   UNL A   1      30.864  25.749  27.735  1.00  0.00     0.163 HD
ATOM     77  O   UNL A   1      31.486  23.493  27.626  1.00  0.00    -0.274 OA
BRANCH  75  78
ATOM     78  C   UNL A   1      32.112  23.704  25.328  1.00  0.00     0.120 C 
ATOM     79  C   UNL A   1      31.404  22.401  24.924  1.00  0.00     0.093 C 
ATOM     80  C   UNL A   1      33.603  23.482  25.311  1.00  0.00    -0.021 A 
ATOM     81  S   UNL A   1      32.654  21.109  24.617  1.00  0.00    -0.125 SA
ATOM     82  C   UNL A   1      34.001  22.175  25.029  1.00  0.00     0.011 A 
ATOM     83  C   UNL A   1      34.555  24.454  25.613  1.00  0.00     0.006 A 
ATOM     84  C   UNL A   1      35.327  21.789  25.158  1.00  0.00     0.015 A 
ATOM     85  C   UNL A   1      35.894  24.076  25.734  1.00  0.00     0.000 A 
ATOM     86  C   UNL A   1      36.274  22.744  25.533  1.00  0.00     0.001 A 
ENDBRANCH  75  78
ENDBRANCH  73  74
ENDBRANCH  72  73
ENDBRANCH  71  72
ENDBRANCH   1  71
TORSDOF 14
ENDMDL
