MODEL 1
REMARK VINA RESULT:     -13.5      0.000      0.000
REMARK SMILES O=C(NCCCCNC(=O)c1ccc(-c2c3nc(c(-c4cc(S(=O)(=O)[O-])ccc4F)c4ccc([nH]4)c(-c4cc(S(=O)(=O)[O-])ccc4F)c4nc(c(-c5cc(S(=O)(=O)[O-])ccc5F)c5ccc2[nH]5)C=C4)C=C3)cc1)c1ccc(NS(=O)(=O)C2=Cc3ccccc3CC2)cc1
REMARK SMILES IDX 5 1 4 2 3 3 1 4 2 5 74 7 75 8 93 9 76 10 92 11 77 12 78 13
REMARK SMILES IDX 79 15 80 16 81 17 82 18 83 19 91 20 84 21 90 22 85 23 89 24
REMARK SMILES IDX 86 25 88 26 87 27 6 28 7 29 8 30 9 31 10 33 11 34 12 35
REMARK SMILES IDX 73 36 13 37 72 38 14 39 15 40 16 41 66 42 17 43 71 44 65 45
REMARK SMILES IDX 67 46 18 47 70 48 64 49 63 50 19 52 51 53 31 54 50 55 32 56
REMARK SMILES IDX 35 57 49 58 68 59 33 60 34 61 48 63 69 64 36 65 20 66 21 67
REMARK SMILES IDX 29 68 22 69 28 70 30 71 27 72 23 73 24 74 25 75 26 76 52 77
REMARK SMILES IDX 53 78 61 79 54 80 60 81 62 82 59 83 55 84 56 85 57 86 58 87
REMARK SMILES IDX 37 88 38 89 46 90 39 91 45 92 47 93 44 94 40 95 41 96 42 97
REMARK SMILES IDX 43 98
REMARK H PARENT 3 6 78 14 8 32 67 51 35 62
REMARK Flexibility Score: inf
ROOT
ATOM      1  C   UNL A   1      35.197  22.209  26.408  1.00  0.00     0.023 C 
ENDROOT
BRANCH   1   2
ATOM      2  C   UNL A   1      34.030  21.627  27.199  1.00  0.00     0.116 C 
BRANCH   2   3
ATOM      3  N   UNL A   1      33.579  20.359  26.653  1.00  0.00    -0.352 N 
ATOM      4  O   UNL A   1      32.271  19.010  25.395  1.00  0.00    -0.269 OA
ATOM      5  C   UNL A   1      32.709  20.135  25.616  1.00  0.00     0.251 C 
ATOM      6  H   UNL A   1      33.946  19.553  27.085  1.00  0.00     0.163 HD
BRANCH   5   7
ATOM      7  C   UNL A   1      32.304  21.256  24.744  1.00  0.00     0.039 A 
ATOM      8  C   UNL A   1      31.491  22.275  25.244  1.00  0.00     0.016 A 
ATOM      9  C   UNL A   1      32.829  21.350  23.452  1.00  0.00     0.016 A 
ATOM     10  C   UNL A   1      31.182  23.372  24.442  1.00  0.00     0.027 A 
ATOM     11  C   UNL A   1      32.500  22.447  22.646  1.00  0.00     0.027 A 
ATOM     12  C   UNL A   1      31.663  23.457  23.135  1.00  0.00     0.049 A 
BRANCH  12  13
ATOM     13  N   UNL A   1      31.497  24.661  22.382  1.00  0.00    -0.280 N 
ATOM     14  H   UNL A   1      30.697  24.771  21.817  1.00  0.00     0.180 HD
BRANCH  13  15
ATOM     15  S   UNL A   1      32.656  25.904  22.443  1.00  0.00     0.258 S 
ATOM     16  O   UNL A   1      33.512  25.533  23.552  1.00  0.00    -0.202 OA
ATOM     17  O   UNL A   1      33.228  25.945  21.109  1.00  0.00    -0.202 OA
BRANCH  15  18
ATOM     18  C   UNL A   1      31.847  27.439  22.775  1.00  0.00     0.066 C 
ATOM     19  C   UNL A   1      31.103  27.494  23.901  1.00  0.00     0.026 C 
ATOM     20  C   UNL A   1      32.668  28.667  22.466  1.00  0.00     0.055 C 
ATOM     21  C   UNL A   1      31.860  27.940  25.106  1.00  0.00    -0.021 A 
ATOM     22  C   UNL A   1      33.664  28.932  23.605  1.00  0.00     0.041 C 
ATOM     23  C   UNL A   1      31.339  27.679  26.376  1.00  0.00     0.008 A 
ATOM     24  C   UNL A   1      33.094  28.612  24.973  1.00  0.00    -0.040 A 
ATOM     25  C   UNL A   1      32.063  28.035  27.514  1.00  0.00     0.001 A 
ATOM     26  C   UNL A   1      33.821  28.941  26.123  1.00  0.00     0.004 A 
ATOM     27  C   UNL A   1      33.308  28.649  27.387  1.00  0.00     0.000 A 
ENDBRANCH  15  18
ENDBRANCH  13  15
ENDBRANCH  12  13
ENDBRANCH   5   7
ENDBRANCH   2   3
ENDBRANCH   1   2
BRANCH   1  28
ATOM     28  C   UNL A   1      35.952  21.211  25.528  1.00  0.00     0.023 C 
BRANCH  28  29
ATOM     29  C   UNL A   1      37.381  21.602  25.163  1.00  0.00     0.116 C 
BRANCH  29  30
ATOM     30  N   UNL A   1      38.367  20.634  25.612  1.00  0.00    -0.352 N 
ATOM     31  C   UNL A   1      39.563  20.827  26.261  1.00  0.00     0.251 C 
ATOM     32  H   UNL A   1      38.145  19.694  25.419  1.00  0.00     0.163 HD
ATOM     33  O   UNL A   1      40.313  19.869  26.427  1.00  0.00    -0.269 OA
BRANCH  31  34
ATOM     34  C   UNL A   1      39.962  22.177  26.724  1.00  0.00     0.039 A 
ATOM     35  C   UNL A   1      40.959  22.281  27.698  1.00  0.00     0.014 A 
ATOM     36  C   UNL A   1      39.366  23.333  26.213  1.00  0.00     0.014 A 
ATOM     37  C   UNL A   1      41.407  23.542  28.101  1.00  0.00     0.010 A 
ATOM     38  C   UNL A   1      39.867  24.588  26.559  1.00  0.00     0.010 A 
ATOM     39  C   UNL A   1      40.894  24.707  27.507  1.00  0.00    -0.014 A 
BRANCH  39  40
ATOM     40  C   UNL A   1      41.447  26.042  27.858  1.00  0.00     0.031 A 
ATOM     41  C   UNL A   1      42.833  26.439  27.429  1.00  0.00     0.074 A 
ATOM     42  C   UNL A   1      40.705  26.886  28.604  1.00  0.00     0.049 A 
ATOM     43  N   UNL A   1      43.466  27.570  27.617  1.00  0.00    -0.248 NA
ATOM     44  C   UNL A   1      43.624  25.421  26.725  1.00  0.00     0.031 C 
ATOM     45  C   UNL A   1      39.375  26.590  29.141  1.00  0.00     0.029 A 
ATOM     46  N   UNL A   1      40.959  28.164  29.034  1.00  0.00    -0.354 N 
ATOM     47  C   UNL A   1      44.731  27.396  27.065  1.00  0.00     0.074 A 
ATOM     48  C   UNL A   1      44.793  26.028  26.596  1.00  0.00     0.031 C 
ATOM     49  C   UNL A   1      38.910  27.672  29.786  1.00  0.00     0.029 A 
ATOM     50  C   UNL A   1      39.918  28.725  29.739  1.00  0.00     0.049 A 
ATOM     51  H   UNL A   1      41.804  28.634  28.856  1.00  0.00     0.167 HD
ATOM     52  C   UNL A   1      45.737  28.299  26.940  1.00  0.00     0.034 A 
ATOM     53  C   UNL A   1      39.786  29.955  30.274  1.00  0.00     0.034 A 
ATOM     54  C   UNL A   1      45.653  29.664  27.405  1.00  0.00     0.049 A 
ATOM     55  C   UNL A   1      40.907  30.946  30.106  1.00  0.00     0.074 A 
ATOM     56  C   UNL A   1      46.580  30.684  27.264  1.00  0.00     0.029 A 
ATOM     57  N   UNL A   1      44.584  30.201  28.112  1.00  0.00    -0.354 N 
ATOM     58  N   UNL A   1      42.066  30.793  29.506  1.00  0.00    -0.248 NA
ATOM     59  C   UNL A   1      40.690  32.283  30.671  1.00  0.00     0.031 C 
ATOM     60  C   UNL A   1      46.101  31.813  27.940  1.00  0.00     0.029 A 
ATOM     61  C   UNL A   1      44.842  31.525  28.442  1.00  0.00     0.049 A 
ATOM     62  H   UNL A   1      43.761  29.712  28.346  1.00  0.00     0.167 HD
ATOM     63  C   UNL A   1      42.705  32.026  29.601  1.00  0.00     0.074 A 
ATOM     64  C   UNL A   1      41.789  32.914  30.290  1.00  0.00     0.031 C 
ATOM     65  C   UNL A   1      43.934  32.394  29.155  1.00  0.00     0.034 A 
BRANCH  52  66
ATOM     66  C   UNL A   1      47.021  27.821  26.299  1.00  0.00     0.023 A 
ATOM     67  C   UNL A   1      47.298  28.046  24.938  1.00  0.00     0.031 A 
ATOM     68  C   UNL A   1      47.964  27.096  27.047  1.00  0.00     0.131 A 
ATOM     69  C   UNL A   1      48.438  27.477  24.349  1.00  0.00     0.055 A 
ATOM     70  C   UNL A   1      49.141  26.606  26.475  1.00  0.00     0.041 A 
ATOM     71  F   UNL A   1      47.751  26.832  28.346  1.00  0.00    -0.206 F 
ATOM     72  C   UNL A   1      49.374  26.779  25.113  1.00  0.00     0.022 A 
BRANCH  69  73
ATOM     73  S   UNL A   1      48.592  27.524  22.542  1.00  0.00     0.124 S 
ATOM     74  O   UNL A   1      47.390  28.261  22.162  1.00  0.00    -0.237 OA
ATOM     75  O   UNL A   1      49.859  28.221  22.352  1.00  0.00    -0.237 OA
ATOM     76  O   UNL A   1      48.593  26.112  22.161  1.00  0.00    -0.744 OA
ENDBRANCH  69  73
ENDBRANCH  52  66
BRANCH  53  77
ATOM     77  C   UNL A   1      38.539  30.334  30.993  1.00  0.00     0.023 A 
ATOM     78  C   UNL A   1      37.530  31.065  30.346  1.00  0.00     0.031 A 
ATOM     79  C   UNL A   1      38.349  30.000  32.345  1.00  0.00     0.131 A 
ATOM     80  C   UNL A   1      36.396  31.479  31.063  1.00  0.00     0.055 A 
ATOM     81  C   UNL A   1      37.200  30.374  33.042  1.00  0.00     0.041 A 
ATOM     82  F   UNL A   1      39.280  29.292  33.006  1.00  0.00    -0.206 F 
ATOM     83  C   UNL A   1      36.220  31.128  32.403  1.00  0.00     0.022 A 
BRANCH  80  84
ATOM     84  S   UNL A   1      35.184  32.542  30.232  1.00  0.00     0.124 S 
ATOM     85  O   UNL A   1      34.709  31.672  29.162  1.00  0.00    -0.237 OA
ATOM     86  O   UNL A   1      34.236  32.815  31.307  1.00  0.00    -0.237 OA
ATOM     87  O   UNL A   1      35.979  33.690  29.800  1.00  0.00    -0.744 OA
ENDBRANCH  80  84
ENDBRANCH  53  77
BRANCH  65  88
ATOM     88  C   UNL A   1      44.333  33.833  29.384  1.00  0.00     0.023 A 
ATOM     89  C   UNL A   1      43.835  34.873  28.579  1.00  0.00     0.031 A 
ATOM     90  C   UNL A   1      45.270  34.161  30.381  1.00  0.00     0.131 A 
ATOM     91  C   UNL A   1      44.336  36.175  28.728  1.00  0.00     0.055 A 
ATOM     92  C   UNL A   1      45.712  35.471  30.571  1.00  0.00     0.041 A 
ATOM     93  F   UNL A   1      45.781  33.209  31.178  1.00  0.00    -0.206 F 
ATOM     94  C   UNL A   1      45.260  36.484  29.729  1.00  0.00     0.022 A 
BRANCH  91  95
ATOM     95  S   UNL A   1      43.867  37.433  27.507  1.00  0.00     0.124 S 
ATOM     96  O   UNL A   1      43.080  38.361  28.314  1.00  0.00    -0.237 OA
ATOM     97  O   UNL A   1      45.164  37.924  27.054  1.00  0.00    -0.237 OA
ATOM     98  O   UNL A   1      43.107  36.678  26.512  1.00  0.00    -0.744 OA
ENDBRANCH  91  95
ENDBRANCH  65  88
ENDBRANCH  39  40
ENDBRANCH  31  34
ENDBRANCH  29  30
ENDBRANCH  28  29
ENDBRANCH   1  28
TORSDOF 17
ENDMDL
MODEL 2
REMARK VINA RESULT:     -13.1      4.792      9.836
REMARK SMILES O=C(NCCCCNC(=O)c1ccc(-c2c3nc(c(-c4cc(S(=O)(=O)[O-])ccc4F)c4ccc([nH]4)c(-c4cc(S(=O)(=O)[O-])ccc4F)c4nc(c(-c5cc(S(=O)(=O)[O-])ccc5F)c5ccc2[nH]5)C=C4)C=C3)cc1)c1ccc(NS(=O)(=O)C2=Cc3ccccc3CC2)cc1
REMARK SMILES IDX 5 1 4 2 3 3 1 4 2 5 74 7 75 8 93 9 76 10 92 11 77 12 78 13
REMARK SMILES IDX 79 15 80 16 81 17 82 18 83 19 91 20 84 21 90 22 85 23 89 24
REMARK SMILES IDX 86 25 88 26 87 27 6 28 7 29 8 30 9 31 10 33 11 34 12 35
REMARK SMILES IDX 73 36 13 37 72 38 14 39 15 40 16 41 66 42 17 43 71 44 65 45
REMARK SMILES IDX 67 46 18 47 70 48 64 49 63 50 19 52 51 53 31 54 50 55 32 56
REMARK SMILES IDX 35 57 49 58 68 59 33 60 34 61 48 63 69 64 36 65 20 66 21 67
REMARK SMILES IDX 29 68 22 69 28 70 30 71 27 72 23 73 24 74 25 75 26 76 52 77
REMARK SMILES IDX 53 78 61 79 54 80 60 81 62 82 59 83 55 84 56 85 57 86 58 87
REMARK SMILES IDX 37 88 38 89 46 90 39 91 45 92 47 93 44 94 40 95 41 96 42 97
REMARK SMILES IDX 43 98
REMARK H PARENT 3 6 78 14 8 32 67 51 35 62
REMARK Flexibility Score: inf
ROOT
ATOM      1  C   UNL A   1      32.951  29.386  24.328  1.00  0.00     0.023 C 
ENDROOT
BRANCH   1   2
ATOM      2  C   UNL A   1      31.514  29.792  24.638  1.00  0.00     0.116 C 
BRANCH   2   3
ATOM      3  N   UNL A   1      30.709  29.913  23.435  1.00  0.00    -0.352 N 
ATOM      4  O   UNL A   1      29.703  29.173  21.551  1.00  0.00    -0.269 OA
ATOM      5  C   UNL A   1      30.200  28.915  22.643  1.00  0.00     0.251 C 
ATOM      6  H   UNL A   1      30.500  30.832  23.152  1.00  0.00     0.163 HD
BRANCH   5   7
ATOM      7  C   UNL A   1      30.235  27.515  23.113  1.00  0.00     0.039 A 
ATOM      8  C   UNL A   1      31.211  26.639  22.633  1.00  0.00     0.016 A 
ATOM      9  C   UNL A   1      29.360  27.104  24.121  1.00  0.00     0.016 A 
ATOM     10  C   UNL A   1      31.291  25.344  23.143  1.00  0.00     0.027 A 
ATOM     11  C   UNL A   1      29.436  25.796  24.617  1.00  0.00     0.027 A 
ATOM     12  C   UNL A   1      30.395  24.906  24.119  1.00  0.00     0.049 A 
BRANCH  12  13
ATOM     13  N   UNL A   1      30.593  23.647  24.767  1.00  0.00    -0.280 N 
ATOM     14  H   UNL A   1      30.206  22.833  24.370  1.00  0.00     0.180 HD
BRANCH  13  15
ATOM     15  S   UNL A   1      31.485  23.532  26.211  1.00  0.00     0.258 S 
ATOM     16  O   UNL A   1      32.329  24.710  26.198  1.00  0.00    -0.202 OA
ATOM     17  O   UNL A   1      30.484  23.407  27.256  1.00  0.00    -0.202 OA
BRANCH  15  18
ATOM     18  C   UNL A   1      32.469  22.066  26.172  1.00  0.00     0.066 C 
ATOM     19  C   UNL A   1      33.120  21.810  25.016  1.00  0.00     0.026 C 
ATOM     20  C   UNL A   1      33.240  21.787  27.439  1.00  0.00     0.055 C 
ATOM     21  C   UNL A   1      34.485  22.408  24.946  1.00  0.00    -0.021 A 
ATOM     22  C   UNL A   1      34.509  22.653  27.480  1.00  0.00     0.041 C 
ATOM     23  C   UNL A   1      35.103  22.553  23.701  1.00  0.00     0.008 A 
ATOM     24  C   UNL A   1      35.149  22.829  26.118  1.00  0.00    -0.040 A 
ATOM     25  C   UNL A   1      36.354  23.164  23.610  1.00  0.00     0.001 A 
ATOM     26  C   UNL A   1      36.392  23.463  26.009  1.00  0.00     0.004 A 
ATOM     27  C   UNL A   1      36.988  23.633  24.760  1.00  0.00     0.000 A 
ENDBRANCH  15  18
ENDBRANCH  13  15
ENDBRANCH  12  13
ENDBRANCH   5   7
ENDBRANCH   2   3
ENDBRANCH   1   2
BRANCH   1  28
ATOM     28  C   UNL A   1      33.488  28.208  25.143  1.00  0.00     0.023 C 
BRANCH  28  29
ATOM     29  C   UNL A   1      34.030  28.555  26.526  1.00  0.00     0.116 C 
BRANCH  29  30
ATOM     30  N   UNL A   1      33.681  29.900  26.953  1.00  0.00    -0.352 N 
ATOM     31  C   UNL A   1      34.341  30.758  27.800  1.00  0.00     0.251 C 
ATOM     32  H   UNL A   1      32.841  30.251  26.576  1.00  0.00     0.163 HD
ATOM     33  O   UNL A   1      33.794  31.806  28.133  1.00  0.00    -0.269 OA
BRANCH  31  34
ATOM     34  C   UNL A   1      35.677  30.411  28.336  1.00  0.00     0.039 A 
ATOM     35  C   UNL A   1      35.751  29.729  29.554  1.00  0.00     0.014 A 
ATOM     36  C   UNL A   1      36.851  30.749  27.656  1.00  0.00     0.014 A 
ATOM     37  C   UNL A   1      36.994  29.325  30.049  1.00  0.00     0.010 A 
ATOM     38  C   UNL A   1      38.082  30.278  28.112  1.00  0.00     0.010 A 
ATOM     39  C   UNL A   1      38.168  29.560  29.313  1.00  0.00    -0.014 A 
BRANCH  39  40
ATOM     40  C   UNL A   1      39.476  29.034  29.787  1.00  0.00     0.031 A 
ATOM     41  C   UNL A   1      40.171  29.650  30.971  1.00  0.00     0.074 A 
ATOM     42  C   UNL A   1      40.058  28.018  29.119  1.00  0.00     0.049 A 
ATOM     43  N   UNL A   1      41.297  29.303  31.543  1.00  0.00    -0.248 NA
ATOM     44  C   UNL A   1      39.533  30.829  31.571  1.00  0.00     0.031 C 
ATOM     45  C   UNL A   1      39.519  27.382  27.914  1.00  0.00     0.029 A 
ATOM     46  N   UNL A   1      41.225  27.337  29.358  1.00  0.00    -0.354 N 
ATOM     47  C   UNL A   1      41.508  30.227  32.561  1.00  0.00     0.074 A 
ATOM     48  C   UNL A   1      40.426  31.185  32.482  1.00  0.00     0.031 C 
ATOM     49  C   UNL A   1      40.327  26.374  27.549  1.00  0.00     0.029 A 
ATOM     50  C   UNL A   1      41.457  26.311  28.470  1.00  0.00     0.049 A 
ATOM     51  H   UNL A   1      41.838  27.560  30.095  1.00  0.00     0.167 HD
ATOM     52  C   UNL A   1      42.498  30.260  33.490  1.00  0.00     0.034 A 
ATOM     53  C   UNL A   1      42.460  25.413  28.413  1.00  0.00     0.034 A 
ATOM     54  C   UNL A   1      43.565  29.288  33.560  1.00  0.00     0.049 A 
ATOM     55  C   UNL A   1      43.537  25.456  29.464  1.00  0.00     0.074 A 
ATOM     56  C   UNL A   1      44.576  29.181  34.501  1.00  0.00     0.029 A 
ATOM     57  N   UNL A   1      43.769  28.260  32.646  1.00  0.00    -0.354 N 
ATOM     58  N   UNL A   1      43.677  26.285  30.474  1.00  0.00    -0.248 NA
ATOM     59  C   UNL A   1      44.578  24.426  29.379  1.00  0.00     0.031 C 
ATOM     60  C   UNL A   1      45.425  28.134  34.121  1.00  0.00     0.029 A 
ATOM     61  C   UNL A   1      44.905  27.538  32.983  1.00  0.00     0.049 A 
ATOM     62  H   UNL A   1      43.191  28.073  31.871  1.00  0.00     0.167 HD
ATOM     63  C   UNL A   1      44.811  25.857  31.157  1.00  0.00     0.074 A 
ATOM     64  C   UNL A   1      45.297  24.683  30.460  1.00  0.00     0.031 C 
ATOM     65  C   UNL A   1      45.398  26.384  32.264  1.00  0.00     0.034 A 
BRANCH  52  66
ATOM     66  C   UNL A   1      42.481  31.402  34.481  1.00  0.00     0.023 A 
ATOM     67  C   UNL A   1      41.588  31.426  35.568  1.00  0.00     0.031 A 
ATOM     68  C   UNL A   1      43.340  32.502  34.316  1.00  0.00     0.131 A 
ATOM     69  C   UNL A   1      41.512  32.560  36.391  1.00  0.00     0.055 A 
ATOM     70  C   UNL A   1      43.321  33.592  35.191  1.00  0.00     0.041 A 
ATOM     71  F   UNL A   1      44.202  32.549  33.288  1.00  0.00    -0.206 F 
ATOM     72  C   UNL A   1      42.390  33.632  36.225  1.00  0.00     0.022 A 
BRANCH  69  73
ATOM     73  S   UNL A   1      40.143  32.679  37.575  1.00  0.00     0.124 S 
ATOM     74  O   UNL A   1      39.261  31.610  37.116  1.00  0.00    -0.237 OA
ATOM     75  O   UNL A   1      40.810  32.455  38.852  1.00  0.00    -0.237 OA
ATOM     76  O   UNL A   1      39.628  34.032  37.368  1.00  0.00    -0.744 OA
ENDBRANCH  69  73
ENDBRANCH  52  66
BRANCH  53  77
ATOM     77  C   UNL A   1      42.483  24.376  27.344  1.00  0.00     0.023 A 
ATOM     78  C   UNL A   1      41.652  23.247  27.420  1.00  0.00     0.031 A 
ATOM     79  C   UNL A   1      43.357  24.482  26.248  1.00  0.00     0.131 A 
ATOM     80  C   UNL A   1      41.745  22.244  26.442  1.00  0.00     0.055 A 
ATOM     81  C   UNL A   1      43.413  23.504  25.254  1.00  0.00     0.041 A 
ATOM     82  F   UNL A   1      44.164  25.549  26.125  1.00  0.00    -0.206 F 
ATOM     83  C   UNL A   1      42.612  22.371  25.355  1.00  0.00     0.022 A 
BRANCH  80  84
ATOM     84  S   UNL A   1      40.760  20.735  26.651  1.00  0.00     0.124 S 
ATOM     85  O   UNL A   1      41.534  19.766  25.884  1.00  0.00    -0.237 OA
ATOM     86  O   UNL A   1      40.772  20.565  28.100  1.00  0.00    -0.237 OA
ATOM     87  O   UNL A   1      39.463  21.094  26.079  1.00  0.00    -0.744 OA
ENDBRANCH  80  84
ENDBRANCH  53  77
BRANCH  65  88
ATOM     88  C   UNL A   1      46.616  25.662  32.792  1.00  0.00     0.023 A 
ATOM     89  C   UNL A   1      46.509  24.652  33.764  1.00  0.00     0.031 A 
ATOM     90  C   UNL A   1      47.902  26.032  32.362  1.00  0.00     0.131 A 
ATOM     91  C   UNL A   1      47.668  24.104  34.334  1.00  0.00     0.055 A 
ATOM     92  C   UNL A   1      49.051  25.433  32.883  1.00  0.00     0.041 A 
ATOM     93  F   UNL A   1      48.065  26.992  31.438  1.00  0.00    -0.206 F 
ATOM     94  C   UNL A   1      48.938  24.477  33.888  1.00  0.00     0.022 A 
BRANCH  91  95
ATOM     95  S   UNL A   1      47.496  22.997  35.761  1.00  0.00     0.124 S 
ATOM     96  O   UNL A   1      48.882  22.624  36.026  1.00  0.00    -0.237 OA
ATOM     97  O   UNL A   1      46.868  23.865  36.752  1.00  0.00    -0.237 OA
ATOM     98  O   UNL A   1      46.649  21.917  35.258  1.00  0.00    -0.744 OA
ENDBRANCH  91  95
ENDBRANCH  65  88
ENDBRANCH  39  40
ENDBRANCH  31  34
ENDBRANCH  29  30
ENDBRANCH  28  29
ENDBRANCH   1  28
TORSDOF 17
ENDMDL
MODEL 3
REMARK VINA RESULT:     -13.1      1.660      2.149
REMARK SMILES O=C(NCCCCNC(=O)c1ccc(-c2c3nc(c(-c4cc(S(=O)(=O)[O-])ccc4F)c4ccc([nH]4)c(-c4cc(S(=O)(=O)[O-])ccc4F)c4nc(c(-c5cc(S(=O)(=O)[O-])ccc5F)c5ccc2[nH]5)C=C4)C=C3)cc1)c1ccc(NS(=O)(=O)C2=Cc3ccccc3CC2)cc1
REMARK SMILES IDX 5 1 4 2 3 3 1 4 2 5 74 7 75 8 93 9 76 10 92 11 77 12 78 13
REMARK SMILES IDX 79 15 80 16 81 17 82 18 83 19 91 20 84 21 90 22 85 23 89 24
REMARK SMILES IDX 86 25 88 26 87 27 6 28 7 29 8 30 9 31 10 33 11 34 12 35
REMARK SMILES IDX 73 36 13 37 72 38 14 39 15 40 16 41 66 42 17 43 71 44 65 45
REMARK SMILES IDX 67 46 18 47 70 48 64 49 63 50 19 52 51 53 31 54 50 55 32 56
REMARK SMILES IDX 35 57 49 58 68 59 33 60 34 61 48 63 69 64 36 65 20 66 21 67
REMARK SMILES IDX 29 68 22 69 28 70 30 71 27 72 23 73 24 74 25 75 26 76 52 77
REMARK SMILES IDX 53 78 61 79 54 80 60 81 62 82 59 83 55 84 56 85 57 86 58 87
REMARK SMILES IDX 37 88 38 89 46 90 39 91 45 92 47 93 44 94 40 95 41 96 42 97
REMARK SMILES IDX 43 98
REMARK H PARENT 3 6 78 14 8 32 67 51 35 62
REMARK Flexibility Score: inf
ROOT
ATOM      1  C   UNL A   1      35.808  21.367  25.209  1.00  0.00     0.023 C 
ENDROOT
BRANCH   1   2
ATOM      2  C   UNL A   1      34.758  21.115  26.287  1.00  0.00     0.116 C 
BRANCH   2   3
ATOM      3  N   UNL A   1      33.911  19.978  25.968  1.00  0.00    -0.352 N 
ATOM      4  O   UNL A   1      32.031  18.956  25.239  1.00  0.00    -0.269 OA
ATOM      5  C   UNL A   1      32.735  19.960  25.261  1.00  0.00     0.251 C 
ATOM      6  H   UNL A   1      34.221  19.106  26.303  1.00  0.00     0.163 HD
BRANCH   5   7
ATOM      7  C   UNL A   1      32.317  21.158  24.503  1.00  0.00     0.039 A 
ATOM      8  C   UNL A   1      31.597  22.172  25.138  1.00  0.00     0.016 A 
ATOM      9  C   UNL A   1      32.739  21.321  23.182  1.00  0.00     0.016 A 
ATOM     10  C   UNL A   1      31.278  23.336  24.441  1.00  0.00     0.027 A 
ATOM     11  C   UNL A   1      32.401  22.486  22.482  1.00  0.00     0.027 A 
ATOM     12  C   UNL A   1      31.656  23.494  23.107  1.00  0.00     0.049 A 
BRANCH  12  13
ATOM     13  N   UNL A   1      31.489  24.755  22.453  1.00  0.00    -0.280 N 
ATOM     14  H   UNL A   1      30.634  24.959  22.009  1.00  0.00     0.180 HD
BRANCH  13  15
ATOM     15  S   UNL A   1      32.741  25.906  22.429  1.00  0.00     0.258 S 
ATOM     16  O   UNL A   1      33.604  25.510  23.523  1.00  0.00    -0.202 OA
ATOM     17  O   UNL A   1      33.267  25.852  21.076  1.00  0.00    -0.202 OA
BRANCH  15  18
ATOM     18  C   UNL A   1      32.064  27.509  22.725  1.00  0.00     0.066 C 
ATOM     19  C   UNL A   1      31.289  27.641  23.824  1.00  0.00     0.026 C 
ATOM     20  C   UNL A   1      33.003  28.656  22.439  1.00  0.00     0.055 C 
ATOM     21  C   UNL A   1      32.042  28.025  25.053  1.00  0.00    -0.021 A 
ATOM     22  C   UNL A   1      33.979  28.838  23.613  1.00  0.00     0.041 C 
ATOM     23  C   UNL A   1      31.455  27.822  26.305  1.00  0.00     0.008 A 
ATOM     24  C   UNL A   1      33.335  28.581  24.961  1.00  0.00    -0.040 A 
ATOM     25  C   UNL A   1      32.168  28.119  27.466  1.00  0.00     0.001 A 
ATOM     26  C   UNL A   1      34.048  28.852  26.134  1.00  0.00     0.004 A 
ATOM     27  C   UNL A   1      33.467  28.617  27.380  1.00  0.00     0.000 A 
ENDBRANCH  15  18
ENDBRANCH  13  15
ENDBRANCH  12  13
ENDBRANCH   5   7
ENDBRANCH   2   3
ENDBRANCH   1   2
BRANCH   1  28
ATOM     28  C   UNL A   1      36.166  22.836  24.978  1.00  0.00     0.023 C 
BRANCH  28  29
ATOM     29  C   UNL A   1      37.398  23.341  25.721  1.00  0.00     0.116 C 
BRANCH  29  30
ATOM     30  N   UNL A   1      38.362  22.291  26.002  1.00  0.00    -0.352 N 
ATOM     31  C   UNL A   1      39.641  22.375  26.500  1.00  0.00     0.251 C 
ATOM     32  H   UNL A   1      38.051  21.377  25.805  1.00  0.00     0.163 HD
ATOM     33  O   UNL A   1      40.336  21.363  26.530  1.00  0.00    -0.269 OA
BRANCH  31  34
ATOM     34  C   UNL A   1      40.190  23.672  26.958  1.00  0.00     0.039 A 
ATOM     35  C   UNL A   1      40.140  24.763  26.087  1.00  0.00     0.014 A 
ATOM     36  C   UNL A   1      40.750  23.822  28.230  1.00  0.00     0.014 A 
ATOM     37  C   UNL A   1      40.584  26.017  26.517  1.00  0.00     0.010 A 
ATOM     38  C   UNL A   1      41.121  25.088  28.684  1.00  0.00     0.010 A 
ATOM     39  C   UNL A   1      41.041  26.200  27.833  1.00  0.00    -0.014 A 
BRANCH  39  40
ATOM     40  C   UNL A   1      41.410  27.555  28.323  1.00  0.00     0.031 A 
ATOM     41  C   UNL A   1      42.846  28.003  28.341  1.00  0.00     0.074 A 
ATOM     42  C   UNL A   1      40.445  28.371  28.793  1.00  0.00     0.049 A 
ATOM     43  N   UNL A   1      43.349  29.158  28.702  1.00  0.00    -0.248 NA
ATOM     44  C   UNL A   1      43.852  27.015  27.928  1.00  0.00     0.031 C 
ATOM     45  C   UNL A   1      39.024  28.026  28.894  1.00  0.00     0.029 A 
ATOM     46  N   UNL A   1      40.506  29.657  29.266  1.00  0.00    -0.354 N 
ATOM     47  C   UNL A   1      44.728  29.030  28.572  1.00  0.00     0.074 A 
ATOM     48  C   UNL A   1      44.981  27.666  28.161  1.00  0.00     0.031 C 
ATOM     49  C   UNL A   1      38.345  29.090  29.351  1.00  0.00     0.029 A 
ATOM     50  C   UNL A   1      39.280  30.180  29.606  1.00  0.00     0.049 A 
ATOM     51  H   UNL A   1      41.349  30.159  29.353  1.00  0.00     0.167 HD
ATOM     52  C   UNL A   1      45.691  29.970  28.754  1.00  0.00     0.034 A 
ATOM     53  C   UNL A   1      38.945  31.403  30.060  1.00  0.00     0.034 A 
ATOM     54  C   UNL A   1      45.419  31.331  29.155  1.00  0.00     0.049 A 
ATOM     55  C   UNL A   1      40.027  32.435  30.237  1.00  0.00     0.074 A 
ATOM     56  C   UNL A   1      46.307  32.385  29.296  1.00  0.00     0.029 A 
ATOM     57  N   UNL A   1      44.164  31.828  29.490  1.00  0.00    -0.354 N 
ATOM     58  N   UNL A   1      41.320  32.326  30.028  1.00  0.00    -0.248 NA
ATOM     59  C   UNL A   1      39.598  33.763  30.691  1.00  0.00     0.031 C 
ATOM     60  C   UNL A   1      45.602  33.495  29.778  1.00  0.00     0.029 A 
ATOM     61  C   UNL A   1      44.261  33.160  29.868  1.00  0.00     0.049 A 
ATOM     62  H   UNL A   1      43.328  31.309  29.463  1.00  0.00     0.167 HD
ATOM     63  C   UNL A   1      41.853  33.582  30.301  1.00  0.00     0.074 A 
ATOM     64  C   UNL A   1      40.738  34.435  30.663  1.00  0.00     0.031 C 
ATOM     65  C   UNL A   1      43.146  33.995  30.255  1.00  0.00     0.034 A 
BRANCH  52  66
ATOM     66  C   UNL A   1      47.126  29.540  28.549  1.00  0.00     0.023 A 
ATOM     67  C   UNL A   1      47.629  29.221  27.274  1.00  0.00     0.031 A 
ATOM     68  C   UNL A   1      47.995  29.407  29.646  1.00  0.00     0.131 A 
ATOM     69  C   UNL A   1      48.926  28.704  27.138  1.00  0.00     0.055 A 
ATOM     70  C   UNL A   1      49.315  28.974  29.494  1.00  0.00     0.041 A 
ATOM     71  F   UNL A   1      47.572  29.678  30.890  1.00  0.00    -0.206 F 
ATOM     72  C   UNL A   1      49.781  28.601  28.236  1.00  0.00     0.022 A 
BRANCH  69  73
ATOM     73  S   UNL A   1      49.419  28.014  25.534  1.00  0.00     0.124 S 
ATOM     74  O   UNL A   1      49.759  26.640  25.895  1.00  0.00    -0.237 OA
ATOM     75  O   UNL A   1      48.214  28.186  24.733  1.00  0.00    -0.237 OA
ATOM     76  O   UNL A   1      50.556  28.844  25.139  1.00  0.00    -0.744 OA
ENDBRANCH  69  73
ENDBRANCH  52  66
BRANCH  53  77
ATOM     77  C   UNL A   1      37.523  31.736  30.353  1.00  0.00     0.023 A 
ATOM     78  C   UNL A   1      36.662  32.169  29.332  1.00  0.00     0.031 A 
ATOM     79  C   UNL A   1      37.012  31.656  31.660  1.00  0.00     0.131 A 
ATOM     80  C   UNL A   1      35.347  32.551  29.642  1.00  0.00     0.055 A 
ATOM     81  C   UNL A   1      35.691  31.993  31.956  1.00  0.00     0.041 A 
ATOM     82  F   UNL A   1      37.794  31.236  32.669  1.00  0.00    -0.206 F 
ATOM     83  C   UNL A   1      34.854  32.455  30.946  1.00  0.00     0.022 A 
BRANCH  80  84
ATOM     84  S   UNL A   1      34.310  33.241  28.324  1.00  0.00     0.124 S 
ATOM     85  O   UNL A   1      35.304  33.874  27.464  1.00  0.00    -0.237 OA
ATOM     86  O   UNL A   1      33.667  32.045  27.790  1.00  0.00    -0.237 OA
ATOM     87  O   UNL A   1      33.422  34.158  29.035  1.00  0.00    -0.744 OA
ENDBRANCH  80  84
ENDBRANCH  53  77
BRANCH  65  88
ATOM     88  C   UNL A   1      43.404  35.448  30.580  1.00  0.00     0.023 A 
ATOM     89  C   UNL A   1      43.394  36.439  29.582  1.00  0.00     0.031 A 
ATOM     90  C   UNL A   1      43.722  35.837  31.893  1.00  0.00     0.131 A 
ATOM     91  C   UNL A   1      43.776  37.752  29.896  1.00  0.00     0.055 A 
ATOM     92  C   UNL A   1      44.034  37.159  32.213  1.00  0.00     0.041 A 
ATOM     93  F   UNL A   1      43.749  34.933  32.886  1.00  0.00    -0.206 F 
ATOM     94  C   UNL A   1      44.082  38.122  31.208  1.00  0.00     0.022 A 
BRANCH  91  95
ATOM     95  S   UNL A   1      44.003  38.939  28.542  1.00  0.00     0.124 S 
ATOM     96  O   UNL A   1      45.318  39.497  28.844  1.00  0.00    -0.237 OA
ATOM     97  O   UNL A   1      43.930  38.082  27.364  1.00  0.00    -0.237 OA
ATOM     98  O   UNL A   1      42.884  39.865  28.706  1.00  0.00    -0.744 OA
ENDBRANCH  91  95
ENDBRANCH  65  88
ENDBRANCH  39  40
ENDBRANCH  31  34
ENDBRANCH  29  30
ENDBRANCH  28  29
ENDBRANCH   1  28
TORSDOF 17
ENDMDL
