MODEL 1
REMARK VINA RESULT:     -12.4      0.000      0.000
REMARK SMILES C[C@@H]1CN(C(=O)N2CCC(CC(=O)NCCCCNC(=O)c3ccc(-c4c5nc(c(-c6cc(S(=O)(=O)[O-])ccc6F)c6ccc([nH]6)c(-c6cc(S(=O)(=O)[O-])ccc6F)c6nc(c(-c7cc(S(=O)(=O)[O-])ccc7F)c7ccc4[nH]7)C=C6)C=C5)cc3)CC2)C[C@@H](C)S1
REMARK SMILES IDX 17 1 16 2 15 3 14 4 12 5 13 6 11 8 10 9 1 10 2 11 3 12 90 13
REMARK SMILES IDX 4 14 88 15 5 16 87 17 89 18 6 19 7 20 8 21 86 22 9 23 85 24
REMARK SMILES IDX 18 25 19 26 20 27 21 29 22 30 23 31 84 32 24 33 83 34 25 35
REMARK SMILES IDX 26 36 27 37 77 38 28 39 82 40 76 41 78 42 29 43 81 44 75 45
REMARK SMILES IDX 74 46 30 48 62 49 42 50 61 51 43 52 46 53 60 54 79 55 44 56
REMARK SMILES IDX 45 57 59 59 80 60 47 61 31 62 32 63 40 64 33 65 39 66 41 67
REMARK SMILES IDX 38 68 34 69 35 70 36 71 37 72 63 73 64 74 72 75 65 76 71 77
REMARK SMILES IDX 73 78 70 79 66 80 67 81 68 82 69 83 48 84 49 85 57 86 50 87
REMARK SMILES IDX 56 88 58 89 55 90 51 91 52 92 53 93 54 94
REMARK H PARENT 14 7 19 28 78 47 46 58
REMARK Flexibility Score: inf
ROOT
ATOM      1  C   UNL A   1      31.345  31.938  26.743  1.00  0.00     0.023 C 
ENDROOT
BRANCH   1   2
ATOM      2  C   UNL A   1      31.513  30.673  25.921  1.00  0.00     0.023 C 
BRANCH   2   3
ATOM      3  C   UNL A   1      32.913  30.049  25.939  1.00  0.00     0.116 C 
BRANCH   3   4
ATOM      4  N   UNL A   1      33.366  29.728  24.592  1.00  0.00    -0.356 N 
ATOM      5  C   UNL A   1      33.761  28.546  24.034  1.00  0.00     0.220 C 
ATOM      6  O   UNL A   1      34.197  28.561  22.882  1.00  0.00    -0.275 OA
ATOM      7  H   UNL A   1      33.393  30.496  23.978  1.00  0.00     0.163 HD
BRANCH   5   8
ATOM      8  C   UNL A   1      33.661  27.236  24.801  1.00  0.00     0.103 C 
BRANCH   8   9
ATOM      9  C   UNL A   1      32.256  26.579  24.791  1.00  0.00     0.002 C 
ATOM     10  C   UNL A   1      34.613  22.850  25.835  1.00  0.00     0.021 C 
ATOM     11  C   UNL A   1      34.640  21.991  24.574  1.00  0.00     0.063 C 
ATOM     12  C   UNL A   1      33.426  22.239  23.655  1.00  0.00     0.135 C 
ATOM     13  S   UNL A   1      34.837  20.219  25.014  1.00  0.00    -0.152 SA
ATOM     14  N   UNL A   1      32.164  21.748  24.216  1.00  0.00    -0.322 N 
ATOM     15  C   UNL A   1      33.093  19.803  25.438  1.00  0.00     0.063 C 
ATOM     16  C   UNL A   1      31.305  22.483  25.025  1.00  0.00     0.320 C 
ATOM     17  C   UNL A   1      32.122  20.292  24.350  1.00  0.00     0.135 C 
ATOM     18  C   UNL A   1      32.996  18.292  25.620  1.00  0.00     0.021 C 
ATOM     19  O   UNL A   1      30.640  21.936  25.908  1.00  0.00    -0.248 OA
ATOM     20  N   UNL A   1      31.286  23.850  24.877  1.00  0.00    -0.325 N 
ATOM     21  C   UNL A   1      30.989  24.702  26.017  1.00  0.00     0.121 C 
ATOM     22  C   UNL A   1      31.141  24.530  23.607  1.00  0.00     0.121 C 
ATOM     23  C   UNL A   1      32.046  25.800  26.108  1.00  0.00     0.026 C 
ATOM     24  C   UNL A   1      32.099  25.704  23.543  1.00  0.00     0.026 C 
ENDBRANCH   8   9
ENDBRANCH   5   8
ENDBRANCH   3   4
ENDBRANCH   2   3
ENDBRANCH   1   2
BRANCH   1  25
ATOM     25  C   UNL A   1      32.652  32.576  27.166  1.00  0.00     0.116 C 
BRANCH  25  26
ATOM     26  N   UNL A   1      32.494  33.925  27.693  1.00  0.00    -0.352 N 
ATOM     27  C   UNL A   1      33.237  34.556  28.668  1.00  0.00     0.251 C 
ATOM     28  H   UNL A   1      31.763  34.456  27.302  1.00  0.00     0.163 HD
ATOM     29  O   UNL A   1      32.904  35.658  29.079  1.00  0.00    -0.269 OA
BRANCH  27  30
ATOM     30  C   UNL A   1      34.405  33.848  29.233  1.00  0.00     0.039 A 
ATOM     31  C   UNL A   1      35.689  34.321  28.962  1.00  0.00     0.014 A 
ATOM     32  C   UNL A   1      34.212  32.777  30.109  1.00  0.00     0.014 A 
ATOM     33  C   UNL A   1      36.778  33.764  29.636  1.00  0.00     0.010 A 
ATOM     34  C   UNL A   1      35.277  32.312  30.863  1.00  0.00     0.010 A 
ATOM     35  C   UNL A   1      36.575  32.785  30.621  1.00  0.00    -0.014 A 
BRANCH  35  36
ATOM     36  C   UNL A   1      37.704  32.185  31.374  1.00  0.00     0.031 A 
ATOM     37  C   UNL A   1      38.495  31.072  30.738  1.00  0.00     0.074 A 
ATOM     38  C   UNL A   1      37.957  32.569  32.640  1.00  0.00     0.049 A 
ATOM     39  N   UNL A   1      39.423  30.311  31.256  1.00  0.00    -0.248 NA
ATOM     40  C   UNL A   1      38.148  30.735  29.349  1.00  0.00     0.031 C 
ATOM     41  C   UNL A   1      37.215  33.590  33.383  1.00  0.00     0.029 A 
ATOM     42  N   UNL A   1      38.906  32.137  33.532  1.00  0.00    -0.354 N 
ATOM     43  C   UNL A   1      39.746  29.388  30.265  1.00  0.00     0.074 A 
ATOM     44  C   UNL A   1      38.849  29.631  29.156  1.00  0.00     0.031 C 
ATOM     45  C   UNL A   1      37.754  33.724  34.607  1.00  0.00     0.029 A 
ATOM     46  C   UNL A   1      38.853  32.774  34.749  1.00  0.00     0.049 A 
ATOM     47  H   UNL A   1      39.563  31.436  33.320  1.00  0.00     0.167 HD
ATOM     48  C   UNL A   1      40.726  28.451  30.264  1.00  0.00     0.034 A 
ATOM     49  C   UNL A   1      39.606  32.607  35.854  1.00  0.00     0.034 A 
ATOM     50  C   UNL A   1      41.633  28.255  31.365  1.00  0.00     0.049 A 
ATOM     51  C   UNL A   1      40.718  31.588  35.820  1.00  0.00     0.074 A 
ATOM     52  C   UNL A   1      42.695  27.374  31.467  1.00  0.00     0.029 A 
ATOM     53  N   UNL A   1      41.590  28.966  32.560  1.00  0.00    -0.354 N 
ATOM     54  N   UNL A   1      41.041  30.750  34.861  1.00  0.00    -0.248 NA
ATOM     55  C   UNL A   1      41.579  31.509  37.006  1.00  0.00     0.031 C 
ATOM     56  C   UNL A   1      43.263  27.519  32.738  1.00  0.00     0.029 A 
ATOM     57  C   UNL A   1      42.599  28.536  33.406  1.00  0.00     0.049 A 
ATOM     58  H   UNL A   1      40.936  29.670  32.773  1.00  0.00     0.167 HD
ATOM     59  C   UNL A   1      42.163  30.065  35.319  1.00  0.00     0.074 A 
ATOM     60  C   UNL A   1      42.466  30.600  36.631  1.00  0.00     0.031 C 
ATOM     61  C   UNL A   1      42.881  29.086  34.711  1.00  0.00     0.034 A 
BRANCH  48  62
ATOM     62  C   UNL A   1      40.840  27.577  29.035  1.00  0.00     0.023 A 
ATOM     63  C   UNL A   1      41.810  27.824  28.046  1.00  0.00     0.031 A 
ATOM     64  C   UNL A   1      39.930  26.530  28.813  1.00  0.00     0.131 A 
ATOM     65  C   UNL A   1      41.778  27.112  26.838  1.00  0.00     0.055 A 
ATOM     66  C   UNL A   1      39.966  25.759  27.648  1.00  0.00     0.041 A 
ATOM     67  F   UNL A   1      38.968  26.257  29.709  1.00  0.00    -0.206 F 
ATOM     68  C   UNL A   1      40.880  26.062  26.643  1.00  0.00     0.022 A 
BRANCH  65  69
ATOM     69  S   UNL A   1      42.806  27.701  25.465  1.00  0.00     0.124 S 
ATOM     70  O   UNL A   1      42.014  28.824  24.967  1.00  0.00    -0.237 OA
ATOM     71  O   UNL A   1      44.056  28.046  26.130  1.00  0.00    -0.237 OA
ATOM     72  O   UNL A   1      42.872  26.549  24.568  1.00  0.00    -0.744 OA
ENDBRANCH  65  69
ENDBRANCH  48  62
BRANCH  49  73
ATOM     73  C   UNL A   1      39.349  33.422  37.075  1.00  0.00     0.023 A 
ATOM     74  C   UNL A   1      40.048  34.617  37.306  1.00  0.00     0.031 A 
ATOM     75  C   UNL A   1      38.417  33.006  38.041  1.00  0.00     0.131 A 
ATOM     76  C   UNL A   1      39.839  35.332  38.496  1.00  0.00     0.055 A 
ATOM     77  C   UNL A   1      38.178  33.744  39.202  1.00  0.00     0.041 A 
ATOM     78  F   UNL A   1      37.711  31.877  37.861  1.00  0.00    -0.206 F 
ATOM     79  C   UNL A   1      38.901  34.909  39.441  1.00  0.00     0.022 A 
BRANCH  76  80
ATOM     80  S   UNL A   1      40.866  36.791  38.825  1.00  0.00     0.124 S 
ATOM     81  O   UNL A   1      41.658  36.879  37.604  1.00  0.00    -0.237 OA
ATOM     82  O   UNL A   1      39.860  37.831  39.014  1.00  0.00    -0.237 OA
ATOM     83  O   UNL A   1      41.608  36.420  40.029  1.00  0.00    -0.744 OA
ENDBRANCH  76  80
ENDBRANCH  49  73
BRANCH  61  84
ATOM     84  C   UNL A   1      44.095  28.576  35.444  1.00  0.00     0.023 A 
ATOM     85  C   UNL A   1      44.013  27.519  36.366  1.00  0.00     0.031 A 
ATOM     86  C   UNL A   1      45.351  29.165  35.217  1.00  0.00     0.131 A 
ATOM     87  C   UNL A   1      45.158  27.120  37.070  1.00  0.00     0.055 A 
ATOM     88  C   UNL A   1      46.497  28.724  35.878  1.00  0.00     0.041 A 
ATOM     89  F   UNL A   1      45.485  30.178  34.345  1.00  0.00    -0.206 F 
ATOM     90  C   UNL A   1      46.402  27.705  36.821  1.00  0.00     0.022 A 
BRANCH  87  91
ATOM     91  S   UNL A   1      44.982  25.881  38.384  1.00  0.00     0.124 S 
ATOM     92  O   UNL A   1      46.363  25.456  38.587  1.00  0.00    -0.237 OA
ATOM     93  O   UNL A   1      44.388  26.659  39.467  1.00  0.00    -0.237 OA
ATOM     94  O   UNL A   1      44.103  24.875  37.791  1.00  0.00    -0.744 OA
ENDBRANCH  87  91
ENDBRANCH  61  84
ENDBRANCH  35  36
ENDBRANCH  27  30
ENDBRANCH  25  26
ENDBRANCH   1  25
TORSDOF 15
ENDMDL
MODEL 2
REMARK VINA RESULT:     -12.3      1.783      2.199
REMARK SMILES C[C@@H]1CN(C(=O)N2CCC(CC(=O)NCCCCNC(=O)c3ccc(-c4c5nc(c(-c6cc(S(=O)(=O)[O-])ccc6F)c6ccc([nH]6)c(-c6cc(S(=O)(=O)[O-])ccc6F)c6nc(c(-c7cc(S(=O)(=O)[O-])ccc7F)c7ccc4[nH]7)C=C6)C=C5)cc3)CC2)C[C@@H](C)S1
REMARK SMILES IDX 17 1 16 2 15 3 14 4 12 5 13 6 11 8 10 9 1 10 2 11 3 12 90 13
REMARK SMILES IDX 4 14 88 15 5 16 87 17 89 18 6 19 7 20 8 21 86 22 9 23 85 24
REMARK SMILES IDX 18 25 19 26 20 27 21 29 22 30 23 31 84 32 24 33 83 34 25 35
REMARK SMILES IDX 26 36 27 37 77 38 28 39 82 40 76 41 78 42 29 43 81 44 75 45
REMARK SMILES IDX 74 46 30 48 62 49 42 50 61 51 43 52 46 53 60 54 79 55 44 56
REMARK SMILES IDX 45 57 59 59 80 60 47 61 31 62 32 63 40 64 33 65 39 66 41 67
REMARK SMILES IDX 38 68 34 69 35 70 36 71 37 72 63 73 64 74 72 75 65 76 71 77
REMARK SMILES IDX 73 78 70 79 66 80 67 81 68 82 69 83 48 84 49 85 57 86 50 87
REMARK SMILES IDX 56 88 58 89 55 90 51 91 52 92 53 93 54 94
REMARK H PARENT 14 7 19 28 78 47 46 58
REMARK Flexibility Score: inf
ROOT
ATOM      1  C   UNL A   1      32.137  31.240  26.876  1.00  0.00     0.023 C 
ENDROOT
BRANCH   1   2
ATOM      2  C   UNL A   1      32.569  29.794  26.713  1.00  0.00     0.023 C 
BRANCH   2   3
ATOM      3  C   UNL A   1      32.874  29.348  25.278  1.00  0.00     0.116 C 
BRANCH   3   4
ATOM      4  N   UNL A   1      31.813  29.744  24.363  1.00  0.00    -0.356 N 
ATOM      5  C   UNL A   1      30.739  29.054  23.878  1.00  0.00     0.220 C 
ATOM      6  O   UNL A   1      30.031  29.596  23.028  1.00  0.00    -0.275 OA
ATOM      7  H   UNL A   1      31.881  30.670  24.037  1.00  0.00     0.163 HD
BRANCH   5   8
ATOM      8  C   UNL A   1      30.408  27.654  24.375  1.00  0.00     0.103 C 
BRANCH   8   9
ATOM      9  C   UNL A   1      30.426  26.553  23.284  1.00  0.00     0.002 C 
ATOM     10  C   UNL A   1      33.326  24.562  26.144  1.00  0.00     0.021 C 
ATOM     11  C   UNL A   1      34.712  24.710  25.525  1.00  0.00     0.063 C 
ATOM     12  C   UNL A   1      34.671  24.825  23.986  1.00  0.00     0.135 C 
ATOM     13  S   UNL A   1      35.816  23.359  26.098  1.00  0.00    -0.152 SA
ATOM     14  N   UNL A   1      34.277  23.577  23.322  1.00  0.00    -0.322 N 
ATOM     15  C   UNL A   1      35.287  22.013  24.956  1.00  0.00     0.063 C 
ATOM     16  C   UNL A   1      32.973  23.208  23.016  1.00  0.00     0.320 C 
ATOM     17  C   UNL A   1      35.251  22.500  23.498  1.00  0.00     0.135 C 
ATOM     18  C   UNL A   1      36.255  20.846  25.119  1.00  0.00     0.021 C 
ATOM     19  O   UNL A   1      32.628  22.024  23.029  1.00  0.00    -0.248 OA
ATOM     20  N   UNL A   1      32.052  24.205  22.791  1.00  0.00    -0.325 N 
ATOM     21  C   UNL A   1      30.653  23.992  23.123  1.00  0.00     0.121 C 
ATOM     22  C   UNL A   1      32.258  25.315  21.886  1.00  0.00     0.121 C 
ATOM     23  C   UNL A   1      30.146  25.181  23.936  1.00  0.00     0.026 C 
ATOM     24  C   UNL A   1      31.755  26.596  22.523  1.00  0.00     0.026 C 
ENDBRANCH   8   9
ENDBRANCH   5   8
ENDBRANCH   3   4
ENDBRANCH   2   3
ENDBRANCH   1   2
BRANCH   1  25
ATOM     25  C   UNL A   1      33.254  32.172  27.295  1.00  0.00     0.116 C 
BRANCH  25  26
ATOM     26  N   UNL A   1      32.802  33.529  27.575  1.00  0.00    -0.352 N 
ATOM     27  C   UNL A   1      33.232  34.388  28.564  1.00  0.00     0.251 C 
ATOM     28  H   UNL A   1      32.099  33.878  26.981  1.00  0.00     0.163 HD
ATOM     29  O   UNL A   1      32.669  35.459  28.736  1.00  0.00    -0.269 OA
BRANCH  27  30
ATOM     30  C   UNL A   1      34.347  33.960  29.434  1.00  0.00     0.039 A 
ATOM     31  C   UNL A   1      34.084  33.131  30.525  1.00  0.00     0.014 A 
ATOM     32  C   UNL A   1      35.659  34.305  29.103  1.00  0.00     0.014 A 
ATOM     33  C   UNL A   1      35.152  32.583  31.239  1.00  0.00     0.010 A 
ATOM     34  C   UNL A   1      36.714  33.665  29.735  1.00  0.00     0.010 A 
ATOM     35  C   UNL A   1      36.474  32.813  30.823  1.00  0.00    -0.014 A 
BRANCH  35  36
ATOM     36  C   UNL A   1      37.634  32.232  31.542  1.00  0.00     0.031 A 
ATOM     37  C   UNL A   1      38.420  31.128  30.884  1.00  0.00     0.074 A 
ATOM     38  C   UNL A   1      37.922  32.623  32.798  1.00  0.00     0.049 A 
ATOM     39  N   UNL A   1      39.376  30.382  31.375  1.00  0.00    -0.248 NA
ATOM     40  C   UNL A   1      38.035  30.782  29.507  1.00  0.00     0.031 C 
ATOM     41  C   UNL A   1      37.188  33.636  33.561  1.00  0.00     0.029 A 
ATOM     42  N   UNL A   1      38.904  32.208  33.661  1.00  0.00    -0.354 N 
ATOM     43  C   UNL A   1      39.680  29.461  30.377  1.00  0.00     0.074 A 
ATOM     44  C   UNL A   1      38.746  29.687  29.296  1.00  0.00     0.031 C 
ATOM     45  C   UNL A   1      37.764  33.781  34.767  1.00  0.00     0.029 A 
ATOM     46  C   UNL A   1      38.880  32.848  34.878  1.00  0.00     0.049 A 
ATOM     47  H   UNL A   1      39.564  31.515  33.430  1.00  0.00     0.167 HD
ATOM     48  C   UNL A   1      40.672  28.537  30.348  1.00  0.00     0.034 A 
ATOM     49  C   UNL A   1      39.670  32.695  35.959  1.00  0.00     0.034 A 
ATOM     50  C   UNL A   1      41.617  28.357  31.420  1.00  0.00     0.049 A 
ATOM     51  C   UNL A   1      40.794  31.692  35.893  1.00  0.00     0.074 A 
ATOM     52  C   UNL A   1      42.693  27.492  31.491  1.00  0.00     0.029 A 
ATOM     53  N   UNL A   1      41.601  29.071  32.614  1.00  0.00    -0.354 N 
ATOM     54  N   UNL A   1      41.099  30.855  34.927  1.00  0.00    -0.248 NA
ATOM     55  C   UNL A   1      41.693  31.628  37.051  1.00  0.00     0.031 C 
ATOM     56  C   UNL A   1      43.299  27.649  32.743  1.00  0.00     0.029 A 
ATOM     57  C   UNL A   1      42.642  28.659  33.429  1.00  0.00     0.049 A 
ATOM     58  H   UNL A   1      40.944  29.767  32.845  1.00  0.00     0.167 HD
ATOM     59  C   UNL A   1      42.244  30.188  35.350  1.00  0.00     0.074 A 
ATOM     60  C   UNL A   1      42.581  30.730  36.651  1.00  0.00     0.031 C 
ATOM     61  C   UNL A   1      42.956  29.217  34.723  1.00  0.00     0.034 A 
BRANCH  48  62
ATOM     62  C   UNL A   1      40.761  27.661  29.118  1.00  0.00     0.023 A 
ATOM     63  C   UNL A   1      41.710  27.906  28.109  1.00  0.00     0.031 A 
ATOM     64  C   UNL A   1      39.845  26.615  28.916  1.00  0.00     0.131 A 
ATOM     65  C   UNL A   1      41.652  27.192  26.903  1.00  0.00     0.055 A 
ATOM     66  C   UNL A   1      39.856  25.841  27.752  1.00  0.00     0.041 A 
ATOM     67  F   UNL A   1      38.902  26.344  29.832  1.00  0.00    -0.206 F 
ATOM     68  C   UNL A   1      40.750  26.143  26.728  1.00  0.00     0.022 A 
BRANCH  65  69
ATOM     69  S   UNL A   1      42.652  27.777  25.508  1.00  0.00     0.124 S 
ATOM     70  O   UNL A   1      42.635  26.612  24.626  1.00  0.00    -0.237 OA
ATOM     71  O   UNL A   1      41.902  28.939  25.045  1.00  0.00    -0.237 OA
ATOM     72  O   UNL A   1      43.949  28.071  26.115  1.00  0.00    -0.744 OA
ENDBRANCH  65  69
ENDBRANCH  48  62
BRANCH  49  73
ATOM     73  C   UNL A   1      39.440  33.510  37.185  1.00  0.00     0.023 A 
ATOM     74  C   UNL A   1      38.716  32.994  38.271  1.00  0.00     0.031 A 
ATOM     75  C   UNL A   1      39.921  34.828  37.279  1.00  0.00     0.131 A 
ATOM     76  C   UNL A   1      38.454  33.805  39.387  1.00  0.00     0.055 A 
ATOM     77  C   UNL A   1      39.697  35.616  38.409  1.00  0.00     0.041 A 
ATOM     78  F   UNL A   1      40.630  35.364  36.272  1.00  0.00    -0.206 F 
ATOM     79  C   UNL A   1      38.948  35.109  39.467  1.00  0.00     0.022 A 
BRANCH  76  80
ATOM     80  S   UNL A   1      37.393  33.151  40.706  1.00  0.00     0.124 S 
ATOM     81  O   UNL A   1      38.257  32.144  41.310  1.00  0.00    -0.237 OA
ATOM     82  O   UNL A   1      37.140  34.344  41.508  1.00  0.00    -0.237 OA
ATOM     83  O   UNL A   1      36.234  32.632  39.984  1.00  0.00    -0.744 OA
ENDBRANCH  76  80
ENDBRANCH  49  73
BRANCH  61  84
ATOM     84  C   UNL A   1      44.200  28.726  35.419  1.00  0.00     0.023 A 
ATOM     85  C   UNL A   1      44.155  27.703  36.381  1.00  0.00     0.031 A 
ATOM     86  C   UNL A   1      45.447  29.299  35.115  1.00  0.00     0.131 A 
ATOM     87  C   UNL A   1      45.328  27.322  37.047  1.00  0.00     0.055 A 
ATOM     88  C   UNL A   1      46.620  28.876  35.741  1.00  0.00     0.041 A 
ATOM     89  F   UNL A   1      45.546  30.280  34.203  1.00  0.00    -0.206 F 
ATOM     90  C   UNL A   1      46.563  27.891  36.722  1.00  0.00     0.022 A 
BRANCH  87  91
ATOM     91  S   UNL A   1      45.206  26.132  38.411  1.00  0.00     0.124 S 
ATOM     92  O   UNL A   1      44.832  24.907  37.712  1.00  0.00    -0.237 OA
ATOM     93  O   UNL A   1      46.555  26.161  38.969  1.00  0.00    -0.237 OA
ATOM     94  O   UNL A   1      44.168  26.700  39.269  1.00  0.00    -0.744 OA
ENDBRANCH  87  91
ENDBRANCH  61  84
ENDBRANCH  35  36
ENDBRANCH  27  30
ENDBRANCH  25  26
ENDBRANCH   1  25
TORSDOF 15
ENDMDL
MODEL 3
REMARK VINA RESULT:     -12.2      2.814      8.229
REMARK SMILES C[C@@H]1CN(C(=O)N2CCC(CC(=O)NCCCCNC(=O)c3ccc(-c4c5nc(c(-c6cc(S(=O)(=O)[O-])ccc6F)c6ccc([nH]6)c(-c6cc(S(=O)(=O)[O-])ccc6F)c6nc(c(-c7cc(S(=O)(=O)[O-])ccc7F)c7ccc4[nH]7)C=C6)C=C5)cc3)CC2)C[C@@H](C)S1
REMARK SMILES IDX 17 1 16 2 15 3 14 4 12 5 13 6 11 8 10 9 1 10 2 11 3 12 90 13
REMARK SMILES IDX 4 14 88 15 5 16 87 17 89 18 6 19 7 20 8 21 86 22 9 23 85 24
REMARK SMILES IDX 18 25 19 26 20 27 21 29 22 30 23 31 84 32 24 33 83 34 25 35
REMARK SMILES IDX 26 36 27 37 77 38 28 39 82 40 76 41 78 42 29 43 81 44 75 45
REMARK SMILES IDX 74 46 30 48 62 49 42 50 61 51 43 52 46 53 60 54 79 55 44 56
REMARK SMILES IDX 45 57 59 59 80 60 47 61 31 62 32 63 40 64 33 65 39 66 41 67
REMARK SMILES IDX 38 68 34 69 35 70 36 71 37 72 63 73 64 74 72 75 65 76 71 77
REMARK SMILES IDX 73 78 70 79 66 80 67 81 68 82 69 83 48 84 49 85 57 86 50 87
REMARK SMILES IDX 56 88 58 89 55 90 51 91 52 92 53 93 54 94
REMARK H PARENT 14 7 19 28 78 47 46 58
REMARK Flexibility Score: inf
ROOT
ATOM      1  C   UNL A   1      32.623  29.541  25.188  1.00  0.00     0.023 C 
ENDROOT
BRANCH   1   2
ATOM      2  C   UNL A   1      31.154  29.781  24.894  1.00  0.00     0.023 C 
BRANCH   2   3
ATOM      3  C   UNL A   1      30.666  29.317  23.516  1.00  0.00     0.116 C 
BRANCH   3   4
ATOM      4  N   UNL A   1      29.576  28.359  23.637  1.00  0.00    -0.356 N 
ATOM      5  C   UNL A   1      29.578  27.028  23.940  1.00  0.00     0.220 C 
ATOM      6  O   UNL A   1      28.511  26.413  23.883  1.00  0.00    -0.275 OA
ATOM      7  H   UNL A   1      28.682  28.736  23.470  1.00  0.00     0.163 HD
BRANCH   5   8
ATOM      8  C   UNL A   1      30.856  26.311  24.352  1.00  0.00     0.103 C 
BRANCH   8   9
ATOM      9  C   UNL A   1      30.643  25.052  25.231  1.00  0.00     0.002 C 
ATOM     10  C   UNL A   1      35.072  24.463  24.462  1.00  0.00     0.021 C 
ATOM     11  C   UNL A   1      35.187  23.316  23.460  1.00  0.00     0.063 C 
ATOM     12  C   UNL A   1      33.997  22.336  23.535  1.00  0.00     0.135 C 
ATOM     13  S   UNL A   1      36.806  22.470  23.642  1.00  0.00    -0.152 SA
ATOM     14  N   UNL A   1      33.979  21.539  24.766  1.00  0.00    -0.322 N 
ATOM     15  C   UNL A   1      36.431  21.376  25.077  1.00  0.00     0.063 C 
ATOM     16  C   UNL A   1      33.347  21.903  25.949  1.00  0.00     0.320 C 
ATOM     17  C   UNL A   1      35.110  20.616  24.870  1.00  0.00     0.135 C 
ATOM     18  C   UNL A   1      37.596  20.408  25.252  1.00  0.00     0.021 C 
ATOM     19  O   UNL A   1      33.808  21.570  27.043  1.00  0.00    -0.248 OA
ATOM     20  N   UNL A   1      32.247  22.724  25.871  1.00  0.00    -0.325 N 
ATOM     21  C   UNL A   1      31.952  23.650  26.952  1.00  0.00     0.121 C 
ATOM     22  C   UNL A   1      31.115  22.489  25.000  1.00  0.00     0.121 C 
ATOM     23  C   UNL A   1      31.693  25.036  26.364  1.00  0.00     0.026 C 
ATOM     24  C   UNL A   1      30.684  23.794  24.358  1.00  0.00     0.026 C 
ENDBRANCH   8   9
ENDBRANCH   5   8
ENDBRANCH   3   4
ENDBRANCH   2   3
ENDBRANCH   1   2
BRANCH   1  25
ATOM     25  C   UNL A   1      33.023  29.846  26.617  1.00  0.00     0.116 C 
BRANCH  25  26
ATOM     26  N   UNL A   1      32.921  31.260  26.958  1.00  0.00    -0.352 N 
ATOM     27  C   UNL A   1      33.815  32.038  27.660  1.00  0.00     0.251 C 
ATOM     28  H   UNL A   1      32.108  31.718  26.645  1.00  0.00     0.163 HD
ATOM     29  O   UNL A   1      33.528  33.187  27.960  1.00  0.00    -0.269 OA
BRANCH  27  30
ATOM     30  C   UNL A   1      35.097  31.433  28.082  1.00  0.00     0.039 A 
ATOM     31  C   UNL A   1      36.242  32.228  28.139  1.00  0.00     0.014 A 
ATOM     32  C   UNL A   1      35.130  30.105  28.512  1.00  0.00     0.014 A 
ATOM     33  C   UNL A   1      37.408  31.706  28.704  1.00  0.00     0.010 A 
ATOM     34  C   UNL A   1      36.249  29.632  29.180  1.00  0.00     0.010 A 
ATOM     35  C   UNL A   1      37.406  30.419  29.266  1.00  0.00    -0.014 A 
BRANCH  35  36
ATOM     36  C   UNL A   1      38.618  29.838  29.895  1.00  0.00     0.031 A 
ATOM     37  C   UNL A   1      39.029  30.314  31.263  1.00  0.00     0.074 A 
ATOM     38  C   UNL A   1      39.385  28.965  29.214  1.00  0.00     0.049 A 
ATOM     39  N   UNL A   1      40.116  30.054  31.942  1.00  0.00    -0.248 NA
ATOM     40  C   UNL A   1      38.117  31.258  31.928  1.00  0.00     0.031 C 
ATOM     41  C   UNL A   1      39.123  28.482  27.856  1.00  0.00     0.029 A 
ATOM     42  N   UNL A   1      40.552  28.335  29.568  1.00  0.00    -0.354 N 
ATOM     43  C   UNL A   1      40.029  30.827  33.096  1.00  0.00     0.074 A 
ATOM     44  C   UNL A   1      38.832  31.629  32.977  1.00  0.00     0.031 C 
ATOM     45  C   UNL A   1      40.085  27.612  27.504  1.00  0.00     0.029 A 
ATOM     46  C   UNL A   1      41.051  27.504  28.592  1.00  0.00     0.049 A 
ATOM     47  H   UNL A   1      40.990  28.467  30.438  1.00  0.00     0.167 HD
ATOM     48  C   UNL A   1      40.852  30.838  34.174  1.00  0.00     0.034 A 
ATOM     49  C   UNL A   1      42.164  26.744  28.580  1.00  0.00     0.034 A 
ATOM     50  C   UNL A   1      42.017  30.000  34.288  1.00  0.00     0.049 A 
ATOM     51  C   UNL A   1      43.044  26.738  29.804  1.00  0.00     0.074 A 
ATOM     52  C   UNL A   1      42.901  29.884  35.346  1.00  0.00     0.029 A 
ATOM     53  N   UNL A   1      42.456  29.120  33.304  1.00  0.00    -0.354 N 
ATOM     54  N   UNL A   1      42.929  27.442  30.908  1.00  0.00    -0.248 NA
ATOM     55  C   UNL A   1      44.189  25.820  29.791  1.00  0.00     0.031 C 
ATOM     56  C   UNL A   1      43.899  28.971  34.984  1.00  0.00     0.029 A 
ATOM     57  C   UNL A   1      43.602  28.467  33.727  1.00  0.00     0.049 A 
ATOM     58  H   UNL A   1      42.017  28.984  32.434  1.00  0.00     0.167 HD
ATOM     59  C   UNL A   1      43.971  27.027  31.732  1.00  0.00     0.074 A 
ATOM     60  C   UNL A   1      44.693  26.004  31.003  1.00  0.00     0.031 C 
ATOM     61  C   UNL A   1      44.303  27.450  32.979  1.00  0.00     0.034 A 
BRANCH  48  62
ATOM     62  C   UNL A   1      40.506  31.795  35.293  1.00  0.00     0.023 A 
ATOM     63  C   UNL A   1      39.547  31.468  36.269  1.00  0.00     0.031 A 
ATOM     64  C   UNL A   1      41.086  33.074  35.347  1.00  0.00     0.131 A 
ATOM     65  C   UNL A   1      39.118  32.440  37.185  1.00  0.00     0.055 A 
ATOM     66  C   UNL A   1      40.725  34.005  36.325  1.00  0.00     0.041 A 
ATOM     67  F   UNL A   1      41.992  33.454  34.433  1.00  0.00    -0.206 F 
ATOM     68  C   UNL A   1      39.720  33.698  37.238  1.00  0.00     0.022 A 
BRANCH  65  69
ATOM     69  S   UNL A   1      37.643  32.092  38.181  1.00  0.00     0.124 S 
ATOM     70  O   UNL A   1      38.152  32.285  39.537  1.00  0.00    -0.237 OA
ATOM     71  O   UNL A   1      36.696  33.094  37.706  1.00  0.00    -0.237 OA
ATOM     72  O   UNL A   1      37.315  30.710  37.837  1.00  0.00    -0.744 OA
ENDBRANCH  65  69
ENDBRANCH  48  62
BRANCH  49  73
ATOM     73  C   UNL A   1      42.504  25.921  27.386  1.00  0.00     0.023 A 
ATOM     74  C   UNL A   1      42.144  24.567  27.315  1.00  0.00     0.031 A 
ATOM     75  C   UNL A   1      43.217  26.472  26.306  1.00  0.00     0.131 A 
ATOM     76  C   UNL A   1      42.536  23.794  26.210  1.00  0.00     0.055 A 
ATOM     77  C   UNL A   1      43.565  25.711  25.188  1.00  0.00     0.041 A 
ATOM     78  F   UNL A   1      43.573  27.766  26.318  1.00  0.00    -0.206 F 
ATOM     79  C   UNL A   1      43.235  24.360  25.141  1.00  0.00     0.022 A 
BRANCH  76  80
ATOM     80  S   UNL A   1      42.178  22.015  26.222  1.00  0.00     0.124 S 
ATOM     81  O   UNL A   1      43.005  21.538  25.121  1.00  0.00    -0.237 OA
ATOM     82  O   UNL A   1      42.609  21.630  27.562  1.00  0.00    -0.237 OA
ATOM     83  O   UNL A   1      40.736  21.957  25.995  1.00  0.00    -0.744 OA
ENDBRANCH  76  80
ENDBRANCH  49  73
BRANCH  61  84
ATOM     84  C   UNL A   1      45.465  26.759  33.646  1.00  0.00     0.023 A 
ATOM     85  C   UNL A   1      45.286  25.623  34.454  1.00  0.00     0.031 A 
ATOM     86  C   UNL A   1      46.769  27.253  33.472  1.00  0.00     0.131 A 
ATOM     87  C   UNL A   1      46.389  25.052  35.104  1.00  0.00     0.055 A 
ATOM     88  C   UNL A   1      47.870  26.645  34.076  1.00  0.00     0.041 A 
ATOM     89  F   UNL A   1      46.995  28.336  32.710  1.00  0.00    -0.206 F 
ATOM     90  C   UNL A   1      47.681  25.545  34.907  1.00  0.00     0.022 A 
BRANCH  87  91
ATOM     91  S   UNL A   1      46.100  23.703  36.283  1.00  0.00     0.124 S 
ATOM     92  O   UNL A   1      45.132  22.877  35.568  1.00  0.00    -0.237 OA
ATOM     93  O   UNL A   1      47.435  23.133  36.435  1.00  0.00    -0.237 OA
ATOM     94  O   UNL A   1      45.580  24.388  37.465  1.00  0.00    -0.744 OA
ENDBRANCH  87  91
ENDBRANCH  61  84
ENDBRANCH  35  36
ENDBRANCH  27  30
ENDBRANCH  25  26
ENDBRANCH   1  25
TORSDOF 15
ENDMDL
