MODEL 1
REMARK VINA RESULT:     -11.3      0.000      0.000
REMARK SMILES COc1cccc(-c2ccc(C#N)c(SCC(=O)NCCCCNC(=O)c3ccc(-c4c5nc(c(-c6cc(S(=O)(=O)[O-])ccc6F)c6ccc([nH]6)c(-c6cc(S(=O)(=O)[O-])ccc6F)c6nc(c(-c7cc(S(=O)(=O)[O-])ccc7F)c7ccc4[nH]7)C=C6)C=C5)cc3)n2)c1
REMARK SMILES IDX 21 1 20 2 19 3 17 4 18 5 16 7 15 8 14 9 8 10 9 11 90 12
REMARK SMILES IDX 10 13 11 14 7 15 3 16 4 17 91 18 5 19 6 20 2 21 1 22 12 23
REMARK SMILES IDX 13 24 22 25 23 26 24 27 25 28 26 30 27 31 28 32 89 33 29 34
REMARK SMILES IDX 88 35 30 36 31 37 32 38 82 39 33 40 87 41 81 42 83 43 34 44
REMARK SMILES IDX 86 45 80 46 79 47 35 49 67 50 47 51 66 52 48 53 51 54 65 55
REMARK SMILES IDX 84 56 49 57 50 58 64 60 85 61 52 62 36 63 37 64 45 65 38 66
REMARK SMILES IDX 44 67 46 68 43 69 39 70 40 71 41 72 42 73 68 74 69 75 77 76
REMARK SMILES IDX 70 77 76 78 78 79 75 80 71 81 72 82 73 83 74 84 53 85 54 86
REMARK SMILES IDX 62 87 55 88 61 89 63 90 60 91 56 92 57 93 58 94 59 95
REMARK H PARENT 19 6 24 29 83 48 51 59
REMARK Flexibility Score: inf
ROOT
ATOM      1  C   UNL A   1      30.978  30.955  25.411  1.00  0.00     0.023 C 
ENDROOT
BRANCH   1   2
ATOM      2  C   UNL A   1      32.128  29.986  25.683  1.00  0.00     0.116 C 
BRANCH   2   3
ATOM      3  N   UNL A   1      31.669  28.847  26.448  1.00  0.00    -0.355 N 
ATOM      4  C   UNL A   1      32.196  27.599  26.549  1.00  0.00     0.230 C 
ATOM      5  O   UNL A   1      31.545  26.765  27.180  1.00  0.00    -0.274 OA
ATOM      6  H   UNL A   1      30.854  29.000  26.978  1.00  0.00     0.163 HD
BRANCH   4   7
ATOM      7  C   UNL A   1      33.561  27.275  25.982  1.00  0.00     0.176 C 
BRANCH   7   8
ATOM      8  S   UNL A   1      33.621  26.973  24.188  1.00  0.00    -0.095 SA
BRANCH   8   9
ATOM      9  C   UNL A   1      32.507  25.637  23.795  1.00  0.00     0.115 A 
ATOM     10  C   UNL A   1      32.487  23.276  23.703  1.00  0.00     0.072 A 
ATOM     11  C   UNL A   1      31.147  23.272  23.341  1.00  0.00     0.030 A 
ATOM     12  N   UNL A   1      33.160  24.435  23.908  1.00  0.00    -0.240 NA
ATOM     13  C   UNL A   1      30.476  24.482  23.244  1.00  0.00     0.024 A 
ATOM     14  C   UNL A   1      31.142  25.684  23.514  1.00  0.00     0.084 A 
BRANCH  10  15
ATOM     15  C   UNL A   1      33.191  22.010  23.966  1.00  0.00     0.004 A 
ATOM     16  C   UNL A   1      33.137  19.568  24.112  1.00  0.00     0.119 A 
ATOM     17  C   UNL A   1      34.351  19.582  24.798  1.00  0.00     0.046 A 
ATOM     18  C   UNL A   1      32.565  20.775  23.702  1.00  0.00     0.056 A 
ATOM     19  C   UNL A   1      35.014  20.787  25.029  1.00  0.00     0.005 A 
ATOM     20  C   UNL A   1      34.441  21.991  24.608  1.00  0.00     0.010 A 
BRANCH  16  21
ATOM     21  O   UNL A   1      32.555  18.339  23.969  1.00  0.00    -0.497 OA
ATOM     22  C   UNL A   1      32.270  17.946  22.629  1.00  0.00     0.278 C 
ENDBRANCH  16  21
ENDBRANCH  10  15
BRANCH  14  23
ATOM     23  C   UNL A   1      30.327  26.850  23.624  1.00  0.00     0.102 C 
ATOM     24  N   UNL A   1      29.711  27.836  23.631  1.00  0.00    -0.192 NA
ENDBRANCH  14  23
ENDBRANCH   8   9
ENDBRANCH   7   8
ENDBRANCH   4   7
ENDBRANCH   2   3
ENDBRANCH   1   2
BRANCH   1  25
ATOM     25  C   UNL A   1      30.994  32.220  26.276  1.00  0.00     0.023 C 
BRANCH  25  26
ATOM     26  C   UNL A   1      32.251  32.412  27.117  1.00  0.00     0.116 C 
BRANCH  26  27
ATOM     27  N   UNL A   1      32.479  33.804  27.470  1.00  0.00    -0.352 N 
ATOM     28  C   UNL A   1      33.468  34.349  28.252  1.00  0.00     0.251 C 
ATOM     29  H   UNL A   1      31.833  34.447  27.096  1.00  0.00     0.163 HD
ATOM     30  O   UNL A   1      33.400  35.526  28.592  1.00  0.00    -0.269 OA
BRANCH  28  31
ATOM     31  C   UNL A   1      34.588  33.498  28.707  1.00  0.00     0.039 A 
ATOM     32  C   UNL A   1      35.897  33.905  28.445  1.00  0.00     0.014 A 
ATOM     33  C   UNL A   1      34.345  32.320  29.420  1.00  0.00     0.014 A 
ATOM     34  C   UNL A   1      36.964  33.173  28.969  1.00  0.00     0.010 A 
ATOM     35  C   UNL A   1      35.406  31.642  30.012  1.00  0.00     0.010 A 
ATOM     36  C   UNL A   1      36.727  32.063  29.798  1.00  0.00    -0.014 A 
BRANCH  36  37
ATOM     37  C   UNL A   1      37.846  31.342  30.462  1.00  0.00     0.031 A 
ATOM     38  C   UNL A   1      38.215  31.661  31.885  1.00  0.00     0.074 A 
ATOM     39  C   UNL A   1      38.565  30.439  29.766  1.00  0.00     0.049 A 
ATOM     40  N   UNL A   1      39.197  31.190  32.610  1.00  0.00    -0.248 NA
ATOM     41  C   UNL A   1      37.384  32.659  32.572  1.00  0.00     0.031 C 
ATOM     42  C   UNL A   1      38.319  30.059  28.372  1.00  0.00     0.029 A 
ATOM     43  N   UNL A   1      39.646  29.676  30.129  1.00  0.00    -0.354 N 
ATOM     44  C   UNL A   1      39.103  31.834  33.838  1.00  0.00     0.074 A 
ATOM     45  C   UNL A   1      38.016  32.785  33.728  1.00  0.00     0.031 C 
ATOM     46  C   UNL A   1      39.196  29.107  28.015  1.00  0.00     0.029 A 
ATOM     47  C   UNL A   1      40.106  28.853  29.127  1.00  0.00     0.049 A 
ATOM     48  H   UNL A   1      40.054  29.714  31.024  1.00  0.00     0.167 HD
ATOM     49  C   UNL A   1      39.836  31.632  34.962  1.00  0.00     0.034 A 
ATOM     50  C   UNL A   1      41.152  28.003  29.099  1.00  0.00     0.034 A 
ATOM     51  C   UNL A   1      40.925  30.690  35.051  1.00  0.00     0.049 A 
ATOM     52  C   UNL A   1      42.010  27.862  30.332  1.00  0.00     0.074 A 
ATOM     53  C   UNL A   1      41.715  30.388  36.146  1.00  0.00     0.029 A 
ATOM     54  N   UNL A   1      41.393  29.910  33.999  1.00  0.00    -0.354 N 
ATOM     55  N   UNL A   1      41.884  28.451  31.499  1.00  0.00    -0.248 NA
ATOM     56  C   UNL A   1      43.148  26.938  30.244  1.00  0.00     0.031 C 
ATOM     57  C   UNL A   1      42.713  29.499  35.735  1.00  0.00     0.029 A 
ATOM     58  C   UNL A   1      42.487  29.162  34.411  1.00  0.00     0.049 A 
ATOM     59  H   UNL A   1      41.004  29.891  33.094  1.00  0.00     0.167 HD
ATOM     60  C   UNL A   1      42.905  27.937  32.295  1.00  0.00     0.074 A 
ATOM     61  C   UNL A   1      43.627  26.984  31.477  1.00  0.00     0.031 C 
ATOM     62  C   UNL A   1      43.210  28.222  33.586  1.00  0.00     0.034 A 
BRANCH  49  63
ATOM     63  C   UNL A   1      39.496  32.474  36.170  1.00  0.00     0.023 A 
ATOM     64  C   UNL A   1      40.147  33.695  36.422  1.00  0.00     0.031 A 
ATOM     65  C   UNL A   1      38.543  32.036  37.106  1.00  0.00     0.131 A 
ATOM     66  C   UNL A   1      39.909  34.384  37.620  1.00  0.00     0.055 A 
ATOM     67  C   UNL A   1      38.234  32.779  38.248  1.00  0.00     0.041 A 
ATOM     68  F   UNL A   1      37.904  30.868  36.936  1.00  0.00    -0.206 F 
ATOM     69  C   UNL A   1      38.934  33.951  38.521  1.00  0.00     0.022 A 
BRANCH  66  70
ATOM     70  S   UNL A   1      41.023  35.743  38.068  1.00  0.00     0.124 S 
ATOM     71  O   UNL A   1      42.128  35.536  37.134  1.00  0.00    -0.237 OA
ATOM     72  O   UNL A   1      40.197  36.920  37.831  1.00  0.00    -0.237 OA
ATOM     73  O   UNL A   1      41.344  35.475  39.468  1.00  0.00    -0.744 OA
ENDBRANCH  66  70
ENDBRANCH  49  63
BRANCH  50  74
ATOM     74  C   UNL A   1      41.459  27.221  27.865  1.00  0.00     0.023 A 
ATOM     75  C   UNL A   1      41.173  25.850  27.793  1.00  0.00     0.031 A 
ATOM     76  C   UNL A   1      42.088  27.821  26.759  1.00  0.00     0.131 A 
ATOM     77  C   UNL A   1      41.560  25.111  26.663  1.00  0.00     0.055 A 
ATOM     78  C   UNL A   1      42.409  27.097  25.610  1.00  0.00     0.041 A 
ATOM     79  F   UNL A   1      42.389  29.129  26.775  1.00  0.00    -0.206 F 
ATOM     80  C   UNL A   1      42.159  25.730  25.564  1.00  0.00     0.022 A 
BRANCH  77  81
ATOM     81  S   UNL A   1      41.365  23.309  26.698  1.00  0.00     0.124 S 
ATOM     82  O   UNL A   1      42.171  22.904  25.553  1.00  0.00    -0.237 OA
ATOM     83  O   UNL A   1      41.898  22.971  28.013  1.00  0.00    -0.237 OA
ATOM     84  O   UNL A   1      39.924  23.122  26.545  1.00  0.00    -0.744 OA
ENDBRANCH  77  81
ENDBRANCH  50  74
BRANCH  62  85
ATOM     85  C   UNL A   1      44.349  27.452  34.216  1.00  0.00     0.023 A 
ATOM     86  C   UNL A   1      44.160  26.188  34.801  1.00  0.00     0.031 A 
ATOM     87  C   UNL A   1      45.647  27.996  34.227  1.00  0.00     0.131 A 
ATOM     88  C   UNL A   1      45.238  25.537  35.420  1.00  0.00     0.055 A 
ATOM     89  C   UNL A   1      46.728  27.311  34.778  1.00  0.00     0.041 A 
ATOM     90  F   UNL A   1      45.886  29.204  33.692  1.00  0.00    -0.206 F 
ATOM     91  C   UNL A   1      46.525  26.078  35.391  1.00  0.00     0.022 A 
BRANCH  88  92
ATOM     92  S   UNL A   1      44.914  24.021  36.362  1.00  0.00     0.124 S 
ATOM     93  O   UNL A   1      46.197  23.330  36.274  1.00  0.00    -0.237 OA
ATOM     94  O   UNL A   1      44.561  24.540  37.680  1.00  0.00    -0.237 OA
ATOM     95  O   UNL A   1      43.817  23.390  35.631  1.00  0.00    -0.744 OA
ENDBRANCH  88  92
ENDBRANCH  62  85
ENDBRANCH  36  37
ENDBRANCH  28  31
ENDBRANCH  26  27
ENDBRANCH  25  26
ENDBRANCH   1  25
TORSDOF 19
ENDMDL
MODEL 2
REMARK VINA RESULT:     -11.2      5.186      8.904
REMARK SMILES COc1cccc(-c2ccc(C#N)c(SCC(=O)NCCCCNC(=O)c3ccc(-c4c5nc(c(-c6cc(S(=O)(=O)[O-])ccc6F)c6ccc([nH]6)c(-c6cc(S(=O)(=O)[O-])ccc6F)c6nc(c(-c7cc(S(=O)(=O)[O-])ccc7F)c7ccc4[nH]7)C=C6)C=C5)cc3)n2)c1
REMARK SMILES IDX 21 1 20 2 19 3 17 4 18 5 16 7 15 8 14 9 8 10 9 11 90 12
REMARK SMILES IDX 10 13 11 14 7 15 3 16 4 17 91 18 5 19 6 20 2 21 1 22 12 23
REMARK SMILES IDX 13 24 22 25 23 26 24 27 25 28 26 30 27 31 28 32 89 33 29 34
REMARK SMILES IDX 88 35 30 36 31 37 32 38 82 39 33 40 87 41 81 42 83 43 34 44
REMARK SMILES IDX 86 45 80 46 79 47 35 49 67 50 47 51 66 52 48 53 51 54 65 55
REMARK SMILES IDX 84 56 49 57 50 58 64 60 85 61 52 62 36 63 37 64 45 65 38 66
REMARK SMILES IDX 44 67 46 68 43 69 39 70 40 71 41 72 42 73 68 74 69 75 77 76
REMARK SMILES IDX 70 77 76 78 78 79 75 80 71 81 72 82 73 83 74 84 53 85 54 86
REMARK SMILES IDX 62 87 55 88 61 89 63 90 60 91 56 92 57 93 58 94 59 95
REMARK H PARENT 19 6 24 29 83 48 51 59
REMARK Flexibility Score: inf
ROOT
ATOM      1  C   UNL A   1      34.566  21.880  24.546  1.00  0.00     0.023 C 
ENDROOT
BRANCH   1   2
ATOM      2  C   UNL A   1      33.222  21.226  24.863  1.00  0.00     0.116 C 
BRANCH   2   3
ATOM      3  N   UNL A   1      32.718  21.680  26.142  1.00  0.00    -0.355 N 
ATOM      4  C   UNL A   1      31.933  22.748  26.436  1.00  0.00     0.230 C 
ATOM      5  O   UNL A   1      31.738  22.989  27.628  1.00  0.00    -0.274 OA
ATOM      6  H   UNL A   1      32.983  21.131  26.914  1.00  0.00     0.163 HD
BRANCH   4   7
ATOM      7  C   UNL A   1      31.261  23.553  25.344  1.00  0.00     0.176 C 
BRANCH   7   8
ATOM      8  S   UNL A   1      30.673  25.205  25.828  1.00  0.00    -0.095 SA
BRANCH   8   9
ATOM      9  C   UNL A   1      31.493  26.423  24.815  1.00  0.00     0.115 A 
ATOM     10  C   UNL A   1      31.019  28.446  23.691  1.00  0.00     0.072 A 
ATOM     11  C   UNL A   1      32.339  28.561  23.278  1.00  0.00     0.030 A 
ATOM     12  N   UNL A   1      30.598  27.389  24.428  1.00  0.00    -0.240 NA
ATOM     13  C   UNL A   1      33.253  27.599  23.682  1.00  0.00     0.024 A 
ATOM     14  C   UNL A   1      32.846  26.534  24.497  1.00  0.00     0.084 A 
BRANCH  10  15
ATOM     15  C   UNL A   1      30.055  29.525  23.413  1.00  0.00     0.004 A 
ATOM     16  C   UNL A   1      28.573  30.662  21.833  1.00  0.00     0.119 A 
ATOM     17  C   UNL A   1      28.494  31.756  22.694  1.00  0.00     0.046 A 
ATOM     18  C   UNL A   1      29.349  29.559  22.194  1.00  0.00     0.056 A 
ATOM     19  C   UNL A   1      29.143  31.728  23.928  1.00  0.00     0.005 A 
ATOM     20  C   UNL A   1      29.911  30.616  24.288  1.00  0.00     0.010 A 
BRANCH  16  21
ATOM     21  O   UNL A   1      27.928  30.806  20.636  1.00  0.00    -0.497 OA
ATOM     22  C   UNL A   1      27.770  32.147  20.179  1.00  0.00     0.278 C 
ENDBRANCH  16  21
ENDBRANCH  10  15
BRANCH  14  23
ATOM     23  C   UNL A   1      33.884  25.732  25.056  1.00  0.00     0.102 C 
ATOM     24  N   UNL A   1      34.796  25.129  25.452  1.00  0.00    -0.192 NA
ENDBRANCH  14  23
ENDBRANCH   8   9
ENDBRANCH   7   8
ENDBRANCH   4   7
ENDBRANCH   2   3
ENDBRANCH   1   2
BRANCH   1  25
ATOM     25  C   UNL A   1      35.664  21.612  25.581  1.00  0.00     0.023 C 
BRANCH  25  26
ATOM     26  C   UNL A   1      37.085  21.881  25.100  1.00  0.00     0.116 C 
BRANCH  26  27
ATOM     27  N   UNL A   1      38.007  20.815  25.460  1.00  0.00    -0.352 N 
ATOM     28  C   UNL A   1      39.241  20.902  26.058  1.00  0.00     0.251 C 
ATOM     29  H   UNL A   1      37.705  19.903  25.244  1.00  0.00     0.163 HD
ATOM     30  O   UNL A   1      39.961  19.911  26.122  1.00  0.00    -0.269 OA
BRANCH  28  31
ATOM     31  C   UNL A   1      39.703  22.204  26.587  1.00  0.00     0.039 A 
ATOM     32  C   UNL A   1      40.709  22.222  27.554  1.00  0.00     0.014 A 
ATOM     33  C   UNL A   1      39.168  23.401  26.102  1.00  0.00     0.014 A 
ATOM     34  C   UNL A   1      41.236  23.444  27.976  1.00  0.00     0.010 A 
ATOM     35  C   UNL A   1      39.753  24.611  26.460  1.00  0.00     0.010 A 
ATOM     36  C   UNL A   1      40.797  24.647  27.397  1.00  0.00    -0.014 A 
BRANCH  36  37
ATOM     37  C   UNL A   1      41.428  25.947  27.747  1.00  0.00     0.031 A 
ATOM     38  C   UNL A   1      40.643  26.997  28.485  1.00  0.00     0.074 A 
ATOM     39  C   UNL A   1      42.692  26.205  27.352  1.00  0.00     0.049 A 
ATOM     40  N   UNL A   1      40.996  28.212  28.818  1.00  0.00    -0.248 NA
ATOM     41  C   UNL A   1      39.273  26.639  28.876  1.00  0.00     0.031 C 
ATOM     42  C   UNL A   1      43.549  25.276  26.611  1.00  0.00     0.029 A 
ATOM     43  N   UNL A   1      43.476  27.318  27.516  1.00  0.00    -0.354 N 
ATOM     44  C   UNL A   1      39.892  28.764  29.458  1.00  0.00     0.074 A 
ATOM     45  C   UNL A   1      38.836  27.776  29.393  1.00  0.00     0.031 C 
ATOM     46  C   UNL A   1      44.751  25.843  26.423  1.00  0.00     0.029 A 
ATOM     47  C   UNL A   1      44.733  27.196  26.969  1.00  0.00     0.049 A 
ATOM     48  H   UNL A   1      43.168  28.129  27.982  1.00  0.00     0.167 HD
ATOM     49  C   UNL A   1      39.779  29.971  30.067  1.00  0.00     0.034 A 
ATOM     50  C   UNL A   1      45.751  28.078  26.900  1.00  0.00     0.034 A 
ATOM     51  C   UNL A   1      40.838  30.950  30.111  1.00  0.00     0.049 A 
ATOM     52  C   UNL A   1      45.570  29.448  27.505  1.00  0.00     0.074 A 
ATOM     53  C   UNL A   1      40.838  32.191  30.723  1.00  0.00     0.029 A 
ATOM     54  N   UNL A   1      42.080  30.809  29.503  1.00  0.00    -0.354 N 
ATOM     55  N   UNL A   1      44.532  29.942  28.140  1.00  0.00    -0.248 NA
ATOM     56  C   UNL A   1      46.700  30.378  27.386  1.00  0.00     0.031 C 
ATOM     57  C   UNL A   1      42.040  32.834  30.410  1.00  0.00     0.029 A 
ATOM     58  C   UNL A   1      42.834  31.958  29.690  1.00  0.00     0.049 A 
ATOM     59  H   UNL A   1      42.380  30.009  29.012  1.00  0.00     0.167 HD
ATOM     60  C   UNL A   1      44.902  31.227  28.530  1.00  0.00     0.074 A 
ATOM     61  C   UNL A   1      46.260  31.424  28.068  1.00  0.00     0.031 C 
ATOM     62  C   UNL A   1      44.185  32.153  29.216  1.00  0.00     0.034 A 
BRANCH  49  63
ATOM     63  C   UNL A   1      38.449  30.302  30.704  1.00  0.00     0.023 A 
ATOM     64  C   UNL A   1      37.453  31.004  30.003  1.00  0.00     0.031 A 
ATOM     65  C   UNL A   1      38.185  29.952  32.040  1.00  0.00     0.131 A 
ATOM     66  C   UNL A   1      36.287  31.416  30.664  1.00  0.00     0.055 A 
ATOM     67  C   UNL A   1      36.977  30.275  32.663  1.00  0.00     0.041 A 
ATOM     68  F   UNL A   1      39.104  29.301  32.772  1.00  0.00    -0.206 F 
ATOM     69  C   UNL A   1      36.027  31.030  31.981  1.00  0.00     0.022 A 
BRANCH  66  70
ATOM     70  S   UNL A   1      35.209  32.620  29.840  1.00  0.00     0.124 S 
ATOM     71  O   UNL A   1      36.180  33.596  29.349  1.00  0.00    -0.237 OA
ATOM     72  O   UNL A   1      34.548  31.809  28.825  1.00  0.00    -0.237 OA
ATOM     73  O   UNL A   1      34.346  33.101  30.916  1.00  0.00    -0.744 OA
ENDBRANCH  66  70
ENDBRANCH  49  63
BRANCH  50  74
ATOM     74  C   UNL A   1      47.031  27.706  26.229  1.00  0.00     0.023 A 
ATOM     75  C   UNL A   1      47.216  27.932  24.857  1.00  0.00     0.031 A 
ATOM     76  C   UNL A   1      48.069  27.075  26.938  1.00  0.00     0.131 A 
ATOM     77  C   UNL A   1      48.388  27.486  24.225  1.00  0.00     0.055 A 
ATOM     78  C   UNL A   1      49.260  26.693  26.318  1.00  0.00     0.041 A 
ATOM     79  F   UNL A   1      47.945  26.829  28.251  1.00  0.00    -0.206 F 
ATOM     80  C   UNL A   1      49.418  26.885  24.950  1.00  0.00     0.022 A 
BRANCH  77  81
ATOM     81  S   UNL A   1      48.497  27.606  22.419  1.00  0.00     0.124 S 
ATOM     82  O   UNL A   1      49.733  28.360  22.249  1.00  0.00    -0.237 OA
ATOM     83  O   UNL A   1      48.539  26.202  22.023  1.00  0.00    -0.237 OA
ATOM     84  O   UNL A   1      47.275  28.319  22.053  1.00  0.00    -0.744 OA
ENDBRANCH  77  81
ENDBRANCH  50  74
BRANCH  62  85
ATOM     85  C   UNL A   1      44.878  33.453  29.556  1.00  0.00     0.023 A 
ATOM     86  C   UNL A   1      44.811  34.576  28.713  1.00  0.00     0.031 A 
ATOM     87  C   UNL A   1      45.616  33.568  30.749  1.00  0.00     0.131 A 
ATOM     88  C   UNL A   1      45.516  35.743  29.046  1.00  0.00     0.055 A 
ATOM     89  C   UNL A   1      46.253  34.755  31.110  1.00  0.00     0.041 A 
ATOM     90  F   UNL A   1      45.724  32.526  31.589  1.00  0.00    -0.206 F 
ATOM     91  C   UNL A   1      46.216  35.848  30.250  1.00  0.00     0.022 A 
BRANCH  88  92
ATOM     92  S   UNL A   1      45.598  37.088  27.831  1.00  0.00     0.124 S 
ATOM     93  O   UNL A   1      46.802  36.746  27.082  1.00  0.00    -0.237 OA
ATOM     94  O   UNL A   1      44.337  36.936  27.112  1.00  0.00    -0.237 OA
ATOM     95  O   UNL A   1      45.700  38.290  28.656  1.00  0.00    -0.744 OA
ENDBRANCH  88  92
ENDBRANCH  62  85
ENDBRANCH  36  37
ENDBRANCH  28  31
ENDBRANCH  26  27
ENDBRANCH  25  26
ENDBRANCH   1  25
TORSDOF 19
ENDMDL
MODEL 3
REMARK VINA RESULT:     -11.2      1.776      7.987
REMARK SMILES COc1cccc(-c2ccc(C#N)c(SCC(=O)NCCCCNC(=O)c3ccc(-c4c5nc(c(-c6cc(S(=O)(=O)[O-])ccc6F)c6ccc([nH]6)c(-c6cc(S(=O)(=O)[O-])ccc6F)c6nc(c(-c7cc(S(=O)(=O)[O-])ccc7F)c7ccc4[nH]7)C=C6)C=C5)cc3)n2)c1
REMARK SMILES IDX 21 1 20 2 19 3 17 4 18 5 16 7 15 8 14 9 8 10 9 11 90 12
REMARK SMILES IDX 10 13 11 14 7 15 3 16 4 17 91 18 5 19 6 20 2 21 1 22 12 23
REMARK SMILES IDX 13 24 22 25 23 26 24 27 25 28 26 30 27 31 28 32 89 33 29 34
REMARK SMILES IDX 88 35 30 36 31 37 32 38 82 39 33 40 87 41 81 42 83 43 34 44
REMARK SMILES IDX 86 45 80 46 79 47 35 49 67 50 47 51 66 52 48 53 51 54 65 55
REMARK SMILES IDX 84 56 49 57 50 58 64 60 85 61 52 62 36 63 37 64 45 65 38 66
REMARK SMILES IDX 44 67 46 68 43 69 39 70 40 71 41 72 42 73 68 74 69 75 77 76
REMARK SMILES IDX 70 77 76 78 78 79 75 80 71 81 72 82 73 83 74 84 53 85 54 86
REMARK SMILES IDX 62 87 55 88 61 89 63 90 60 91 56 92 57 93 58 94 59 95
REMARK H PARENT 19 6 24 29 83 48 51 59
REMARK Flexibility Score: inf
ROOT
ATOM      1  C   UNL A   1      31.530  28.769  23.375  1.00  0.00     0.023 C 
ENDROOT
BRANCH   1   2
ATOM      2  C   UNL A   1      30.918  27.477  22.835  1.00  0.00     0.116 C 
BRANCH   2   3
ATOM      3  N   UNL A   1      31.690  26.969  21.721  1.00  0.00    -0.355 N 
ATOM      4  C   UNL A   1      32.697  26.058  21.707  1.00  0.00     0.230 C 
ATOM      5  O   UNL A   1      33.278  25.882  20.635  1.00  0.00    -0.274 OA
ATOM      6  H   UNL A   1      31.448  27.338  20.842  1.00  0.00     0.163 HD
BRANCH   4   7
ATOM      7  C   UNL A   1      33.033  25.238  22.934  1.00  0.00     0.176 C 
BRANCH   7   8
ATOM      8  S   UNL A   1      31.998  23.767  23.209  1.00  0.00    -0.095 SA
BRANCH   8   9
ATOM      9  C   UNL A   1      32.559  22.942  24.688  1.00  0.00     0.115 A 
ATOM     10  C   UNL A   1      33.219  20.792  25.411  1.00  0.00     0.072 A 
ATOM     11  C   UNL A   1      33.492  21.272  26.685  1.00  0.00     0.030 A 
ATOM     12  N   UNL A   1      32.744  21.606  24.436  1.00  0.00    -0.240 NA
ATOM     13  C   UNL A   1      33.328  22.625  26.940  1.00  0.00     0.024 A 
ATOM     14  C   UNL A   1      32.897  23.490  25.925  1.00  0.00     0.084 A 
BRANCH  10  15
ATOM     15  C   UNL A   1      33.528  19.396  25.059  1.00  0.00     0.004 A 
ATOM     16  C   UNL A   1      32.917  17.028  25.127  1.00  0.00     0.119 A 
ATOM     17  C   UNL A   1      34.213  16.682  24.749  1.00  0.00     0.046 A 
ATOM     18  C   UNL A   1      32.582  18.375  25.281  1.00  0.00     0.056 A 
ATOM     19  C   UNL A   1      35.154  17.674  24.476  1.00  0.00     0.005 A 
ATOM     20  C   UNL A   1      34.810  19.022  24.622  1.00  0.00     0.010 A 
BRANCH  16  21
ATOM     21  O   UNL A   1      32.083  15.979  25.404  1.00  0.00    -0.497 OA
ATOM     22  C   UNL A   1      32.715  14.709  25.536  1.00  0.00     0.278 C 
ENDBRANCH  16  21
ENDBRANCH  10  15
BRANCH  14  23
ATOM     23  C   UNL A   1      32.983  24.886  26.203  1.00  0.00     0.102 C 
ATOM     24  N   UNL A   1      32.951  26.023  26.442  1.00  0.00    -0.192 NA
ENDBRANCH  14  23
ENDBRANCH   8   9
ENDBRANCH   7   8
ENDBRANCH   4   7
ENDBRANCH   2   3
ENDBRANCH   1   2
BRANCH   1  25
ATOM     25  C   UNL A   1      31.563  28.867  24.904  1.00  0.00     0.023 C 
BRANCH  25  26
ATOM     26  C   UNL A   1      32.734  29.658  25.475  1.00  0.00     0.116 C 
BRANCH  26  27
ATOM     27  N   UNL A   1      32.329  30.953  26.000  1.00  0.00    -0.352 N 
ATOM     28  C   UNL A   1      32.904  31.701  26.999  1.00  0.00     0.251 C 
ATOM     29  H   UNL A   1      31.531  31.348  25.582  1.00  0.00     0.163 HD
ATOM     30  O   UNL A   1      32.321  32.687  27.437  1.00  0.00    -0.269 OA
BRANCH  28  31
ATOM     31  C   UNL A   1      34.207  31.285  27.562  1.00  0.00     0.039 A 
ATOM     32  C   UNL A   1      35.212  32.240  27.717  1.00  0.00     0.014 A 
ATOM     33  C   UNL A   1      34.420  29.964  27.967  1.00  0.00     0.014 A 
ATOM     34  C   UNL A   1      36.404  31.888  28.354  1.00  0.00     0.010 A 
ATOM     35  C   UNL A   1      35.571  29.638  28.676  1.00  0.00     0.010 A 
ATOM     36  C   UNL A   1      36.574  30.598  28.883  1.00  0.00    -0.014 A 
BRANCH  36  37
ATOM     37  C   UNL A   1      37.786  30.239  29.667  1.00  0.00     0.031 A 
ATOM     38  C   UNL A   1      38.793  29.272  29.107  1.00  0.00     0.074 A 
ATOM     39  C   UNL A   1      37.953  30.742  30.907  1.00  0.00     0.049 A 
ATOM     40  N   UNL A   1      39.872  28.786  29.664  1.00  0.00    -0.248 NA
ATOM     41  C   UNL A   1      38.536  28.767  27.752  1.00  0.00     0.031 C 
ATOM     42  C   UNL A   1      37.035  31.672  31.570  1.00  0.00     0.029 A 
ATOM     43  N   UNL A   1      38.947  30.545  31.832  1.00  0.00    -0.354 N 
ATOM     44  C   UNL A   1      40.423  27.918  28.728  1.00  0.00     0.074 A 
ATOM     45  C   UNL A   1      39.514  27.888  27.603  1.00  0.00     0.031 C 
ATOM     46  C   UNL A   1      37.532  31.995  32.775  1.00  0.00     0.029 A 
ATOM     47  C   UNL A   1      38.766  31.250  33.000  1.00  0.00     0.049 A 
ATOM     48  H   UNL A   1      39.719  29.954  31.674  1.00  0.00     0.167 HD
ATOM     49  C   UNL A   1      41.592  27.232  28.791  1.00  0.00     0.034 A 
ATOM     50  C   UNL A   1      39.500  31.281  34.130  1.00  0.00     0.034 A 
ATOM     51  C   UNL A   1      42.481  27.263  29.927  1.00  0.00     0.049 A 
ATOM     52  C   UNL A   1      40.749  30.439  34.212  1.00  0.00     0.074 A 
ATOM     53  C   UNL A   1      43.700  26.629  30.084  1.00  0.00     0.029 A 
ATOM     54  N   UNL A   1      42.239  27.951  31.111  1.00  0.00    -0.354 N 
ATOM     55  N   UNL A   1      41.277  29.653  33.302  1.00  0.00    -0.248 NA
ATOM     56  C   UNL A   1      41.502  30.493  35.471  1.00  0.00     0.031 C 
ATOM     57  C   UNL A   1      44.149  26.856  31.389  1.00  0.00     0.029 A 
ATOM     58  C   UNL A   1      43.265  27.718  32.015  1.00  0.00     0.049 A 
ATOM     59  H   UNL A   1      41.453  28.520  31.282  1.00  0.00     0.167 HD
ATOM     60  C   UNL A   1      42.446  29.150  33.869  1.00  0.00     0.074 A 
ATOM     61  C   UNL A   1      42.549  29.731  35.191  1.00  0.00     0.031 C 
ATOM     62  C   UNL A   1      43.355  28.292  33.338  1.00  0.00     0.034 A 
BRANCH  49  63
ATOM     63  C   UNL A   1      41.952  26.369  27.604  1.00  0.00     0.023 A 
ATOM     64  C   UNL A   1      41.572  25.017  27.537  1.00  0.00     0.031 A 
ATOM     65  C   UNL A   1      42.718  26.886  26.544  1.00  0.00     0.131 A 
ATOM     66  C   UNL A   1      42.037  24.208  26.490  1.00  0.00     0.055 A 
ATOM     67  C   UNL A   1      43.092  26.101  25.452  1.00  0.00     0.041 A 
ATOM     68  F   UNL A   1      43.132  28.163  26.559  1.00  0.00    -0.206 F 
ATOM     69  C   UNL A   1      42.769  24.747  25.430  1.00  0.00     0.022 A 
BRANCH  66  70
ATOM     70  S   UNL A   1      41.834  22.411  26.635  1.00  0.00     0.124 S 
ATOM     71  O   UNL A   1      40.427  22.245  26.274  1.00  0.00    -0.237 OA
ATOM     72  O   UNL A   1      42.805  21.905  25.673  1.00  0.00    -0.237 OA
ATOM     73  O   UNL A   1      42.144  22.143  28.037  1.00  0.00    -0.744 OA
ENDBRANCH  66  70
ENDBRANCH  49  63
BRANCH  50  74
ATOM     74  C   UNL A   1      39.078  32.129  35.284  1.00  0.00     0.023 A 
ATOM     75  C   UNL A   1      39.534  33.449  35.411  1.00  0.00     0.031 A 
ATOM     76  C   UNL A   1      38.252  31.617  36.301  1.00  0.00     0.131 A 
ATOM     77  C   UNL A   1      39.206  34.197  36.553  1.00  0.00     0.055 A 
ATOM     78  C   UNL A   1      37.873  32.387  37.402  1.00  0.00     0.041 A 
ATOM     79  F   UNL A   1      37.790  30.359  36.234  1.00  0.00    -0.206 F 
ATOM     80  C   UNL A   1      38.363  33.681  37.540  1.00  0.00     0.022 A 
BRANCH  77  81
ATOM     81  S   UNL A   1      39.986  35.818  36.780  1.00  0.00     0.124 S 
ATOM     82  O   UNL A   1      39.691  36.468  35.509  1.00  0.00    -0.237 OA
ATOM     83  O   UNL A   1      39.279  36.335  37.947  1.00  0.00    -0.237 OA
ATOM     84  O   UNL A   1      41.393  35.489  37.001  1.00  0.00    -0.744 OA
ENDBRANCH  77  81
ENDBRANCH  50  74
BRANCH  62  85
ATOM     85  C   UNL A   1      44.574  27.970  34.172  1.00  0.00     0.023 A 
ATOM     86  C   UNL A   1      44.592  26.900  35.083  1.00  0.00     0.031 A 
ATOM     87  C   UNL A   1      45.739  28.750  34.049  1.00  0.00     0.131 A 
ATOM     88  C   UNL A   1      45.729  26.674  35.874  1.00  0.00     0.055 A 
ATOM     89  C   UNL A   1      46.891  28.474  34.784  1.00  0.00     0.041 A 
ATOM     90  F   UNL A   1      45.778  29.791  33.202  1.00  0.00    -0.206 F 
ATOM     91  C   UNL A   1      46.887  27.438  35.713  1.00  0.00     0.022 A 
BRANCH  88  92
ATOM     92  S   UNL A   1      45.638  25.435  37.196  1.00  0.00     0.124 S 
ATOM     93  O   UNL A   1      44.286  24.912  37.028  1.00  0.00    -0.237 OA
ATOM     94  O   UNL A   1      46.721  24.523  36.845  1.00  0.00    -0.237 OA
ATOM     95  O   UNL A   1      45.854  26.216  38.413  1.00  0.00    -0.744 OA
ENDBRANCH  88  92
ENDBRANCH  62  85
ENDBRANCH  36  37
ENDBRANCH  28  31
ENDBRANCH  26  27
ENDBRANCH  25  26
ENDBRANCH   1  25
TORSDOF 19
ENDMDL
