MODEL 1
REMARK VINA RESULT:     -12.5      0.000      0.000
REMARK SMILES O=C(NCCCCNC(=O)[C@@H]1C=C[C@@H]([NH+]2CC3(CCOCC3)C2)C1)c1ccc(-c2c3nc(c(-c4cc(S(=O)(=O)[O-])ccc4F)c4ccc([nH]4)c(-c4cc(S(=O)(=O)[O-])ccc4F)c4nc(c(-c5cc(S(=O)(=O)[O-])ccc5F)c5ccc2[nH]5)C=C4)C=C3)cc1
REMARK SMILES IDX 4 1 3 2 1 3 2 4 25 6 26 7 87 8 27 9 86 10 28 11 29 12 30 13
REMARK SMILES IDX 80 14 31 15 85 16 79 17 81 18 32 19 84 20 78 21 77 22 33 24
REMARK SMILES IDX 65 25 45 26 64 27 46 28 49 29 63 30 82 31 47 32 48 33 62 35
REMARK SMILES IDX 83 36 50 37 34 38 35 39 43 40 36 41 42 42 44 43 41 44 37 45
REMARK SMILES IDX 38 46 39 47 40 48 66 49 67 50 75 51 68 52 74 53 76 54 73 55
REMARK SMILES IDX 69 56 70 57 71 58 72 59 51 60 52 61 60 62 53 63 59 64 61 65
REMARK SMILES IDX 58 66 54 67 55 68 56 69 57 70 5 71 6 72 7 73 8 74 9 75 10 77
REMARK SMILES IDX 11 78 12 79 24 80 13 81 14 82 15 83 16 84 23 85 17 87 18 88
REMARK SMILES IDX 22 89 19 90 21 91 20 92
REMARK H PARENT 3 5 81 23 49 34 8 76 15 86
REMARK Flexibility Score: inf
ROOT
ATOM      1  C   UNL A   1      32.541  30.819  26.083  1.00  0.00     0.116 C 
ENDROOT
BRANCH   1   2
ATOM      2  N   UNL A   1      32.285  32.156  26.604  1.00  0.00    -0.352 N 
ATOM      3  O   UNL A   1      32.622  33.960  27.923  1.00  0.00    -0.269 OA
ATOM      4  C   UNL A   1      33.018  32.878  27.521  1.00  0.00     0.251 C 
ATOM      5  H   UNL A   1      31.481  32.603  26.254  1.00  0.00     0.163 HD
BRANCH   4   6
ATOM      6  C   UNL A   1      34.272  32.292  28.031  1.00  0.00     0.039 A 
ATOM      7  C   UNL A   1      34.322  30.939  28.372  1.00  0.00     0.014 A 
ATOM      8  C   UNL A   1      35.371  33.125  28.253  1.00  0.00     0.014 A 
ATOM      9  C   UNL A   1      35.405  30.459  29.093  1.00  0.00     0.010 A 
ATOM     10  C   UNL A   1      36.500  32.613  28.894  1.00  0.00     0.010 A 
ATOM     11  C   UNL A   1      36.508  31.288  29.360  1.00  0.00    -0.014 A 
BRANCH  11  12
ATOM     12  C   UNL A   1      37.667  30.732  30.101  1.00  0.00     0.031 A 
ATOM     13  C   UNL A   1      38.670  29.842  29.421  1.00  0.00     0.074 A 
ATOM     14  C   UNL A   1      37.825  31.074  31.394  1.00  0.00     0.049 A 
ATOM     15  N   UNL A   1      39.740  29.274  29.917  1.00  0.00    -0.248 NA
ATOM     16  C   UNL A   1      38.433  29.537  28.004  1.00  0.00     0.031 C 
ATOM     17  C   UNL A   1      36.913  31.938  32.150  1.00  0.00     0.029 A 
ATOM     18  N   UNL A   1      38.811  30.766  32.292  1.00  0.00    -0.354 N 
ATOM     19  C   UNL A   1      40.293  28.525  28.883  1.00  0.00     0.074 A 
ATOM     20  C   UNL A   1      39.416  28.688  27.741  1.00  0.00     0.031 C 
ATOM     21  C   UNL A   1      37.413  32.137  33.376  1.00  0.00     0.029 A 
ATOM     22  C   UNL A   1      38.635  31.356  33.520  1.00  0.00     0.049 A 
ATOM     23  H   UNL A   1      39.572  30.180  32.078  1.00  0.00     0.167 HD
ATOM     24  C   UNL A   1      41.427  27.779  28.889  1.00  0.00     0.034 A 
ATOM     25  C   UNL A   1      39.364  31.264  34.649  1.00  0.00     0.034 A 
ATOM     26  C   UNL A   1      42.288  27.638  30.042  1.00  0.00     0.049 A 
ATOM     27  C   UNL A   1      40.594  30.403  34.641  1.00  0.00     0.074 A 
ATOM     28  C   UNL A   1      43.475  26.934  30.155  1.00  0.00     0.029 A 
ATOM     29  N   UNL A   1      42.049  28.207  31.289  1.00  0.00    -0.354 N 
ATOM     30  N   UNL A   1      41.104  29.700  33.656  1.00  0.00    -0.248 NA
ATOM     31  C   UNL A   1      41.344  30.322  35.898  1.00  0.00     0.031 C 
ATOM     32  C   UNL A   1      43.916  27.022  31.481  1.00  0.00     0.029 A 
ATOM     33  C   UNL A   1      43.048  27.843  32.182  1.00  0.00     0.049 A 
ATOM     34  H   UNL A   1      41.282  28.785  31.507  1.00  0.00     0.167 HD
ATOM     35  C   UNL A   1      42.250  29.105  34.171  1.00  0.00     0.074 A 
ATOM     36  C   UNL A   1      42.362  29.548  35.548  1.00  0.00     0.031 C 
ATOM     37  C   UNL A   1      43.132  28.272  33.560  1.00  0.00     0.034 A 
BRANCH  24  38
ATOM     38  C   UNL A   1      41.761  27.014  27.628  1.00  0.00     0.023 A 
ATOM     39  C   UNL A   1      41.548  25.627  27.517  1.00  0.00     0.031 A 
ATOM     40  C   UNL A   1      42.345  27.674  26.531  1.00  0.00     0.131 A 
ATOM     41  C   UNL A   1      41.995  24.935  26.380  1.00  0.00     0.055 A 
ATOM     42  C   UNL A   1      42.709  26.993  25.367  1.00  0.00     0.041 A 
ATOM     43  F   UNL A   1      42.592  28.992  26.580  1.00  0.00    -0.206 F 
ATOM     44  C   UNL A   1      42.553  25.613  25.293  1.00  0.00     0.022 A 
BRANCH  41  45
ATOM     45  S   UNL A   1      41.992  23.120  26.412  1.00  0.00     0.124 S 
ATOM     46  O   UNL A   1      42.779  22.844  27.613  1.00  0.00    -0.237 OA
ATOM     47  O   UNL A   1      40.571  22.809  26.494  1.00  0.00    -0.237 OA
ATOM     48  O   UNL A   1      42.643  22.754  25.155  1.00  0.00    -0.744 OA
ENDBRANCH  41  45
ENDBRANCH  24  38
BRANCH  25  49
ATOM     49  C   UNL A   1      38.929  31.990  35.872  1.00  0.00     0.023 A 
ATOM     50  C   UNL A   1      38.154  31.355  36.853  1.00  0.00     0.031 A 
ATOM     51  C   UNL A   1      39.295  33.333  36.080  1.00  0.00     0.131 A 
ATOM     52  C   UNL A   1      37.750  32.069  37.990  1.00  0.00     0.055 A 
ATOM     53  C   UNL A   1      38.930  34.024  37.235  1.00  0.00     0.041 A 
ATOM     54  F   UNL A   1      40.044  33.981  35.175  1.00  0.00    -0.206 F 
ATOM     55  C   UNL A   1      38.145  33.394  38.195  1.00  0.00     0.022 A 
BRANCH  52  56
ATOM     56  S   UNL A   1      36.656  31.252  39.183  1.00  0.00     0.124 S 
ATOM     57  O   UNL A   1      36.409  29.971  38.532  1.00  0.00    -0.237 OA
ATOM     58  O   UNL A   1      37.486  31.214  40.381  1.00  0.00    -0.237 OA
ATOM     59  O   UNL A   1      35.503  32.149  39.255  1.00  0.00    -0.744 OA
ENDBRANCH  52  56
ENDBRANCH  25  49
BRANCH  37  60
ATOM     60  C   UNL A   1      44.313  27.823  34.384  1.00  0.00     0.023 A 
ATOM     61  C   UNL A   1      44.270  26.651  35.159  1.00  0.00     0.031 A 
ATOM     62  C   UNL A   1      45.483  28.602  34.421  1.00  0.00     0.131 A 
ATOM     63  C   UNL A   1      45.354  26.323  35.988  1.00  0.00     0.055 A 
ATOM     64  C   UNL A   1      46.581  28.239  35.202  1.00  0.00     0.041 A 
ATOM     65  F   UNL A   1      45.575  29.732  33.704  1.00  0.00    -0.206 F 
ATOM     66  C   UNL A   1      46.514  27.101  36.004  1.00  0.00     0.022 A 
BRANCH  63  67
ATOM     67  S   UNL A   1      45.186  24.922  37.127  1.00  0.00     0.124 S 
ATOM     68  O   UNL A   1      45.289  23.781  36.222  1.00  0.00    -0.237 OA
ATOM     69  O   UNL A   1      46.313  25.120  38.033  1.00  0.00    -0.237 OA
ATOM     70  O   UNL A   1      43.868  25.121  37.725  1.00  0.00    -0.744 OA
ENDBRANCH  63  67
ENDBRANCH  37  60
ENDBRANCH  11  12
ENDBRANCH   4   6
ENDBRANCH   1   2
BRANCH   1  71
ATOM     71  C   UNL A   1      31.409  29.837  26.351  1.00  0.00     0.023 C 
BRANCH  71  72
ATOM     72  C   UNL A   1      31.757  28.690  27.290  1.00  0.00     0.023 C 
BRANCH  72  73
ATOM     73  C   UNL A   1      32.167  27.395  26.605  1.00  0.00     0.116 C 
BRANCH  73  74
ATOM     74  N   UNL A   1      31.265  26.299  26.876  1.00  0.00    -0.356 N 
ATOM     75  C   UNL A   1      30.629  25.463  26.015  1.00  0.00     0.227 C 
ATOM     76  H   UNL A   1      31.084  26.133  27.829  1.00  0.00     0.163 HD
ATOM     77  O   UNL A   1      30.033  24.495  26.501  1.00  0.00    -0.274 OA
BRANCH  75  78
ATOM     78  C   UNL A   1      30.522  25.737  24.513  1.00  0.00     0.107 C 
ATOM     79  C   UNL A   1      31.655  26.364  23.767  1.00  0.00    -0.012 C 
ATOM     80  C   UNL A   1      29.333  26.650  24.194  1.00  0.00     0.087 C 
ATOM     81  C   UNL A   1      31.305  27.529  23.205  1.00  0.00     0.033 C 
ATOM     82  C   UNL A   1      29.896  27.935  23.549  1.00  0.00     0.208 C 
BRANCH  82  83
ATOM     83  N   UNL A   1      29.215  28.569  22.419  1.00  0.00    -0.328 N 
ATOM     84  C   UNL A   1      29.799  29.855  22.021  1.00  0.00     0.275 C 
ATOM     85  C   UNL A   1      27.929  29.177  22.750  1.00  0.00     0.275 C 
ATOM     86  H   UNL A   1      29.229  27.791  21.760  1.00  0.00     0.348 HD
ATOM     87  C   UNL A   1      28.505  30.595  22.464  1.00  0.00     0.073 C 
ATOM     88  C   UNL A   1      27.653  31.283  21.387  1.00  0.00     0.047 C 
ATOM     89  C   UNL A   1      28.695  31.522  23.674  1.00  0.00     0.047 C 
ATOM     90  C   UNL A   1      28.178  32.682  21.099  1.00  0.00     0.161 C 
ATOM     91  C   UNL A   1      29.147  32.904  23.227  1.00  0.00     0.161 C 
ATOM     92  O   UNL A   1      28.215  33.453  22.299  1.00  0.00    -0.381 OA
ENDBRANCH  82  83
ENDBRANCH  75  78
ENDBRANCH  73  74
ENDBRANCH  72  73
ENDBRANCH  71  72
ENDBRANCH   1  71
TORSDOF 15
ENDMDL
MODEL 2
REMARK VINA RESULT:     -12.4      1.673      7.743
REMARK SMILES O=C(NCCCCNC(=O)[C@@H]1C=C[C@@H]([NH+]2CC3(CCOCC3)C2)C1)c1ccc(-c2c3nc(c(-c4cc(S(=O)(=O)[O-])ccc4F)c4ccc([nH]4)c(-c4cc(S(=O)(=O)[O-])ccc4F)c4nc(c(-c5cc(S(=O)(=O)[O-])ccc5F)c5ccc2[nH]5)C=C4)C=C3)cc1
REMARK SMILES IDX 4 1 3 2 1 3 2 4 25 6 26 7 87 8 27 9 86 10 28 11 29 12 30 13
REMARK SMILES IDX 80 14 31 15 85 16 79 17 81 18 32 19 84 20 78 21 77 22 33 24
REMARK SMILES IDX 65 25 45 26 64 27 46 28 49 29 63 30 82 31 47 32 48 33 62 35
REMARK SMILES IDX 83 36 50 37 34 38 35 39 43 40 36 41 42 42 44 43 41 44 37 45
REMARK SMILES IDX 38 46 39 47 40 48 66 49 67 50 75 51 68 52 74 53 76 54 73 55
REMARK SMILES IDX 69 56 70 57 71 58 72 59 51 60 52 61 60 62 53 63 59 64 61 65
REMARK SMILES IDX 58 66 54 67 55 68 56 69 57 70 5 71 6 72 7 73 8 74 9 75 10 77
REMARK SMILES IDX 11 78 12 79 24 80 13 81 14 82 15 83 16 84 23 85 17 87 18 88
REMARK SMILES IDX 22 89 19 90 21 91 20 92
REMARK H PARENT 3 5 81 23 49 34 8 76 15 86
REMARK Flexibility Score: inf
ROOT
ATOM      1  C   UNL A   1      32.541  30.454  26.064  1.00  0.00     0.116 C 
ENDROOT
BRANCH   1   2
ATOM      2  N   UNL A   1      32.276  31.814  26.519  1.00  0.00    -0.352 N 
ATOM      3  O   UNL A   1      32.610  33.689  27.734  1.00  0.00    -0.269 OA
ATOM      4  C   UNL A   1      33.014  32.593  27.382  1.00  0.00     0.251 C 
ATOM      5  H   UNL A   1      31.458  32.230  26.161  1.00  0.00     0.163 HD
BRANCH   4   6
ATOM      6  C   UNL A   1      34.286  32.052  27.898  1.00  0.00     0.039 A 
ATOM      7  C   UNL A   1      34.354  30.729  28.339  1.00  0.00     0.014 A 
ATOM      8  C   UNL A   1      35.386  32.904  28.024  1.00  0.00     0.014 A 
ATOM      9  C   UNL A   1      35.460  30.309  29.062  1.00  0.00     0.010 A 
ATOM     10  C   UNL A   1      36.536  32.446  28.669  1.00  0.00     0.010 A 
ATOM     11  C   UNL A   1      36.565  31.160  29.233  1.00  0.00    -0.014 A 
BRANCH  11  12
ATOM     12  C   UNL A   1      37.749  30.666  29.981  1.00  0.00     0.031 A 
ATOM     13  C   UNL A   1      37.996  31.080  31.405  1.00  0.00     0.074 A 
ATOM     14  C   UNL A   1      38.581  29.805  29.366  1.00  0.00     0.049 A 
ATOM     15  N   UNL A   1      38.976  30.741  32.205  1.00  0.00    -0.248 NA
ATOM     16  C   UNL A   1      37.025  32.005  32.005  1.00  0.00     0.031 C 
ATOM     17  C   UNL A   1      38.431  29.334  27.986  1.00  0.00     0.029 A 
ATOM     18  N   UNL A   1      39.697  29.154  29.820  1.00  0.00    -0.354 N 
ATOM     19  C   UNL A   1      38.756  31.429  33.394  1.00  0.00     0.074 A 
ATOM     20  C   UNL A   1      37.565  32.229  33.195  1.00  0.00     0.031 C 
ATOM     21  C   UNL A   1      39.381  28.426  27.727  1.00  0.00     0.029 A 
ATOM     22  C   UNL A   1      40.252  28.309  28.889  1.00  0.00     0.049 A 
ATOM     23  H   UNL A   1      40.064  29.278  30.724  1.00  0.00     0.167 HD
ATOM     24  C   UNL A   1      39.479  31.388  34.543  1.00  0.00     0.034 A 
ATOM     25  C   UNL A   1      41.355  27.539  28.953  1.00  0.00     0.034 A 
ATOM     26  C   UNL A   1      40.661  30.574  34.717  1.00  0.00     0.049 A 
ATOM     27  C   UNL A   1      42.158  27.539  30.221  1.00  0.00     0.074 A 
ATOM     28  C   UNL A   1      41.455  30.431  35.843  1.00  0.00     0.029 A 
ATOM     29  N   UNL A   1      41.228  29.770  33.733  1.00  0.00    -0.354 N 
ATOM     30  N   UNL A   1      41.939  28.195  31.338  1.00  0.00    -0.248 NA
ATOM     31  C   UNL A   1      43.358  26.697  30.237  1.00  0.00     0.031 C 
ATOM     32  C   UNL A   1      42.533  29.597  35.520  1.00  0.00     0.029 A 
ATOM     33  C   UNL A   1      42.375  29.156  34.216  1.00  0.00     0.049 A 
ATOM     34  H   UNL A   1      40.866  29.653  32.825  1.00  0.00     0.167 HD
ATOM     35  C   UNL A   1      42.968  27.829  32.199  1.00  0.00     0.074 A 
ATOM     36  C   UNL A   1      43.795  26.882  31.475  1.00  0.00     0.031 C 
ATOM     37  C   UNL A   1      43.205  28.234  33.473  1.00  0.00     0.034 A 
BRANCH  24  38
ATOM     38  C   UNL A   1      39.040  32.294  35.672  1.00  0.00     0.023 A 
ATOM     39  C   UNL A   1      39.473  33.629  35.768  1.00  0.00     0.031 A 
ATOM     40  C   UNL A   1      38.210  31.801  36.695  1.00  0.00     0.131 A 
ATOM     41  C   UNL A   1      39.149  34.394  36.901  1.00  0.00     0.055 A 
ATOM     42  C   UNL A   1      37.821  32.594  37.778  1.00  0.00     0.041 A 
ATOM     43  F   UNL A   1      37.778  30.531  36.673  1.00  0.00    -0.206 F 
ATOM     44  C   UNL A   1      38.306  33.893  37.895  1.00  0.00     0.022 A 
BRANCH  41  45
ATOM     45  S   UNL A   1      39.983  35.988  37.138  1.00  0.00     0.124 S 
ATOM     46  O   UNL A   1      41.356  35.568  37.415  1.00  0.00    -0.237 OA
ATOM     47  O   UNL A   1      39.765  36.651  35.858  1.00  0.00    -0.237 OA
ATOM     48  O   UNL A   1      39.281  36.577  38.277  1.00  0.00    -0.744 OA
ENDBRANCH  41  45
ENDBRANCH  24  38
BRANCH  25  49
ATOM     49  C   UNL A   1      41.762  26.730  27.773  1.00  0.00     0.023 A 
ATOM     50  C   UNL A   1      41.442  25.368  27.686  1.00  0.00     0.031 A 
ATOM     51  C   UNL A   1      42.470  27.316  26.708  1.00  0.00     0.131 A 
ATOM     52  C   UNL A   1      41.850  24.628  26.565  1.00  0.00     0.055 A 
ATOM     53  C   UNL A   1      42.832  26.587  25.575  1.00  0.00     0.041 A 
ATOM     54  F   UNL A   1      42.791  28.619  26.741  1.00  0.00    -0.206 F 
ATOM     55  C   UNL A   1      42.529  25.232  25.504  1.00  0.00     0.022 A 
BRANCH  52  56
ATOM     56  S   UNL A   1      41.518  22.846  26.536  1.00  0.00     0.124 S 
ATOM     57  O   UNL A   1      42.290  22.418  25.375  1.00  0.00    -0.237 OA
ATOM     58  O   UNL A   1      42.025  22.421  27.836  1.00  0.00    -0.237 OA
ATOM     59  O   UNL A   1      40.066  22.773  26.382  1.00  0.00    -0.744 OA
ENDBRANCH  52  56
ENDBRANCH  25  49
BRANCH  37  60
ATOM     60  C   UNL A   1      44.394  27.616  34.165  1.00  0.00     0.023 A 
ATOM     61  C   UNL A   1      44.278  26.431  34.913  1.00  0.00     0.031 A 
ATOM     62  C   UNL A   1      45.649  28.244  34.106  1.00  0.00     0.131 A 
ATOM     63  C   UNL A   1      45.386  25.944  35.623  1.00  0.00     0.055 A 
ATOM     64  C   UNL A   1      46.762  27.723  34.767  1.00  0.00     0.041 A 
ATOM     65  F   UNL A   1      45.814  29.380  33.410  1.00  0.00    -0.206 F 
ATOM     66  C   UNL A   1      46.631  26.574  35.544  1.00  0.00     0.022 A 
BRANCH  63  67
ATOM     67  S   UNL A   1      45.154  24.533  36.739  1.00  0.00     0.124 S 
ATOM     68  O   UNL A   1      44.165  25.051  37.681  1.00  0.00    -0.237 OA
ATOM     69  O   UNL A   1      44.686  23.491  35.831  1.00  0.00    -0.237 OA
ATOM     70  O   UNL A   1      46.487  24.315  37.298  1.00  0.00    -0.744 OA
ENDBRANCH  63  67
ENDBRANCH  37  60
ENDBRANCH  11  12
ENDBRANCH   4   6
ENDBRANCH   1   2
BRANCH   1  71
ATOM     71  C   UNL A   1      31.518  29.440  26.556  1.00  0.00     0.023 C 
BRANCH  71  72
ATOM     72  C   UNL A   1      32.101  28.124  27.054  1.00  0.00     0.023 C 
BRANCH  72  73
ATOM     73  C   UNL A   1      33.407  27.704  26.395  1.00  0.00     0.116 C 
BRANCH  73  74
ATOM     74  N   UNL A   1      33.480  26.286  26.130  1.00  0.00    -0.356 N 
ATOM     75  C   UNL A   1      33.541  25.624  24.946  1.00  0.00     0.227 C 
ATOM     76  H   UNL A   1      33.485  25.711  26.930  1.00  0.00     0.163 HD
ATOM     77  O   UNL A   1      33.761  24.409  24.986  1.00  0.00    -0.274 OA
BRANCH  75  78
ATOM     78  C   UNL A   1      33.232  26.290  23.602  1.00  0.00     0.107 C 
ATOM     79  C   UNL A   1      33.725  27.668  23.300  1.00  0.00    -0.012 C 
ATOM     80  C   UNL A   1      31.723  26.387  23.359  1.00  0.00     0.087 C 
ATOM     81  C   UNL A   1      32.720  28.520  23.059  1.00  0.00     0.033 C 
ATOM     82  C   UNL A   1      31.367  27.885  23.245  1.00  0.00     0.208 C 
BRANCH  82  83
ATOM     83  N   UNL A   1      30.398  28.353  22.252  1.00  0.00    -0.328 N 
ATOM     84  C   UNL A   1      30.526  29.779  21.928  1.00  0.00     0.275 C 
ATOM     85  C   UNL A   1      29.040  28.520  22.762  1.00  0.00     0.275 C 
ATOM     86  H   UNL A   1      30.563  27.660  21.522  1.00  0.00     0.348 HD
ATOM     87  C   UNL A   1      29.134  30.061  22.562  1.00  0.00     0.073 C 
ATOM     88  C   UNL A   1      27.995  30.526  21.644  1.00  0.00     0.047 C 
ATOM     89  C   UNL A   1      29.187  30.922  23.833  1.00  0.00     0.047 C 
ATOM     90  C   UNL A   1      28.045  32.033  21.445  1.00  0.00     0.161 C 
ATOM     91  C   UNL A   1      29.154  32.401  23.482  1.00  0.00     0.161 C 
ATOM     92  O   UNL A   1      27.998  32.701  22.705  1.00  0.00    -0.381 OA
ENDBRANCH  82  83
ENDBRANCH  75  78
ENDBRANCH  73  74
ENDBRANCH  72  73
ENDBRANCH  71  72
ENDBRANCH   1  71
TORSDOF 15
ENDMDL
MODEL 3
REMARK VINA RESULT:     -12.3      5.380     10.465
REMARK SMILES O=C(NCCCCNC(=O)[C@@H]1C=C[C@@H]([NH+]2CC3(CCOCC3)C2)C1)c1ccc(-c2c3nc(c(-c4cc(S(=O)(=O)[O-])ccc4F)c4ccc([nH]4)c(-c4cc(S(=O)(=O)[O-])ccc4F)c4nc(c(-c5cc(S(=O)(=O)[O-])ccc5F)c5ccc2[nH]5)C=C4)C=C3)cc1
REMARK SMILES IDX 4 1 3 2 1 3 2 4 25 6 26 7 87 8 27 9 86 10 28 11 29 12 30 13
REMARK SMILES IDX 80 14 31 15 85 16 79 17 81 18 32 19 84 20 78 21 77 22 33 24
REMARK SMILES IDX 65 25 45 26 64 27 46 28 49 29 63 30 82 31 47 32 48 33 62 35
REMARK SMILES IDX 83 36 50 37 34 38 35 39 43 40 36 41 42 42 44 43 41 44 37 45
REMARK SMILES IDX 38 46 39 47 40 48 66 49 67 50 75 51 68 52 74 53 76 54 73 55
REMARK SMILES IDX 69 56 70 57 71 58 72 59 51 60 52 61 60 62 53 63 59 64 61 65
REMARK SMILES IDX 58 66 54 67 55 68 56 69 57 70 5 71 6 72 7 73 8 74 9 75 10 77
REMARK SMILES IDX 11 78 12 79 24 80 13 81 14 82 15 83 16 84 23 85 17 87 18 88
REMARK SMILES IDX 22 89 19 90 21 91 20 92
REMARK H PARENT 3 5 81 23 49 34 8 76 15 86
REMARK Flexibility Score: inf
ROOT
ATOM      1  C   UNL A   1      36.657  21.768  25.538  1.00  0.00     0.116 C 
ENDROOT
BRANCH   1   2
ATOM      2  N   UNL A   1      37.680  20.729  25.574  1.00  0.00    -0.352 N 
ATOM      3  O   UNL A   1      39.758  19.883  25.838  1.00  0.00    -0.269 OA
ATOM      4  C   UNL A   1      39.002  20.834  25.946  1.00  0.00     0.251 C 
ATOM      5  H   UNL A   1      37.385  19.832  25.295  1.00  0.00     0.163 HD
BRANCH   4   6
ATOM      6  C   UNL A   1      39.488  22.137  26.441  1.00  0.00     0.039 A 
ATOM      7  C   UNL A   1      38.961  23.321  25.922  1.00  0.00     0.014 A 
ATOM      8  C   UNL A   1      40.538  22.166  27.361  1.00  0.00     0.014 A 
ATOM      9  C   UNL A   1      39.598  24.524  26.189  1.00  0.00     0.010 A 
ATOM     10  C   UNL A   1      41.115  23.390  27.703  1.00  0.00     0.010 A 
ATOM     11  C   UNL A   1      40.680  24.573  27.084  1.00  0.00    -0.014 A 
BRANCH  11  12
ATOM     12  C   UNL A   1      41.316  25.882  27.378  1.00  0.00     0.031 A 
ATOM     13  C   UNL A   1      40.627  26.906  28.237  1.00  0.00     0.074 A 
ATOM     14  C   UNL A   1      42.546  26.121  26.887  1.00  0.00     0.049 A 
ATOM     15  N   UNL A   1      41.039  28.096  28.595  1.00  0.00    -0.248 NA
ATOM     16  C   UNL A   1      39.295  26.554  28.749  1.00  0.00     0.031 C 
ATOM     17  C   UNL A   1      43.308  25.193  26.046  1.00  0.00     0.029 A 
ATOM     18  N   UNL A   1      43.384  27.193  27.040  1.00  0.00    -0.354 N 
ATOM     19  C   UNL A   1      40.011  28.647  29.353  1.00  0.00     0.074 A 
ATOM     20  C   UNL A   1      38.942  27.668  29.373  1.00  0.00     0.031 C 
ATOM     21  C   UNL A   1      44.520  25.711  25.808  1.00  0.00     0.029 A 
ATOM     22  C   UNL A   1      44.594  27.035  26.409  1.00  0.00     0.049 A 
ATOM     23  H   UNL A   1      43.142  27.998  27.552  1.00  0.00     0.167 HD
ATOM     24  C   UNL A   1      39.970  29.852  29.976  1.00  0.00     0.034 A 
ATOM     25  C   UNL A   1      45.643  27.873  26.307  1.00  0.00     0.034 A 
ATOM     26  C   UNL A   1      41.054  30.808  29.946  1.00  0.00     0.049 A 
ATOM     27  C   UNL A   1      45.559  29.216  26.974  1.00  0.00     0.074 A 
ATOM     28  C   UNL A   1      41.136  32.045  30.563  1.00  0.00     0.029 A 
ATOM     29  N   UNL A   1      42.247  30.638  29.250  1.00  0.00    -0.354 N 
ATOM     30  N   UNL A   1      44.581  29.723  27.687  1.00  0.00    -0.248 NA
ATOM     31  C   UNL A   1      46.720  30.097  26.820  1.00  0.00     0.031 C 
ATOM     32  C   UNL A   1      42.343  32.647  30.188  1.00  0.00     0.029 A 
ATOM     33  C   UNL A   1      43.053  31.758  29.398  1.00  0.00     0.049 A 
ATOM     34  H   UNL A   1      42.485  29.837  28.729  1.00  0.00     0.167 HD
ATOM     35  C   UNL A   1      45.017  30.982  28.084  1.00  0.00     0.074 A 
ATOM     36  C   UNL A   1      46.354  31.145  27.544  1.00  0.00     0.031 C 
ATOM     37  C   UNL A   1      44.374  31.917  28.831  1.00  0.00     0.034 A 
BRANCH  24  38
ATOM     38  C   UNL A   1      38.688  30.222  30.689  1.00  0.00     0.023 A 
ATOM     39  C   UNL A   1      37.628  30.872  30.031  1.00  0.00     0.031 A 
ATOM     40  C   UNL A   1      38.540  29.960  32.064  1.00  0.00     0.131 A 
ATOM     41  C   UNL A   1      36.512  31.314  30.760  1.00  0.00     0.055 A 
ATOM     42  C   UNL A   1      37.390  30.327  32.767  1.00  0.00     0.041 A 
ATOM     43  F   UNL A   1      39.521  29.360  32.755  1.00  0.00    -0.206 F 
ATOM     44  C   UNL A   1      36.375  31.025  32.119  1.00  0.00     0.022 A 
BRANCH  41  45
ATOM     45  S   UNL A   1      35.326  32.420  29.944  1.00  0.00     0.124 S 
ATOM     46  O   UNL A   1      34.425  32.754  31.046  1.00  0.00    -0.237 OA
ATOM     47  O   UNL A   1      36.180  33.501  29.468  1.00  0.00    -0.237 OA
ATOM     48  O   UNL A   1      34.735  31.582  28.902  1.00  0.00    -0.744 OA
ENDBRANCH  41  45
ENDBRANCH  24  38
BRANCH  25  49
ATOM     49  C   UNL A   1      46.842  27.465  25.526  1.00  0.00     0.023 A 
ATOM     50  C   UNL A   1      46.990  27.837  24.182  1.00  0.00     0.031 A 
ATOM     51  C   UNL A   1      47.864  26.703  26.121  1.00  0.00     0.131 A 
ATOM     52  C   UNL A   1      48.126  27.428  23.468  1.00  0.00     0.055 A 
ATOM     53  C   UNL A   1      49.014  26.339  25.420  1.00  0.00     0.041 A 
ATOM     54  F   UNL A   1      47.773  26.331  27.408  1.00  0.00    -0.206 F 
ATOM     55  C   UNL A   1      49.145  26.695  24.082  1.00  0.00     0.022 A 
BRANCH  52  56
ATOM     56  S   UNL A   1      48.232  27.830  21.704  1.00  0.00     0.124 S 
ATOM     57  O   UNL A   1      48.608  26.544  21.127  1.00  0.00    -0.237 OA
ATOM     58  O   UNL A   1      46.879  28.293  21.415  1.00  0.00    -0.237 OA
ATOM     59  O   UNL A   1      49.266  28.863  21.652  1.00  0.00    -0.744 OA
ENDBRANCH  52  56
ENDBRANCH  25  49
BRANCH  37  60
ATOM     60  C   UNL A   1      45.139  33.182  29.130  1.00  0.00     0.023 A 
ATOM     61  C   UNL A   1      45.083  34.297  28.276  1.00  0.00     0.031 A 
ATOM     62  C   UNL A   1      45.964  33.255  30.265  1.00  0.00     0.131 A 
ATOM     63  C   UNL A   1      45.888  35.417  28.537  1.00  0.00     0.055 A 
ATOM     64  C   UNL A   1      46.717  34.394  30.552  1.00  0.00     0.041 A 
ATOM     65  F   UNL A   1      46.057  32.217  31.111  1.00  0.00    -0.206 F 
ATOM     66  C   UNL A   1      46.694  35.478  29.678  1.00  0.00     0.022 A 
BRANCH  63  67
ATOM     67  S   UNL A   1      45.949  36.751  27.311  1.00  0.00     0.124 S 
ATOM     68  O   UNL A   1      46.885  37.687  27.927  1.00  0.00    -0.237 OA
ATOM     69  O   UNL A   1      46.430  36.059  26.120  1.00  0.00    -0.237 OA
ATOM     70  O   UNL A   1      44.565  37.216  27.240  1.00  0.00    -0.744 OA
ENDBRANCH  63  67
ENDBRANCH  37  60
ENDBRANCH  11  12
ENDBRANCH   4   6
ENDBRANCH   1   2
BRANCH   1  71
ATOM     71  C   UNL A   1      35.500  21.448  24.602  1.00  0.00     0.023 C 
BRANCH  71  72
ATOM     72  C   UNL A   1      34.786  20.132  24.884  1.00  0.00     0.023 C 
BRANCH  72  73
ATOM     73  C   UNL A   1      33.387  20.268  25.467  1.00  0.00     0.116 C 
BRANCH  73  74
ATOM     74  N   UNL A   1      33.374  20.867  26.781  1.00  0.00    -0.356 N 
ATOM     75  C   UNL A   1      32.940  22.093  27.174  1.00  0.00     0.227 C 
ATOM     76  H   UNL A   1      33.736  20.303  27.502  1.00  0.00     0.163 HD
ATOM     77  O   UNL A   1      32.886  22.313  28.389  1.00  0.00    -0.274 OA
BRANCH  75  78
ATOM     78  C   UNL A   1      32.640  23.226  26.189  1.00  0.00     0.107 C 
ATOM     79  C   UNL A   1      33.664  24.273  25.891  1.00  0.00    -0.012 C 
ATOM     80  C   UNL A   1      31.415  24.036  26.625  1.00  0.00     0.087 C 
ATOM     81  C   UNL A   1      33.237  25.501  26.214  1.00  0.00     0.033 C 
ATOM     82  C   UNL A   1      31.882  25.487  26.871  1.00  0.00     0.208 C 
BRANCH  82  83
ATOM     83  N   UNL A   1      31.056  26.622  26.455  1.00  0.00    -0.328 N 
ATOM     84  C   UNL A   1      30.249  26.359  25.257  1.00  0.00     0.275 C 
ATOM     85  C   UNL A   1      31.795  27.702  25.804  1.00  0.00     0.275 C 
ATOM     86  H   UNL A   1      30.587  26.818  27.338  1.00  0.00     0.348 HD
ATOM     87  C   UNL A   1      31.070  27.411  24.457  1.00  0.00     0.073 C 
ATOM     88  C   UNL A   1      30.356  28.683  23.978  1.00  0.00     0.047 C 
ATOM     89  C   UNL A   1      31.922  26.814  23.327  1.00  0.00     0.047 C 
ATOM     90  C   UNL A   1      29.653  28.439  22.651  1.00  0.00     0.161 C 
ATOM     91  C   UNL A   1      31.111  26.700  22.046  1.00  0.00     0.161 C 
ATOM     92  O   UNL A   1      30.585  27.972  21.677  1.00  0.00    -0.381 OA
ENDBRANCH  82  83
ENDBRANCH  75  78
ENDBRANCH  73  74
ENDBRANCH  72  73
ENDBRANCH  71  72
ENDBRANCH   1  71
TORSDOF 15
ENDMDL
