MODEL 1
REMARK VINA RESULT:     -11.7      0.000      0.000
REMARK SMILES O=C(NCCCCNC(=O)c1[nH]ncc1C[N@H+]1CCC[C@@H](C(=O)c2ccc(Oc3ccccc3)cc2)C1)c1ccc(-c2c3nc(c(-c4cc(S(=O)(=O)[O-])ccc4F)c4ccc([nH]4)c(-c4cc(S(=O)(=O)[O-])ccc4F)c4nc(c(-c5cc(S(=O)(=O)[O-])ccc5F)c5ccc2[nH]5)C=C4)C=C3)cc1
REMARK SMILES IDX 7 1 6 2 5 3 4 4 3 5 1 6 2 7 38 9 39 10 100 11 40 12 99 13
REMARK SMILES IDX 41 14 42 15 43 16 93 17 44 18 98 19 92 20 94 21 45 22 97 23
REMARK SMILES IDX 91 24 90 25 46 27 78 28 58 29 77 30 59 31 62 32 76 33 95 34
REMARK SMILES IDX 60 35 61 36 75 38 96 39 63 40 47 41 48 42 56 43 49 44 55 45
REMARK SMILES IDX 57 46 54 47 50 48 51 49 52 50 53 51 79 52 80 53 88 54 81 55
REMARK SMILES IDX 87 56 89 57 86 58 82 59 83 60 84 61 85 62 64 63 65 64 73 65
REMARK SMILES IDX 66 66 72 67 74 68 71 69 67 70 68 71 69 72 70 73 8 74 9 75
REMARK SMILES IDX 10 77 11 78 12 79 15 80 13 81 14 83 16 84 17 85 18 86 37 87
REMARK SMILES IDX 19 89 21 90 20 91 22 92 23 93 24 94 25 95 36 96 26 97 35 98
REMARK SMILES IDX 27 99 28 100 29 101 30 102 34 103 31 104 33 105 32 106
REMARK H PARENT 3 8 94 26 62 37 8 76 12 82 17 88
REMARK Flexibility Score: inf
ROOT
ATOM      1  C   UNL A   1      34.398  25.811  26.163  1.00  0.00     0.116 C 
ENDROOT
BRANCH   1   2
ATOM      2  C   UNL A   1      34.744  24.830  25.054  1.00  0.00     0.023 C 
BRANCH   2   3
ATOM      3  C   UNL A   1      35.632  23.672  25.486  1.00  0.00     0.023 C 
BRANCH   3   4
ATOM      4  C   UNL A   1      37.023  23.669  24.872  1.00  0.00     0.116 C 
BRANCH   4   5
ATOM      5  N   UNL A   1      37.892  22.636  25.420  1.00  0.00    -0.352 N 
ATOM      6  O   UNL A   1      39.709  21.808  26.481  1.00  0.00    -0.269 OA
ATOM      7  C   UNL A   1      39.007  22.779  26.215  1.00  0.00     0.251 C 
ATOM      8  H   UNL A   1      37.648  21.710  25.191  1.00  0.00     0.163 HD
BRANCH   7   9
ATOM      9  C   UNL A   1      39.358  24.122  26.719  1.00  0.00     0.039 A 
ATOM     10  C   UNL A   1      40.056  25.011  25.899  1.00  0.00     0.014 A 
ATOM     11  C   UNL A   1      39.041  24.472  28.033  1.00  0.00     0.014 A 
ATOM     12  C   UNL A   1      40.597  26.165  26.447  1.00  0.00     0.010 A 
ATOM     13  C   UNL A   1      39.486  25.695  28.547  1.00  0.00     0.010 A 
ATOM     14  C   UNL A   1      40.298  26.535  27.769  1.00  0.00    -0.014 A 
BRANCH  14  15
ATOM     15  C   UNL A   1      40.788  27.843  28.274  1.00  0.00     0.031 A 
ATOM     16  C   UNL A   1      42.256  28.167  28.326  1.00  0.00     0.074 A 
ATOM     17  C   UNL A   1      39.877  28.757  28.664  1.00  0.00     0.049 A 
ATOM     18  N   UNL A   1      42.843  29.260  28.744  1.00  0.00    -0.248 NA
ATOM     19  C   UNL A   1      43.187  27.131  27.856  1.00  0.00     0.031 C 
ATOM     20  C   UNL A   1      38.425  28.548  28.656  1.00  0.00     0.029 A 
ATOM     21  N   UNL A   1      40.021  30.041  29.121  1.00  0.00    -0.354 N 
ATOM     22  C   UNL A   1      44.210  29.040  28.608  1.00  0.00     0.074 A 
ATOM     23  C   UNL A   1      44.364  27.693  28.096  1.00  0.00     0.031 C 
ATOM     24  C   UNL A   1      37.815  29.678  29.038  1.00  0.00     0.029 A 
ATOM     25  C   UNL A   1      38.827  30.659  29.407  1.00  0.00     0.049 A 
ATOM     26  H   UNL A   1      40.896  30.478  29.234  1.00  0.00     0.167 HD
ATOM     27  C   UNL A   1      45.234  29.887  28.884  1.00  0.00     0.034 A 
ATOM     28  C   UNL A   1      38.567  31.865  29.944  1.00  0.00     0.034 A 
ATOM     29  C   UNL A   1      45.053  31.226  29.396  1.00  0.00     0.049 A 
ATOM     30  C   UNL A   1      39.723  32.761  30.292  1.00  0.00     0.074 A 
ATOM     31  C   UNL A   1      46.018  32.179  29.675  1.00  0.00     0.029 A 
ATOM     32  N   UNL A   1      43.829  31.800  29.723  1.00  0.00    -0.354 N 
ATOM     33  N   UNL A   1      41.009  32.543  30.139  1.00  0.00    -0.248 NA
ATOM     34  C   UNL A   1      39.394  34.063  30.879  1.00  0.00     0.031 C 
ATOM     35  C   UNL A   1      45.389  33.289  30.249  1.00  0.00     0.029 A 
ATOM     36  C   UNL A   1      44.021  33.075  30.239  1.00  0.00     0.049 A 
ATOM     37  H   UNL A   1      42.953  31.366  29.606  1.00  0.00     0.167 HD
ATOM     38  C   UNL A   1      41.642  33.695  30.593  1.00  0.00     0.074 A 
ATOM     39  C   UNL A   1      40.594  34.610  31.000  1.00  0.00     0.031 C 
ATOM     40  C   UNL A   1      42.969  33.973  30.662  1.00  0.00     0.034 A 
BRANCH  27  41
ATOM     41  C   UNL A   1      46.643  29.373  28.691  1.00  0.00     0.023 A 
ATOM     42  C   UNL A   1      47.351  28.726  29.719  1.00  0.00     0.031 A 
ATOM     43  C   UNL A   1      47.291  29.534  27.451  1.00  0.00     0.131 A 
ATOM     44  C   UNL A   1      48.680  28.323  29.510  1.00  0.00     0.055 A 
ATOM     45  C   UNL A   1      48.583  29.058  27.224  1.00  0.00     0.041 A 
ATOM     46  F   UNL A   1      46.676  30.162  26.436  1.00  0.00    -0.206 F 
ATOM     47  C   UNL A   1      49.292  28.460  28.261  1.00  0.00     0.022 A 
BRANCH  44  48
ATOM     48  S   UNL A   1      49.646  27.746  30.933  1.00  0.00     0.124 S 
ATOM     49  O   UNL A   1      50.009  29.007  31.576  1.00  0.00    -0.237 OA
ATOM     50  O   UNL A   1      48.685  26.918  31.651  1.00  0.00    -0.237 OA
ATOM     51  O   UNL A   1      50.759  27.024  30.322  1.00  0.00    -0.744 OA
ENDBRANCH  44  48
ENDBRANCH  27  41
BRANCH  28  52
ATOM     52  C   UNL A   1      37.161  32.268  30.228  1.00  0.00     0.023 A 
ATOM     53  C   UNL A   1      36.370  32.888  29.250  1.00  0.00     0.031 A 
ATOM     54  C   UNL A   1      36.593  32.055  31.498  1.00  0.00     0.131 A 
ATOM     55  C   UNL A   1      35.070  33.312  29.570  1.00  0.00     0.055 A 
ATOM     56  C   UNL A   1      35.279  32.420  31.792  1.00  0.00     0.041 A 
ATOM     57  F   UNL A   1      37.305  31.463  32.471  1.00  0.00    -0.206 F 
ATOM     58  C   UNL A   1      34.514  33.066  30.828  1.00  0.00     0.022 A 
BRANCH  55  59
ATOM     59  S   UNL A   1      34.147  34.274  28.342  1.00  0.00     0.124 S 
ATOM     60  O   UNL A   1      33.060  33.362  28.007  1.00  0.00    -0.237 OA
ATOM     61  O   UNL A   1      33.777  35.463  29.106  1.00  0.00    -0.237 OA
ATOM     62  O   UNL A   1      35.126  34.498  27.281  1.00  0.00    -0.744 OA
ENDBRANCH  55  59
ENDBRANCH  28  52
BRANCH  40  63
ATOM     63  C   UNL A   1      43.354  35.345  31.160  1.00  0.00     0.023 A 
ATOM     64  C   UNL A   1      43.570  36.421  30.280  1.00  0.00     0.031 A 
ATOM     65  C   UNL A   1      43.530  35.572  32.537  1.00  0.00     0.131 A 
ATOM     66  C   UNL A   1      44.011  37.655  30.781  1.00  0.00     0.055 A 
ATOM     67  C   UNL A   1      43.898  36.822  33.035  1.00  0.00     0.041 A 
ATOM     68  F   UNL A   1      43.346  34.581  33.423  1.00  0.00    -0.206 F 
ATOM     69  C   UNL A   1      44.156  37.869  32.154  1.00  0.00     0.022 A 
BRANCH  66  70
ATOM     70  S   UNL A   1      44.500  38.947  29.605  1.00  0.00     0.124 S 
ATOM     71  O   UNL A   1      43.549  38.741  28.518  1.00  0.00    -0.237 OA
ATOM     72  O   UNL A   1      44.322  40.165  30.387  1.00  0.00    -0.237 OA
ATOM     73  O   UNL A   1      45.888  38.612  29.286  1.00  0.00    -0.744 OA
ENDBRANCH  66  70
ENDBRANCH  40  63
ENDBRANCH  14  15
ENDBRANCH   7   9
ENDBRANCH   4   5
ENDBRANCH   3   4
ENDBRANCH   2   3
ENDBRANCH   1   2
BRANCH   1  74
ATOM     74  N   UNL A   1      32.967  25.994  26.350  1.00  0.00    -0.351 N 
ATOM     75  C   UNL A   1      32.296  27.127  26.733  1.00  0.00     0.269 C 
ATOM     76  H   UNL A   1      32.407  25.202  26.180  1.00  0.00     0.163 HD
ATOM     77  O   UNL A   1      31.101  27.056  27.017  1.00  0.00    -0.268 OA
BRANCH  75  78
ATOM     78  C   UNL A   1      33.044  28.342  26.859  1.00  0.00     0.131 A 
ATOM     79  N   UNL A   1      33.649  28.694  28.032  1.00  0.00    -0.272 N 
ATOM     80  C   UNL A   1      33.320  29.368  25.964  1.00  0.00     0.057 A 
ATOM     81  N   UNL A   1      34.484  29.738  27.910  1.00  0.00    -0.183 NA
ATOM     82  H   UNL A   1      33.488  28.228  28.885  1.00  0.00     0.190 HD
ATOM     83  C   UNL A   1      34.289  30.140  26.653  1.00  0.00     0.145 A 
BRANCH  80  84
ATOM     84  C   UNL A   1      32.799  29.538  24.569  1.00  0.00     0.303 C 
BRANCH  84  85
ATOM     85  N   UNL A   1      31.709  28.626  24.198  1.00  0.00    -0.330 N 
ATOM     86  C   UNL A   1      30.613  29.298  23.491  1.00  0.00     0.262 C 
ATOM     87  C   UNL A   1      32.186  27.436  23.499  1.00  0.00     0.274 C 
ATOM     88  H   UNL A   1      31.310  28.299  25.079  1.00  0.00     0.348 HD
ATOM     89  C   UNL A   1      29.445  28.335  23.255  1.00  0.00     0.062 C 
ATOM     90  C   UNL A   1      31.068  26.425  23.247  1.00  0.00     0.116 C 
ATOM     91  C   UNL A   1      29.898  27.080  22.513  1.00  0.00     0.023 C 
BRANCH  90  92
ATOM     92  C   UNL A   1      31.686  25.317  22.413  1.00  0.00     0.171 C 
ATOM     93  O   UNL A   1      32.109  25.490  21.272  1.00  0.00    -0.294 OA
BRANCH  92  94
ATOM     94  C   UNL A   1      31.884  23.998  23.044  1.00  0.00     0.018 A 
ATOM     95  C   UNL A   1      31.210  23.716  24.236  1.00  0.00     0.015 A 
ATOM     96  C   UNL A   1      32.747  23.062  22.478  1.00  0.00     0.015 A 
ATOM     97  C   UNL A   1      31.420  22.493  24.874  1.00  0.00     0.048 A 
ATOM     98  C   UNL A   1      32.946  21.837  23.115  1.00  0.00     0.048 A 
ATOM     99  C   UNL A   1      32.309  21.561  24.331  1.00  0.00     0.127 A 
BRANCH  99 100
ATOM    100  O   UNL A   1      32.461  20.404  25.064  1.00  0.00    -0.457 OA
BRANCH 100 101
ATOM    101  C   UNL A   1      32.978  19.296  24.441  1.00  0.00     0.127 A 
ATOM    102  C   UNL A   1      34.259  18.893  24.815  1.00  0.00     0.047 A 
ATOM    103  C   UNL A   1      32.287  18.616  23.436  1.00  0.00     0.047 A 
ATOM    104  C   UNL A   1      34.829  17.766  24.225  1.00  0.00     0.004 A 
ATOM    105  C   UNL A   1      32.852  17.479  22.858  1.00  0.00     0.004 A 
ATOM    106  C   UNL A   1      34.120  17.053  23.256  1.00  0.00     0.000 A 
ENDBRANCH 100 101
ENDBRANCH  99 100
ENDBRANCH  92  94
ENDBRANCH  90  92
ENDBRANCH  84  85
ENDBRANCH  80  84
ENDBRANCH  75  78
ENDBRANCH   1  74
TORSDOF 20
ENDMDL
MODEL 2
REMARK VINA RESULT:     -11.5      2.643      3.228
REMARK SMILES O=C(NCCCCNC(=O)c1[nH]ncc1C[N@H+]1CCC[C@@H](C(=O)c2ccc(Oc3ccccc3)cc2)C1)c1ccc(-c2c3nc(c(-c4cc(S(=O)(=O)[O-])ccc4F)c4ccc([nH]4)c(-c4cc(S(=O)(=O)[O-])ccc4F)c4nc(c(-c5cc(S(=O)(=O)[O-])ccc5F)c5ccc2[nH]5)C=C4)C=C3)cc1
REMARK SMILES IDX 7 1 6 2 5 3 4 4 3 5 1 6 2 7 38 9 39 10 100 11 40 12 99 13
REMARK SMILES IDX 41 14 42 15 43 16 93 17 44 18 98 19 92 20 94 21 45 22 97 23
REMARK SMILES IDX 91 24 90 25 46 27 78 28 58 29 77 30 59 31 62 32 76 33 95 34
REMARK SMILES IDX 60 35 61 36 75 38 96 39 63 40 47 41 48 42 56 43 49 44 55 45
REMARK SMILES IDX 57 46 54 47 50 48 51 49 52 50 53 51 79 52 80 53 88 54 81 55
REMARK SMILES IDX 87 56 89 57 86 58 82 59 83 60 84 61 85 62 64 63 65 64 73 65
REMARK SMILES IDX 66 66 72 67 74 68 71 69 67 70 68 71 69 72 70 73 8 74 9 75
REMARK SMILES IDX 10 77 11 78 12 79 15 80 13 81 14 83 16 84 17 85 18 86 37 87
REMARK SMILES IDX 19 89 21 90 20 91 22 92 23 93 24 94 25 95 36 96 26 97 35 98
REMARK SMILES IDX 27 99 28 100 29 101 30 102 34 103 31 104 33 105 32 106
REMARK H PARENT 3 8 94 26 62 37 8 76 12 82 17 88
REMARK Flexibility Score: inf
ROOT
ATOM      1  C   UNL A   1      34.375  25.611  26.135  1.00  0.00     0.116 C 
ENDROOT
BRANCH   1   2
ATOM      2  C   UNL A   1      34.604  24.683  24.953  1.00  0.00     0.023 C 
BRANCH   2   3
ATOM      3  C   UNL A   1      35.227  23.341  25.311  1.00  0.00     0.023 C 
BRANCH   3   4
ATOM      4  C   UNL A   1      36.457  22.970  24.497  1.00  0.00     0.116 C 
BRANCH   4   5
ATOM      5  N   UNL A   1      37.068  21.717  24.919  1.00  0.00    -0.352 N 
ATOM      6  O   UNL A   1      38.683  20.389  25.780  1.00  0.00    -0.269 OA
ATOM      7  C   UNL A   1      38.236  21.520  25.622  1.00  0.00     0.251 C 
ATOM      8  H   UNL A   1      36.581  20.900  24.666  1.00  0.00     0.163 HD
BRANCH   7   9
ATOM      9  C   UNL A   1      38.953  22.694  26.159  1.00  0.00     0.039 A 
ATOM     10  C   UNL A   1      38.409  23.970  26.005  1.00  0.00     0.014 A 
ATOM     11  C   UNL A   1      40.200  22.525  26.765  1.00  0.00     0.014 A 
ATOM     12  C   UNL A   1      39.188  25.084  26.285  1.00  0.00     0.010 A 
ATOM     13  C   UNL A   1      40.933  23.650  27.157  1.00  0.00     0.010 A 
ATOM     14  C   UNL A   1      40.448  24.940  26.888  1.00  0.00    -0.014 A 
BRANCH  14  15
ATOM     15  C   UNL A   1      41.193  26.160  27.292  1.00  0.00     0.031 A 
ATOM     16  C   UNL A   1      42.580  26.440  26.781  1.00  0.00     0.074 A 
ATOM     17  C   UNL A   1      40.581  27.037  28.112  1.00  0.00     0.049 A 
ATOM     18  N   UNL A   1      43.362  27.457  27.043  1.00  0.00    -0.248 NA
ATOM     19  C   UNL A   1      43.169  25.452  25.867  1.00  0.00     0.031 C 
ATOM     20  C   UNL A   1      39.234  26.864  28.669  1.00  0.00     0.029 A 
ATOM     21  N   UNL A   1      40.988  28.248  28.609  1.00  0.00    -0.354 N 
ATOM     22  C   UNL A   1      44.543  27.224  26.345  1.00  0.00     0.074 A 
ATOM     23  C   UNL A   1      44.381  25.952  25.671  1.00  0.00     0.031 C 
ATOM     24  C   UNL A   1      38.911  27.950  29.384  1.00  0.00     0.029 A 
ATOM     25  C   UNL A   1      40.055  28.851  29.418  1.00  0.00     0.049 A 
ATOM     26  H   UNL A   1      41.865  28.647  28.406  1.00  0.00     0.167 HD
ATOM     27  C   UNL A   1      45.651  28.005  26.274  1.00  0.00     0.034 A 
ATOM     28  C   UNL A   1      40.118  29.984  30.142  1.00  0.00     0.034 A 
ATOM     29  C   UNL A   1      45.786  29.271  26.958  1.00  0.00     0.049 A 
ATOM     30  C   UNL A   1      41.379  30.800  30.089  1.00  0.00     0.074 A 
ATOM     31  C   UNL A   1      46.850  30.158  26.925  1.00  0.00     0.029 A 
ATOM     32  N   UNL A   1      44.838  29.826  27.812  1.00  0.00    -0.354 N 
ATOM     33  N   UNL A   1      42.479  30.574  29.407  1.00  0.00    -0.248 NA
ATOM     34  C   UNL A   1      41.406  32.024  30.896  1.00  0.00     0.031 C 
ATOM     35  C   UNL A   1      46.584  31.198  27.821  1.00  0.00     0.029 A 
ATOM     36  C   UNL A   1      45.312  31.019  28.341  1.00  0.00     0.049 A 
ATOM     37  H   UNL A   1      43.959  29.431  28.011  1.00  0.00     0.167 HD
ATOM     38  C   UNL A   1      43.322  31.644  29.690  1.00  0.00     0.074 A 
ATOM     39  C   UNL A   1      42.592  32.522  30.582  1.00  0.00     0.031 C 
ATOM     40  C   UNL A   1      44.584  31.879  29.247  1.00  0.00     0.034 A 
BRANCH  27  41
ATOM     41  C   UNL A   1      46.826  27.488  25.475  1.00  0.00     0.023 A 
ATOM     42  C   UNL A   1      47.089  27.927  24.166  1.00  0.00     0.031 A 
ATOM     43  C   UNL A   1      47.701  26.538  26.036  1.00  0.00     0.131 A 
ATOM     44  C   UNL A   1      48.156  27.370  23.440  1.00  0.00     0.055 A 
ATOM     45  C   UNL A   1      48.807  26.050  25.339  1.00  0.00     0.041 A 
ATOM     46  F   UNL A   1      47.491  26.064  27.274  1.00  0.00    -0.206 F 
ATOM     47  C   UNL A   1      49.033  26.455  24.027  1.00  0.00     0.022 A 
BRANCH  44  48
ATOM     48  S   UNL A   1      48.297  27.755  21.673  1.00  0.00     0.124 S 
ATOM     49  O   UNL A   1      46.972  28.295  21.380  1.00  0.00    -0.237 OA
ATOM     50  O   UNL A   1      49.397  28.712  21.644  1.00  0.00    -0.237 OA
ATOM     51  O   UNL A   1      48.581  26.458  21.061  1.00  0.00    -0.744 OA
ENDBRANCH  44  48
ENDBRANCH  27  41
BRANCH  28  52
ATOM     52  C   UNL A   1      38.974  30.379  31.011  1.00  0.00     0.023 A 
ATOM     53  C   UNL A   1      37.945  31.202  30.530  1.00  0.00     0.031 A 
ATOM     54  C   UNL A   1      38.905  29.952  32.350  1.00  0.00     0.131 A 
ATOM     55  C   UNL A   1      36.915  31.607  31.393  1.00  0.00     0.055 A 
ATOM     56  C   UNL A   1      37.846  30.305  33.186  1.00  0.00     0.041 A 
ATOM     57  F   UNL A   1      39.863  29.160  32.861  1.00  0.00    -0.206 F 
ATOM     58  C   UNL A   1      36.849  31.150  32.712  1.00  0.00     0.022 A 
BRANCH  55  59
ATOM     59  S   UNL A   1      35.708  32.819  30.792  1.00  0.00     0.124 S 
ATOM     60  O   UNL A   1      36.251  34.065  31.319  1.00  0.00    -0.237 OA
ATOM     61  O   UNL A   1      35.795  32.640  29.346  1.00  0.00    -0.237 OA
ATOM     62  O   UNL A   1      34.454  32.378  31.399  1.00  0.00    -0.744 OA
ENDBRANCH  55  59
ENDBRANCH  28  52
BRANCH  40  63
ATOM     63  C   UNL A   1      45.235  33.167  29.694  1.00  0.00     0.023 A 
ATOM     64  C   UNL A   1      45.112  34.356  28.953  1.00  0.00     0.031 A 
ATOM     65  C   UNL A   1      46.007  33.197  30.868  1.00  0.00     0.131 A 
ATOM     66  C   UNL A   1      45.806  35.506  29.359  1.00  0.00     0.055 A 
ATOM     67  C   UNL A   1      46.635  34.363  31.306  1.00  0.00     0.041 A 
ATOM     68  F   UNL A   1      46.166  32.090  31.611  1.00  0.00    -0.206 F 
ATOM     69  C   UNL A   1      46.549  35.523  30.542  1.00  0.00     0.022 A 
BRANCH  66  70
ATOM     70  S   UNL A   1      45.814  36.950  28.262  1.00  0.00     0.124 S 
ATOM     71  O   UNL A   1      46.263  38.009  29.160  1.00  0.00    -0.237 OA
ATOM     72  O   UNL A   1      46.758  36.550  27.225  1.00  0.00    -0.237 OA
ATOM     73  O   UNL A   1      44.422  37.057  27.825  1.00  0.00    -0.744 OA
ENDBRANCH  66  70
ENDBRANCH  40  63
ENDBRANCH  14  15
ENDBRANCH   7   9
ENDBRANCH   4   5
ENDBRANCH   3   4
ENDBRANCH   2   3
ENDBRANCH   1   2
BRANCH   1  74
ATOM     74  N   UNL A   1      32.971  25.901  26.381  1.00  0.00    -0.351 N 
ATOM     75  C   UNL A   1      32.405  27.078  26.800  1.00  0.00     0.269 C 
ATOM     76  H   UNL A   1      32.345  25.157  26.228  1.00  0.00     0.163 HD
ATOM     77  O   UNL A   1      31.220  27.096  27.131  1.00  0.00    -0.268 OA
BRANCH  75  78
ATOM     78  C   UNL A   1      33.248  28.231  26.905  1.00  0.00     0.131 A 
ATOM     79  N   UNL A   1      33.859  28.570  28.079  1.00  0.00    -0.272 N 
ATOM     80  C   UNL A   1      33.626  29.201  25.984  1.00  0.00     0.057 A 
ATOM     81  N   UNL A   1      34.780  29.536  27.943  1.00  0.00    -0.183 NA
ATOM     82  H   UNL A   1      33.644  28.147  28.942  1.00  0.00     0.190 HD
ATOM     83  C   UNL A   1      34.643  29.913  26.670  1.00  0.00     0.145 A 
BRANCH  80  84
ATOM     84  C   UNL A   1      33.147  29.368  24.573  1.00  0.00     0.303 C 
BRANCH  84  85
ATOM     85  N   UNL A   1      31.972  28.562  24.218  1.00  0.00    -0.330 N 
ATOM     86  C   UNL A   1      30.936  29.332  23.521  1.00  0.00     0.262 C 
ATOM     87  C   UNL A   1      32.328  27.331  23.516  1.00  0.00     0.274 C 
ATOM     88  H   UNL A   1      31.555  28.275  25.103  1.00  0.00     0.348 HD
ATOM     89  C   UNL A   1      29.681  28.483  23.301  1.00  0.00     0.062 C 
ATOM     90  C   UNL A   1      31.118  26.429  23.279  1.00  0.00     0.116 C 
ATOM     91  C   UNL A   1      30.006  27.190  22.556  1.00  0.00     0.023 C 
BRANCH  90  92
ATOM     92  C   UNL A   1      31.620  25.267  22.441  1.00  0.00     0.171 C 
ATOM     93  O   UNL A   1      32.036  25.397  21.291  1.00  0.00    -0.294 OA
BRANCH  92  94
ATOM     94  C   UNL A   1      31.711  23.938  23.075  1.00  0.00     0.018 A 
ATOM     95  C   UNL A   1      31.122  23.752  24.330  1.00  0.00     0.015 A 
ATOM     96  C   UNL A   1      32.394  22.897  22.450  1.00  0.00     0.015 A 
ATOM     97  C   UNL A   1      31.238  22.517  24.968  1.00  0.00     0.048 A 
ATOM     98  C   UNL A   1      32.498  21.662  23.088  1.00  0.00     0.048 A 
ATOM     99  C   UNL A   1      31.949  21.476  24.364  1.00  0.00     0.127 A 
BRANCH  99 100
ATOM    100  O   UNL A   1      32.025  20.315  25.101  1.00  0.00    -0.457 OA
BRANCH 100 101
ATOM    101  C   UNL A   1      32.821  19.296  24.642  1.00  0.00     0.127 A 
ATOM    102  C   UNL A   1      34.184  19.374  24.925  1.00  0.00     0.047 A 
ATOM    103  C   UNL A   1      32.315  18.243  23.875  1.00  0.00     0.047 A 
ATOM    104  C   UNL A   1      35.037  18.360  24.494  1.00  0.00     0.004 A 
ATOM    105  C   UNL A   1      33.169  17.222  23.459  1.00  0.00     0.004 A 
ATOM    106  C   UNL A   1      34.528  17.279  23.772  1.00  0.00     0.000 A 
ENDBRANCH 100 101
ENDBRANCH  99 100
ENDBRANCH  92  94
ENDBRANCH  90  92
ENDBRANCH  84  85
ENDBRANCH  80  84
ENDBRANCH  75  78
ENDBRANCH   1  74
TORSDOF 20
ENDMDL
MODEL 3
REMARK VINA RESULT:     -11.0      7.073     15.447
REMARK SMILES O=C(NCCCCNC(=O)c1[nH]ncc1C[N@H+]1CCC[C@@H](C(=O)c2ccc(Oc3ccccc3)cc2)C1)c1ccc(-c2c3nc(c(-c4cc(S(=O)(=O)[O-])ccc4F)c4ccc([nH]4)c(-c4cc(S(=O)(=O)[O-])ccc4F)c4nc(c(-c5cc(S(=O)(=O)[O-])ccc5F)c5ccc2[nH]5)C=C4)C=C3)cc1
REMARK SMILES IDX 7 1 6 2 5 3 4 4 3 5 1 6 2 7 38 9 39 10 100 11 40 12 99 13
REMARK SMILES IDX 41 14 42 15 43 16 93 17 44 18 98 19 92 20 94 21 45 22 97 23
REMARK SMILES IDX 91 24 90 25 46 27 78 28 58 29 77 30 59 31 62 32 76 33 95 34
REMARK SMILES IDX 60 35 61 36 75 38 96 39 63 40 47 41 48 42 56 43 49 44 55 45
REMARK SMILES IDX 57 46 54 47 50 48 51 49 52 50 53 51 79 52 80 53 88 54 81 55
REMARK SMILES IDX 87 56 89 57 86 58 82 59 83 60 84 61 85 62 64 63 65 64 73 65
REMARK SMILES IDX 66 66 72 67 74 68 71 69 67 70 68 71 69 72 70 73 8 74 9 75
REMARK SMILES IDX 10 77 11 78 12 79 15 80 13 81 14 83 16 84 17 85 18 86 37 87
REMARK SMILES IDX 19 89 21 90 20 91 22 92 23 93 24 94 25 95 36 96 26 97 35 98
REMARK SMILES IDX 27 99 28 100 29 101 30 102 34 103 31 104 33 105 32 106
REMARK H PARENT 3 8 94 26 62 37 8 76 12 82 17 88
REMARK Flexibility Score: inf
ROOT
ATOM      1  C   UNL A   1      43.606  39.739  27.043  1.00  0.00     0.116 C 
ENDROOT
BRANCH   1   2
ATOM      2  C   UNL A   1      42.976  38.990  28.206  1.00  0.00     0.023 C 
BRANCH   2   3
ATOM      3  C   UNL A   1      43.579  39.309  29.567  1.00  0.00     0.023 C 
BRANCH   3   4
ATOM      4  C   UNL A   1      44.190  38.118  30.291  1.00  0.00     0.116 C 
BRANCH   4   5
ATOM      5  N   UNL A   1      45.631  38.012  30.107  1.00  0.00    -0.352 N 
ATOM      6  O   UNL A   1      47.611  36.952  29.845  1.00  0.00    -0.269 OA
ATOM      7  C   UNL A   1      46.386  36.892  29.835  1.00  0.00     0.251 C 
ATOM      8  H   UNL A   1      46.134  38.855  30.190  1.00  0.00     0.163 HD
BRANCH   7   9
ATOM      9  C   UNL A   1      45.697  35.616  29.558  1.00  0.00     0.039 A 
ATOM     10  C   UNL A   1      45.745  34.583  30.496  1.00  0.00     0.014 A 
ATOM     11  C   UNL A   1      45.051  35.430  28.335  1.00  0.00     0.014 A 
ATOM     12  C   UNL A   1      45.315  33.314  30.138  1.00  0.00     0.010 A 
ATOM     13  C   UNL A   1      44.510  34.178  28.024  1.00  0.00     0.010 A 
ATOM     14  C   UNL A   1      44.669  33.100  28.909  1.00  0.00    -0.014 A 
BRANCH  14  15
ATOM     15  C   UNL A   1      44.106  31.756  28.620  1.00  0.00     0.031 A 
ATOM     16  C   UNL A   1      44.876  30.734  27.828  1.00  0.00     0.074 A 
ATOM     17  C   UNL A   1      42.888  31.456  29.113  1.00  0.00     0.049 A 
ATOM     18  N   UNL A   1      44.521  29.521  27.489  1.00  0.00    -0.248 NA
ATOM     19  C   UNL A   1      46.209  31.124  27.350  1.00  0.00     0.031 C 
ATOM     20  C   UNL A   1      42.052  32.374  29.895  1.00  0.00     0.029 A 
ATOM     21  N   UNL A   1      42.145  30.306  29.053  1.00  0.00    -0.354 N 
ATOM     22  C   UNL A   1      45.575  29.007  26.740  1.00  0.00     0.074 A 
ATOM     23  C   UNL A   1      46.571  30.056  26.652  1.00  0.00     0.031 C 
ATOM     24  C   UNL A   1      40.940  31.735  30.283  1.00  0.00     0.029 A 
ATOM     25  C   UNL A   1      40.937  30.399  29.702  1.00  0.00     0.049 A 
ATOM     26  H   UNL A   1      42.448  29.492  28.590  1.00  0.00     0.167 HD
ATOM     27  C   UNL A   1      45.696  27.774  26.184  1.00  0.00     0.034 A 
ATOM     28  C   UNL A   1      39.917  29.526  29.792  1.00  0.00     0.034 A 
ATOM     29  C   UNL A   1      44.687  26.745  26.287  1.00  0.00     0.049 A 
ATOM     30  C   UNL A   1      40.055  28.188  29.121  1.00  0.00     0.074 A 
ATOM     31  C   UNL A   1      44.724  25.451  25.794  1.00  0.00     0.029 A 
ATOM     32  N   UNL A   1      43.451  26.893  26.909  1.00  0.00    -0.354 N 
ATOM     33  N   UNL A   1      41.068  27.713  28.433  1.00  0.00    -0.248 NA
ATOM     34  C   UNL A   1      38.919  27.270  29.240  1.00  0.00     0.031 C 
ATOM     35  C   UNL A   1      43.484  24.850  26.041  1.00  0.00     0.029 A 
ATOM     36  C   UNL A   1      42.706  25.730  26.775  1.00  0.00     0.049 A 
ATOM     37  H   UNL A   1      43.150  27.705  27.378  1.00  0.00     0.167 HD
ATOM     38  C   UNL A   1      40.695  26.427  28.056  1.00  0.00     0.074 A 
ATOM     39  C   UNL A   1      39.378  26.197  28.614  1.00  0.00     0.031 C 
ATOM     40  C   UNL A   1      41.383  25.517  27.319  1.00  0.00     0.034 A 
BRANCH  27  41
ATOM     41  C   UNL A   1      46.938  27.488  25.371  1.00  0.00     0.023 A 
ATOM     42  C   UNL A   1      47.081  27.930  24.045  1.00  0.00     0.031 A 
ATOM     43  C   UNL A   1      48.002  26.758  25.937  1.00  0.00     0.131 A 
ATOM     44  C   UNL A   1      48.228  27.584  23.309  1.00  0.00     0.055 A 
ATOM     45  C   UNL A   1      49.173  26.488  25.227  1.00  0.00     0.041 A 
ATOM     46  F   UNL A   1      47.917  26.290  27.192  1.00  0.00    -0.206 F 
ATOM     47  C   UNL A   1      49.286  26.890  23.900  1.00  0.00     0.022 A 
BRANCH  44  48
ATOM     48  S   UNL A   1      48.254  27.933  21.529  1.00  0.00     0.124 S 
ATOM     49  O   UNL A   1      46.876  28.355  21.289  1.00  0.00    -0.237 OA
ATOM     50  O   UNL A   1      49.268  28.976  21.427  1.00  0.00    -0.237 OA
ATOM     51  O   UNL A   1      48.617  26.649  20.933  1.00  0.00    -0.744 OA
ENDBRANCH  44  48
ENDBRANCH  27  41
BRANCH  28  52
ATOM     52  C   UNL A   1      38.665  29.911  30.503  1.00  0.00     0.023 A 
ATOM     53  C   UNL A   1      37.679  30.683  29.872  1.00  0.00     0.031 A 
ATOM     54  C   UNL A   1      38.448  29.527  31.839  1.00  0.00     0.131 A 
ATOM     55  C   UNL A   1      36.540  31.083  30.591  1.00  0.00     0.055 A 
ATOM     56  C   UNL A   1      37.286  29.872  32.529  1.00  0.00     0.041 A 
ATOM     57  F   UNL A   1      39.359  28.785  32.490  1.00  0.00    -0.206 F 
ATOM     58  C   UNL A   1      36.329  30.667  31.908  1.00  0.00     0.022 A 
BRANCH  55  59
ATOM     59  S   UNL A   1      35.380  32.233  29.806  1.00  0.00     0.124 S 
ATOM     60  O   UNL A   1      34.533  32.614  30.930  1.00  0.00    -0.237 OA
ATOM     61  O   UNL A   1      36.277  33.267  29.297  1.00  0.00    -0.237 OA
ATOM     62  O   UNL A   1      34.732  31.414  28.783  1.00  0.00    -0.744 OA
ENDBRANCH  55  59
ENDBRANCH  28  52
BRANCH  40  63
ATOM     63  C   UNL A   1      40.730  24.171  27.114  1.00  0.00     0.023 A 
ATOM     64  C   UNL A   1      39.555  24.023  26.356  1.00  0.00     0.031 A 
ATOM     65  C   UNL A   1      41.283  23.022  27.706  1.00  0.00     0.131 A 
ATOM     66  C   UNL A   1      38.935  22.768  26.266  1.00  0.00     0.055 A 
ATOM     67  C   UNL A   1      40.702  21.763  27.552  1.00  0.00     0.041 A 
ATOM     68  F   UNL A   1      42.399  23.103  28.448  1.00  0.00    -0.206 F 
ATOM     69  C   UNL A   1      39.512  21.633  26.841  1.00  0.00     0.022 A 
BRANCH  66  70
ATOM     70  S   UNL A   1      37.305  22.657  25.479  1.00  0.00     0.124 S 
ATOM     71  O   UNL A   1      37.103  21.213  25.405  1.00  0.00    -0.237 OA
ATOM     72  O   UNL A   1      36.453  23.373  26.421  1.00  0.00    -0.237 OA
ATOM     73  O   UNL A   1      37.500  23.321  24.191  1.00  0.00    -0.744 OA
ENDBRANCH  66  70
ENDBRANCH  40  63
ENDBRANCH  14  15
ENDBRANCH   7   9
ENDBRANCH   4   5
ENDBRANCH   3   4
ENDBRANCH   2   3
ENDBRANCH   1   2
BRANCH   1  74
ATOM     74  N   UNL A   1      43.607  41.183  27.216  1.00  0.00    -0.351 N 
ATOM     75  C   UNL A   1      44.672  42.011  27.463  1.00  0.00     0.269 C 
ATOM     76  H   UNL A   1      42.729  41.624  27.148  1.00  0.00     0.163 HD
ATOM     77  O   UNL A   1      44.468  43.187  27.761  1.00  0.00    -0.268 OA
BRANCH  75  78
ATOM     78  C   UNL A   1      45.986  41.444  27.435  1.00  0.00     0.131 A 
ATOM     79  N   UNL A   1      46.531  40.838  28.531  1.00  0.00    -0.272 N 
ATOM     80  C   UNL A   1      46.951  41.365  26.438  1.00  0.00     0.057 A 
ATOM     81  N   UNL A   1      47.665  40.171  28.266  1.00  0.00    -0.183 NA
ATOM     82  H   UNL A   1      46.131  40.886  29.430  1.00  0.00     0.190 HD
ATOM     83  C   UNL A   1      47.914  40.486  26.994  1.00  0.00     0.145 A 
BRANCH  80  84
ATOM     84  C   UNL A   1      46.912  41.975  25.069  1.00  0.00     0.303 C 
BRANCH  84  85
ATOM     85  N   UNL A   1      45.791  42.894  24.831  1.00  0.00    -0.330 N 
ATOM     86  C   UNL A   1      46.224  44.250  24.476  1.00  0.00     0.262 C 
ATOM     87  C   UNL A   1      44.810  42.352  23.894  1.00  0.00     0.274 C 
ATOM     88  H   UNL A   1      45.311  42.983  25.726  1.00  0.00     0.348 HD
ATOM     89  C   UNL A   1      45.026  45.198  24.378  1.00  0.00     0.062 C 
ATOM     90  C   UNL A   1      43.578  43.246  23.763  1.00  0.00     0.116 C 
ATOM     91  C   UNL A   1      43.980  44.674  23.396  1.00  0.00     0.023 C 
BRANCH  90  92
ATOM     92  C   UNL A   1      42.721  42.621  22.677  1.00  0.00     0.171 C 
ATOM     93  O   UNL A   1      41.829  41.808  22.908  1.00  0.00    -0.294 OA
BRANCH  92  94
ATOM     94  C   UNL A   1      42.900  43.095  21.290  1.00  0.00     0.018 A 
ATOM     95  C   UNL A   1      44.196  43.187  20.774  1.00  0.00     0.015 A 
ATOM     96  C   UNL A   1      41.801  43.470  20.520  1.00  0.00     0.015 A 
ATOM     97  C   UNL A   1      44.390  43.678  19.483  1.00  0.00     0.048 A 
ATOM     98  C   UNL A   1      42.000  43.950  19.226  1.00  0.00     0.048 A 
ATOM     99  C   UNL A   1      43.297  44.087  18.714  1.00  0.00     0.127 A 
BRANCH  99 100
ATOM    100  O   UNL A   1      43.612  44.584  17.468  1.00  0.00    -0.457 OA
BRANCH 100 101
ATOM    101  C   UNL A   1      43.338  45.901  17.199  1.00  0.00     0.127 A 
ATOM    102  C   UNL A   1      44.308  46.840  17.550  1.00  0.00     0.047 A 
ATOM    103  C   UNL A   1      42.123  46.311  16.645  1.00  0.00     0.047 A 
ATOM    104  C   UNL A   1      44.088  48.191  17.287  1.00  0.00     0.004 A 
ATOM    105  C   UNL A   1      41.913  47.662  16.368  1.00  0.00     0.004 A 
ATOM    106  C   UNL A   1      42.897  48.599  16.685  1.00  0.00     0.000 A 
ENDBRANCH 100 101
ENDBRANCH  99 100
ENDBRANCH  92  94
ENDBRANCH  90  92
ENDBRANCH  84  85
ENDBRANCH  80  84
ENDBRANCH  75  78
ENDBRANCH   1  74
TORSDOF 20
ENDMDL
