MODEL 1
REMARK VINA RESULT:     -12.3      0.000      0.000
REMARK SMILES Cc1c(CC(=O)N[C@@H](CCO)C(=O)NCCCCNC(=O)c2ccc(-c3c4nc(c(-c5cc(S(=O)(=O)[O-])ccc5F)c5ccc([nH]5)c(-c5cc(S(=O)(=O)[O-])ccc5F)c5nc(c(-c6cc(S(=O)(=O)[O-])ccc6F)c6ccc3[nH]6)C=C5)C=C4)cc2)cc(-c2ccc(S(C)(=O)=O)cc2)n1-c1ccc(F)cc1
REMARK SMILES IDX 15 1 14 2 12 3 13 4 8 6 7 7 5 8 6 9 4 11 3 12 1 13 2 14
REMARK SMILES IDX 97 15 85 16 86 17 98 18 99 19 104 20 100 21 103 22 101 23
REMARK SMILES IDX 102 24 87 25 88 26 96 27 89 28 95 29 90 30 91 31 92 32 93 33
REMARK SMILES IDX 94 34 9 35 10 36 11 37 16 39 17 40 18 41 19 42 20 43 21 45
REMARK SMILES IDX 22 46 23 47 84 48 24 49 83 50 25 51 26 52 27 53 77 54 28 55
REMARK SMILES IDX 82 56 76 57 78 58 29 59 81 60 75 61 74 62 30 64 62 65 42 66
REMARK SMILES IDX 61 67 43 68 46 69 60 70 79 71 44 72 45 73 59 75 80 76 47 77
REMARK SMILES IDX 31 78 32 79 40 80 33 81 39 82 41 83 38 84 34 85 35 86 36 87
REMARK SMILES IDX 37 88 63 89 64 90 72 91 65 92 71 93 73 94 70 95 66 96 67 97
REMARK SMILES IDX 68 98 69 99 48 100 49 101 57 102 50 103 56 104 58 105 55 106
REMARK SMILES IDX 51 107 52 108 53 109 54 110
REMARK H PARENT 14 5 7 10 11 38 19 44 78 63 46 74
REMARK Flexibility Score: inf
ROOT
ATOM      1  C   UNL A   1      36.759  20.750  25.123  1.00  0.00     0.116 C 
ENDROOT
BRANCH   1   2
ATOM      2  N   UNL A   1      35.710  21.166  26.040  1.00  0.00    -0.354 N 
ATOM      3  C   UNL A   1      34.367  20.984  26.056  1.00  0.00     0.242 C 
ATOM      4  O   UNL A   1      33.801  21.177  27.136  1.00  0.00    -0.273 OA
ATOM      5  H   UNL A   1      36.044  21.686  26.807  1.00  0.00     0.163 HD
BRANCH   3   6
ATOM      6  C   UNL A   1      33.561  20.477  24.854  1.00  0.00     0.173 C 
BRANCH   6   7
ATOM      7  N   UNL A   1      33.764  21.309  23.666  1.00  0.00    -0.344 N 
ATOM      8  C   UNL A   1      32.979  22.338  23.219  1.00  0.00     0.225 C 
ATOM      9  O   UNL A   1      33.429  23.061  22.325  1.00  0.00    -0.275 OA
ATOM     10  H   UNL A   1      34.559  21.104  23.124  1.00  0.00     0.164 HD
BRANCH   8  11
ATOM     11  C   UNL A   1      31.595  22.580  23.811  1.00  0.00     0.137 C 
BRANCH  11  12
ATOM     12  C   UNL A   1      31.363  24.025  24.147  1.00  0.00    -0.017 A 
ATOM     13  C   UNL A   1      32.962  24.290  26.158  1.00  0.00     0.065 C 
ATOM     14  C   UNL A   1      32.006  24.781  25.118  1.00  0.00     0.024 A 
ATOM     15  N   UNL A   1      31.575  26.098  25.002  1.00  0.00    -0.314 N 
ATOM     16  C   UNL A   1      30.439  24.885  23.502  1.00  0.00     0.033 A 
ATOM     17  C   UNL A   1      30.602  26.165  24.002  1.00  0.00     0.053 A 
BRANCH  15  18
ATOM     18  C   UNL A   1      32.054  27.206  25.751  1.00  0.00     0.046 A 
ATOM     19  C   UNL A   1      31.274  27.720  26.797  1.00  0.00     0.029 A 
ATOM     20  C   UNL A   1      33.261  27.821  25.392  1.00  0.00     0.029 A 
ATOM     21  C   UNL A   1      31.704  28.854  27.482  1.00  0.00     0.041 A 
ATOM     22  C   UNL A   1      33.676  28.963  26.075  1.00  0.00     0.041 A 
ATOM     23  C   UNL A   1      32.895  29.469  27.111  1.00  0.00     0.123 A 
ATOM     24  F   UNL A   1      33.294  30.570  27.761  1.00  0.00    -0.207 F 
ENDBRANCH  15  18
BRANCH  17  25
ATOM     25  C   UNL A   1      29.969  27.393  23.507  1.00  0.00    -0.001 A 
ATOM     26  C   UNL A   1      30.730  28.434  22.951  1.00  0.00     0.011 A 
ATOM     27  C   UNL A   1      28.578  27.531  23.581  1.00  0.00     0.011 A 
ATOM     28  C   UNL A   1      30.118  29.616  22.527  1.00  0.00     0.021 A 
ATOM     29  C   UNL A   1      27.958  28.709  23.160  1.00  0.00     0.021 A 
ATOM     30  C   UNL A   1      28.734  29.754  22.654  1.00  0.00     0.067 A 
BRANCH  30  31
ATOM     31  S   UNL A   1      27.951  31.266  22.146  1.00  0.00     0.175 S 
ATOM     32  C   UNL A   1      29.229  32.487  22.301  1.00  0.00     0.163 C 
ATOM     33  O   UNL A   1      27.629  31.126  20.735  1.00  0.00    -0.224 OA
ATOM     34  O   UNL A   1      26.933  31.587  23.121  1.00  0.00    -0.224 OA
ENDBRANCH  30  31
ENDBRANCH  17  25
ENDBRANCH  11  12
ENDBRANCH   8  11
ENDBRANCH   6   7
BRANCH   6  35
ATOM     35  C   UNL A   1      33.590  18.962  24.590  1.00  0.00     0.063 C 
BRANCH  35  36
ATOM     36  C   UNL A   1      32.508  18.085  25.196  1.00  0.00     0.158 C 
BRANCH  36  37
ATOM     37  O   UNL A   1      32.556  18.043  26.611  1.00  0.00    -0.396 OA
ATOM     38  H   UNL A   1      33.180  18.713  26.933  1.00  0.00     0.210 HD
ENDBRANCH  36  37
ENDBRANCH  35  36
ENDBRANCH   6  35
ENDBRANCH   3   6
ENDBRANCH   1   2
BRANCH   1  39
ATOM     39  C   UNL A   1      38.068  21.503  25.324  1.00  0.00     0.023 C 
BRANCH  39  40
ATOM     40  C   UNL A   1      39.260  20.697  25.870  1.00  0.00     0.023 C 
BRANCH  40  41
ATOM     41  C   UNL A   1      40.529  21.444  26.310  1.00  0.00     0.116 C 
BRANCH  41  42
ATOM     42  N   UNL A   1      41.614  21.446  25.363  1.00  0.00    -0.352 N 
ATOM     43  C   UNL A   1      42.836  22.086  25.522  1.00  0.00     0.251 C 
ATOM     44  H   UNL A   1      41.475  20.947  24.525  1.00  0.00     0.163 HD
ATOM     45  O   UNL A   1      43.716  21.859  24.697  1.00  0.00    -0.269 OA
BRANCH  43  46
ATOM     46  C   UNL A   1      43.062  23.063  26.651  1.00  0.00     0.039 A 
ATOM     47  C   UNL A   1      42.129  24.064  26.880  1.00  0.00     0.014 A 
ATOM     48  C   UNL A   1      44.256  23.129  27.392  1.00  0.00     0.014 A 
ATOM     49  C   UNL A   1      42.372  25.071  27.858  1.00  0.00     0.010 A 
ATOM     50  C   UNL A   1      44.529  24.197  28.336  1.00  0.00     0.010 A 
ATOM     51  C   UNL A   1      43.602  25.226  28.595  1.00  0.00    -0.014 A 
BRANCH  51  52
ATOM     52  C   UNL A   1      43.957  26.722  29.046  1.00  0.00     0.031 A 
ATOM     53  C   UNL A   1      44.906  26.485  30.176  1.00  0.00     0.074 A 
ATOM     54  C   UNL A   1      43.625  28.056  28.817  1.00  0.00     0.049 A 
ATOM     55  N   UNL A   1      44.549  25.735  31.183  1.00  0.00    -0.248 NA
ATOM     56  C   UNL A   1      46.351  26.675  30.041  1.00  0.00     0.031 C 
ATOM     57  C   UNL A   1      42.565  28.586  27.947  1.00  0.00     0.029 A 
ATOM     58  N   UNL A   1      44.167  29.286  29.311  1.00  0.00    -0.354 N 
ATOM     59  C   UNL A   1      45.654  25.613  31.986  1.00  0.00     0.074 A 
ATOM     60  C   UNL A   1      46.763  25.991  31.115  1.00  0.00     0.031 C 
ATOM     61  C   UNL A   1      42.630  29.948  27.841  1.00  0.00     0.029 A 
ATOM     62  C   UNL A   1      43.700  30.498  28.673  1.00  0.00     0.049 A 
ATOM     63  H   UNL A   1      44.822  29.306  30.045  1.00  0.00     0.167 HD
ATOM     64  C   UNL A   1      45.474  25.977  33.290  1.00  0.00     0.034 A 
ATOM     65  C   UNL A   1      44.080  31.834  28.837  1.00  0.00     0.034 A 
ATOM     66  C   UNL A   1      45.891  27.335  33.520  1.00  0.00     0.049 A 
ATOM     67  C   UNL A   1      44.587  31.956  30.203  1.00  0.00     0.074 A 
ATOM     68  C   UNL A   1      47.037  28.026  33.185  1.00  0.00     0.029 A 
ATOM     69  N   UNL A   1      44.903  28.275  33.735  1.00  0.00    -0.354 N 
ATOM     70  N   UNL A   1      43.800  31.955  31.232  1.00  0.00    -0.248 NA
ATOM     71  C   UNL A   1      46.006  32.126  30.485  1.00  0.00     0.031 C 
ATOM     72  C   UNL A   1      46.577  29.280  32.732  1.00  0.00     0.029 A 
ATOM     73  C   UNL A   1      45.270  29.479  33.168  1.00  0.00     0.049 A 
ATOM     74  H   UNL A   1      44.062  28.111  34.219  1.00  0.00     0.167 HD
ATOM     75  C   UNL A   1      44.632  31.592  32.247  1.00  0.00     0.074 A 
ATOM     76  C   UNL A   1      45.961  31.985  31.809  1.00  0.00     0.031 C 
ATOM     77  C   UNL A   1      44.264  30.509  32.977  1.00  0.00     0.034 A 
BRANCH  64  78
ATOM     78  C   UNL A   1      44.292  25.334  33.957  1.00  0.00     0.023 A 
ATOM     79  C   UNL A   1      43.598  26.055  34.935  1.00  0.00     0.031 A 
ATOM     80  C   UNL A   1      43.901  23.998  33.722  1.00  0.00     0.131 A 
ATOM     81  C   UNL A   1      42.592  25.424  35.686  1.00  0.00     0.055 A 
ATOM     82  C   UNL A   1      42.941  23.360  34.505  1.00  0.00     0.041 A 
ATOM     83  F   UNL A   1      44.435  23.292  32.712  1.00  0.00    -0.206 F 
ATOM     84  C   UNL A   1      42.285  24.073  35.502  1.00  0.00     0.022 A 
BRANCH  81  85
ATOM     85  S   UNL A   1      41.663  26.412  36.888  1.00  0.00     0.124 S 
ATOM     86  O   UNL A   1      41.408  27.647  36.153  1.00  0.00    -0.237 OA
ATOM     87  O   UNL A   1      40.492  25.575  37.138  1.00  0.00    -0.237 OA
ATOM     88  O   UNL A   1      42.581  26.539  38.019  1.00  0.00    -0.744 OA
ENDBRANCH  81  85
ENDBRANCH  64  78
BRANCH  65  89
ATOM     89  C   UNL A   1      44.022  33.239  28.174  1.00  0.00     0.023 A 
ATOM     90  C   UNL A   1      44.052  34.468  28.952  1.00  0.00     0.031 A 
ATOM     91  C   UNL A   1      44.326  33.409  26.819  1.00  0.00     0.131 A 
ATOM     92  C   UNL A   1      44.424  35.727  28.395  1.00  0.00     0.055 A 
ATOM     93  C   UNL A   1      44.681  34.665  26.267  1.00  0.00     0.041 A 
ATOM     94  F   UNL A   1      44.396  32.347  26.003  1.00  0.00    -0.206 F 
ATOM     95  C   UNL A   1      44.752  35.817  27.050  1.00  0.00     0.022 A 
BRANCH  92  96
ATOM     96  S   UNL A   1      44.687  37.233  29.434  1.00  0.00     0.124 S 
ATOM     97  O   UNL A   1      44.677  38.311  28.454  1.00  0.00    -0.237 OA
ATOM     98  O   UNL A   1      43.565  37.187  30.367  1.00  0.00    -0.237 OA
ATOM     99  O   UNL A   1      45.991  36.994  30.059  1.00  0.00    -0.744 OA
ENDBRANCH  92  96
ENDBRANCH  65  89
BRANCH  77 100
ATOM    100  C   UNL A   1      42.798  30.415  33.400  1.00  0.00     0.023 A 
ATOM    101  C   UNL A   1      42.164  31.155  34.435  1.00  0.00     0.031 A 
ATOM    102  C   UNL A   1      42.013  29.433  32.774  1.00  0.00     0.131 A 
ATOM    103  C   UNL A   1      40.835  30.876  34.822  1.00  0.00     0.055 A 
ATOM    104  C   UNL A   1      40.684  29.186  33.125  1.00  0.00     0.041 A 
ATOM    105  F   UNL A   1      42.537  28.666  31.803  1.00  0.00    -0.206 F 
ATOM    106  C   UNL A   1      40.094  29.895  34.163  1.00  0.00     0.022 A 
BRANCH 103 107
ATOM    107  S   UNL A   1      40.079  31.718  36.257  1.00  0.00     0.124 S 
ATOM    108  O   UNL A   1      41.125  31.667  37.271  1.00  0.00    -0.237 OA
ATOM    109  O   UNL A   1      39.771  33.041  35.723  1.00  0.00    -0.237 OA
ATOM    110  O   UNL A   1      38.907  30.892  36.555  1.00  0.00    -0.744 OA
ENDBRANCH 103 107
ENDBRANCH  77 100
ENDBRANCH  51  52
ENDBRANCH  43  46
ENDBRANCH  41  42
ENDBRANCH  40  41
ENDBRANCH  39  40
ENDBRANCH   1  39
TORSDOF 23
ENDMDL
MODEL 2
REMARK VINA RESULT:     -11.8      3.169      4.858
REMARK SMILES Cc1c(CC(=O)N[C@@H](CCO)C(=O)NCCCCNC(=O)c2ccc(-c3c4nc(c(-c5cc(S(=O)(=O)[O-])ccc5F)c5ccc([nH]5)c(-c5cc(S(=O)(=O)[O-])ccc5F)c5nc(c(-c6cc(S(=O)(=O)[O-])ccc6F)c6ccc3[nH]6)C=C5)C=C4)cc2)cc(-c2ccc(S(C)(=O)=O)cc2)n1-c1ccc(F)cc1
REMARK SMILES IDX 15 1 14 2 12 3 13 4 8 6 7 7 5 8 6 9 4 11 3 12 1 13 2 14
REMARK SMILES IDX 97 15 85 16 86 17 98 18 99 19 104 20 100 21 103 22 101 23
REMARK SMILES IDX 102 24 87 25 88 26 96 27 89 28 95 29 90 30 91 31 92 32 93 33
REMARK SMILES IDX 94 34 9 35 10 36 11 37 16 39 17 40 18 41 19 42 20 43 21 45
REMARK SMILES IDX 22 46 23 47 84 48 24 49 83 50 25 51 26 52 27 53 77 54 28 55
REMARK SMILES IDX 82 56 76 57 78 58 29 59 81 60 75 61 74 62 30 64 62 65 42 66
REMARK SMILES IDX 61 67 43 68 46 69 60 70 79 71 44 72 45 73 59 75 80 76 47 77
REMARK SMILES IDX 31 78 32 79 40 80 33 81 39 82 41 83 38 84 34 85 35 86 36 87
REMARK SMILES IDX 37 88 63 89 64 90 72 91 65 92 71 93 73 94 70 95 66 96 67 97
REMARK SMILES IDX 68 98 69 99 48 100 49 101 57 102 50 103 56 104 58 105 55 106
REMARK SMILES IDX 51 107 52 108 53 109 54 110
REMARK H PARENT 14 5 7 10 11 38 19 44 78 63 46 74
REMARK Flexibility Score: inf
ROOT
ATOM      1  C   UNL A   1      36.253  21.158  24.794  1.00  0.00     0.116 C 
ENDROOT
BRANCH   1   2
ATOM      2  N   UNL A   1      35.282  21.245  25.874  1.00  0.00    -0.354 N 
ATOM      3  C   UNL A   1      34.016  20.785  26.020  1.00  0.00     0.242 C 
ATOM      4  O   UNL A   1      33.579  20.740  27.174  1.00  0.00    -0.273 OA
ATOM      5  H   UNL A   1      35.612  21.741  26.658  1.00  0.00     0.163 HD
BRANCH   3   6
ATOM      6  C   UNL A   1      33.164  20.250  24.863  1.00  0.00     0.173 C 
BRANCH   6   7
ATOM      7  N   UNL A   1      33.414  20.974  23.615  1.00  0.00    -0.344 N 
ATOM      8  C   UNL A   1      32.687  22.005  23.084  1.00  0.00     0.225 C 
ATOM      9  O   UNL A   1      33.177  22.631  22.140  1.00  0.00    -0.275 OA
ATOM     10  H   UNL A   1      34.198  20.684  23.096  1.00  0.00     0.164 HD
BRANCH   8  11
ATOM     11  C   UNL A   1      31.316  22.367  23.646  1.00  0.00     0.137 C 
BRANCH  11  12
ATOM     12  C   UNL A   1      31.202  23.826  23.975  1.00  0.00    -0.017 A 
ATOM     13  C   UNL A   1      32.824  23.972  25.981  1.00  0.00     0.065 C 
ATOM     14  C   UNL A   1      31.907  24.533  24.941  1.00  0.00     0.024 A 
ATOM     15  N   UNL A   1      31.582  25.880  24.820  1.00  0.00    -0.314 N 
ATOM     16  C   UNL A   1      30.348  24.756  23.329  1.00  0.00     0.033 A 
ATOM     17  C   UNL A   1      30.615  26.020  23.823  1.00  0.00     0.053 A 
BRANCH  15  18
ATOM     18  C   UNL A   1      32.150  26.950  25.563  1.00  0.00     0.046 A 
ATOM     19  C   UNL A   1      33.423  27.428  25.220  1.00  0.00     0.029 A 
ATOM     20  C   UNL A   1      31.470  27.464  26.675  1.00  0.00     0.029 A 
ATOM     21  C   UNL A   1      34.015  28.423  25.994  1.00  0.00     0.041 A 
ATOM     22  C   UNL A   1      32.077  28.450  27.452  1.00  0.00     0.041 A 
ATOM     23  C   UNL A   1      33.342  28.919  27.105  1.00  0.00     0.123 A 
ATOM     24  F   UNL A   1      33.925  29.862  27.857  1.00  0.00    -0.207 F 
ENDBRANCH  15  18
BRANCH  17  25
ATOM     25  C   UNL A   1      30.080  27.293  23.324  1.00  0.00    -0.001 A 
ATOM     26  C   UNL A   1      30.892  28.203  22.628  1.00  0.00     0.011 A 
ATOM     27  C   UNL A   1      28.733  27.607  23.537  1.00  0.00     0.011 A 
ATOM     28  C   UNL A   1      30.381  29.431  22.200  1.00  0.00     0.021 A 
ATOM     29  C   UNL A   1      28.213  28.832  23.113  1.00  0.00     0.021 A 
ATOM     30  C   UNL A   1      29.047  29.746  22.465  1.00  0.00     0.067 A 
BRANCH  30  31
ATOM     31  S   UNL A   1      28.397  31.319  21.952  1.00  0.00     0.175 S 
ATOM     32  C   UNL A   1      27.216  31.729  23.210  1.00  0.00     0.163 C 
ATOM     33  O   UNL A   1      29.489  32.277  22.028  1.00  0.00    -0.224 OA
ATOM     34  O   UNL A   1      27.660  31.115  20.725  1.00  0.00    -0.224 OA
ENDBRANCH  30  31
ENDBRANCH  17  25
ENDBRANCH  11  12
ENDBRANCH   8  11
ENDBRANCH   6   7
BRANCH   6  35
ATOM     35  C   UNL A   1      33.081  18.721  24.714  1.00  0.00     0.063 C 
BRANCH  35  36
ATOM     36  C   UNL A   1      34.289  17.962  24.194  1.00  0.00     0.158 C 
BRANCH  36  37
ATOM     37  O   UNL A   1      34.808  17.036  25.132  1.00  0.00    -0.396 OA
ATOM     38  H   UNL A   1      35.274  17.516  25.835  1.00  0.00     0.210 HD
ENDBRANCH  36  37
ENDBRANCH  35  36
ENDBRANCH   6  35
ENDBRANCH   3   6
ENDBRANCH   1   2
BRANCH   1  39
ATOM     39  C   UNL A   1      36.995  22.465  24.545  1.00  0.00     0.023 C 
BRANCH  39  40
ATOM     40  C   UNL A   1      37.165  23.411  25.747  1.00  0.00     0.023 C 
BRANCH  40  41
ATOM     41  C   UNL A   1      38.569  23.640  26.327  1.00  0.00     0.116 C 
BRANCH  41  42
ATOM     42  N   UNL A   1      39.552  22.640  26.001  1.00  0.00    -0.352 N 
ATOM     43  C   UNL A   1      40.906  22.693  26.307  1.00  0.00     0.251 C 
ATOM     44  H   UNL A   1      39.234  21.844  25.516  1.00  0.00     0.163 HD
ATOM     45  O   UNL A   1      41.582  21.689  26.104  1.00  0.00    -0.269 OA
BRANCH  43  46
ATOM     46  C   UNL A   1      41.535  23.962  26.834  1.00  0.00     0.039 A 
ATOM     47  C   UNL A   1      41.840  24.057  28.184  1.00  0.00     0.014 A 
ATOM     48  C   UNL A   1      41.682  25.131  26.067  1.00  0.00     0.014 A 
ATOM     49  C   UNL A   1      42.322  25.281  28.732  1.00  0.00     0.010 A 
ATOM     50  C   UNL A   1      42.106  26.393  26.644  1.00  0.00     0.010 A 
ATOM     51  C   UNL A   1      42.427  26.525  28.010  1.00  0.00    -0.014 A 
BRANCH  51  52
ATOM     52  C   UNL A   1      42.270  27.854  28.890  1.00  0.00     0.031 A 
ATOM     53  C   UNL A   1      43.540  28.580  28.579  1.00  0.00     0.074 A 
ATOM     54  C   UNL A   1      41.457  28.461  29.845  1.00  0.00     0.049 A 
ATOM     55  N   UNL A   1      44.691  27.994  28.767  1.00  0.00    -0.248 NA
ATOM     56  C   UNL A   1      43.584  29.734  27.680  1.00  0.00     0.031 C 
ATOM     57  C   UNL A   1      40.280  27.893  30.521  1.00  0.00     0.029 A 
ATOM     58  N   UNL A   1      41.480  29.757  30.454  1.00  0.00    -0.354 N 
ATOM     59  C   UNL A   1      45.645  28.854  28.288  1.00  0.00     0.074 A 
ATOM     60  C   UNL A   1      44.897  29.763  27.424  1.00  0.00     0.031 C 
ATOM     61  C   UNL A   1      39.632  28.828  31.280  1.00  0.00     0.029 A 
ATOM     62  C   UNL A   1      40.329  30.114  31.254  1.00  0.00     0.049 A 
ATOM     63  H   UNL A   1      42.239  30.372  30.334  1.00  0.00     0.167 HD
ATOM     64  C   UNL A   1      46.630  29.187  29.173  1.00  0.00     0.034 A 
ATOM     65  C   UNL A   1      39.986  31.306  31.900  1.00  0.00     0.034 A 
ATOM     66  C   UNL A   1      46.344  30.433  29.835  1.00  0.00     0.049 A 
ATOM     67  C   UNL A   1      41.243  31.989  32.204  1.00  0.00     0.074 A 
ATOM     68  C   UNL A   1      45.952  31.668  29.364  1.00  0.00     0.029 A 
ATOM     69  N   UNL A   1      45.980  30.375  31.165  1.00  0.00    -0.354 N 
ATOM     70  N   UNL A   1      42.030  31.591  33.152  1.00  0.00    -0.248 NA
ATOM     71  C   UNL A   1      41.664  33.183  31.482  1.00  0.00     0.031 C 
ATOM     72  C   UNL A   1      44.949  32.090  30.262  1.00  0.00     0.029 A 
ATOM     73  C   UNL A   1      45.036  31.346  31.435  1.00  0.00     0.049 A 
ATOM     74  H   UNL A   1      46.339  29.737  31.823  1.00  0.00     0.167 HD
ATOM     75  C   UNL A   1      43.229  32.129  32.792  1.00  0.00     0.074 A 
ATOM     76  C   UNL A   1      42.899  33.282  31.972  1.00  0.00     0.031 C 
ATOM     77  C   UNL A   1      44.269  31.266  32.666  1.00  0.00     0.034 A 
BRANCH  64  78
ATOM     78  C   UNL A   1      47.294  28.014  29.835  1.00  0.00     0.023 A 
ATOM     79  C   UNL A   1      47.222  27.899  31.228  1.00  0.00     0.031 A 
ATOM     80  C   UNL A   1      48.076  27.068  29.136  1.00  0.00     0.131 A 
ATOM     81  C   UNL A   1      47.963  26.903  31.886  1.00  0.00     0.055 A 
ATOM     82  C   UNL A   1      48.853  26.118  29.796  1.00  0.00     0.041 A 
ATOM     83  F   UNL A   1      48.084  27.042  27.793  1.00  0.00    -0.206 F 
ATOM     84  C   UNL A   1      48.806  26.038  31.183  1.00  0.00     0.022 A 
BRANCH  81  85
ATOM     85  S   UNL A   1      47.783  26.736  33.682  1.00  0.00     0.124 S 
ATOM     86  O   UNL A   1      47.912  28.116  34.142  1.00  0.00    -0.237 OA
ATOM     87  O   UNL A   1      46.449  26.154  33.806  1.00  0.00    -0.237 OA
ATOM     88  O   UNL A   1      48.881  25.849  34.062  1.00  0.00    -0.744 OA
ENDBRANCH  81  85
ENDBRANCH  64  78
BRANCH  65  89
ATOM     89  C   UNL A   1      38.802  32.084  32.538  1.00  0.00     0.023 A 
ATOM     90  C   UNL A   1      37.633  32.488  31.770  1.00  0.00     0.031 A 
ATOM     91  C   UNL A   1      38.611  32.097  33.924  1.00  0.00     0.131 A 
ATOM     92  C   UNL A   1      36.381  32.806  32.376  1.00  0.00     0.055 A 
ATOM     93  C   UNL A   1      37.370  32.429  34.522  1.00  0.00     0.041 A 
ATOM     94  F   UNL A   1      39.588  31.686  34.744  1.00  0.00    -0.206 F 
ATOM     95  C   UNL A   1      36.251  32.761  33.757  1.00  0.00     0.022 A 
BRANCH  92  96
ATOM     96  S   UNL A   1      34.845  33.088  31.389  1.00  0.00     0.124 S 
ATOM     97  O   UNL A   1      35.021  32.200  30.248  1.00  0.00    -0.237 OA
ATOM     98  O   UNL A   1      33.783  32.739  32.330  1.00  0.00    -0.237 OA
ATOM     99  O   UNL A   1      34.905  34.515  31.062  1.00  0.00    -0.744 OA
ENDBRANCH  92  96
ENDBRANCH  65  89
BRANCH  77 100
ATOM    100  C   UNL A   1      44.439  30.209  33.758  1.00  0.00     0.023 A 
ATOM    101  C   UNL A   1      43.690  29.009  33.902  1.00  0.00     0.031 A 
ATOM    102  C   UNL A   1      45.361  30.488  34.780  1.00  0.00     0.131 A 
ATOM    103  C   UNL A   1      43.851  28.182  35.034  1.00  0.00     0.055 A 
ATOM    104  C   UNL A   1      45.552  29.648  35.879  1.00  0.00     0.041 A 
ATOM    105  F   UNL A   1      46.094  31.614  34.741  1.00  0.00    -0.206 F 
ATOM    106  C   UNL A   1      44.785  28.499  36.020  1.00  0.00     0.022 A 
BRANCH 103 107
ATOM    107  S   UNL A   1      42.773  26.729  35.295  1.00  0.00     0.124 S 
ATOM    108  O   UNL A   1      43.086  26.311  36.656  1.00  0.00    -0.237 OA
ATOM    109  O   UNL A   1      41.439  27.283  35.087  1.00  0.00    -0.237 OA
ATOM    110  O   UNL A   1      43.213  25.791  34.258  1.00  0.00    -0.744 OA
ENDBRANCH 103 107
ENDBRANCH  77 100
ENDBRANCH  51  52
ENDBRANCH  43  46
ENDBRANCH  41  42
ENDBRANCH  40  41
ENDBRANCH  39  40
ENDBRANCH   1  39
TORSDOF 23
ENDMDL
MODEL 3
REMARK VINA RESULT:     -11.5      1.718      2.080
REMARK SMILES Cc1c(CC(=O)N[C@@H](CCO)C(=O)NCCCCNC(=O)c2ccc(-c3c4nc(c(-c5cc(S(=O)(=O)[O-])ccc5F)c5ccc([nH]5)c(-c5cc(S(=O)(=O)[O-])ccc5F)c5nc(c(-c6cc(S(=O)(=O)[O-])ccc6F)c6ccc3[nH]6)C=C5)C=C4)cc2)cc(-c2ccc(S(C)(=O)=O)cc2)n1-c1ccc(F)cc1
REMARK SMILES IDX 15 1 14 2 12 3 13 4 8 6 7 7 5 8 6 9 4 11 3 12 1 13 2 14
REMARK SMILES IDX 97 15 85 16 86 17 98 18 99 19 104 20 100 21 103 22 101 23
REMARK SMILES IDX 102 24 87 25 88 26 96 27 89 28 95 29 90 30 91 31 92 32 93 33
REMARK SMILES IDX 94 34 9 35 10 36 11 37 16 39 17 40 18 41 19 42 20 43 21 45
REMARK SMILES IDX 22 46 23 47 84 48 24 49 83 50 25 51 26 52 27 53 77 54 28 55
REMARK SMILES IDX 82 56 76 57 78 58 29 59 81 60 75 61 74 62 30 64 62 65 42 66
REMARK SMILES IDX 61 67 43 68 46 69 60 70 79 71 44 72 45 73 59 75 80 76 47 77
REMARK SMILES IDX 31 78 32 79 40 80 33 81 39 82 41 83 38 84 34 85 35 86 36 87
REMARK SMILES IDX 37 88 63 89 64 90 72 91 65 92 71 93 73 94 70 95 66 96 67 97
REMARK SMILES IDX 68 98 69 99 48 100 49 101 57 102 50 103 56 104 58 105 55 106
REMARK SMILES IDX 51 107 52 108 53 109 54 110
REMARK H PARENT 14 5 7 10 11 38 19 44 78 63 46 74
REMARK Flexibility Score: inf
ROOT
ATOM      1  C   UNL A   1      36.704  21.960  25.052  1.00  0.00     0.116 C 
ENDROOT
BRANCH   1   2
ATOM      2  N   UNL A   1      35.770  21.933  26.166  1.00  0.00    -0.354 N 
ATOM      3  C   UNL A   1      34.552  21.364  26.341  1.00  0.00     0.242 C 
ATOM      4  O   UNL A   1      34.164  21.248  27.508  1.00  0.00    -0.273 OA
ATOM      5  H   UNL A   1      36.086  22.431  26.955  1.00  0.00     0.163 HD
BRANCH   3   6
ATOM      6  C   UNL A   1      33.705  20.793  25.198  1.00  0.00     0.173 C 
BRANCH   6   7
ATOM      7  N   UNL A   1      33.969  21.472  23.927  1.00  0.00    -0.344 N 
ATOM      8  C   UNL A   1      33.187  22.398  23.293  1.00  0.00     0.225 C 
ATOM      9  O   UNL A   1      33.679  23.017  22.344  1.00  0.00    -0.275 OA
ATOM     10  H   UNL A   1      34.810  21.231  23.474  1.00  0.00     0.164 HD
BRANCH   8  11
ATOM     11  C   UNL A   1      31.754  22.656  23.747  1.00  0.00     0.137 C 
BRANCH  11  12
ATOM     12  C   UNL A   1      31.512  24.099  24.079  1.00  0.00    -0.017 A 
ATOM     13  C   UNL A   1      33.163  24.401  26.043  1.00  0.00     0.065 C 
ATOM     14  C   UNL A   1      32.172  24.872  25.027  1.00  0.00     0.024 A 
ATOM     15  N   UNL A   1      31.719  26.182  24.913  1.00  0.00    -0.314 N 
ATOM     16  C   UNL A   1      30.559  24.942  23.454  1.00  0.00     0.033 A 
ATOM     17  C   UNL A   1      30.718  26.228  23.941  1.00  0.00     0.053 A 
BRANCH  15  18
ATOM     18  C   UNL A   1      32.203  27.302  25.641  1.00  0.00     0.046 A 
ATOM     19  C   UNL A   1      33.443  27.861  25.303  1.00  0.00     0.029 A 
ATOM     20  C   UNL A   1      31.475  27.788  26.736  1.00  0.00     0.029 A 
ATOM     21  C   UNL A   1      33.955  28.909  26.063  1.00  0.00     0.041 A 
ATOM     22  C   UNL A   1      32.003  28.829  27.500  1.00  0.00     0.041 A 
ATOM     23  C   UNL A   1      33.237  29.378  27.157  1.00  0.00     0.123 A 
ATOM     24  F   UNL A   1      33.743  30.372  27.897  1.00  0.00    -0.207 F 
ENDBRANCH  15  18
BRANCH  17  25
ATOM     25  C   UNL A   1      30.054  27.444  23.455  1.00  0.00    -0.001 A 
ATOM     26  C   UNL A   1      30.785  28.492  22.875  1.00  0.00     0.011 A 
ATOM     27  C   UNL A   1      28.663  27.561  23.563  1.00  0.00     0.011 A 
ATOM     28  C   UNL A   1      30.145  29.663  22.460  1.00  0.00     0.021 A 
ATOM     29  C   UNL A   1      28.015  28.727  23.151  1.00  0.00     0.021 A 
ATOM     30  C   UNL A   1      28.763  29.780  22.621  1.00  0.00     0.067 A 
BRANCH  30  31
ATOM     31  S   UNL A   1      27.945  31.278  22.124  1.00  0.00     0.175 S 
ATOM     32  C   UNL A   1      29.213  32.515  22.220  1.00  0.00     0.163 C 
ATOM     33  O   UNL A   1      27.575  31.119  20.727  1.00  0.00    -0.224 OA
ATOM     34  O   UNL A   1      26.958  31.599  23.131  1.00  0.00    -0.224 OA
ENDBRANCH  30  31
ENDBRANCH  17  25
ENDBRANCH  11  12
ENDBRANCH   8  11
ENDBRANCH   6   7
BRANCH   6  35
ATOM     35  C   UNL A   1      33.613  19.260  25.102  1.00  0.00     0.063 C 
BRANCH  35  36
ATOM     36  C   UNL A   1      33.010  18.632  23.858  1.00  0.00     0.158 C 
BRANCH  36  37
ATOM     37  O   UNL A   1      33.885  17.722  23.217  1.00  0.00    -0.396 OA
ATOM     38  H   UNL A   1      34.214  18.115  22.393  1.00  0.00     0.210 HD
ENDBRANCH  36  37
ENDBRANCH  35  36
ENDBRANCH   6  35
ENDBRANCH   3   6
ENDBRANCH   1   2
BRANCH   1  39
ATOM     39  C   UNL A   1      37.510  23.250  24.973  1.00  0.00     0.023 C 
BRANCH  39  40
ATOM     40  C   UNL A   1      37.770  23.993  26.296  1.00  0.00     0.023 C 
BRANCH  40  41
ATOM     41  C   UNL A   1      39.152  23.878  26.959  1.00  0.00     0.116 C 
BRANCH  41  42
ATOM     42  N   UNL A   1      39.616  22.538  27.211  1.00  0.00    -0.352 N 
ATOM     43  C   UNL A   1      40.846  22.188  27.754  1.00  0.00     0.251 C 
ATOM     44  H   UNL A   1      39.005  21.803  26.976  1.00  0.00     0.163 HD
ATOM     45  O   UNL A   1      41.027  21.012  28.057  1.00  0.00    -0.269 OA
BRANCH  43  46
ATOM     46  C   UNL A   1      41.940  23.214  27.929  1.00  0.00     0.039 A 
ATOM     47  C   UNL A   1      42.494  23.408  29.186  1.00  0.00     0.014 A 
ATOM     48  C   UNL A   1      42.325  24.116  26.921  1.00  0.00     0.014 A 
ATOM     49  C   UNL A   1      43.442  24.449  29.407  1.00  0.00     0.010 A 
ATOM     50  C   UNL A   1      43.236  25.219  27.169  1.00  0.00     0.010 A 
ATOM     51  C   UNL A   1      43.820  25.442  28.432  1.00  0.00    -0.014 A 
BRANCH  51  52
ATOM     52  C   UNL A   1      44.269  26.861  29.024  1.00  0.00     0.031 A 
ATOM     53  C   UNL A   1      45.208  26.455  30.114  1.00  0.00     0.074 A 
ATOM     54  C   UNL A   1      44.020  28.228  28.932  1.00  0.00     0.049 A 
ATOM     55  N   UNL A   1      44.812  25.632  31.046  1.00  0.00    -0.248 NA
ATOM     56  C   UNL A   1      46.662  26.570  29.981  1.00  0.00     0.031 C 
ATOM     57  C   UNL A   1      42.989  28.906  28.131  1.00  0.00     0.029 A 
ATOM     58  N   UNL A   1      44.639  29.369  29.538  1.00  0.00    -0.354 N 
ATOM     59  C   UNL A   1      45.913  25.365  31.819  1.00  0.00     0.074 A 
ATOM     60  C   UNL A   1      47.038  25.759  30.977  1.00  0.00     0.031 C 
ATOM     61  C   UNL A   1      43.137  30.265  28.159  1.00  0.00     0.029 A 
ATOM     62  C   UNL A   1      44.244  30.664  29.029  1.00  0.00     0.049 A 
ATOM     63  H   UNL A   1      45.299  29.276  30.263  1.00  0.00     0.167 HD
ATOM     64  C   UNL A   1      45.763  25.607  33.155  1.00  0.00     0.034 A 
ATOM     65  C   UNL A   1      44.706  31.951  29.320  1.00  0.00     0.034 A 
ATOM     66  C   UNL A   1      46.265  26.908  33.513  1.00  0.00     0.049 A 
ATOM     67  C   UNL A   1      45.228  31.906  30.685  1.00  0.00     0.074 A 
ATOM     68  C   UNL A   1      47.449  27.558  33.235  1.00  0.00     0.029 A 
ATOM     69  N   UNL A   1      45.337  27.880  33.831  1.00  0.00    -0.354 N 
ATOM     70  N   UNL A   1      44.448  31.851  31.717  1.00  0.00    -0.248 NA
ATOM     71  C   UNL A   1      46.657  31.961  30.965  1.00  0.00     0.031 C 
ATOM     72  C   UNL A   1      47.064  28.876  32.913  1.00  0.00     0.029 A 
ATOM     73  C   UNL A   1      45.775  29.110  33.382  1.00  0.00     0.049 A 
ATOM     74  H   UNL A   1      44.490  27.720  34.308  1.00  0.00     0.167 HD
ATOM     75  C   UNL A   1      45.263  31.338  32.682  1.00  0.00     0.074 A 
ATOM     76  C   UNL A   1      46.610  31.692  32.269  1.00  0.00     0.031 C 
ATOM     77  C   UNL A   1      44.833  30.213  33.306  1.00  0.00     0.034 A 
BRANCH  64  78
ATOM     78  C   UNL A   1      44.547  24.974  33.769  1.00  0.00     0.023 A 
ATOM     79  C   UNL A   1      43.672  25.778  34.509  1.00  0.00     0.031 A 
ATOM     80  C   UNL A   1      44.290  23.586  33.725  1.00  0.00     0.131 A 
ATOM     81  C   UNL A   1      42.617  25.187  35.225  1.00  0.00     0.055 A 
ATOM     82  C   UNL A   1      43.277  22.999  34.481  1.00  0.00     0.041 A 
ATOM     83  F   UNL A   1      45.011  22.778  32.932  1.00  0.00    -0.206 F 
ATOM     84  C   UNL A   1      42.437  23.801  35.245  1.00  0.00     0.022 A 
BRANCH  81  85
ATOM     85  S   UNL A   1      41.459  26.267  36.106  1.00  0.00     0.124 S 
ATOM     86  O   UNL A   1      40.469  25.322  36.612  1.00  0.00    -0.237 OA
ATOM     87  O   UNL A   1      42.317  26.881  37.117  1.00  0.00    -0.237 OA
ATOM     88  O   UNL A   1      40.976  27.180  35.072  1.00  0.00    -0.744 OA
ENDBRANCH  81  85
ENDBRANCH  64  78
BRANCH  65  89
ATOM     89  C   UNL A   1      44.731  33.416  28.799  1.00  0.00     0.023 A 
ATOM     90  C   UNL A   1      45.871  33.967  28.082  1.00  0.00     0.031 A 
ATOM     91  C   UNL A   1      43.548  34.145  28.645  1.00  0.00     0.131 A 
ATOM     92  C   UNL A   1      45.774  35.115  27.241  1.00  0.00     0.055 A 
ATOM     93  C   UNL A   1      43.460  35.294  27.820  1.00  0.00     0.041 A 
ATOM     94  F   UNL A   1      42.408  33.711  29.201  1.00  0.00    -0.206 F 
ATOM     95  C   UNL A   1      44.558  35.769  27.103  1.00  0.00     0.022 A 
BRANCH  92  96
ATOM     96  S   UNL A   1      47.162  35.669  26.154  1.00  0.00     0.124 S 
ATOM     97  O   UNL A   1      47.565  34.439  25.486  1.00  0.00    -0.237 OA
ATOM     98  O   UNL A   1      46.536  36.691  25.320  1.00  0.00    -0.237 OA
ATOM     99  O   UNL A   1      48.149  36.196  27.101  1.00  0.00    -0.744 OA
ENDBRANCH  92  96
ENDBRANCH  65  89
BRANCH  77 100
ATOM    100  C   UNL A   1      43.366  30.166  33.735  1.00  0.00     0.023 A 
ATOM    101  C   UNL A   1      42.256  29.796  32.928  1.00  0.00     0.031 A 
ATOM    102  C   UNL A   1      43.063  30.626  35.027  1.00  0.00     0.131 A 
ATOM    103  C   UNL A   1      40.933  29.926  33.403  1.00  0.00     0.055 A 
ATOM    104  C   UNL A   1      41.757  30.715  35.514  1.00  0.00     0.041 A 
ATOM    105  F   UNL A   1      44.047  31.024  35.852  1.00  0.00    -0.206 F 
ATOM    106  C   UNL A   1      40.685  30.382  34.697  1.00  0.00     0.022 A 
BRANCH 103 107
ATOM    107  S   UNL A   1      39.507  29.602  32.307  1.00  0.00     0.124 S 
ATOM    108  O   UNL A   1      38.380  30.168  33.038  1.00  0.00    -0.237 OA
ATOM    109  O   UNL A   1      39.886  30.297  31.080  1.00  0.00    -0.237 OA
ATOM    110  O   UNL A   1      39.487  28.142  32.200  1.00  0.00    -0.744 OA
ENDBRANCH 103 107
ENDBRANCH  77 100
ENDBRANCH  51  52
ENDBRANCH  43  46
ENDBRANCH  41  42
ENDBRANCH  40  41
ENDBRANCH  39  40
ENDBRANCH   1  39
TORSDOF 23
ENDMDL
