MODEL 1
REMARK VINA RESULT:     -11.7      0.000      0.000
REMARK SMILES C[NH2+][C@@]1(C(=O)NCCCCNC(=O)c2ccc(-c3c4nc(c(-c5cc(S(=O)(=O)[O-])ccc5F)c5ccc([nH]5)c(-c5cc(S(=O)(=O)[O-])ccc5F)c5nc(c(-c6cc(S(=O)(=O)[O-])ccc6F)c6ccc3[nH]6)C=C5)C=C4)cc2)CC[C@H](n2ccc(C)n2)C1
REMARK SMILES IDX 9 1 8 2 7 3 6 4 4 5 5 6 3 8 77 9 86 10 78 11 79 12 2 13 1 14
REMARK SMILES IDX 80 17 81 18 85 19 82 20 83 21 84 22 10 23 11 24 12 25 13 27
REMARK SMILES IDX 14 28 15 29 76 30 16 31 75 32 17 33 18 34 19 35 69 36 20 37
REMARK SMILES IDX 74 38 68 39 70 40 21 41 73 42 67 43 66 44 22 46 54 47 34 48
REMARK SMILES IDX 53 49 35 50 38 51 52 52 71 53 36 54 37 55 51 57 72 58 39 59
REMARK SMILES IDX 23 60 24 61 32 62 25 63 31 64 33 65 30 66 26 67 27 68 28 69
REMARK SMILES IDX 29 70 55 71 56 72 64 73 57 74 63 75 65 76 62 77 58 78 59 79
REMARK SMILES IDX 60 80 61 81 40 82 41 83 49 84 42 85 48 86 50 87 47 88 43 89
REMARK SMILES IDX 44 90 45 91 46 92
REMARK H PARENT 6 7 2 15 2 16 11 26 70 45 38 56
REMARK Flexibility Score: inf
ROOT
ATOM      1  C   UNL A   1      31.508  29.595  26.578  1.00  0.00     0.023 C 
ENDROOT
BRANCH   1   2
ATOM      2  C   UNL A   1      31.704  28.508  27.620  1.00  0.00     0.023 C 
BRANCH   2   3
ATOM      3  C   UNL A   1      32.372  27.237  27.111  1.00  0.00     0.116 C 
BRANCH   3   4
ATOM      4  N   UNL A   1      31.371  26.343  26.572  1.00  0.00    -0.351 N 
ATOM      5  C   UNL A   1      31.012  26.000  25.316  1.00  0.00     0.281 C 
ATOM      6  O   UNL A   1      29.866  25.517  25.230  1.00  0.00    -0.268 OA
ATOM      7  H   UNL A   1      30.841  25.888  27.266  1.00  0.00     0.163 HD
BRANCH   5   8
ATOM      8  C   UNL A   1      31.876  26.116  23.986  1.00  0.00     0.177 C 
ATOM      9  C   UNL A   1      32.923  27.220  23.865  1.00  0.00     0.081 C 
ATOM     10  C   UNL A   1      30.917  26.339  22.796  1.00  0.00     0.106 C 
ATOM     11  C   UNL A   1      32.269  28.374  23.114  1.00  0.00     0.034 C 
ATOM     12  C   UNL A   1      31.090  27.798  22.315  1.00  0.00     0.114 C 
BRANCH   8  13
ATOM     13  N   UNL A   1      32.534  24.772  23.954  1.00  0.00    -0.336 N 
ATOM     14  C   UNL A   1      32.985  24.221  22.695  1.00  0.00     0.331 C 
ATOM     15  H   UNL A   1      33.352  24.830  24.561  1.00  0.00     0.346 HD
ATOM     16  H   UNL A   1      31.787  24.137  24.235  1.00  0.00     0.346 HD
ENDBRANCH   8  13
BRANCH  12  17
ATOM     17  N   UNL A   1      29.900  28.640  22.361  1.00  0.00    -0.269 N 
ATOM     18  C   UNL A   1      28.767  28.422  23.100  1.00  0.00     0.109 A 
ATOM     19  N   UNL A   1      29.817  29.755  21.615  1.00  0.00    -0.178 NA
ATOM     20  C   UNL A   1      27.853  29.364  22.686  1.00  0.00     0.045 A 
ATOM     21  C   UNL A   1      28.548  30.157  21.747  1.00  0.00     0.059 A 
ATOM     22  C   UNL A   1      28.020  31.269  20.921  1.00  0.00     0.069 C 
ENDBRANCH  12  17
ENDBRANCH   5   8
ENDBRANCH   3   4
ENDBRANCH   2   3
ENDBRANCH   1   2
BRANCH   1  23
ATOM     23  C   UNL A   1      32.757  30.418  26.316  1.00  0.00     0.116 C 
BRANCH  23  24
ATOM     24  N   UNL A   1      32.676  31.785  26.822  1.00  0.00    -0.352 N 
ATOM     25  C   UNL A   1      33.594  32.491  27.573  1.00  0.00     0.251 C 
ATOM     26  H   UNL A   1      31.851  32.272  26.594  1.00  0.00     0.163 HD
ATOM     27  O   UNL A   1      33.322  33.609  27.983  1.00  0.00    -0.269 OA
BRANCH  25  28
ATOM     28  C   UNL A   1      34.878  31.843  27.925  1.00  0.00     0.039 A 
ATOM     29  C   UNL A   1      36.018  32.633  28.086  1.00  0.00     0.014 A 
ATOM     30  C   UNL A   1      34.925  30.478  28.205  1.00  0.00     0.014 A 
ATOM     31  C   UNL A   1      37.172  32.069  28.635  1.00  0.00     0.010 A 
ATOM     32  C   UNL A   1      36.024  29.955  28.871  1.00  0.00     0.010 A 
ATOM     33  C   UNL A   1      37.165  30.742  29.094  1.00  0.00    -0.014 A 
BRANCH  33  34
ATOM     34  C   UNL A   1      38.331  30.137  29.795  1.00  0.00     0.031 A 
ATOM     35  C   UNL A   1      38.645  30.555  31.209  1.00  0.00     0.074 A 
ATOM     36  C   UNL A   1      39.162  29.303  29.137  1.00  0.00     0.049 A 
ATOM     37  N   UNL A   1      39.695  30.289  31.941  1.00  0.00    -0.248 NA
ATOM     38  C   UNL A   1      37.671  31.445  31.860  1.00  0.00     0.031 C 
ATOM     39  C   UNL A   1      39.012  28.876  27.742  1.00  0.00     0.029 A 
ATOM     40  N   UNL A   1      40.310  28.672  29.548  1.00  0.00    -0.354 N 
ATOM     41  C   UNL A   1      39.530  31.018  33.116  1.00  0.00     0.074 A 
ATOM     42  C   UNL A   1      38.319  31.794  32.959  1.00  0.00     0.031 C 
ATOM     43  C   UNL A   1      40.003  28.024  27.431  1.00  0.00     0.029 A 
ATOM     44  C   UNL A   1      40.888  27.882  28.581  1.00  0.00     0.049 A 
ATOM     45  H   UNL A   1      40.683  28.775  30.454  1.00  0.00     0.167 HD
ATOM     46  C   UNL A   1      40.295  31.013  34.236  1.00  0.00     0.034 A 
ATOM     47  C   UNL A   1      42.009  27.133  28.617  1.00  0.00     0.034 A 
ATOM     48  C   UNL A   1      41.463  30.184  34.396  1.00  0.00     0.049 A 
ATOM     49  C   UNL A   1      42.818  27.102  29.888  1.00  0.00     0.074 A 
ATOM     50  C   UNL A   1      42.270  30.035  35.509  1.00  0.00     0.029 A 
ATOM     51  N   UNL A   1      41.985  29.354  33.411  1.00  0.00    -0.354 N 
ATOM     52  N   UNL A   1      42.622  27.760  31.009  1.00  0.00    -0.248 NA
ATOM     53  C   UNL A   1      43.991  26.220  29.905  1.00  0.00     0.031 C 
ATOM     54  C   UNL A   1      43.306  29.151  35.184  1.00  0.00     0.029 A 
ATOM     55  C   UNL A   1      43.109  28.699  33.889  1.00  0.00     0.049 A 
ATOM     56  H   UNL A   1      41.611  29.246  32.508  1.00  0.00     0.167 HD
ATOM     57  C   UNL A   1      43.632  27.346  31.872  1.00  0.00     0.074 A 
ATOM     58  C   UNL A   1      44.424  26.372  31.147  1.00  0.00     0.031 C 
ATOM     59  C   UNL A   1      43.885  27.732  33.149  1.00  0.00     0.034 A 
BRANCH  46  60
ATOM     60  C   UNL A   1      39.885  31.937  35.359  1.00  0.00     0.023 A 
ATOM     61  C   UNL A   1      39.113  31.483  36.443  1.00  0.00     0.031 A 
ATOM     62  C   UNL A   1      40.219  33.303  35.320  1.00  0.00     0.131 A 
ATOM     63  C   UNL A   1      38.615  32.397  37.383  1.00  0.00     0.055 A 
ATOM     64  C   UNL A   1      39.800  34.191  36.313  1.00  0.00     0.041 A 
ATOM     65  F   UNL A   1      40.938  33.802  34.303  1.00  0.00    -0.206 F 
ATOM     66  C   UNL A   1      38.975  33.744  37.341  1.00  0.00     0.022 A 
BRANCH  63  67
ATOM     67  S   UNL A   1      37.353  31.826  38.554  1.00  0.00     0.124 S 
ATOM     68  O   UNL A   1      38.062  31.933  39.826  1.00  0.00    -0.237 OA
ATOM     69  O   UNL A   1      36.271  32.783  38.344  1.00  0.00    -0.237 OA
ATOM     70  O   UNL A   1      37.073  30.460  38.117  1.00  0.00    -0.744 OA
ENDBRANCH  63  67
ENDBRANCH  46  60
BRANCH  47  71
ATOM     71  C   UNL A   1      42.433  26.344  27.425  1.00  0.00     0.023 A 
ATOM     72  C   UNL A   1      42.098  24.985  27.306  1.00  0.00     0.031 A 
ATOM     73  C   UNL A   1      43.211  26.922  26.407  1.00  0.00     0.131 A 
ATOM     74  C   UNL A   1      42.578  24.237  26.220  1.00  0.00     0.055 A 
ATOM     75  C   UNL A   1      43.645  26.185  25.303  1.00  0.00     0.041 A 
ATOM     76  F   UNL A   1      43.551  28.219  26.466  1.00  0.00    -0.206 F 
ATOM     77  C   UNL A   1      43.340  24.831  25.212  1.00  0.00     0.022 A 
BRANCH  74  78
ATOM     78  S   UNL A   1      42.256  22.452  26.186  1.00  0.00     0.124 S 
ATOM     79  O   UNL A   1      42.886  22.011  27.425  1.00  0.00    -0.237 OA
ATOM     80  O   UNL A   1      40.797  22.409  26.157  1.00  0.00    -0.237 OA
ATOM     81  O   UNL A   1      42.914  22.011  24.958  1.00  0.00    -0.744 OA
ENDBRANCH  74  78
ENDBRANCH  47  71
BRANCH  59  82
ATOM     82  C   UNL A   1      45.034  27.058  33.851  1.00  0.00     0.023 A 
ATOM     83  C   UNL A   1      44.887  25.809  34.479  1.00  0.00     0.031 A 
ATOM     84  C   UNL A   1      46.293  27.681  33.898  1.00  0.00     0.131 A 
ATOM     85  C   UNL A   1      45.967  25.248  35.175  1.00  0.00     0.055 A 
ATOM     86  C   UNL A   1      47.380  27.091  34.543  1.00  0.00     0.041 A 
ATOM     87  F   UNL A   1      46.487  28.875  33.314  1.00  0.00    -0.206 F 
ATOM     88  C   UNL A   1      47.217  25.873  35.198  1.00  0.00     0.022 A 
BRANCH  85  89
ATOM     89  S   UNL A   1      45.695  23.726  36.123  1.00  0.00     0.124 S 
ATOM     90  O   UNL A   1      44.275  23.476  35.894  1.00  0.00    -0.237 OA
ATOM     91  O   UNL A   1      46.617  22.792  35.484  1.00  0.00    -0.237 OA
ATOM     92  O   UNL A   1      46.047  24.106  37.490  1.00  0.00    -0.744 OA
ENDBRANCH  85  89
ENDBRANCH  59  82
ENDBRANCH  33  34
ENDBRANCH  25  28
ENDBRANCH  23  24
ENDBRANCH   1  23
TORSDOF 16
ENDMDL
MODEL 2
REMARK VINA RESULT:     -11.5      2.426      8.229
REMARK SMILES C[NH2+][C@@]1(C(=O)NCCCCNC(=O)c2ccc(-c3c4nc(c(-c5cc(S(=O)(=O)[O-])ccc5F)c5ccc([nH]5)c(-c5cc(S(=O)(=O)[O-])ccc5F)c5nc(c(-c6cc(S(=O)(=O)[O-])ccc6F)c6ccc3[nH]6)C=C5)C=C4)cc2)CC[C@H](n2ccc(C)n2)C1
REMARK SMILES IDX 9 1 8 2 7 3 6 4 4 5 5 6 3 8 77 9 86 10 78 11 79 12 2 13 1 14
REMARK SMILES IDX 80 17 81 18 85 19 82 20 83 21 84 22 10 23 11 24 12 25 13 27
REMARK SMILES IDX 14 28 15 29 76 30 16 31 75 32 17 33 18 34 19 35 69 36 20 37
REMARK SMILES IDX 74 38 68 39 70 40 21 41 73 42 67 43 66 44 22 46 54 47 34 48
REMARK SMILES IDX 53 49 35 50 38 51 52 52 71 53 36 54 37 55 51 57 72 58 39 59
REMARK SMILES IDX 23 60 24 61 32 62 25 63 31 64 33 65 30 66 26 67 27 68 28 69
REMARK SMILES IDX 29 70 55 71 56 72 64 73 57 74 63 75 65 76 62 77 58 78 59 79
REMARK SMILES IDX 60 80 61 81 40 82 41 83 49 84 42 85 48 86 50 87 47 88 43 89
REMARK SMILES IDX 44 90 45 91 46 92
REMARK H PARENT 6 7 2 15 2 16 11 26 70 45 38 56
REMARK Flexibility Score: inf
ROOT
ATOM      1  C   UNL A   1      32.280  31.139  26.854  1.00  0.00     0.023 C 
ENDROOT
BRANCH   1   2
ATOM      2  C   UNL A   1      32.444  29.682  27.249  1.00  0.00     0.023 C 
BRANCH   2   3
ATOM      3  C   UNL A   1      33.691  28.999  26.701  1.00  0.00     0.116 C 
BRANCH   3   4
ATOM      4  N   UNL A   1      33.778  29.216  25.274  1.00  0.00    -0.351 N 
ATOM      5  C   UNL A   1      33.389  28.496  24.199  1.00  0.00     0.281 C 
ATOM      6  O   UNL A   1      33.976  28.802  23.143  1.00  0.00    -0.268 OA
ATOM      7  H   UNL A   1      34.212  30.067  25.036  1.00  0.00     0.163 HD
BRANCH   5   8
ATOM      8  C   UNL A   1      32.278  27.360  24.135  1.00  0.00     0.177 C 
ATOM      9  C   UNL A   1      32.004  26.652  22.811  1.00  0.00     0.081 C 
ATOM     10  C   UNL A   1      30.923  27.975  24.548  1.00  0.00     0.106 C 
ATOM     11  C   UNL A   1      30.814  27.355  22.167  1.00  0.00     0.034 C 
ATOM     12  C   UNL A   1      30.039  28.070  23.284  1.00  0.00     0.114 C 
BRANCH   8  13
ATOM     13  N   UNL A   1      32.803  26.387  25.143  1.00  0.00    -0.336 N 
ATOM     14  C   UNL A   1      31.900  25.783  26.099  1.00  0.00     0.331 C 
ATOM     15  H   UNL A   1      33.234  25.624  24.620  1.00  0.00     0.346 HD
ATOM     16  H   UNL A   1      33.414  26.959  25.725  1.00  0.00     0.346 HD
ENDBRANCH   8  13
BRANCH  12  17
ATOM     17  N   UNL A   1      29.589  29.405  22.905  1.00  0.00    -0.269 N 
ATOM     18  C   UNL A   1      29.491  30.501  23.722  1.00  0.00     0.109 A 
ATOM     19  N   UNL A   1      29.193  29.667  21.648  1.00  0.00    -0.178 NA
ATOM     20  C   UNL A   1      28.853  31.471  22.985  1.00  0.00     0.045 A 
ATOM     21  C   UNL A   1      28.670  30.897  21.708  1.00  0.00     0.059 A 
ATOM     22  C   UNL A   1      27.958  31.470  20.541  1.00  0.00     0.069 C 
ENDBRANCH  12  17
ENDBRANCH   5   8
ENDBRANCH   3   4
ENDBRANCH   2   3
ENDBRANCH   1   2
BRANCH   1  23
ATOM     23  C   UNL A   1      33.271  32.068  27.535  1.00  0.00     0.116 C 
BRANCH  23  24
ATOM     24  N   UNL A   1      32.797  33.444  27.657  1.00  0.00    -0.352 N 
ATOM     25  C   UNL A   1      33.231  34.442  28.504  1.00  0.00     0.251 C 
ATOM     26  H   UNL A   1      32.064  33.694  27.047  1.00  0.00     0.163 HD
ATOM     27  O   UNL A   1      32.659  35.521  28.527  1.00  0.00    -0.269 OA
BRANCH  25  28
ATOM     28  C   UNL A   1      34.355  34.157  29.425  1.00  0.00     0.039 A 
ATOM     29  C   UNL A   1      34.121  33.395  30.571  1.00  0.00     0.014 A 
ATOM     30  C   UNL A   1      35.652  34.547  29.095  1.00  0.00     0.014 A 
ATOM     31  C   UNL A   1      35.204  32.931  31.322  1.00  0.00     0.010 A 
ATOM     32  C   UNL A   1      36.727  33.977  29.763  1.00  0.00     0.010 A 
ATOM     33  C   UNL A   1      36.519  33.162  30.887  1.00  0.00    -0.014 A 
BRANCH  33  34
ATOM     34  C   UNL A   1      37.700  32.585  31.586  1.00  0.00     0.031 A 
ATOM     35  C   UNL A   1      38.461  31.452  30.947  1.00  0.00     0.074 A 
ATOM     36  C   UNL A   1      38.025  33.001  32.829  1.00  0.00     0.049 A 
ATOM     37  N   UNL A   1      39.402  30.695  31.447  1.00  0.00    -0.248 NA
ATOM     38  C   UNL A   1      38.059  31.082  29.581  1.00  0.00     0.031 C 
ATOM     39  C   UNL A   1      37.324  34.040  33.589  1.00  0.00     0.029 A 
ATOM     40  N   UNL A   1      39.021  32.590  33.680  1.00  0.00    -0.354 N 
ATOM     41  C   UNL A   1      39.668  29.733  30.477  1.00  0.00     0.074 A 
ATOM     42  C   UNL A   1      38.732  29.959  29.397  1.00  0.00     0.031 C 
ATOM     43  C   UNL A   1      37.937  34.211  34.772  1.00  0.00     0.029 A 
ATOM     44  C   UNL A   1      39.041  33.263  34.879  1.00  0.00     0.049 A 
ATOM     45  H   UNL A   1      39.662  31.879  33.450  1.00  0.00     0.167 HD
ATOM     46  C   UNL A   1      40.627  28.773  30.468  1.00  0.00     0.034 A 
ATOM     47  C   UNL A   1      39.853  33.127  35.947  1.00  0.00     0.034 A 
ATOM     48  C   UNL A   1      41.591  28.605  31.527  1.00  0.00     0.049 A 
ATOM     49  C   UNL A   1      40.944  32.089  35.897  1.00  0.00     0.074 A 
ATOM     50  C   UNL A   1      42.654  27.724  31.594  1.00  0.00     0.029 A 
ATOM     51  N   UNL A   1      41.613  29.346  32.702  1.00  0.00    -0.354 N 
ATOM     52  N   UNL A   1      41.214  31.218  34.951  1.00  0.00    -0.248 NA
ATOM     53  C   UNL A   1      41.848  32.023  37.053  1.00  0.00     0.031 C 
ATOM     54  C   UNL A   1      43.291  27.899  32.829  1.00  0.00     0.029 A 
ATOM     55  C   UNL A   1      42.664  28.933  33.504  1.00  0.00     0.049 A 
ATOM     56  H   UNL A   1      40.976  30.060  32.931  1.00  0.00     0.167 HD
ATOM     57  C   UNL A   1      42.337  30.521  35.388  1.00  0.00     0.074 A 
ATOM     58  C   UNL A   1      42.701  31.084  36.672  1.00  0.00     0.031 C 
ATOM     59  C   UNL A   1      43.009  29.508  34.783  1.00  0.00     0.034 A 
BRANCH  46  60
ATOM     60  C   UNL A   1      40.663  27.840  29.281  1.00  0.00     0.023 A 
ATOM     61  C   UNL A   1      41.604  27.998  28.247  1.00  0.00     0.031 A 
ATOM     62  C   UNL A   1      39.711  26.814  29.148  1.00  0.00     0.131 A 
ATOM     63  C   UNL A   1      41.509  27.218  27.085  1.00  0.00     0.055 A 
ATOM     64  C   UNL A   1      39.684  25.976  28.030  1.00  0.00     0.041 A 
ATOM     65  F   UNL A   1      38.776  26.623  30.091  1.00  0.00    -0.206 F 
ATOM     66  C   UNL A   1      40.572  26.190  26.981  1.00  0.00     0.022 A 
BRANCH  63  67
ATOM     67  S   UNL A   1      42.514  27.686  25.650  1.00  0.00     0.124 S 
ATOM     68  O   UNL A   1      43.811  27.942  26.270  1.00  0.00    -0.237 OA
ATOM     69  O   UNL A   1      42.433  26.499  24.806  1.00  0.00    -0.237 OA
ATOM     70  O   UNL A   1      41.836  28.871  25.128  1.00  0.00    -0.744 OA
ENDBRANCH  63  67
ENDBRANCH  46  60
BRANCH  47  71
ATOM     71  C   UNL A   1      39.680  33.993  37.148  1.00  0.00     0.023 A 
ATOM     72  C   UNL A   1      39.075  33.494  38.313  1.00  0.00     0.031 A 
ATOM     73  C   UNL A   1      40.080  35.341  37.139  1.00  0.00     0.131 A 
ATOM     74  C   UNL A   1      38.844  34.347  39.404  1.00  0.00     0.055 A 
ATOM     75  C   UNL A   1      39.893  36.173  38.245  1.00  0.00     0.041 A 
ATOM     76  F   UNL A   1      40.673  35.865  36.055  1.00  0.00    -0.206 F 
ATOM     77  C   UNL A   1      39.259  35.680  39.381  1.00  0.00     0.022 A 
BRANCH  74  78
ATOM     78  S   UNL A   1      37.918  33.706  40.826  1.00  0.00     0.124 S 
ATOM     79  O   UNL A   1      37.425  34.934  41.439  1.00  0.00    -0.237 OA
ATOM     80  O   UNL A   1      36.917  32.864  40.179  1.00  0.00    -0.237 OA
ATOM     81  O   UNL A   1      38.932  32.987  41.595  1.00  0.00    -0.744 OA
ENDBRANCH  74  78
ENDBRANCH  47  71
BRANCH  59  82
ATOM     82  C   UNL A   1      44.235  28.987  35.487  1.00  0.00     0.023 A 
ATOM     83  C   UNL A   1      44.153  27.983  36.468  1.00  0.00     0.031 A 
ATOM     84  C   UNL A   1      45.502  29.511  35.176  1.00  0.00     0.131 A 
ATOM     85  C   UNL A   1      45.313  27.572  37.142  1.00  0.00     0.055 A 
ATOM     86  C   UNL A   1      46.659  29.058  35.810  1.00  0.00     0.041 A 
ATOM     87  F   UNL A   1      45.635  30.471  34.247  1.00  0.00    -0.206 F 
ATOM     88  C   UNL A   1      46.567  28.091  36.808  1.00  0.00     0.022 A 
BRANCH  85  89
ATOM     89  S   UNL A   1      45.150  26.407  38.522  1.00  0.00     0.124 S 
ATOM     90  O   UNL A   1      43.715  26.451  38.788  1.00  0.00    -0.237 OA
ATOM     91  O   UNL A   1      45.652  25.165  37.943  1.00  0.00    -0.237 OA
ATOM     92  O   UNL A   1      45.993  26.990  39.564  1.00  0.00    -0.744 OA
ENDBRANCH  85  89
ENDBRANCH  59  82
ENDBRANCH  33  34
ENDBRANCH  25  28
ENDBRANCH  23  24
ENDBRANCH   1  23
TORSDOF 16
ENDMDL
MODEL 3
REMARK VINA RESULT:     -11.4      2.048      3.428
REMARK SMILES C[NH2+][C@@]1(C(=O)NCCCCNC(=O)c2ccc(-c3c4nc(c(-c5cc(S(=O)(=O)[O-])ccc5F)c5ccc([nH]5)c(-c5cc(S(=O)(=O)[O-])ccc5F)c5nc(c(-c6cc(S(=O)(=O)[O-])ccc6F)c6ccc3[nH]6)C=C5)C=C4)cc2)CC[C@H](n2ccc(C)n2)C1
REMARK SMILES IDX 9 1 8 2 7 3 6 4 4 5 5 6 3 8 77 9 86 10 78 11 79 12 2 13 1 14
REMARK SMILES IDX 80 17 81 18 85 19 82 20 83 21 84 22 10 23 11 24 12 25 13 27
REMARK SMILES IDX 14 28 15 29 76 30 16 31 75 32 17 33 18 34 19 35 69 36 20 37
REMARK SMILES IDX 74 38 68 39 70 40 21 41 73 42 67 43 66 44 22 46 54 47 34 48
REMARK SMILES IDX 53 49 35 50 38 51 52 52 71 53 36 54 37 55 51 57 72 58 39 59
REMARK SMILES IDX 23 60 24 61 32 62 25 63 31 64 33 65 30 66 26 67 27 68 28 69
REMARK SMILES IDX 29 70 55 71 56 72 64 73 57 74 63 75 65 76 62 77 58 78 59 79
REMARK SMILES IDX 60 80 61 81 40 82 41 83 49 84 42 85 48 86 50 87 47 88 43 89
REMARK SMILES IDX 44 90 45 91 46 92
REMARK H PARENT 6 7 2 15 2 16 11 26 70 45 38 56
REMARK Flexibility Score: inf
ROOT
ATOM      1  C   UNL A   1      31.503  29.358  25.299  1.00  0.00     0.023 C 
ENDROOT
BRANCH   1   2
ATOM      2  C   UNL A   1      31.412  27.842  25.298  1.00  0.00     0.023 C 
BRANCH   2   3
ATOM      3  C   UNL A   1      32.708  27.116  24.958  1.00  0.00     0.116 C 
BRANCH   3   4
ATOM      4  N   UNL A   1      33.129  27.471  23.621  1.00  0.00    -0.351 N 
ATOM      5  C   UNL A   1      33.155  26.803  22.447  1.00  0.00     0.281 C 
ATOM      6  O   UNL A   1      33.940  27.284  21.607  1.00  0.00    -0.268 OA
ATOM      7  H   UNL A   1      33.469  28.392  23.552  1.00  0.00     0.163 HD
BRANCH   5   8
ATOM      8  C   UNL A   1      32.296  25.533  22.027  1.00  0.00     0.177 C 
ATOM      9  C   UNL A   1      31.146  25.074  22.920  1.00  0.00     0.081 C 
ATOM     10  C   UNL A   1      33.239  24.314  21.931  1.00  0.00     0.106 C 
ATOM     11  C   UNL A   1      31.690  23.966  23.814  1.00  0.00     0.034 C 
ATOM     12  C   UNL A   1      32.928  23.378  23.121  1.00  0.00     0.114 C 
BRANCH   8  13
ATOM     13  N   UNL A   1      31.774  25.967  20.694  1.00  0.00    -0.336 N 
ATOM     14  C   UNL A   1      32.360  25.434  19.483  1.00  0.00     0.331 C 
ATOM     15  H   UNL A   1      30.783  25.727  20.673  1.00  0.00     0.346 HD
ATOM     16  H   UNL A   1      32.017  26.957  20.657  1.00  0.00     0.346 HD
ENDBRANCH   8  13
BRANCH  12  17
ATOM     17  N   UNL A   1      34.028  23.111  24.041  1.00  0.00    -0.269 N 
ATOM     18  C   UNL A   1      34.696  24.028  24.810  1.00  0.00     0.109 A 
ATOM     19  N   UNL A   1      34.510  21.866  24.195  1.00  0.00    -0.178 NA
ATOM     20  C   UNL A   1      35.761  23.357  25.366  1.00  0.00     0.045 A 
ATOM     21  C   UNL A   1      35.613  22.019  24.936  1.00  0.00     0.059 A 
ATOM     22  C   UNL A   1      36.528  20.877  25.172  1.00  0.00     0.069 C 
ENDBRANCH  12  17
ENDBRANCH   5   8
ENDBRANCH   3   4
ENDBRANCH   2   3
ENDBRANCH   1   2
BRANCH   1  23
ATOM     23  C   UNL A   1      32.652  29.897  26.133  1.00  0.00     0.116 C 
BRANCH  23  24
ATOM     24  N   UNL A   1      32.452  31.269  26.591  1.00  0.00    -0.352 N 
ATOM     25  C   UNL A   1      33.284  32.061  27.356  1.00  0.00     0.251 C 
ATOM     26  H   UNL A   1      31.605  31.688  26.313  1.00  0.00     0.163 HD
ATOM     27  O   UNL A   1      32.915  33.169  27.718  1.00  0.00    -0.269 OA
BRANCH  25  28
ATOM     28  C   UNL A   1      34.594  31.518  27.782  1.00  0.00     0.039 A 
ATOM     29  C   UNL A   1      35.646  32.400  28.035  1.00  0.00     0.014 A 
ATOM     30  C   UNL A   1      34.743  30.156  28.037  1.00  0.00     0.014 A 
ATOM     31  C   UNL A   1      36.808  31.926  28.650  1.00  0.00     0.010 A 
ATOM     32  C   UNL A   1      35.838  29.714  28.766  1.00  0.00     0.010 A 
ATOM     33  C   UNL A   1      36.888  30.591  29.081  1.00  0.00    -0.014 A 
BRANCH  33  34
ATOM     34  C   UNL A   1      38.053  30.073  29.848  1.00  0.00     0.031 A 
ATOM     35  C   UNL A   1      38.268  30.526  31.270  1.00  0.00     0.074 A 
ATOM     36  C   UNL A   1      38.970  29.288  29.244  1.00  0.00     0.049 A 
ATOM     37  N   UNL A   1      39.295  30.338  32.057  1.00  0.00    -0.248 NA
ATOM     38  C   UNL A   1      37.206  31.356  31.859  1.00  0.00     0.031 C 
ATOM     39  C   UNL A   1      38.919  28.837  27.849  1.00  0.00     0.029 A 
ATOM     40  N   UNL A   1      40.134  28.738  29.721  1.00  0.00    -0.354 N 
ATOM     41  C   UNL A   1      39.023  31.066  33.212  1.00  0.00     0.074 A 
ATOM     42  C   UNL A   1      37.774  31.759  32.984  1.00  0.00     0.031 C 
ATOM     43  C   UNL A   1      39.978  28.049  27.601  1.00  0.00     0.029 A 
ATOM     44  C   UNL A   1      40.811  27.978  28.795  1.00  0.00     0.049 A 
ATOM     45  H   UNL A   1      40.454  28.876  30.642  1.00  0.00     0.167 HD
ATOM     46  C   UNL A   1      39.729  31.125  34.369  1.00  0.00     0.034 A 
ATOM     47  C   UNL A   1      41.975  27.305  28.897  1.00  0.00     0.034 A 
ATOM     48  C   UNL A   1      40.939  30.376  34.598  1.00  0.00     0.049 A 
ATOM     49  C   UNL A   1      42.719  27.342  30.208  1.00  0.00     0.074 A 
ATOM     50  C   UNL A   1      41.697  30.292  35.752  1.00  0.00     0.029 A 
ATOM     51  N   UNL A   1      41.563  29.571  33.653  1.00  0.00    -0.354 N 
ATOM     52  N   UNL A   1      42.424  27.997  31.307  1.00  0.00    -0.248 NA
ATOM     53  C   UNL A   1      43.945  26.539  30.295  1.00  0.00     0.031 C 
ATOM     54  C   UNL A   1      42.804  29.476  35.491  1.00  0.00     0.029 A 
ATOM     55  C   UNL A   1      42.702  28.998  34.195  1.00  0.00     0.049 A 
ATOM     56  H   UNL A   1      41.243  29.429  32.733  1.00  0.00     0.167 HD
ATOM     57  C   UNL A   1      43.415  27.660  32.226  1.00  0.00     0.074 A 
ATOM     58  C   UNL A   1      44.304  26.733  31.555  1.00  0.00     0.031 C 
ATOM     59  C   UNL A   1      43.576  28.076  33.508  1.00  0.00     0.034 A 
BRANCH  46  60
ATOM     60  C   UNL A   1      39.203  32.032  35.456  1.00  0.00     0.023 A 
ATOM     61  C   UNL A   1      39.592  33.380  35.543  1.00  0.00     0.031 A 
ATOM     62  C   UNL A   1      38.347  31.532  36.454  1.00  0.00     0.131 A 
ATOM     63  C   UNL A   1      39.214  34.151  36.653  1.00  0.00     0.055 A 
ATOM     64  C   UNL A   1      37.895  32.333  37.505  1.00  0.00     0.041 A 
ATOM     65  F   UNL A   1      37.954  30.249  36.436  1.00  0.00    -0.206 F 
ATOM     66  C   UNL A   1      38.346  33.644  37.621  1.00  0.00     0.022 A 
BRANCH  63  67
ATOM     67  S   UNL A   1      40.014  35.760  36.897  1.00  0.00     0.124 S 
ATOM     68  O   UNL A   1      41.420  35.376  37.000  1.00  0.00    -0.237 OA
ATOM     69  O   UNL A   1      39.638  36.487  35.690  1.00  0.00    -0.237 OA
ATOM     70  O   UNL A   1      39.419  36.254  38.137  1.00  0.00    -0.744 OA
ENDBRANCH  63  67
ENDBRANCH  46  60
BRANCH  47  71
ATOM     71  C   UNL A   1      42.510  26.533  27.740  1.00  0.00     0.023 A 
ATOM     72  C   UNL A   1      42.097  25.211  27.505  1.00  0.00     0.031 A 
ATOM     73  C   UNL A   1      43.468  27.087  26.874  1.00  0.00     0.131 A 
ATOM     74  C   UNL A   1      42.674  24.471  26.461  1.00  0.00     0.055 A 
ATOM     75  C   UNL A   1      44.004  26.363  25.806  1.00  0.00     0.041 A 
ATOM     76  F   UNL A   1      43.889  28.349  27.046  1.00  0.00    -0.206 F 
ATOM     77  C   UNL A   1      43.616  25.042  25.603  1.00  0.00     0.022 A 
BRANCH  74  78
ATOM     78  S   UNL A   1      42.231  22.720  26.291  1.00  0.00     0.124 S 
ATOM     79  O   UNL A   1      40.780  22.764  26.435  1.00  0.00    -0.237 OA
ATOM     80  O   UNL A   1      42.735  22.410  24.957  1.00  0.00    -0.237 OA
ATOM     81  O   UNL A   1      42.949  22.079  27.391  1.00  0.00    -0.744 OA
ENDBRANCH  74  78
ENDBRANCH  47  71
BRANCH  59  82
ATOM     82  C   UNL A   1      44.730  27.487  34.276  1.00  0.00     0.023 A 
ATOM     83  C   UNL A   1      44.616  26.264  34.959  1.00  0.00     0.031 A 
ATOM     84  C   UNL A   1      45.959  28.166  34.331  1.00  0.00     0.131 A 
ATOM     85  C   UNL A   1      45.696  25.783  35.713  1.00  0.00     0.055 A 
ATOM     86  C   UNL A   1      47.049  27.656  35.036  1.00  0.00     0.041 A 
ATOM     87  F   UNL A   1      46.121  29.339  33.696  1.00  0.00    -0.206 F 
ATOM     88  C   UNL A   1      46.917  26.464  35.743  1.00  0.00     0.022 A 
BRANCH  85  89
ATOM     89  S   UNL A   1      45.460  24.297  36.724  1.00  0.00     0.124 S 
ATOM     90  O   UNL A   1      44.720  23.427  35.815  1.00  0.00    -0.237 OA
ATOM     91  O   UNL A   1      46.832  23.896  37.015  1.00  0.00    -0.237 OA
ATOM     92  O   UNL A   1      44.699  24.782  37.875  1.00  0.00    -0.744 OA
ENDBRANCH  85  89
ENDBRANCH  59  82
ENDBRANCH  33  34
ENDBRANCH  25  28
ENDBRANCH  23  24
ENDBRANCH   1  23
TORSDOF 16
ENDMDL
