MODEL 1
REMARK VINA RESULT:     -12.1      0.000      0.000
REMARK SMILES N#Cc1ccccc1S(=O)(=O)N1CCC(C(=O)NCCCCNC(=O)c2ccc(-c3c4nc(c(-c5cc(S(=O)(=O)[O-])ccc5F)c5ccc([nH]5)c(-c5cc(S(=O)(=O)[O-])ccc5F)c5nc(c(-c6cc(S(=O)(=O)[O-])ccc6F)c6ccc3[nH]6)C=C5)C=C4)cc2)CC1
REMARK SMILES IDX 20 1 19 2 18 3 16 4 17 5 15 7 12 8 13 9 90 10 14 11 89 12
REMARK SMILES IDX 9 13 10 14 11 15 8 16 3 17 4 18 5 19 7 20 6 21 2 22 1 23
REMARK SMILES IDX 21 24 22 25 23 26 24 27 25 29 26 30 27 31 88 32 28 33 87 34
REMARK SMILES IDX 29 35 30 36 31 37 81 38 32 39 86 40 80 41 82 42 33 43 85 44
REMARK SMILES IDX 79 45 78 46 34 48 66 49 46 50 65 51 47 52 50 53 64 54 83 55
REMARK SMILES IDX 48 56 49 57 63 59 84 60 51 61 35 62 36 63 44 64 37 65 43 66
REMARK SMILES IDX 45 67 42 68 38 69 39 70 40 71 41 72 67 73 68 74 76 75 69 76
REMARK SMILES IDX 75 77 77 78 74 79 70 80 71 81 72 82 73 83 52 84 53 85 61 86
REMARK SMILES IDX 54 87 60 88 62 89 59 90 55 91 56 92 57 93 58 94
REMARK H PARENT 18 6 23 28 82 47 50 58
REMARK Flexibility Score: inf
ROOT
ATOM      1  C   UNL A   1      32.115  30.173  26.804  1.00  0.00     0.023 C 
ENDROOT
BRANCH   1   2
ATOM      2  C   UNL A   1      32.511  29.694  25.412  1.00  0.00     0.116 C 
BRANCH   2   3
ATOM      3  N   UNL A   1      31.419  29.002  24.748  1.00  0.00    -0.356 N 
ATOM      4  C   UNL A   1      31.110  27.677  24.705  1.00  0.00     0.223 C 
ATOM      5  O   UNL A   1      30.140  27.324  24.032  1.00  0.00    -0.275 OA
ATOM      6  H   UNL A   1      30.803  29.586  24.248  1.00  0.00     0.163 HD
BRANCH   4   7
ATOM      7  C   UNL A   1      31.926  26.658  25.485  1.00  0.00     0.081 C 
ATOM      8  N   UNL A   1      32.937  23.943  25.825  1.00  0.00    -0.198 NA
ATOM      9  C   UNL A   1      31.673  24.286  26.495  1.00  0.00     0.103 C 
ATOM     10  C   UNL A   1      33.805  24.955  25.204  1.00  0.00     0.103 C 
ATOM     11  C   UNL A   1      31.026  25.593  26.094  1.00  0.00     0.030 C 
ATOM     12  C   UNL A   1      33.076  26.145  24.629  1.00  0.00     0.030 C 
BRANCH   8  13
ATOM     13  S   UNL A   1      33.680  22.510  26.334  1.00  0.00     0.244 S 
ATOM     14  O   UNL A   1      33.154  22.200  27.647  1.00  0.00    -0.207 OA
ATOM     15  O   UNL A   1      35.106  22.655  26.122  1.00  0.00    -0.207 OA
BRANCH  13  16
ATOM     16  C   UNL A   1      33.192  21.134  25.304  1.00  0.00     0.100 A 
ATOM     17  C   UNL A   1      32.832  21.144  23.955  1.00  0.00     0.072 A 
ATOM     18  C   UNL A   1      32.434  19.939  23.342  1.00  0.00     0.021 A 
ATOM     19  C   UNL A   1      32.417  18.737  24.041  1.00  0.00     0.001 A 
ATOM     20  C   UNL A   1      33.178  19.905  26.001  1.00  0.00     0.023 A 
ATOM     21  C   UNL A   1      32.799  18.719  25.374  1.00  0.00     0.001 A 
BRANCH  17  22
ATOM     22  C   UNL A   1      32.834  22.264  23.070  1.00  0.00     0.101 C 
ATOM     23  N   UNL A   1      32.925  23.120  22.298  1.00  0.00    -0.192 NA
ENDBRANCH  17  22
ENDBRANCH  13  16
ENDBRANCH   8  13
ENDBRANCH   4   7
ENDBRANCH   2   3
ENDBRANCH   1   2
BRANCH   1  24
ATOM     24  C   UNL A   1      31.861  31.673  26.895  1.00  0.00     0.023 C 
BRANCH  24  25
ATOM     25  C   UNL A   1      33.011  32.465  27.498  1.00  0.00     0.116 C 
BRANCH  25  26
ATOM     26  N   UNL A   1      32.681  33.871  27.691  1.00  0.00    -0.352 N 
ATOM     27  C   UNL A   1      33.200  34.750  28.609  1.00  0.00     0.251 C 
ATOM     28  H   UNL A   1      31.999  34.238  27.083  1.00  0.00     0.163 HD
ATOM     29  O   UNL A   1      32.696  35.858  28.759  1.00  0.00    -0.269 OA
BRANCH  27  30
ATOM     30  C   UNL A   1      34.344  34.318  29.433  1.00  0.00     0.039 A 
ATOM     31  C   UNL A   1      34.101  33.657  30.637  1.00  0.00     0.014 A 
ATOM     32  C   UNL A   1      35.651  34.501  28.972  1.00  0.00     0.014 A 
ATOM     33  C   UNL A   1      35.173  33.117  31.347  1.00  0.00     0.010 A 
ATOM     34  C   UNL A   1      36.705  33.882  29.631  1.00  0.00     0.010 A 
ATOM     35  C   UNL A   1      36.478  33.187  30.828  1.00  0.00    -0.014 A 
BRANCH  35  36
ATOM     36  C   UNL A   1      37.620  32.548  31.532  1.00  0.00     0.031 A 
ATOM     37  C   UNL A   1      38.341  31.394  30.893  1.00  0.00     0.074 A 
ATOM     38  C   UNL A   1      37.970  32.973  32.762  1.00  0.00     0.049 A 
ATOM     39  N   UNL A   1      39.313  30.660  31.369  1.00  0.00    -0.248 NA
ATOM     40  C   UNL A   1      37.889  30.993  29.551  1.00  0.00     0.031 C 
ATOM     41  C   UNL A   1      37.316  34.057  33.501  1.00  0.00     0.029 A 
ATOM     42  N   UNL A   1      38.956  32.544  33.614  1.00  0.00    -0.354 N 
ATOM     43  C   UNL A   1      39.583  29.709  30.390  1.00  0.00     0.074 A 
ATOM     44  C   UNL A   1      38.623  29.915  29.327  1.00  0.00     0.031 C 
ATOM     45  C   UNL A   1      37.940  34.227  34.678  1.00  0.00     0.029 A 
ATOM     46  C   UNL A   1      38.999  33.232  34.806  1.00  0.00     0.049 A 
ATOM     47  H   UNL A   1      39.576  31.812  33.394  1.00  0.00     0.167 HD
ATOM     48  C   UNL A   1      40.562  28.772  30.366  1.00  0.00     0.034 A 
ATOM     49  C   UNL A   1      39.791  33.068  35.885  1.00  0.00     0.034 A 
ATOM     50  C   UNL A   1      41.514  28.585  31.433  1.00  0.00     0.049 A 
ATOM     51  C   UNL A   1      40.844  31.988  35.854  1.00  0.00     0.074 A 
ATOM     52  C   UNL A   1      42.572  27.695  31.497  1.00  0.00     0.029 A 
ATOM     53  N   UNL A   1      41.522  29.294  32.628  1.00  0.00    -0.354 N 
ATOM     54  N   UNL A   1      41.118  31.129  34.898  1.00  0.00    -0.248 NA
ATOM     55  C   UNL A   1      41.700  31.862  37.040  1.00  0.00     0.031 C 
ATOM     56  C   UNL A   1      43.166  27.809  32.757  1.00  0.00     0.029 A 
ATOM     57  C   UNL A   1      42.542  28.836  33.447  1.00  0.00     0.049 A 
ATOM     58  H   UNL A   1      40.894  30.016  32.859  1.00  0.00     0.167 HD
ATOM     59  C   UNL A   1      42.204  30.385  35.358  1.00  0.00     0.074 A 
ATOM     60  C   UNL A   1      42.541  30.911  36.664  1.00  0.00     0.031 C 
ATOM     61  C   UNL A   1      42.864  29.365  34.753  1.00  0.00     0.034 A 
BRANCH  48  62
ATOM     62  C   UNL A   1      40.631  27.867  29.159  1.00  0.00     0.023 A 
ATOM     63  C   UNL A   1      41.564  28.082  28.129  1.00  0.00     0.031 A 
ATOM     64  C   UNL A   1      39.743  26.786  29.025  1.00  0.00     0.131 A 
ATOM     65  C   UNL A   1      41.538  27.277  26.980  1.00  0.00     0.055 A 
ATOM     66  C   UNL A   1      39.781  25.934  27.919  1.00  0.00     0.041 A 
ATOM     67  F   UNL A   1      38.814  26.544  29.962  1.00  0.00    -0.206 F 
ATOM     68  C   UNL A   1      40.673  26.186  26.881  1.00  0.00     0.022 A 
BRANCH  65  69
ATOM     69  S   UNL A   1      42.551  27.767  25.557  1.00  0.00     0.124 S 
ATOM     70  O   UNL A   1      42.467  26.577  24.714  1.00  0.00    -0.237 OA
ATOM     71  O   UNL A   1      41.854  28.950  25.065  1.00  0.00    -0.237 OA
ATOM     72  O   UNL A   1      43.867  28.016  26.143  1.00  0.00    -0.744 OA
ENDBRANCH  65  69
ENDBRANCH  48  62
BRANCH  49  73
ATOM     73  C   UNL A   1      39.614  33.926  37.094  1.00  0.00     0.023 A 
ATOM     74  C   UNL A   1      38.991  33.431  38.251  1.00  0.00     0.031 A 
ATOM     75  C   UNL A   1      40.016  35.274  37.091  1.00  0.00     0.131 A 
ATOM     76  C   UNL A   1      38.734  34.290  39.331  1.00  0.00     0.055 A 
ATOM     77  C   UNL A   1      39.817  36.107  38.193  1.00  0.00     0.041 A 
ATOM     78  F   UNL A   1      40.617  35.801  36.013  1.00  0.00    -0.206 F 
ATOM     79  C   UNL A   1      39.157  35.620  39.316  1.00  0.00     0.022 A 
BRANCH  76  80
ATOM     80  S   UNL A   1      37.736  33.671  40.715  1.00  0.00     0.124 S 
ATOM     81  O   UNL A   1      38.685  32.797  41.396  1.00  0.00    -0.237 OA
ATOM     82  O   UNL A   1      37.385  34.904  41.411  1.00  0.00    -0.237 OA
ATOM     83  O   UNL A   1      36.624  32.991  40.053  1.00  0.00    -0.744 OA
ENDBRANCH  76  80
ENDBRANCH  49  73
BRANCH  61  84
ATOM     84  C   UNL A   1      44.054  28.786  35.480  1.00  0.00     0.023 A 
ATOM     85  C   UNL A   1      43.926  27.715  36.381  1.00  0.00     0.031 A 
ATOM     86  C   UNL A   1      45.338  29.322  35.271  1.00  0.00     0.131 A 
ATOM     87  C   UNL A   1      45.050  27.254  37.084  1.00  0.00     0.055 A 
ATOM     88  C   UNL A   1      46.463  28.812  35.919  1.00  0.00     0.041 A 
ATOM     89  F   UNL A   1      45.519  30.348  34.425  1.00  0.00    -0.206 F 
ATOM     90  C   UNL A   1      46.320  27.782  36.843  1.00  0.00     0.022 A 
BRANCH  87  91
ATOM     91  S   UNL A   1      44.813  26.025  38.397  1.00  0.00     0.124 S 
ATOM     92  O   UNL A   1      44.028  25.000  37.715  1.00  0.00    -0.237 OA
ATOM     93  O   UNL A   1      46.186  25.659  38.732  1.00  0.00    -0.237 OA
ATOM     94  O   UNL A   1      44.099  26.766  39.435  1.00  0.00    -0.744 OA
ENDBRANCH  87  91
ENDBRANCH  61  84
ENDBRANCH  35  36
ENDBRANCH  27  30
ENDBRANCH  25  26
ENDBRANCH  24  25
ENDBRANCH   1  24
TORSDOF 17
ENDMDL
MODEL 2
REMARK VINA RESULT:     -11.9      1.287      1.586
REMARK SMILES N#Cc1ccccc1S(=O)(=O)N1CCC(C(=O)NCCCCNC(=O)c2ccc(-c3c4nc(c(-c5cc(S(=O)(=O)[O-])ccc5F)c5ccc([nH]5)c(-c5cc(S(=O)(=O)[O-])ccc5F)c5nc(c(-c6cc(S(=O)(=O)[O-])ccc6F)c6ccc3[nH]6)C=C5)C=C4)cc2)CC1
REMARK SMILES IDX 20 1 19 2 18 3 16 4 17 5 15 7 12 8 13 9 90 10 14 11 89 12
REMARK SMILES IDX 9 13 10 14 11 15 8 16 3 17 4 18 5 19 7 20 6 21 2 22 1 23
REMARK SMILES IDX 21 24 22 25 23 26 24 27 25 29 26 30 27 31 88 32 28 33 87 34
REMARK SMILES IDX 29 35 30 36 31 37 81 38 32 39 86 40 80 41 82 42 33 43 85 44
REMARK SMILES IDX 79 45 78 46 34 48 66 49 46 50 65 51 47 52 50 53 64 54 83 55
REMARK SMILES IDX 48 56 49 57 63 59 84 60 51 61 35 62 36 63 44 64 37 65 43 66
REMARK SMILES IDX 45 67 42 68 38 69 39 70 40 71 41 72 67 73 68 74 76 75 69 76
REMARK SMILES IDX 75 77 77 78 74 79 70 80 71 81 72 82 73 83 52 84 53 85 61 86
REMARK SMILES IDX 54 87 60 88 62 89 59 90 55 91 56 92 57 93 58 94
REMARK H PARENT 18 6 23 28 82 47 50 58
REMARK Flexibility Score: inf
ROOT
ATOM      1  C   UNL A   1      32.105  30.186  26.863  1.00  0.00     0.023 C 
ENDROOT
BRANCH   1   2
ATOM      2  C   UNL A   1      32.569  29.686  25.499  1.00  0.00     0.116 C 
BRANCH   2   3
ATOM      3  N   UNL A   1      31.500  29.016  24.778  1.00  0.00    -0.356 N 
ATOM      4  C   UNL A   1      31.175  27.695  24.707  1.00  0.00     0.223 C 
ATOM      5  O   UNL A   1      30.233  27.363  23.985  1.00  0.00    -0.275 OA
ATOM      6  H   UNL A   1      30.916  29.613  24.255  1.00  0.00     0.163 HD
BRANCH   4   7
ATOM      7  C   UNL A   1      31.941  26.659  25.513  1.00  0.00     0.081 C 
ATOM      8  N   UNL A   1      32.963  23.945  25.836  1.00  0.00    -0.198 NA
ATOM      9  C   UNL A   1      31.642  24.247  26.412  1.00  0.00     0.103 C 
ATOM     10  C   UNL A   1      33.863  24.991  25.327  1.00  0.00     0.103 C 
ATOM     11  C   UNL A   1      31.010  25.560  26.007  1.00  0.00     0.030 C 
ATOM     12  C   UNL A   1      33.165  26.193  24.738  1.00  0.00     0.030 C 
BRANCH   8  13
ATOM     13  S   UNL A   1      33.684  22.504  26.352  1.00  0.00     0.244 S 
ATOM     14  O   UNL A   1      33.124  22.188  27.650  1.00  0.00    -0.207 OA
ATOM     15  O   UNL A   1      35.115  22.640  26.176  1.00  0.00    -0.207 OA
BRANCH  13  16
ATOM     16  C   UNL A   1      33.211  21.139  25.300  1.00  0.00     0.100 A 
ATOM     17  C   UNL A   1      32.914  21.156  23.936  1.00  0.00     0.072 A 
ATOM     18  C   UNL A   1      32.517  19.960  23.305  1.00  0.00     0.021 A 
ATOM     19  C   UNL A   1      32.439  18.759  24.002  1.00  0.00     0.001 A 
ATOM     20  C   UNL A   1      33.136  19.911  25.995  1.00  0.00     0.023 A 
ATOM     21  C   UNL A   1      32.759  18.733  25.351  1.00  0.00     0.001 A 
BRANCH  17  22
ATOM     22  C   UNL A   1      32.983  22.276  23.053  1.00  0.00     0.101 C 
ATOM     23  N   UNL A   1      32.922  23.180  22.335  1.00  0.00    -0.192 NA
ENDBRANCH  17  22
ENDBRANCH  13  16
ENDBRANCH   8  13
ENDBRANCH   4   7
ENDBRANCH   2   3
ENDBRANCH   1   2
BRANCH   1  24
ATOM     24  C   UNL A   1      31.874  31.691  26.927  1.00  0.00     0.023 C 
BRANCH  24  25
ATOM     25  C   UNL A   1      33.042  32.477  27.505  1.00  0.00     0.116 C 
BRANCH  25  26
ATOM     26  N   UNL A   1      32.717  33.880  27.724  1.00  0.00    -0.352 N 
ATOM     27  C   UNL A   1      33.242  34.741  28.656  1.00  0.00     0.251 C 
ATOM     28  H   UNL A   1      32.034  34.260  27.125  1.00  0.00     0.163 HD
ATOM     29  O   UNL A   1      32.742  35.847  28.828  1.00  0.00    -0.269 OA
BRANCH  27  30
ATOM     30  C   UNL A   1      34.388  34.290  29.468  1.00  0.00     0.039 A 
ATOM     31  C   UNL A   1      34.147  33.648  30.683  1.00  0.00     0.014 A 
ATOM     32  C   UNL A   1      35.692  34.437  28.985  1.00  0.00     0.014 A 
ATOM     33  C   UNL A   1      35.216  33.090  31.383  1.00  0.00     0.010 A 
ATOM     34  C   UNL A   1      36.740  33.799  29.636  1.00  0.00     0.010 A 
ATOM     35  C   UNL A   1      36.514  33.123  30.844  1.00  0.00    -0.014 A 
BRANCH  35  36
ATOM     36  C   UNL A   1      37.651  32.464  31.538  1.00  0.00     0.031 A 
ATOM     37  C   UNL A   1      38.366  31.316  30.880  1.00  0.00     0.074 A 
ATOM     38  C   UNL A   1      38.003  32.865  32.776  1.00  0.00     0.049 A 
ATOM     39  N   UNL A   1      39.332  30.568  31.344  1.00  0.00    -0.248 NA
ATOM     40  C   UNL A   1      37.912  30.942  29.531  1.00  0.00     0.031 C 
ATOM     41  C   UNL A   1      37.355  33.941  33.532  1.00  0.00     0.029 A 
ATOM     42  N   UNL A   1      38.985  32.415  33.622  1.00  0.00    -0.354 N 
ATOM     43  C   UNL A   1      39.597  29.633  30.350  1.00  0.00     0.074 A 
ATOM     44  C   UNL A   1      38.639  29.863  29.289  1.00  0.00     0.031 C 
ATOM     45  C   UNL A   1      37.978  34.086  34.713  1.00  0.00     0.029 A 
ATOM     46  C   UNL A   1      39.031  33.082  34.825  1.00  0.00     0.049 A 
ATOM     47  H   UNL A   1      39.600  31.682  33.389  1.00  0.00     0.167 HD
ATOM     48  C   UNL A   1      40.569  28.689  30.310  1.00  0.00     0.034 A 
ATOM     49  C   UNL A   1      39.820  32.894  35.902  1.00  0.00     0.034 A 
ATOM     50  C   UNL A   1      41.519  28.478  31.375  1.00  0.00     0.049 A 
ATOM     51  C   UNL A   1      40.865  31.807  35.854  1.00  0.00     0.074 A 
ATOM     52  C   UNL A   1      42.571  27.579  31.425  1.00  0.00     0.029 A 
ATOM     53  N   UNL A   1      41.530  29.166  32.582  1.00  0.00    -0.354 N 
ATOM     54  N   UNL A   1      41.136  30.963  34.883  1.00  0.00    -0.248 NA
ATOM     55  C   UNL A   1      41.720  31.655  37.038  1.00  0.00     0.031 C 
ATOM     56  C   UNL A   1      43.164  27.668  32.687  1.00  0.00     0.029 A 
ATOM     57  C   UNL A   1      42.545  28.687  33.395  1.00  0.00     0.049 A 
ATOM     58  H   UNL A   1      40.906  29.887  32.825  1.00  0.00     0.167 HD
ATOM     59  C   UNL A   1      42.215  30.204  35.331  1.00  0.00     0.074 A 
ATOM     60  C   UNL A   1      42.555  30.705  36.647  1.00  0.00     0.031 C 
ATOM     61  C   UNL A   1      42.870  29.190  34.709  1.00  0.00     0.034 A 
BRANCH  48  62
ATOM     62  C   UNL A   1      40.634  27.805  29.088  1.00  0.00     0.023 A 
ATOM     63  C   UNL A   1      41.589  28.014  28.077  1.00  0.00     0.031 A 
ATOM     64  C   UNL A   1      39.720  26.751  28.919  1.00  0.00     0.131 A 
ATOM     65  C   UNL A   1      41.561  27.231  26.913  1.00  0.00     0.055 A 
ATOM     66  C   UNL A   1      39.753  25.919  27.799  1.00  0.00     0.041 A 
ATOM     67  F   UNL A   1      38.769  26.517  29.837  1.00  0.00    -0.206 F 
ATOM     68  C   UNL A   1      40.669  26.166  26.780  1.00  0.00     0.022 A 
BRANCH  65  69
ATOM     69  S   UNL A   1      42.609  27.719  25.516  1.00  0.00     0.124 S 
ATOM     70  O   UNL A   1      43.891  27.947  26.177  1.00  0.00    -0.237 OA
ATOM     71  O   UNL A   1      42.537  26.552  24.644  1.00  0.00    -0.237 OA
ATOM     72  O   UNL A   1      41.957  28.923  25.003  1.00  0.00    -0.744 OA
ENDBRANCH  65  69
ENDBRANCH  48  62
BRANCH  49  73
ATOM     73  C   UNL A   1      39.647  33.731  37.126  1.00  0.00     0.023 A 
ATOM     74  C   UNL A   1      40.459  34.853  37.359  1.00  0.00     0.031 A 
ATOM     75  C   UNL A   1      38.703  33.389  38.111  1.00  0.00     0.131 A 
ATOM     76  C   UNL A   1      40.354  35.555  38.571  1.00  0.00     0.055 A 
ATOM     77  C   UNL A   1      38.558  34.129  39.286  1.00  0.00     0.041 A 
ATOM     78  F   UNL A   1      37.899  32.327  37.942  1.00  0.00    -0.206 F 
ATOM     79  C   UNL A   1      39.399  35.210  39.528  1.00  0.00     0.022 A 
BRANCH  76  80
ATOM     80  S   UNL A   1      41.565  36.859  38.926  1.00  0.00     0.124 S 
ATOM     81  O   UNL A   1      42.270  36.963  37.653  1.00  0.00    -0.237 OA
ATOM     82  O   UNL A   1      40.705  37.983  39.277  1.00  0.00    -0.237 OA
ATOM     83  O   UNL A   1      42.347  36.305  40.030  1.00  0.00    -0.744 OA
ENDBRANCH  76  80
ENDBRANCH  49  73
BRANCH  61  84
ATOM     84  C   UNL A   1      44.055  28.591  35.428  1.00  0.00     0.023 A 
ATOM     85  C   UNL A   1      43.912  27.538  36.349  1.00  0.00     0.031 A 
ATOM     86  C   UNL A   1      45.349  29.088  35.190  1.00  0.00     0.131 A 
ATOM     87  C   UNL A   1      45.034  27.058  37.042  1.00  0.00     0.055 A 
ATOM     88  C   UNL A   1      46.470  28.558  35.829  1.00  0.00     0.041 A 
ATOM     89  F   UNL A   1      45.545  30.095  34.324  1.00  0.00    -0.206 F 
ATOM     90  C   UNL A   1      46.314  27.548  36.772  1.00  0.00     0.022 A 
BRANCH  87  91
ATOM     91  S   UNL A   1      44.784  25.858  38.378  1.00  0.00     0.124 S 
ATOM     92  O   UNL A   1      46.150  25.620  38.832  1.00  0.00    -0.237 OA
ATOM     93  O   UNL A   1      43.925  26.594  39.301  1.00  0.00    -0.237 OA
ATOM     94  O   UNL A   1      44.147  24.726  37.708  1.00  0.00    -0.744 OA
ENDBRANCH  87  91
ENDBRANCH  61  84
ENDBRANCH  35  36
ENDBRANCH  27  30
ENDBRANCH  25  26
ENDBRANCH  24  25
ENDBRANCH   1  24
TORSDOF 17
ENDMDL
MODEL 3
REMARK VINA RESULT:     -11.9      1.634      2.186
REMARK SMILES N#Cc1ccccc1S(=O)(=O)N1CCC(C(=O)NCCCCNC(=O)c2ccc(-c3c4nc(c(-c5cc(S(=O)(=O)[O-])ccc5F)c5ccc([nH]5)c(-c5cc(S(=O)(=O)[O-])ccc5F)c5nc(c(-c6cc(S(=O)(=O)[O-])ccc6F)c6ccc3[nH]6)C=C5)C=C4)cc2)CC1
REMARK SMILES IDX 20 1 19 2 18 3 16 4 17 5 15 7 12 8 13 9 90 10 14 11 89 12
REMARK SMILES IDX 9 13 10 14 11 15 8 16 3 17 4 18 5 19 7 20 6 21 2 22 1 23
REMARK SMILES IDX 21 24 22 25 23 26 24 27 25 29 26 30 27 31 88 32 28 33 87 34
REMARK SMILES IDX 29 35 30 36 31 37 81 38 32 39 86 40 80 41 82 42 33 43 85 44
REMARK SMILES IDX 79 45 78 46 34 48 66 49 46 50 65 51 47 52 50 53 64 54 83 55
REMARK SMILES IDX 48 56 49 57 63 59 84 60 51 61 35 62 36 63 44 64 37 65 43 66
REMARK SMILES IDX 45 67 42 68 38 69 39 70 40 71 41 72 67 73 68 74 76 75 69 76
REMARK SMILES IDX 75 77 77 78 74 79 70 80 71 81 72 82 73 83 52 84 53 85 61 86
REMARK SMILES IDX 54 87 60 88 62 89 59 90 55 91 56 92 57 93 58 94
REMARK H PARENT 18 6 23 28 82 47 50 58
REMARK Flexibility Score: inf
ROOT
ATOM      1  C   UNL A   1      32.111  30.171  26.918  1.00  0.00     0.023 C 
ENDROOT
BRANCH   1   2
ATOM      2  C   UNL A   1      32.043  29.608  25.503  1.00  0.00     0.116 C 
BRANCH   2   3
ATOM      3  N   UNL A   1      30.938  30.178  24.749  1.00  0.00    -0.356 N 
ATOM      4  C   UNL A   1      30.230  29.672  23.701  1.00  0.00     0.223 C 
ATOM      5  O   UNL A   1      29.352  30.373  23.196  1.00  0.00    -0.275 OA
ATOM      6  H   UNL A   1      30.657  31.076  25.041  1.00  0.00     0.163 HD
BRANCH   4   7
ATOM      7  C   UNL A   1      30.501  28.270  23.180  1.00  0.00     0.081 C 
ATOM      8  N   UNL A   1      31.931  25.732  23.354  1.00  0.00    -0.198 NA
ATOM      9  C   UNL A   1      32.502  26.777  22.489  1.00  0.00     0.103 C 
ATOM     10  C   UNL A   1      30.581  25.832  23.930  1.00  0.00     0.103 C 
ATOM     11  C   UNL A   1      31.912  28.163  22.618  1.00  0.00     0.030 C 
ATOM     12  C   UNL A   1      30.128  27.239  24.236  1.00  0.00     0.030 C 
BRANCH   8  13
ATOM     13  S   UNL A   1      32.558  24.174  23.148  1.00  0.00     0.244 S 
ATOM     14  O   UNL A   1      33.276  24.166  21.889  1.00  0.00    -0.207 OA
ATOM     15  O   UNL A   1      31.486  23.232  23.395  1.00  0.00    -0.207 OA
BRANCH  13  16
ATOM     16  C   UNL A   1      33.794  23.812  24.386  1.00  0.00     0.100 A 
ATOM     17  C   UNL A   1      33.641  23.748  25.773  1.00  0.00     0.072 A 
ATOM     18  C   UNL A   1      34.769  23.487  26.577  1.00  0.00     0.021 A 
ATOM     19  C   UNL A   1      36.025  23.267  26.021  1.00  0.00     0.001 A 
ATOM     20  C   UNL A   1      35.073  23.579  23.834  1.00  0.00     0.023 A 
ATOM     21  C   UNL A   1      36.175  23.304  24.643  1.00  0.00     0.001 A 
BRANCH  17  22
ATOM     22  C   UNL A   1      32.430  23.899  26.515  1.00  0.00     0.101 C 
ATOM     23  N   UNL A   1      31.400  24.056  27.016  1.00  0.00    -0.192 NA
ENDBRANCH  17  22
ENDBRANCH  13  16
ENDBRANCH   8  13
ENDBRANCH   4   7
ENDBRANCH   2   3
ENDBRANCH   1   2
BRANCH   1  24
ATOM     24  C   UNL A   1      31.733  31.644  27.019  1.00  0.00     0.023 C 
BRANCH  24  25
ATOM     25  C   UNL A   1      32.915  32.599  26.947  1.00  0.00     0.116 C 
BRANCH  25  26
ATOM     26  N   UNL A   1      32.658  33.859  27.630  1.00  0.00    -0.352 N 
ATOM     27  C   UNL A   1      33.285  34.371  28.740  1.00  0.00     0.251 C 
ATOM     28  H   UNL A   1      31.944  34.417  27.246  1.00  0.00     0.163 HD
ATOM     29  O   UNL A   1      32.839  35.366  29.299  1.00  0.00    -0.269 OA
BRANCH  27  30
ATOM     30  C   UNL A   1      34.475  33.673  29.264  1.00  0.00     0.039 A 
ATOM     31  C   UNL A   1      35.734  34.236  29.060  1.00  0.00     0.014 A 
ATOM     32  C   UNL A   1      34.329  32.506  30.020  1.00  0.00     0.014 A 
ATOM     33  C   UNL A   1      36.846  33.662  29.676  1.00  0.00     0.010 A 
ATOM     34  C   UNL A   1      35.421  31.993  30.707  1.00  0.00     0.010 A 
ATOM     35  C   UNL A   1      36.692  32.562  30.539  1.00  0.00    -0.014 A 
BRANCH  35  36
ATOM     36  C   UNL A   1      37.854  31.987  31.266  1.00  0.00     0.031 A 
ATOM     37  C   UNL A   1      38.666  30.892  30.630  1.00  0.00     0.074 A 
ATOM     38  C   UNL A   1      38.142  32.414  32.511  1.00  0.00     0.049 A 
ATOM     39  N   UNL A   1      39.670  30.215  31.123  1.00  0.00    -0.248 NA
ATOM     40  C   UNL A   1      38.277  30.485  29.271  1.00  0.00     0.031 C 
ATOM     41  C   UNL A   1      37.399  33.442  33.246  1.00  0.00     0.029 A 
ATOM     42  N   UNL A   1      39.130  32.035  33.385  1.00  0.00    -0.354 N 
ATOM     43  C   UNL A   1      40.027  29.299  30.140  1.00  0.00     0.074 A 
ATOM     44  C   UNL A   1      39.085  29.460  29.052  1.00  0.00     0.031 C 
ATOM     45  C   UNL A   1      37.978  33.632  34.443  1.00  0.00     0.029 A 
ATOM     46  C   UNL A   1      39.095  32.705  34.587  1.00  0.00     0.049 A 
ATOM     47  H   UNL A   1      39.802  31.348  33.171  1.00  0.00     0.167 HD
ATOM     48  C   UNL A   1      41.065  28.427  30.129  1.00  0.00     0.034 A 
ATOM     49  C   UNL A   1      39.866  32.575  35.686  1.00  0.00     0.034 A 
ATOM     50  C   UNL A   1      41.998  28.285  31.220  1.00  0.00     0.049 A 
ATOM     51  C   UNL A   1      40.987  31.566  35.669  1.00  0.00     0.074 A 
ATOM     52  C   UNL A   1      43.108  27.463  31.301  1.00  0.00     0.029 A 
ATOM     53  N   UNL A   1      41.926  28.974  32.425  1.00  0.00    -0.354 N 
ATOM     54  N   UNL A   1      41.343  30.742  34.709  1.00  0.00    -0.248 NA
ATOM     55  C   UNL A   1      41.817  31.476  36.877  1.00  0.00     0.031 C 
ATOM     56  C   UNL A   1      43.659  27.596  32.579  1.00  0.00     0.029 A 
ATOM     57  C   UNL A   1      42.951  28.569  33.267  1.00  0.00     0.049 A 
ATOM     58  H   UNL A   1      41.247  29.649  32.649  1.00  0.00     0.167 HD
ATOM     59  C   UNL A   1      42.461  30.062  35.188  1.00  0.00     0.074 A 
ATOM     60  C   UNL A   1      42.728  30.587  36.512  1.00  0.00     0.031 C 
ATOM     61  C   UNL A   1      43.202  29.096  34.588  1.00  0.00     0.034 A 
BRANCH  48  62
ATOM     62  C   UNL A   1      41.226  27.549  28.912  1.00  0.00     0.023 A 
ATOM     63  C   UNL A   1      42.232  27.786  27.959  1.00  0.00     0.031 A 
ATOM     64  C   UNL A   1      40.353  26.470  28.689  1.00  0.00     0.131 A 
ATOM     65  C   UNL A   1      42.293  27.006  26.794  1.00  0.00     0.055 A 
ATOM     66  C   UNL A   1      40.474  25.642  27.572  1.00  0.00     0.041 A 
ATOM     67  F   UNL A   1      39.357  26.207  29.550  1.00  0.00    -0.206 F 
ATOM     68  C   UNL A   1      41.441  25.916  26.609  1.00  0.00     0.022 A 
BRANCH  65  69
ATOM     69  S   UNL A   1      43.407  27.527  25.461  1.00  0.00     0.124 S 
ATOM     70  O   UNL A   1      44.105  28.649  26.084  1.00  0.00    -0.237 OA
ATOM     71  O   UNL A   1      44.204  26.328  25.229  1.00  0.00    -0.237 OA
ATOM     72  O   UNL A   1      42.497  27.892  24.377  1.00  0.00    -0.744 OA
ENDBRANCH  65  69
ENDBRANCH  48  62
BRANCH  49  73
ATOM     73  C   UNL A   1      39.601  33.400  36.902  1.00  0.00     0.023 A 
ATOM     74  C   UNL A   1      38.917  32.867  38.005  1.00  0.00     0.031 A 
ATOM     75  C   UNL A   1      39.979  34.754  36.955  1.00  0.00     0.131 A 
ATOM     76  C   UNL A   1      38.580  33.695  39.088  1.00  0.00     0.055 A 
ATOM     77  C   UNL A   1      39.698  35.557  38.062  1.00  0.00     0.041 A 
ATOM     78  F   UNL A   1      40.636  35.317  35.929  1.00  0.00    -0.206 F 
ATOM     79  C   UNL A   1      38.979  35.032  39.130  1.00  0.00     0.022 A 
BRANCH  76  80
ATOM     80  S   UNL A   1      37.510  33.027  40.392  1.00  0.00     0.124 S 
ATOM     81  O   UNL A   1      38.234  31.821  40.779  1.00  0.00    -0.237 OA
ATOM     82  O   UNL A   1      37.505  34.113  41.366  1.00  0.00    -0.237 OA
ATOM     83  O   UNL A   1      36.239  32.800  39.706  1.00  0.00    -0.744 OA
ENDBRANCH  76  80
ENDBRANCH  49  73
BRANCH  61  84
ATOM     84  C   UNL A   1      44.407  28.583  35.341  1.00  0.00     0.023 A 
ATOM     85  C   UNL A   1      44.327  27.483  36.212  1.00  0.00     0.031 A 
ATOM     86  C   UNL A   1      45.656  29.212  35.186  1.00  0.00     0.131 A 
ATOM     87  C   UNL A   1      45.458  27.084  36.940  1.00  0.00     0.055 A 
ATOM     88  C   UNL A   1      46.793  28.766  35.859  1.00  0.00     0.041 A 
ATOM     89  F   UNL A   1      45.791  30.270  34.370  1.00  0.00    -0.206 F 
ATOM     90  C   UNL A   1      46.695  27.705  36.753  1.00  0.00     0.022 A 
BRANCH  87  91
ATOM     91  S   UNL A   1      45.267  25.808  38.216  1.00  0.00     0.124 S 
ATOM     92  O   UNL A   1      44.211  24.973  37.654  1.00  0.00    -0.237 OA
ATOM     93  O   UNL A   1      46.598  25.210  38.259  1.00  0.00    -0.237 OA
ATOM     94  O   UNL A   1      44.891  26.568  39.407  1.00  0.00    -0.744 OA
ENDBRANCH  87  91
ENDBRANCH  61  84
ENDBRANCH  35  36
ENDBRANCH  27  30
ENDBRANCH  25  26
ENDBRANCH  24  25
ENDBRANCH   1  24
TORSDOF 17
ENDMDL
