MODEL 1
REMARK VINA RESULT:     -11.9      0.000      0.000
REMARK SMILES O=C(Cc1ccccc1C(=O)NCCCCNC(=O)c1ccc(-c2c3nc(c(-c4cc(S(=O)(=O)[O-])ccc4F)c4ccc([nH]4)c(-c4cc(S(=O)(=O)[O-])ccc4F)c4nc(c(-c5cc(S(=O)(=O)[O-])ccc5F)c5ccc2[nH]5)C=C4)C=C3)cc1)Nc1ccc(S(=O)(=O)N2CCCC2)cc1
REMARK SMILES IDX 13 1 12 2 10 3 11 4 9 6 4 7 5 8 6 9 8 10 7 11 3 12 2 13 1 14
REMARK SMILES IDX 83 15 84 17 85 18 97 19 86 20 96 21 87 22 88 23 89 24 90 25
REMARK SMILES IDX 91 26 92 27 95 28 93 29 94 30 14 31 15 32 16 33 17 34 18 35
REMARK SMILES IDX 19 37 20 38 21 39 82 40 22 41 81 42 23 43 24 44 25 45 75 46
REMARK SMILES IDX 26 47 80 48 74 49 76 50 27 51 79 52 73 53 72 54 28 56 60 57
REMARK SMILES IDX 40 58 59 59 41 60 44 61 58 62 77 63 42 64 43 65 57 67 78 68
REMARK SMILES IDX 45 69 29 70 30 71 38 72 31 73 37 74 39 75 36 76 32 77 33 78
REMARK SMILES IDX 34 79 35 80 61 81 62 82 70 83 63 84 69 85 71 86 68 87 64 88
REMARK SMILES IDX 65 89 66 90 67 91 46 92 47 93 55 94 48 95 54 96 56 97 53 98
REMARK SMILES IDX 49 99 50 100 51 101 52 102
REMARK H PARENT 12 5 83 16 17 36 76 55 44 66
REMARK Flexibility Score: inf
ROOT
ATOM      1  C   UNL A   1      31.780  29.171  26.637  1.00  0.00     0.116 C 
ENDROOT
BRANCH   1   2
ATOM      2  N   UNL A   1      31.970  29.042  25.204  1.00  0.00    -0.352 N 
ATOM      3  C   UNL A   1      31.297  29.283  24.039  1.00  0.00     0.251 C 
ATOM      4  O   UNL A   1      31.982  29.046  23.033  1.00  0.00    -0.269 OA
ATOM      5  H   UNL A   1      32.858  28.664  25.010  1.00  0.00     0.163 HD
BRANCH   3   6
ATOM      6  C   UNL A   1      29.891  29.786  23.790  1.00  0.00     0.043 A 
ATOM      7  C   UNL A   1      28.793  29.161  23.149  1.00  0.00    -0.026 A 
ATOM      8  C   UNL A   1      27.663  29.940  22.795  1.00  0.00     0.005 A 
ATOM      9  C   UNL A   1      27.574  31.293  23.102  1.00  0.00     0.000 A 
ATOM     10  C   UNL A   1      29.747  31.159  24.111  1.00  0.00     0.014 A 
ATOM     11  C   UNL A   1      28.613  31.902  23.779  1.00  0.00     0.001 A 
BRANCH   7  12
ATOM     12  C   UNL A   1      28.794  27.705  22.813  1.00  0.00     0.136 C 
BRANCH  12  13
ATOM     13  C   UNL A   1      29.375  26.703  23.771  1.00  0.00     0.228 C 
ATOM     14  O   UNL A   1      28.688  26.238  24.678  1.00  0.00    -0.274 OA
ATOM     15  N   UNL A   1      30.681  26.316  23.484  1.00  0.00    -0.326 N 
ATOM     16  H   UNL A   1      31.236  26.890  22.908  1.00  0.00     0.169 HD
BRANCH  15  17
ATOM     17  C   UNL A   1      31.226  25.127  23.995  1.00  0.00     0.041 A 
ATOM     18  C   UNL A   1      31.076  23.917  23.316  1.00  0.00     0.027 A 
ATOM     19  C   UNL A   1      31.941  25.164  25.189  1.00  0.00     0.027 A 
ATOM     20  C   UNL A   1      31.774  22.784  23.763  1.00  0.00     0.024 A 
ATOM     21  C   UNL A   1      32.607  24.039  25.645  1.00  0.00     0.024 A 
ATOM     22  C   UNL A   1      32.573  22.860  24.913  1.00  0.00     0.082 A 
BRANCH  22  23
ATOM     23  S   UNL A   1      33.605  21.471  25.341  1.00  0.00     0.243 S 
ATOM     24  O   UNL A   1      33.318  21.155  26.721  1.00  0.00    -0.207 OA
ATOM     25  O   UNL A   1      33.405  20.492  24.288  1.00  0.00    -0.207 OA
BRANCH  23  26
ATOM     26  N   UNL A   1      35.205  21.985  25.254  1.00  0.00    -0.198 NA
ATOM     27  C   UNL A   1      35.612  23.026  24.302  1.00  0.00     0.102 C 
ATOM     28  C   UNL A   1      36.321  21.060  25.522  1.00  0.00     0.102 C 
ATOM     29  C   UNL A   1      36.804  22.443  23.563  1.00  0.00     0.018 C 
ATOM     30  C   UNL A   1      37.418  21.435  24.525  1.00  0.00     0.018 C 
ENDBRANCH  23  26
ENDBRANCH  22  23
ENDBRANCH  15  17
ENDBRANCH  12  13
ENDBRANCH   7  12
ENDBRANCH   3   6
ENDBRANCH   1   2
BRANCH   1  31
ATOM     31  C   UNL A   1      32.519  30.400  27.186  1.00  0.00     0.023 C 
BRANCH  31  32
ATOM     32  C   UNL A   1      31.770  31.725  27.059  1.00  0.00     0.023 C 
BRANCH  32  33
ATOM     33  C   UNL A   1      32.657  32.914  26.726  1.00  0.00     0.116 C 
BRANCH  33  34
ATOM     34  N   UNL A   1      32.391  34.090  27.544  1.00  0.00    -0.352 N 
ATOM     35  C   UNL A   1      33.112  34.535  28.631  1.00  0.00     0.251 C 
ATOM     36  H   UNL A   1      31.606  34.628  27.291  1.00  0.00     0.163 HD
ATOM     37  O   UNL A   1      32.727  35.501  29.281  1.00  0.00    -0.269 OA
BRANCH  35  38
ATOM     38  C   UNL A   1      34.323  33.783  29.028  1.00  0.00     0.039 A 
ATOM     39  C   UNL A   1      35.580  34.321  28.745  1.00  0.00     0.014 A 
ATOM     40  C   UNL A   1      34.206  32.611  29.780  1.00  0.00     0.014 A 
ATOM     41  C   UNL A   1      36.721  33.727  29.292  1.00  0.00     0.010 A 
ATOM     42  C   UNL A   1      35.333  32.073  30.390  1.00  0.00     0.010 A 
ATOM     43  C   UNL A   1      36.602  32.628  30.158  1.00  0.00    -0.014 A 
BRANCH  43  44
ATOM     44  C   UNL A   1      37.785  32.027  30.828  1.00  0.00     0.031 A 
ATOM     45  C   UNL A   1      38.594  30.983  30.108  1.00  0.00     0.074 A 
ATOM     46  C   UNL A   1      38.078  32.350  32.104  1.00  0.00     0.049 A 
ATOM     47  N   UNL A   1      39.571  30.237  30.552  1.00  0.00    -0.248 NA
ATOM     48  C   UNL A   1      38.220  30.717  28.710  1.00  0.00     0.031 C 
ATOM     49  C   UNL A   1      37.343  33.316  32.925  1.00  0.00     0.029 A 
ATOM     50  N   UNL A   1      39.063  31.890  32.942  1.00  0.00    -0.354 N 
ATOM     51  C   UNL A   1      39.914  29.396  29.497  1.00  0.00     0.074 A 
ATOM     52  C   UNL A   1      38.993  29.683  28.417  1.00  0.00     0.031 C 
ATOM     53  C   UNL A   1      37.914  33.389  34.138  1.00  0.00     0.029 A 
ATOM     54  C   UNL A   1      39.027  32.446  34.200  1.00  0.00     0.049 A 
ATOM     55  H   UNL A   1      39.733  31.224  32.668  1.00  0.00     0.167 HD
ATOM     56  C   UNL A   1      40.918  28.487  29.426  1.00  0.00     0.034 A 
ATOM     57  C   UNL A   1      39.794  32.212  35.285  1.00  0.00     0.034 A 
ATOM     58  C   UNL A   1      41.843  28.234  30.503  1.00  0.00     0.049 A 
ATOM     59  C   UNL A   1      40.904  31.195  35.184  1.00  0.00     0.074 A 
ATOM     60  C   UNL A   1      42.928  27.376  30.523  1.00  0.00     0.029 A 
ATOM     61  N   UNL A   1      41.792  28.838  31.753  1.00  0.00    -0.354 N 
ATOM     62  N   UNL A   1      41.241  30.437  34.166  1.00  0.00    -0.248 NA
ATOM     63  C   UNL A   1      41.745  31.013  36.374  1.00  0.00     0.031 C 
ATOM     64  C   UNL A   1      43.500  27.420  31.800  1.00  0.00     0.029 A 
ATOM     65  C   UNL A   1      42.814  28.357  32.556  1.00  0.00     0.049 A 
ATOM     66  H   UNL A   1      41.127  29.511  32.027  1.00  0.00     0.167 HD
ATOM     67  C   UNL A   1      42.354  29.712  34.585  1.00  0.00     0.074 A 
ATOM     68  C   UNL A   1      42.637  30.133  35.942  1.00  0.00     0.031 C 
ATOM     69  C   UNL A   1      43.081  28.788  33.908  1.00  0.00     0.034 A 
BRANCH  56  70
ATOM     70  C   UNL A   1      41.044  27.696  28.147  1.00  0.00     0.023 A 
ATOM     71  C   UNL A   1      40.611  26.362  28.061  1.00  0.00     0.031 A 
ATOM     72  C   UNL A   1      41.643  28.268  27.011  1.00  0.00     0.131 A 
ATOM     73  C   UNL A   1      40.863  25.618  26.899  1.00  0.00     0.055 A 
ATOM     74  C   UNL A   1      41.810  27.548  25.825  1.00  0.00     0.041 A 
ATOM     75  F   UNL A   1      42.094  29.532  27.038  1.00  0.00    -0.206 F 
ATOM     76  C   UNL A   1      41.434  26.209  25.771  1.00  0.00     0.022 A 
BRANCH  73  77
ATOM     77  S   UNL A   1      40.572  23.828  26.941  1.00  0.00     0.124 S 
ATOM     78  O   UNL A   1      40.830  23.522  28.346  1.00  0.00    -0.237 OA
ATOM     79  O   UNL A   1      39.182  23.722  26.509  1.00  0.00    -0.237 OA
ATOM     80  O   UNL A   1      41.560  23.297  26.005  1.00  0.00    -0.744 OA
ENDBRANCH  73  77
ENDBRANCH  56  70
BRANCH  57  81
ATOM     81  C   UNL A   1      39.546  32.940  36.562  1.00  0.00     0.023 A 
ATOM     82  C   UNL A   1      38.667  32.425  37.528  1.00  0.00     0.031 A 
ATOM     83  C   UNL A   1      40.146  34.186  36.815  1.00  0.00     0.131 A 
ATOM     84  C   UNL A   1      38.371  33.174  38.677  1.00  0.00     0.055 A 
ATOM     85  C   UNL A   1      39.889  34.905  37.985  1.00  0.00     0.041 A 
ATOM     86  F   UNL A   1      41.000  34.722  35.928  1.00  0.00    -0.206 F 
ATOM     87  C   UNL A   1      38.985  34.405  38.918  1.00  0.00     0.022 A 
BRANCH  84  88
ATOM     88  S   UNL A   1      37.104  32.552  39.816  1.00  0.00     0.124 S 
ATOM     89  O   UNL A   1      35.956  32.402  38.929  1.00  0.00    -0.237 OA
ATOM     90  O   UNL A   1      37.710  31.314  40.296  1.00  0.00    -0.237 OA
ATOM     91  O   UNL A   1      36.990  33.615  40.812  1.00  0.00    -0.744 OA
ENDBRANCH  84  88
ENDBRANCH  57  81
BRANCH  69  92
ATOM     92  C   UNL A   1      44.287  28.216  34.609  1.00  0.00     0.023 A 
ATOM     93  C   UNL A   1      44.208  27.048  35.386  1.00  0.00     0.031 A 
ATOM     94  C   UNL A   1      45.534  28.857  34.499  1.00  0.00     0.131 A 
ATOM     95  C   UNL A   1      45.346  26.583  36.063  1.00  0.00     0.055 A 
ATOM     96  C   UNL A   1      46.674  28.359  35.131  1.00  0.00     0.041 A 
ATOM     97  F   UNL A   1      45.663  29.977  33.770  1.00  0.00    -0.206 F 
ATOM     98  C   UNL A   1      46.581  27.223  35.928  1.00  0.00     0.022 A 
BRANCH  95  99
ATOM     99  S   UNL A   1      45.173  25.173  37.191  1.00  0.00     0.124 S 
ATOM    100  O   UNL A   1      43.739  24.910  37.132  1.00  0.00    -0.237 OA
ATOM    101  O   UNL A   1      46.031  24.169  36.569  1.00  0.00    -0.237 OA
ATOM    102  O   UNL A   1      45.656  25.694  38.469  1.00  0.00    -0.744 OA
ENDBRANCH  95  99
ENDBRANCH  69  92
ENDBRANCH  43  44
ENDBRANCH  35  38
ENDBRANCH  33  34
ENDBRANCH  32  33
ENDBRANCH  31  32
ENDBRANCH   1  31
TORSDOF 19
ENDMDL
MODEL 2
REMARK VINA RESULT:     -11.6      2.026      7.688
REMARK SMILES O=C(Cc1ccccc1C(=O)NCCCCNC(=O)c1ccc(-c2c3nc(c(-c4cc(S(=O)(=O)[O-])ccc4F)c4ccc([nH]4)c(-c4cc(S(=O)(=O)[O-])ccc4F)c4nc(c(-c5cc(S(=O)(=O)[O-])ccc5F)c5ccc2[nH]5)C=C4)C=C3)cc1)Nc1ccc(S(=O)(=O)N2CCCC2)cc1
REMARK SMILES IDX 13 1 12 2 10 3 11 4 9 6 4 7 5 8 6 9 8 10 7 11 3 12 2 13 1 14
REMARK SMILES IDX 83 15 84 17 85 18 97 19 86 20 96 21 87 22 88 23 89 24 90 25
REMARK SMILES IDX 91 26 92 27 95 28 93 29 94 30 14 31 15 32 16 33 17 34 18 35
REMARK SMILES IDX 19 37 20 38 21 39 82 40 22 41 81 42 23 43 24 44 25 45 75 46
REMARK SMILES IDX 26 47 80 48 74 49 76 50 27 51 79 52 73 53 72 54 28 56 60 57
REMARK SMILES IDX 40 58 59 59 41 60 44 61 58 62 77 63 42 64 43 65 57 67 78 68
REMARK SMILES IDX 45 69 29 70 30 71 38 72 31 73 37 74 39 75 36 76 32 77 33 78
REMARK SMILES IDX 34 79 35 80 61 81 62 82 70 83 63 84 69 85 71 86 68 87 64 88
REMARK SMILES IDX 65 89 66 90 67 91 46 92 47 93 55 94 48 95 54 96 56 97 53 98
REMARK SMILES IDX 49 99 50 100 51 101 52 102
REMARK H PARENT 12 5 83 16 17 36 76 55 44 66
REMARK Flexibility Score: inf
ROOT
ATOM      1  C   UNL A   1      31.650  25.836  26.140  1.00  0.00     0.116 C 
ENDROOT
BRANCH   1   2
ATOM      2  N   UNL A   1      31.023  25.180  25.008  1.00  0.00    -0.352 N 
ATOM      3  C   UNL A   1      30.421  25.497  23.823  1.00  0.00     0.251 C 
ATOM      4  O   UNL A   1      30.107  24.496  23.162  1.00  0.00    -0.269 OA
ATOM      5  H   UNL A   1      31.033  24.203  25.132  1.00  0.00     0.163 HD
BRANCH   3   6
ATOM      6  C   UNL A   1      30.091  26.839  23.204  1.00  0.00     0.043 A 
ATOM      7  C   UNL A   1      30.893  27.718  22.435  1.00  0.00    -0.026 A 
ATOM      8  C   UNL A   1      30.444  29.042  22.203  1.00  0.00     0.005 A 
ATOM      9  C   UNL A   1      29.214  29.495  22.666  1.00  0.00     0.000 A 
ATOM     10  C   UNL A   1      28.833  27.332  23.631  1.00  0.00     0.014 A 
ATOM     11  C   UNL A   1      28.395  28.631  23.367  1.00  0.00     0.001 A 
BRANCH   7  12
ATOM     12  C   UNL A   1      32.214  27.300  21.874  1.00  0.00     0.136 C 
BRANCH  12  13
ATOM     13  C   UNL A   1      33.060  26.286  22.593  1.00  0.00     0.228 C 
ATOM     14  O   UNL A   1      33.495  26.524  23.718  1.00  0.00    -0.274 OA
ATOM     15  N   UNL A   1      33.218  25.079  21.919  1.00  0.00    -0.326 N 
ATOM     16  H   UNL A   1      33.052  25.047  20.948  1.00  0.00     0.169 HD
BRANCH  15  17
ATOM     17  C   UNL A   1      33.607  23.908  22.586  1.00  0.00     0.041 A 
ATOM     18  C   UNL A   1      34.868  23.800  23.174  1.00  0.00     0.027 A 
ATOM     19  C   UNL A   1      32.713  22.844  22.674  1.00  0.00     0.027 A 
ATOM     20  C   UNL A   1      35.164  22.686  23.976  1.00  0.00     0.024 A 
ATOM     21  C   UNL A   1      33.015  21.733  23.442  1.00  0.00     0.024 A 
ATOM     22  C   UNL A   1      34.214  21.667  24.139  1.00  0.00     0.082 A 
BRANCH  22  23
ATOM     23  S   UNL A   1      34.533  20.370  25.319  1.00  0.00     0.243 S 
ATOM     24  O   UNL A   1      35.968  20.227  25.395  1.00  0.00    -0.207 OA
ATOM     25  O   UNL A   1      33.748  20.704  26.493  1.00  0.00    -0.207 OA
BRANCH  23  26
ATOM     26  N   UNL A   1      33.907  18.943  24.683  1.00  0.00    -0.198 NA
ATOM     27  C   UNL A   1      32.593  18.442  25.107  1.00  0.00     0.102 C 
ATOM     28  C   UNL A   1      34.788  17.829  24.292  1.00  0.00     0.102 C 
ATOM     29  C   UNL A   1      32.830  16.993  25.496  1.00  0.00     0.018 C 
ATOM     30  C   UNL A   1      34.043  16.554  24.687  1.00  0.00     0.018 C 
ENDBRANCH  23  26
ENDBRANCH  22  23
ENDBRANCH  15  17
ENDBRANCH  12  13
ENDBRANCH   7  12
ENDBRANCH   3   6
ENDBRANCH   1   2
BRANCH   1  31
ATOM     31  C   UNL A   1      30.982  27.187  26.438  1.00  0.00     0.023 C 
BRANCH  31  32
ATOM     32  C   UNL A   1      31.796  28.419  26.049  1.00  0.00     0.023 C 
BRANCH  32  33
ATOM     33  C   UNL A   1      32.416  29.154  27.227  1.00  0.00     0.116 C 
BRANCH  33  34
ATOM     34  N   UNL A   1      32.323  30.605  27.127  1.00  0.00    -0.352 N 
ATOM     35  C   UNL A   1      33.313  31.528  27.388  1.00  0.00     0.251 C 
ATOM     36  H   UNL A   1      31.452  30.967  26.842  1.00  0.00     0.163 HD
ATOM     37  O   UNL A   1      33.072  32.730  27.341  1.00  0.00    -0.269 OA
BRANCH  35  38
ATOM     38  C   UNL A   1      34.650  31.034  27.782  1.00  0.00     0.039 A 
ATOM     39  C   UNL A   1      35.673  31.954  28.018  1.00  0.00     0.014 A 
ATOM     40  C   UNL A   1      34.850  29.673  28.028  1.00  0.00     0.014 A 
ATOM     41  C   UNL A   1      36.873  31.518  28.586  1.00  0.00     0.010 A 
ATOM     42  C   UNL A   1      36.011  29.256  28.669  1.00  0.00     0.010 A 
ATOM     43  C   UNL A   1      37.032  30.174  28.961  1.00  0.00    -0.014 A 
BRANCH  43  44
ATOM     44  C   UNL A   1      38.260  29.693  29.647  1.00  0.00     0.031 A 
ATOM     45  C   UNL A   1      38.624  30.253  30.995  1.00  0.00     0.074 A 
ATOM     46  C   UNL A   1      39.088  28.828  29.026  1.00  0.00     0.049 A 
ATOM     47  N   UNL A   1      39.709  30.078  31.702  1.00  0.00    -0.248 NA
ATOM     48  C   UNL A   1      37.647  31.167  31.608  1.00  0.00     0.031 C 
ATOM     49  C   UNL A   1      38.869  28.247  27.699  1.00  0.00     0.029 A 
ATOM     50  N   UNL A   1      40.290  28.297  29.423  1.00  0.00    -0.354 N 
ATOM     51  C   UNL A   1      39.558  30.877  32.831  1.00  0.00     0.074 A 
ATOM     52  C   UNL A   1      38.305  31.586  32.677  1.00  0.00     0.031 C 
ATOM     53  C   UNL A   1      39.890  27.428  27.403  1.00  0.00     0.029 A 
ATOM     54  C   UNL A   1      40.860  27.457  28.493  1.00  0.00     0.049 A 
ATOM     55  H   UNL A   1      40.707  28.499  30.291  1.00  0.00     0.167 HD
ATOM     56  C   UNL A   1      40.375  30.992  33.907  1.00  0.00     0.034 A 
ATOM     57  C   UNL A   1      42.036  26.797  28.513  1.00  0.00     0.034 A 
ATOM     58  C   UNL A   1      41.607  30.258  34.056  1.00  0.00     0.049 A 
ATOM     59  C   UNL A   1      42.930  26.940  29.719  1.00  0.00     0.074 A 
ATOM     60  C   UNL A   1      42.486  30.255  35.125  1.00  0.00     0.029 A 
ATOM     61  N   UNL A   1      42.137  29.394  33.106  1.00  0.00    -0.354 N 
ATOM     62  N   UNL A   1      42.754  27.669  30.797  1.00  0.00    -0.248 NA
ATOM     63  C   UNL A   1      44.176  26.161  29.717  1.00  0.00     0.031 C 
ATOM     64  C   UNL A   1      43.572  29.434  34.800  1.00  0.00     0.029 A 
ATOM     65  C   UNL A   1      43.339  28.869  33.556  1.00  0.00     0.049 A 
ATOM     66  H   UNL A   1      41.719  29.184  32.239  1.00  0.00     0.167 HD
ATOM     67  C   UNL A   1      43.851  27.409  31.614  1.00  0.00     0.074 A 
ATOM     68  C   UNL A   1      44.676  26.449  30.910  1.00  0.00     0.031 C 
ATOM     69  C   UNL A   1      44.147  27.912  32.839  1.00  0.00     0.034 A 
BRANCH  56  70
ATOM     70  C   UNL A   1      39.961  31.960  34.988  1.00  0.00     0.023 A 
ATOM     71  C   UNL A   1      39.216  31.543  36.104  1.00  0.00     0.031 A 
ATOM     72  C   UNL A   1      40.279  33.326  34.883  1.00  0.00     0.131 A 
ATOM     73  C   UNL A   1      38.737  32.491  37.021  1.00  0.00     0.055 A 
ATOM     74  C   UNL A   1      39.875  34.252  35.847  1.00  0.00     0.041 A 
ATOM     75  F   UNL A   1      40.971  33.788  33.830  1.00  0.00    -0.206 F 
ATOM     76  C   UNL A   1      39.084  33.839  36.915  1.00  0.00     0.022 A 
BRANCH  73  77
ATOM     77  S   UNL A   1      37.528  31.956  38.263  1.00  0.00     0.124 S 
ATOM     78  O   UNL A   1      37.214  30.605  37.803  1.00  0.00    -0.237 OA
ATOM     79  O   UNL A   1      38.288  32.047  39.504  1.00  0.00    -0.237 OA
ATOM     80  O   UNL A   1      36.441  32.922  38.123  1.00  0.00    -0.744 OA
ENDBRANCH  73  77
ENDBRANCH  56  70
BRANCH  57  81
ATOM     81  C   UNL A   1      42.448  25.945  27.360  1.00  0.00     0.023 A 
ATOM     82  C   UNL A   1      42.068  24.595  27.288  1.00  0.00     0.031 A 
ATOM     83  C   UNL A   1      43.270  26.454  26.339  1.00  0.00     0.131 A 
ATOM     84  C   UNL A   1      42.550  23.786  26.247  1.00  0.00     0.055 A 
ATOM     85  C   UNL A   1      43.706  25.658  25.277  1.00  0.00     0.041 A 
ATOM     86  F   UNL A   1      43.657  27.739  26.356  1.00  0.00    -0.206 F 
ATOM     87  C   UNL A   1      43.356  24.311  25.235  1.00  0.00     0.022 A 
BRANCH  84  88
ATOM     88  S   UNL A   1      42.176  22.012  26.283  1.00  0.00     0.124 S 
ATOM     89  O   UNL A   1      40.751  22.003  25.972  1.00  0.00    -0.237 OA
ATOM     90  O   UNL A   1      43.062  21.496  25.244  1.00  0.00    -0.237 OA
ATOM     91  O   UNL A   1      42.522  21.618  27.646  1.00  0.00    -0.744 OA
ENDBRANCH  84  88
ENDBRANCH  57  81
BRANCH  69  92
ATOM     92  C   UNL A   1      45.388  27.385  33.515  1.00  0.00     0.023 A 
ATOM     93  C   UNL A   1      45.353  26.260  34.357  1.00  0.00     0.031 A 
ATOM     94  C   UNL A   1      46.624  28.026  33.314  1.00  0.00     0.131 A 
ATOM     95  C   UNL A   1      46.523  25.839  35.006  1.00  0.00     0.055 A 
ATOM     96  C   UNL A   1      47.795  27.570  33.920  1.00  0.00     0.041 A 
ATOM     97  F   UNL A   1      46.712  29.106  32.522  1.00  0.00    -0.206 F 
ATOM     98  C   UNL A   1      47.747  26.478  34.781  1.00  0.00     0.022 A 
BRANCH  95  99
ATOM     99  S   UNL A   1      46.413  24.491  36.215  1.00  0.00     0.124 S 
ATOM    100  O   UNL A   1      47.475  23.596  35.770  1.00  0.00    -0.237 OA
ATOM    101  O   UNL A   1      46.650  25.185  37.477  1.00  0.00    -0.237 OA
ATOM    102  O   UNL A   1      45.054  23.980  36.036  1.00  0.00    -0.744 OA
ENDBRANCH  95  99
ENDBRANCH  69  92
ENDBRANCH  43  44
ENDBRANCH  35  38
ENDBRANCH  33  34
ENDBRANCH  32  33
ENDBRANCH  31  32
ENDBRANCH   1  31
TORSDOF 19
ENDMDL
MODEL 3
REMARK VINA RESULT:     -11.5      5.334      8.955
REMARK SMILES O=C(Cc1ccccc1C(=O)NCCCCNC(=O)c1ccc(-c2c3nc(c(-c4cc(S(=O)(=O)[O-])ccc4F)c4ccc([nH]4)c(-c4cc(S(=O)(=O)[O-])ccc4F)c4nc(c(-c5cc(S(=O)(=O)[O-])ccc5F)c5ccc2[nH]5)C=C4)C=C3)cc1)Nc1ccc(S(=O)(=O)N2CCCC2)cc1
REMARK SMILES IDX 13 1 12 2 10 3 11 4 9 6 4 7 5 8 6 9 8 10 7 11 3 12 2 13 1 14
REMARK SMILES IDX 83 15 84 17 85 18 97 19 86 20 96 21 87 22 88 23 89 24 90 25
REMARK SMILES IDX 91 26 92 27 95 28 93 29 94 30 14 31 15 32 16 33 17 34 18 35
REMARK SMILES IDX 19 37 20 38 21 39 82 40 22 41 81 42 23 43 24 44 25 45 75 46
REMARK SMILES IDX 26 47 80 48 74 49 76 50 27 51 79 52 73 53 72 54 28 56 60 57
REMARK SMILES IDX 40 58 59 59 41 60 44 61 58 62 77 63 42 64 43 65 57 67 78 68
REMARK SMILES IDX 45 69 29 70 30 71 38 72 31 73 37 74 39 75 36 76 32 77 33 78
REMARK SMILES IDX 34 79 35 80 61 81 62 82 70 83 63 84 69 85 71 86 68 87 64 88
REMARK SMILES IDX 65 89 66 90 67 91 46 92 47 93 55 94 48 95 54 96 56 97 53 98
REMARK SMILES IDX 49 99 50 100 51 101 52 102
REMARK H PARENT 12 5 83 16 17 36 76 55 44 66
REMARK Flexibility Score: inf
ROOT
ATOM      1  C   UNL A   1      33.629  23.003  23.536  1.00  0.00     0.116 C 
ENDROOT
BRANCH   1   2
ATOM      2  N   UNL A   1      32.712  23.178  24.647  1.00  0.00    -0.352 N 
ATOM      3  C   UNL A   1      31.762  24.058  25.083  1.00  0.00     0.251 C 
ATOM      4  O   UNL A   1      31.194  23.676  26.118  1.00  0.00    -0.269 OA
ATOM      5  H   UNL A   1      32.800  22.432  25.283  1.00  0.00     0.163 HD
BRANCH   3   6
ATOM      6  C   UNL A   1      31.303  25.385  24.518  1.00  0.00     0.043 A 
ATOM      7  C   UNL A   1      31.995  26.613  24.379  1.00  0.00    -0.026 A 
ATOM      8  C   UNL A   1      31.266  27.789  24.074  1.00  0.00     0.005 A 
ATOM      9  C   UNL A   1      29.892  27.770  23.856  1.00  0.00     0.000 A 
ATOM     10  C   UNL A   1      29.910  25.404  24.258  1.00  0.00     0.014 A 
ATOM     11  C   UNL A   1      29.213  26.569  23.930  1.00  0.00     0.001 A 
BRANCH   7  12
ATOM     12  C   UNL A   1      33.474  26.715  24.565  1.00  0.00     0.136 C 
BRANCH  12  13
ATOM     13  C   UNL A   1      34.092  27.990  25.069  1.00  0.00     0.228 C 
ATOM     14  O   UNL A   1      34.515  28.832  24.279  1.00  0.00    -0.274 OA
ATOM     15  N   UNL A   1      34.058  28.144  26.451  1.00  0.00    -0.326 N 
ATOM     16  H   UNL A   1      33.931  27.350  27.020  1.00  0.00     0.169 HD
BRANCH  15  17
ATOM     17  C   UNL A   1      34.201  29.403  27.056  1.00  0.00     0.041 A 
ATOM     18  C   UNL A   1      35.424  29.808  27.594  1.00  0.00     0.027 A 
ATOM     19  C   UNL A   1      33.108  30.264  27.104  1.00  0.00     0.027 A 
ATOM     20  C   UNL A   1      35.578  31.131  28.038  1.00  0.00     0.024 A 
ATOM     21  C   UNL A   1      33.254  31.560  27.568  1.00  0.00     0.024 A 
ATOM     22  C   UNL A   1      34.495  32.019  27.986  1.00  0.00     0.082 A 
BRANCH  22  23
ATOM     23  S   UNL A   1      34.770  33.740  28.362  1.00  0.00     0.243 S 
ATOM     24  O   UNL A   1      36.168  33.868  28.703  1.00  0.00    -0.207 OA
ATOM     25  O   UNL A   1      34.196  34.482  27.254  1.00  0.00    -0.207 OA
BRANCH  23  26
ATOM     26  N   UNL A   1      33.871  34.108  29.735  1.00  0.00    -0.198 NA
ATOM     27  C   UNL A   1      32.949  35.251  29.748  1.00  0.00     0.102 C 
ATOM     28  C   UNL A   1      34.398  33.850  31.086  1.00  0.00     0.102 C 
ATOM     29  C   UNL A   1      33.314  36.040  30.993  1.00  0.00     0.018 C 
ATOM     30  C   UNL A   1      33.929  35.024  31.946  1.00  0.00     0.018 C 
ENDBRANCH  23  26
ENDBRANCH  22  23
ENDBRANCH  15  17
ENDBRANCH  12  13
ENDBRANCH   7  12
ENDBRANCH   3   6
ENDBRANCH   1   2
BRANCH   1  31
ATOM     31  C   UNL A   1      35.087  23.178  23.988  1.00  0.00     0.023 C 
BRANCH  31  32
ATOM     32  C   UNL A   1      35.499  22.353  25.205  1.00  0.00     0.023 C 
BRANCH  32  33
ATOM     33  C   UNL A   1      36.836  22.753  25.808  1.00  0.00     0.116 C 
BRANCH  33  34
ATOM     34  N   UNL A   1      37.816  21.675  25.827  1.00  0.00    -0.352 N 
ATOM     35  C   UNL A   1      39.132  21.747  26.230  1.00  0.00     0.251 C 
ATOM     36  H   UNL A   1      37.502  20.795  25.516  1.00  0.00     0.163 HD
ATOM     37  O   UNL A   1      39.872  20.775  26.117  1.00  0.00    -0.269 OA
BRANCH  35  38
ATOM     38  C   UNL A   1      39.642  23.038  26.742  1.00  0.00     0.039 A 
ATOM     39  C   UNL A   1      40.566  23.037  27.789  1.00  0.00     0.014 A 
ATOM     40  C   UNL A   1      39.293  24.232  26.106  1.00  0.00     0.014 A 
ATOM     41  C   UNL A   1      41.207  24.227  28.142  1.00  0.00     0.010 A 
ATOM     42  C   UNL A   1      39.991  25.396  26.403  1.00  0.00     0.010 A 
ATOM     43  C   UNL A   1      40.960  25.406  27.419  1.00  0.00    -0.014 A 
BRANCH  43  44
ATOM     44  C   UNL A   1      41.689  26.669  27.709  1.00  0.00     0.031 A 
ATOM     45  C   UNL A   1      43.114  26.825  27.254  1.00  0.00     0.074 A 
ATOM     46  C   UNL A   1      41.105  27.631  28.452  1.00  0.00     0.049 A 
ATOM     47  N   UNL A   1      43.970  27.777  27.516  1.00  0.00    -0.248 NA
ATOM     48  C   UNL A   1      43.657  25.738  26.424  1.00  0.00     0.031 C 
ATOM     49  C   UNL A   1      39.743  27.580  28.991  1.00  0.00     0.029 A 
ATOM     50  N   UNL A   1      41.588  28.837  28.898  1.00  0.00    -0.354 N 
ATOM     51  C   UNL A   1      45.160  27.393  26.906  1.00  0.00     0.074 A 
ATOM     52  C   UNL A   1      44.928  26.091  26.317  1.00  0.00     0.031 C 
ATOM     53  C   UNL A   1      39.497  28.708  29.675  1.00  0.00     0.029 A 
ATOM     54  C   UNL A   1      40.693  29.545  29.665  1.00  0.00     0.049 A 
ATOM     55  H   UNL A   1      42.493  29.163  28.689  1.00  0.00     0.167 HD
ATOM     56  C   UNL A   1      46.330  28.073  26.821  1.00  0.00     0.034 A 
ATOM     57  C   UNL A   1      40.825  30.728  30.299  1.00  0.00     0.034 A 
ATOM     58  C   UNL A   1      46.536  29.382  27.391  1.00  0.00     0.049 A 
ATOM     59  C   UNL A   1      42.136  31.468  30.193  1.00  0.00     0.074 A 
ATOM     60  C   UNL A   1      47.660  30.186  27.321  1.00  0.00     0.029 A 
ATOM     61  N   UNL A   1      45.595  30.081  28.136  1.00  0.00    -0.354 N 
ATOM     62  N   UNL A   1      43.239  31.109  29.578  1.00  0.00    -0.248 NA
ATOM     63  C   UNL A   1      42.214  32.775  30.857  1.00  0.00     0.031 C 
ATOM     64  C   UNL A   1      47.419  31.344  28.069  1.00  0.00     0.029 A 
ATOM     65  C   UNL A   1      46.120  31.296  28.548  1.00  0.00     0.049 A 
ATOM     66  H   UNL A   1      44.686  29.760  28.341  1.00  0.00     0.167 HD
ATOM     67  C   UNL A   1      44.131  32.165  29.753  1.00  0.00     0.074 A 
ATOM     68  C   UNL A   1      43.433  33.175  30.522  1.00  0.00     0.031 C 
ATOM     69  C   UNL A   1      45.408  32.291  29.314  1.00  0.00     0.034 A 
BRANCH  56  70
ATOM     70  C   UNL A   1      47.472  27.396  26.103  1.00  0.00     0.023 A 
ATOM     71  C   UNL A   1      48.395  26.586  26.787  1.00  0.00     0.031 A 
ATOM     72  C   UNL A   1      47.667  27.597  24.725  1.00  0.00     0.131 A 
ATOM     73  C   UNL A   1      49.517  26.080  26.113  1.00  0.00     0.055 A 
ATOM     74  C   UNL A   1      48.738  27.016  24.041  1.00  0.00     0.041 A 
ATOM     75  F   UNL A   1      46.831  28.377  24.022  1.00  0.00    -0.206 F 
ATOM     76  C   UNL A   1      49.681  26.267  24.739  1.00  0.00     0.022 A 
BRANCH  73  77
ATOM     77  S   UNL A   1      50.834  25.307  27.091  1.00  0.00     0.124 S 
ATOM     78  O   UNL A   1      51.297  26.432  27.900  1.00  0.00    -0.237 OA
ATOM     79  O   UNL A   1      50.122  24.255  27.807  1.00  0.00    -0.237 OA
ATOM     80  O   UNL A   1      51.784  24.844  26.082  1.00  0.00    -0.744 OA
ENDBRANCH  73  77
ENDBRANCH  56  70
BRANCH  57  81
ATOM     81  C   UNL A   1      39.698  31.294  31.095  1.00  0.00     0.023 A 
ATOM     82  C   UNL A   1      39.679  31.188  32.495  1.00  0.00     0.031 A 
ATOM     83  C   UNL A   1      38.599  31.903  30.466  1.00  0.00     0.131 A 
ATOM     84  C   UNL A   1      38.563  31.637  33.217  1.00  0.00     0.055 A 
ATOM     85  C   UNL A   1      37.512  32.395  31.192  1.00  0.00     0.041 A 
ATOM     86  F   UNL A   1      38.568  32.035  29.130  1.00  0.00    -0.206 F 
ATOM     87  C   UNL A   1      37.484  32.251  32.577  1.00  0.00     0.022 A 
BRANCH  84  88
ATOM     88  S   UNL A   1      38.503  31.330  35.004  1.00  0.00     0.124 S 
ATOM     89  O   UNL A   1      37.294  32.049  35.388  1.00  0.00    -0.237 OA
ATOM     90  O   UNL A   1      38.427  29.873  35.057  1.00  0.00    -0.237 OA
ATOM     91  O   UNL A   1      39.755  31.904  35.490  1.00  0.00    -0.744 OA
ENDBRANCH  84  88
ENDBRANCH  57  81
BRANCH  69  92
ATOM     92  C   UNL A   1      46.109  33.594  29.607  1.00  0.00     0.023 A 
ATOM     93  C   UNL A   1      46.055  34.681  28.718  1.00  0.00     0.031 A 
ATOM     94  C   UNL A   1      46.845  33.744  30.796  1.00  0.00     0.131 A 
ATOM     95  C   UNL A   1      46.766  35.855  29.009  1.00  0.00     0.055 A 
ATOM     96  C   UNL A   1      47.506  34.933  31.105  1.00  0.00     0.041 A 
ATOM     97  F   UNL A   1      46.930  32.736  31.678  1.00  0.00    -0.206 F 
ATOM     98  C   UNL A   1      47.479  35.993  30.204  1.00  0.00     0.022 A 
BRANCH  95  99
ATOM     99  S   UNL A   1      46.816  37.175  27.766  1.00  0.00     0.124 S 
ATOM    100  O   UNL A   1      46.695  36.424  26.520  1.00  0.00    -0.237 OA
ATOM    101  O   UNL A   1      45.662  37.991  28.132  1.00  0.00    -0.237 OA
ATOM    102  O   UNL A   1      48.116  37.807  27.987  1.00  0.00    -0.744 OA
ENDBRANCH  95  99
ENDBRANCH  69  92
ENDBRANCH  43  44
ENDBRANCH  35  38
ENDBRANCH  33  34
ENDBRANCH  32  33
ENDBRANCH  31  32
ENDBRANCH   1  31
TORSDOF 19
ENDMDL
