MODEL 1
REMARK VINA RESULT:     -13.2      0.000      0.000
REMARK SMILES O=C(NCCCCNC(=O)c1ccccc1Nc1cccc(S(F)(F)(F)(F)F)c1)c1ccc(-c2c3nc(c(-c4cc(S(=O)(=O)[O-])ccc4F)c4ccc([nH]4)c(-c4cc(S(=O)(=O)[O-])ccc4F)c4nc(c(-c5cc(S(=O)(=O)[O-])ccc5F)c5ccc2[nH]5)C=C4)C=C3)cc1
REMARK SMILES IDX 5 1 4 2 3 3 1 4 2 5 30 7 31 8 92 9 32 10 91 11 33 12 34 13
REMARK SMILES IDX 35 14 85 15 36 16 90 17 84 18 86 19 37 20 89 21 83 22 82 23
REMARK SMILES IDX 38 25 70 26 50 27 69 28 51 29 54 30 68 31 87 32 52 33 53 34
REMARK SMILES IDX 67 36 88 37 55 38 39 39 40 40 48 41 41 42 47 43 49 44 46 45
REMARK SMILES IDX 42 46 43 47 44 48 45 49 71 50 72 51 80 52 73 53 79 54 81 55
REMARK SMILES IDX 78 56 74 57 75 58 76 59 77 60 56 61 57 62 65 63 58 64 64 65
REMARK SMILES IDX 66 66 63 67 59 68 60 69 61 70 62 71 6 72 7 73 8 74 9 75
REMARK SMILES IDX 10 77 11 78 12 79 16 80 13 81 15 82 14 83 17 84 18 86 19 87
REMARK SMILES IDX 29 88 20 89 22 90 21 91 23 92 24 93 25 94 26 95 27 96 28 97
REMARK H PARENT 3 6 86 24 54 35 8 76 17 85
REMARK Flexibility Score: inf
ROOT
ATOM      1  C   UNL A   1      31.622  30.845  26.591  1.00  0.00     0.023 C 
ENDROOT
BRANCH   1   2
ATOM      2  C   UNL A   1      32.976  31.433  26.955  1.00  0.00     0.116 C 
BRANCH   2   3
ATOM      3  N   UNL A   1      32.814  32.850  27.312  1.00  0.00    -0.352 N 
ATOM      4  O   UNL A   1      33.684  34.742  28.455  1.00  0.00    -0.269 OA
ATOM      5  C   UNL A   1      33.823  33.517  28.146  1.00  0.00     0.251 C 
ATOM      6  H   UNL A   1      32.029  33.352  26.993  1.00  0.00     0.163 HD
BRANCH   5   7
ATOM      7  C   UNL A   1      35.035  32.742  28.639  1.00  0.00     0.039 A 
ATOM      8  C   UNL A   1      36.260  33.324  28.352  1.00  0.00     0.014 A 
ATOM      9  C   UNL A   1      34.950  31.644  29.380  1.00  0.00     0.014 A 
ATOM     10  C   UNL A   1      37.370  32.500  28.657  1.00  0.00     0.010 A 
ATOM     11  C   UNL A   1      36.084  30.964  29.756  1.00  0.00     0.010 A 
ATOM     12  C   UNL A   1      37.326  31.450  29.456  1.00  0.00    -0.014 A 
BRANCH  12  13
ATOM     13  C   UNL A   1      38.590  30.814  30.012  1.00  0.00     0.031 A 
ATOM     14  C   UNL A   1      39.276  29.818  29.316  1.00  0.00     0.074 A 
ATOM     15  C   UNL A   1      38.914  31.226  31.294  1.00  0.00     0.049 A 
ATOM     16  N   UNL A   1      40.346  29.132  29.721  1.00  0.00    -0.248 NA
ATOM     17  C   UNL A   1      38.912  29.355  27.969  1.00  0.00     0.031 C 
ATOM     18  C   UNL A   1      38.232  32.236  32.000  1.00  0.00     0.029 A 
ATOM     19  N   UNL A   1      39.923  30.754  32.103  1.00  0.00    -0.354 N 
ATOM     20  C   UNL A   1      40.731  28.277  28.771  1.00  0.00     0.074 A 
ATOM     21  C   UNL A   1      39.812  28.404  27.633  1.00  0.00     0.031 C 
ATOM     22  C   UNL A   1      38.814  32.363  33.222  1.00  0.00     0.029 A 
ATOM     23  C   UNL A   1      39.869  31.435  33.299  1.00  0.00     0.049 A 
ATOM     24  H   UNL A   1      40.571  30.051  31.869  1.00  0.00     0.167 HD
ATOM     25  C   UNL A   1      41.815  27.398  28.810  1.00  0.00     0.034 A 
ATOM     26  C   UNL A   1      40.685  31.269  34.408  1.00  0.00     0.034 A 
ATOM     27  C   UNL A   1      42.657  27.264  29.902  1.00  0.00     0.049 A 
ATOM     28  C   UNL A   1      41.733  30.349  34.468  1.00  0.00     0.074 A 
ATOM     29  C   UNL A   1      43.759  26.388  29.954  1.00  0.00     0.029 A 
ATOM     30  N   UNL A   1      42.588  27.927  31.107  1.00  0.00    -0.354 N 
ATOM     31  N   UNL A   1      42.143  29.523  33.504  1.00  0.00    -0.248 NA
ATOM     32  C   UNL A   1      42.584  30.142  35.648  1.00  0.00     0.031 C 
ATOM     33  C   UNL A   1      44.342  26.515  31.176  1.00  0.00     0.029 A 
ATOM     34  C   UNL A   1      43.612  27.471  31.908  1.00  0.00     0.049 A 
ATOM     35  H   UNL A   1      41.923  28.610  31.353  1.00  0.00     0.167 HD
ATOM     36  C   UNL A   1      43.188  28.806  33.926  1.00  0.00     0.074 A 
ATOM     37  C   UNL A   1      43.481  29.189  35.314  1.00  0.00     0.031 C 
ATOM     38  C   UNL A   1      43.910  27.852  33.207  1.00  0.00     0.034 A 
BRANCH  25  39
ATOM     39  C   UNL A   1      42.088  26.541  27.585  1.00  0.00     0.023 A 
ATOM     40  C   UNL A   1      41.607  25.250  27.437  1.00  0.00     0.031 A 
ATOM     41  C   UNL A   1      42.702  27.165  26.587  1.00  0.00     0.131 A 
ATOM     42  C   UNL A   1      42.084  24.590  26.280  1.00  0.00     0.055 A 
ATOM     43  C   UNL A   1      43.016  26.494  25.429  1.00  0.00     0.041 A 
ATOM     44  F   UNL A   1      43.017  28.452  26.708  1.00  0.00    -0.206 F 
ATOM     45  C   UNL A   1      42.625  25.198  25.240  1.00  0.00     0.022 A 
BRANCH  42  46
ATOM     46  S   UNL A   1      41.940  22.787  26.221  1.00  0.00     0.124 S 
ATOM     47  O   UNL A   1      42.490  22.188  27.517  1.00  0.00    -0.237 OA
ATOM     48  O   UNL A   1      40.469  22.396  26.062  1.00  0.00    -0.237 OA
ATOM     49  O   UNL A   1      42.835  22.187  24.892  1.00  0.00    -0.744 OA
ENDBRANCH  42  46
ENDBRANCH  25  39
BRANCH  26  50
ATOM     50  C   UNL A   1      40.423  32.139  35.626  1.00  0.00     0.023 A 
ATOM     51  C   UNL A   1      39.485  31.773  36.577  1.00  0.00     0.031 A 
ATOM     52  C   UNL A   1      41.004  33.334  35.656  1.00  0.00     0.131 A 
ATOM     53  C   UNL A   1      39.008  32.853  37.357  1.00  0.00     0.055 A 
ATOM     54  C   UNL A   1      40.577  34.297  36.537  1.00  0.00     0.041 A 
ATOM     55  F   UNL A   1      42.005  33.599  34.824  1.00  0.00    -0.206 F 
ATOM     56  C   UNL A   1      39.611  34.023  37.465  1.00  0.00     0.022 A 
BRANCH  53  57
ATOM     57  S   UNL A   1      37.463  32.615  38.271  1.00  0.00     0.124 S 
ATOM     58  O   UNL A   1      36.316  33.290  37.517  1.00  0.00    -0.237 OA
ATOM     59  O   UNL A   1      37.175  31.117  38.403  1.00  0.00    -0.237 OA
ATOM     60  O   UNL A   1      37.610  33.306  39.828  1.00  0.00    -0.744 OA
ENDBRANCH  53  57
ENDBRANCH  26  50
BRANCH  38  61
ATOM     61  C   UNL A   1      45.096  27.191  33.892  1.00  0.00     0.023 A 
ATOM     62  C   UNL A   1      44.847  25.912  34.359  1.00  0.00     0.031 A 
ATOM     63  C   UNL A   1      46.309  27.725  33.960  1.00  0.00     0.131 A 
ATOM     64  C   UNL A   1      45.890  25.378  35.153  1.00  0.00     0.055 A 
ATOM     65  C   UNL A   1      47.318  27.084  34.637  1.00  0.00     0.041 A 
ATOM     66  F   UNL A   1      46.550  28.892  33.369  1.00  0.00    -0.206 F 
ATOM     67  C   UNL A   1      47.125  25.843  35.176  1.00  0.00     0.022 A 
BRANCH  64  68
ATOM     68  S   UNL A   1      45.504  23.960  36.208  1.00  0.00     0.124 S 
ATOM     69  O   UNL A   1      46.617  22.917  36.088  1.00  0.00    -0.237 OA
ATOM     70  O   UNL A   1      45.392  24.420  37.663  1.00  0.00    -0.237 OA
ATOM     71  O   UNL A   1      44.020  23.268  35.714  1.00  0.00    -0.744 OA
ENDBRANCH  64  68
ENDBRANCH  38  61
ENDBRANCH  12  13
ENDBRANCH   5   7
ENDBRANCH   2   3
ENDBRANCH   1   2
BRANCH   1  72
ATOM     72  C   UNL A   1      31.756  30.008  25.329  1.00  0.00     0.023 C 
BRANCH  72  73
ATOM     73  C   UNL A   1      33.126  29.353  25.299  1.00  0.00     0.116 C 
BRANCH  73  74
ATOM     74  N   UNL A   1      33.706  29.490  23.955  1.00  0.00    -0.352 N 
ATOM     75  C   UNL A   1      33.695  28.348  23.029  1.00  0.00     0.253 C 
ATOM     76  H   UNL A   1      34.101  30.346  23.674  1.00  0.00     0.163 HD
ATOM     77  O   UNL A   1      34.196  28.466  21.868  1.00  0.00    -0.269 OA
BRANCH  75  78
ATOM     78  C   UNL A   1      33.084  27.024  23.462  1.00  0.00     0.063 A 
ATOM     79  C   UNL A   1      33.799  26.281  24.386  1.00  0.00     0.016 A 
ATOM     80  C   UNL A   1      31.987  26.542  22.891  1.00  0.00     0.051 A 
ATOM     81  C   UNL A   1      33.435  24.914  24.428  1.00  0.00     0.001 A 
ATOM     82  C   UNL A   1      31.616  25.233  23.084  1.00  0.00     0.027 A 
ATOM     83  C   UNL A   1      32.312  24.423  23.938  1.00  0.00     0.002 A 
BRANCH  80  84
ATOM     84  N   UNL A   1      31.161  27.416  22.044  1.00  0.00    -0.355 N 
ATOM     85  H   UNL A   1      31.393  27.542  21.095  1.00  0.00     0.167 HD
BRANCH  84  86
ATOM     86  C   UNL A   1      29.990  28.097  22.613  1.00  0.00     0.040 A 
ATOM     87  C   UNL A   1      28.983  27.359  23.211  1.00  0.00     0.026 A 
ATOM     88  C   UNL A   1      29.909  29.418  22.513  1.00  0.00     0.050 A 
ATOM     89  C   UNL A   1      27.786  28.085  23.418  1.00  0.00     0.004 A 
ATOM     90  C   UNL A   1      28.755  30.077  22.862  1.00  0.00     0.109 A 
ATOM     91  C   UNL A   1      27.697  29.403  23.404  1.00  0.00     0.024 A 
BRANCH  90  92
ATOM     92  S   UNL A   1      28.634  31.864  22.600  1.00  0.00     0.310 S 
ATOM     93  F   UNL A   1      27.231  31.941  23.337  1.00  0.00    -0.094 F 
ATOM     94  F   UNL A   1      27.841  31.589  21.267  1.00  0.00    -0.094 F 
ATOM     95  F   UNL A   1      28.531  33.400  22.376  1.00  0.00    -0.094 F 
ATOM     96  F   UNL A   1      29.305  32.122  24.006  1.00  0.00    -0.094 F 
ATOM     97  F   UNL A   1      28.646  30.312  22.895  1.00  0.00    -0.094 F 
ENDBRANCH  90  92
ENDBRANCH  84  86
ENDBRANCH  80  84
ENDBRANCH  75  78
ENDBRANCH  73  74
ENDBRANCH  72  73
ENDBRANCH   1  72
TORSDOF 17
ENDMDL
MODEL 2
REMARK VINA RESULT:     -13.2      5.192      9.929
REMARK SMILES O=C(NCCCCNC(=O)c1ccccc1Nc1cccc(S(F)(F)(F)(F)F)c1)c1ccc(-c2c3nc(c(-c4cc(S(=O)(=O)[O-])ccc4F)c4ccc([nH]4)c(-c4cc(S(=O)(=O)[O-])ccc4F)c4nc(c(-c5cc(S(=O)(=O)[O-])ccc5F)c5ccc2[nH]5)C=C4)C=C3)cc1
REMARK SMILES IDX 5 1 4 2 3 3 1 4 2 5 30 7 31 8 92 9 32 10 91 11 33 12 34 13
REMARK SMILES IDX 35 14 85 15 36 16 90 17 84 18 86 19 37 20 89 21 83 22 82 23
REMARK SMILES IDX 38 25 70 26 50 27 69 28 51 29 54 30 68 31 87 32 52 33 53 34
REMARK SMILES IDX 67 36 88 37 55 38 39 39 40 40 48 41 41 42 47 43 49 44 46 45
REMARK SMILES IDX 42 46 43 47 44 48 45 49 71 50 72 51 80 52 73 53 79 54 81 55
REMARK SMILES IDX 78 56 74 57 75 58 76 59 77 60 56 61 57 62 65 63 58 64 64 65
REMARK SMILES IDX 66 66 63 67 59 68 60 69 61 70 62 71 6 72 7 73 8 74 9 75
REMARK SMILES IDX 10 77 11 78 12 79 16 80 13 81 15 82 14 83 17 84 18 86 19 87
REMARK SMILES IDX 29 88 20 89 22 90 21 91 23 92 24 93 25 94 26 95 27 96 28 97
REMARK H PARENT 3 6 86 24 54 35 8 76 17 85
REMARK Flexibility Score: inf
ROOT
ATOM      1  C   UNL A   1      35.432  22.759  25.652  1.00  0.00     0.023 C 
ENDROOT
BRANCH   1   2
ATOM      2  C   UNL A   1      36.822  23.362  25.776  1.00  0.00     0.116 C 
BRANCH   2   3
ATOM      3  N   UNL A   1      37.800  22.294  26.027  1.00  0.00    -0.352 N 
ATOM      4  O   UNL A   1      39.945  21.691  26.851  1.00  0.00    -0.269 OA
ATOM      5  C   UNL A   1      39.099  22.614  26.634  1.00  0.00     0.251 C 
ATOM      6  H   UNL A   1      37.584  21.363  25.788  1.00  0.00     0.163 HD
BRANCH   5   7
ATOM      7  C   UNL A   1      39.432  24.051  27.003  1.00  0.00     0.039 A 
ATOM      8  C   UNL A   1      39.256  24.370  28.340  1.00  0.00     0.014 A 
ATOM      9  C   UNL A   1      39.952  24.925  26.150  1.00  0.00     0.014 A 
ATOM     10  C   UNL A   1      39.396  25.750  28.623  1.00  0.00     0.010 A 
ATOM     11  C   UNL A   1      40.188  26.223  26.533  1.00  0.00     0.010 A 
ATOM     12  C   UNL A   1      39.982  26.622  27.824  1.00  0.00    -0.014 A 
BRANCH  12  13
ATOM     13  C   UNL A   1      40.403  27.998  28.314  1.00  0.00     0.031 A 
ATOM     14  C   UNL A   1      39.468  28.939  28.749  1.00  0.00     0.074 A 
ATOM     15  C   UNL A   1      41.756  28.258  28.177  1.00  0.00     0.049 A 
ATOM     16  N   UNL A   1      39.696  30.196  29.131  1.00  0.00    -0.248 NA
ATOM     17  C   UNL A   1      38.026  28.675  28.863  1.00  0.00     0.031 C 
ATOM     18  C   UNL A   1      42.707  27.313  27.747  1.00  0.00     0.029 A 
ATOM     19  N   UNL A   1      42.419  29.441  28.421  1.00  0.00    -0.354 N 
ATOM     20  C   UNL A   1      38.554  30.780  29.499  1.00  0.00     0.074 A 
ATOM     21  C   UNL A   1      37.463  29.813  29.327  1.00  0.00     0.031 C 
ATOM     22  C   UNL A   1      43.923  27.919  27.720  1.00  0.00     0.029 A 
ATOM     23  C   UNL A   1      43.752  29.253  28.134  1.00  0.00     0.049 A 
ATOM     24  H   UNL A   1      42.010  30.276  28.744  1.00  0.00     0.167 HD
ATOM     25  C   UNL A   1      38.381  32.082  29.973  1.00  0.00     0.034 A 
ATOM     26  C   UNL A   1      44.778  30.183  28.221  1.00  0.00     0.034 A 
ATOM     27  C   UNL A   1      39.413  32.997  30.101  1.00  0.00     0.049 A 
ATOM     28  C   UNL A   1      44.595  31.502  28.640  1.00  0.00     0.074 A 
ATOM     29  C   UNL A   1      39.257  34.311  30.584  1.00  0.00     0.029 A 
ATOM     30  N   UNL A   1      40.743  32.818  29.791  1.00  0.00    -0.354 N 
ATOM     31  N   UNL A   1      43.460  32.073  29.045  1.00  0.00    -0.248 NA
ATOM     32  C   UNL A   1      45.668  32.504  28.705  1.00  0.00     0.031 C 
ATOM     33  C   UNL A   1      40.473  34.917  30.559  1.00  0.00     0.029 A 
ATOM     34  C   UNL A   1      41.409  33.993  30.057  1.00  0.00     0.049 A 
ATOM     35  H   UNL A   1      41.148  31.991  29.440  1.00  0.00     0.167 HD
ATOM     36  C   UNL A   1      43.682  33.345  29.387  1.00  0.00     0.074 A 
ATOM     37  C   UNL A   1      45.104  33.642  29.166  1.00  0.00     0.031 C 
ATOM     38  C   UNL A   1      42.756  34.267  29.878  1.00  0.00     0.034 A 
BRANCH  25  39
ATOM     39  C   UNL A   1      36.981  32.519  30.372  1.00  0.00     0.023 A 
ATOM     40  C   UNL A   1      36.027  32.942  29.461  1.00  0.00     0.031 A 
ATOM     41  C   UNL A   1      36.676  32.333  31.651  1.00  0.00     0.131 A 
ATOM     42  C   UNL A   1      34.837  33.422  30.058  1.00  0.00     0.055 A 
ATOM     43  C   UNL A   1      35.445  32.701  32.138  1.00  0.00     0.041 A 
ATOM     44  F   UNL A   1      37.571  31.785  32.469  1.00  0.00    -0.206 F 
ATOM     45  C   UNL A   1      34.474  33.181  31.305  1.00  0.00     0.022 A 
BRANCH  42  46
ATOM     46  S   UNL A   1      33.736  34.437  29.041  1.00  0.00     0.124 S 
ATOM     47  O   UNL A   1      32.625  35.020  29.917  1.00  0.00    -0.237 OA
ATOM     48  O   UNL A   1      34.535  35.577  28.405  1.00  0.00    -0.237 OA
ATOM     49  O   UNL A   1      33.044  33.471  27.811  1.00  0.00    -0.744 OA
ENDBRANCH  42  46
ENDBRANCH  25  39
BRANCH  26  50
ATOM     50  C   UNL A   1      46.180  29.740  27.838  1.00  0.00     0.023 A 
ATOM     51  C   UNL A   1      46.524  29.518  26.514  1.00  0.00     0.031 A 
ATOM     52  C   UNL A   1      47.005  29.414  28.827  1.00  0.00     0.131 A 
ATOM     53  C   UNL A   1      47.649  28.676  26.347  1.00  0.00     0.055 A 
ATOM     54  C   UNL A   1      48.156  28.708  28.574  1.00  0.00     0.041 A 
ATOM     55  F   UNL A   1      46.714  29.775  30.073  1.00  0.00    -0.206 F 
ATOM     56  C   UNL A   1      48.527  28.403  27.294  1.00  0.00     0.022 A 
BRANCH  53  57
ATOM     57  S   UNL A   1      47.900  27.921  24.721  1.00  0.00     0.124 S 
ATOM     58  O   UNL A   1      46.943  28.556  23.710  1.00  0.00    -0.237 OA
ATOM     59  O   UNL A   1      49.345  28.151  24.270  1.00  0.00    -0.237 OA
ATOM     60  O   UNL A   1      47.594  26.242  24.820  1.00  0.00    -0.744 OA
ENDBRANCH  53  57
ENDBRANCH  26  50
BRANCH  38  61
ATOM     61  C   UNL A   1      43.257  35.657  30.238  1.00  0.00     0.023 A 
ATOM     62  C   UNL A   1      43.155  36.585  29.216  1.00  0.00     0.031 A 
ATOM     63  C   UNL A   1      43.666  36.010  31.451  1.00  0.00     0.131 A 
ATOM     64  C   UNL A   1      43.789  37.819  29.497  1.00  0.00     0.055 A 
ATOM     65  C   UNL A   1      44.148  37.275  31.686  1.00  0.00     0.041 A 
ATOM     66  F   UNL A   1      43.610  35.130  32.447  1.00  0.00    -0.206 F 
ATOM     67  C   UNL A   1      44.132  38.227  30.704  1.00  0.00     0.022 A 
BRANCH  64  68
ATOM     68  S   UNL A   1      44.154  38.914  28.103  1.00  0.00     0.124 S 
ATOM     69  O   UNL A   1      45.665  38.948  27.863  1.00  0.00    -0.237 OA
ATOM     70  O   UNL A   1      43.450  38.395  26.848  1.00  0.00    -0.237 OA
ATOM     71  O   UNL A   1      43.598  40.492  28.457  1.00  0.00    -0.744 OA
ENDBRANCH  64  68
ENDBRANCH  38  61
ENDBRANCH  12  13
ENDBRANCH   5   7
ENDBRANCH   2   3
ENDBRANCH   1   2
BRANCH   1  72
ATOM     72  C   UNL A   1      34.676  22.956  26.956  1.00  0.00     0.023 C 
BRANCH  72  73
ATOM     73  C   UNL A   1      33.736  21.783  27.179  1.00  0.00     0.116 C 
BRANCH  73  74
ATOM     74  N   UNL A   1      32.520  22.251  27.858  1.00  0.00    -0.352 N 
ATOM     75  C   UNL A   1      31.331  22.609  27.072  1.00  0.00     0.253 C 
ATOM     76  H   UNL A   1      32.501  22.323  28.839  1.00  0.00     0.163 HD
ATOM     77  O   UNL A   1      30.279  23.014  27.659  1.00  0.00    -0.269 OA
BRANCH  75  78
ATOM     78  C   UNL A   1      31.359  22.497  25.556  1.00  0.00     0.063 A 
ATOM     79  C   UNL A   1      31.999  21.389  25.026  1.00  0.00     0.016 A 
ATOM     80  C   UNL A   1      30.909  23.472  24.776  1.00  0.00     0.051 A 
ATOM     81  C   UNL A   1      32.375  21.539  23.670  1.00  0.00     0.001 A 
ATOM     82  C   UNL A   1      31.201  23.483  23.433  1.00  0.00     0.027 A 
ATOM     83  C   UNL A   1      31.881  22.450  22.852  1.00  0.00     0.002 A 
BRANCH  80  84
ATOM     84  N   UNL A   1      30.090  24.549  25.352  1.00  0.00    -0.355 N 
ATOM     85  H   UNL A   1      29.269  24.330  25.848  1.00  0.00     0.167 HD
BRANCH  84  86
ATOM     86  C   UNL A   1      30.500  25.951  25.188  1.00  0.00     0.040 A 
ATOM     87  C   UNL A   1      29.978  26.708  24.153  1.00  0.00     0.026 A 
ATOM     88  C   UNL A   1      31.395  26.457  26.029  1.00  0.00     0.050 A 
ATOM     89  C   UNL A   1      30.684  27.910  23.910  1.00  0.00     0.004 A 
ATOM     90  C   UNL A   1      31.943  27.696  25.804  1.00  0.00     0.109 A 
ATOM     91  C   UNL A   1      31.517  28.476  24.765  1.00  0.00     0.024 A 
BRANCH  90  92
ATOM     92  S   UNL A   1      33.248  28.307  26.900  1.00  0.00     0.310 S 
ATOM     93  F   UNL A   1      33.487  29.594  26.004  1.00  0.00    -0.094 F 
ATOM     94  F   UNL A   1      34.312  27.568  26.001  1.00  0.00    -0.094 F 
ATOM     95  F   UNL A   1      34.368  28.831  27.843  1.00  0.00    -0.094 F 
ATOM     96  F   UNL A   1      32.185  29.153  27.705  1.00  0.00    -0.094 F 
ATOM     97  F   UNL A   1      32.115  27.874  25.887  1.00  0.00    -0.094 F 
ENDBRANCH  90  92
ENDBRANCH  84  86
ENDBRANCH  80  84
ENDBRANCH  75  78
ENDBRANCH  73  74
ENDBRANCH  72  73
ENDBRANCH   1  72
TORSDOF 17
ENDMDL
MODEL 3
REMARK VINA RESULT:     -13.0      5.709     10.280
REMARK SMILES O=C(NCCCCNC(=O)c1ccccc1Nc1cccc(S(F)(F)(F)(F)F)c1)c1ccc(-c2c3nc(c(-c4cc(S(=O)(=O)[O-])ccc4F)c4ccc([nH]4)c(-c4cc(S(=O)(=O)[O-])ccc4F)c4nc(c(-c5cc(S(=O)(=O)[O-])ccc5F)c5ccc2[nH]5)C=C4)C=C3)cc1
REMARK SMILES IDX 5 1 4 2 3 3 1 4 2 5 30 7 31 8 92 9 32 10 91 11 33 12 34 13
REMARK SMILES IDX 35 14 85 15 36 16 90 17 84 18 86 19 37 20 89 21 83 22 82 23
REMARK SMILES IDX 38 25 70 26 50 27 69 28 51 29 54 30 68 31 87 32 52 33 53 34
REMARK SMILES IDX 67 36 88 37 55 38 39 39 40 40 48 41 41 42 47 43 49 44 46 45
REMARK SMILES IDX 42 46 43 47 44 48 45 49 71 50 72 51 80 52 73 53 79 54 81 55
REMARK SMILES IDX 78 56 74 57 75 58 76 59 77 60 56 61 57 62 65 63 58 64 64 65
REMARK SMILES IDX 66 66 63 67 59 68 60 69 61 70 62 71 6 72 7 73 8 74 9 75
REMARK SMILES IDX 10 77 11 78 12 79 16 80 13 81 15 82 14 83 17 84 18 86 19 87
REMARK SMILES IDX 29 88 20 89 22 90 21 91 23 92 24 93 25 94 26 95 27 96 28 97
REMARK H PARENT 3 6 86 24 54 35 8 76 17 85
REMARK Flexibility Score: inf
ROOT
ATOM      1  C   UNL A   1      35.522  24.130  25.151  1.00  0.00     0.023 C 
ENDROOT
BRANCH   1   2
ATOM      2  C   UNL A   1      36.095  23.461  26.389  1.00  0.00     0.116 C 
BRANCH   2   3
ATOM      3  N   UNL A   1      37.032  22.402  25.986  1.00  0.00    -0.352 N 
ATOM      4  O   UNL A   1      39.288  21.680  25.809  1.00  0.00    -0.269 OA
ATOM      5  C   UNL A   1      38.478  22.595  26.158  1.00  0.00     0.251 C 
ATOM      6  H   UNL A   1      36.689  21.564  25.600  1.00  0.00     0.163 HD
BRANCH   5   7
ATOM      7  C   UNL A   1      39.007  23.890  26.753  1.00  0.00     0.039 A 
ATOM      8  C   UNL A   1      39.489  24.806  25.833  1.00  0.00     0.014 A 
ATOM      9  C   UNL A   1      38.927  24.188  28.045  1.00  0.00     0.014 A 
ATOM     10  C   UNL A   1      40.139  25.919  26.418  1.00  0.00     0.010 A 
ATOM     11  C   UNL A   1      39.465  25.357  28.528  1.00  0.00     0.010 A 
ATOM     12  C   UNL A   1      40.010  26.282  27.681  1.00  0.00    -0.014 A 
BRANCH  12  13
ATOM     13  C   UNL A   1      40.447  27.653  28.169  1.00  0.00     0.031 A 
ATOM     14  C   UNL A   1      39.526  28.592  28.636  1.00  0.00     0.074 A 
ATOM     15  C   UNL A   1      41.796  27.913  27.996  1.00  0.00     0.049 A 
ATOM     16  N   UNL A   1      39.766  29.847  29.020  1.00  0.00    -0.248 NA
ATOM     17  C   UNL A   1      38.087  28.329  28.788  1.00  0.00     0.031 C 
ATOM     18  C   UNL A   1      42.734  26.969  27.533  1.00  0.00     0.029 A 
ATOM     19  N   UNL A   1      42.467  29.093  28.230  1.00  0.00    -0.354 N 
ATOM     20  C   UNL A   1      38.635  30.429  29.423  1.00  0.00     0.074 A 
ATOM     21  C   UNL A   1      37.538  29.464  29.275  1.00  0.00     0.031 C 
ATOM     22  C   UNL A   1      43.949  27.574  27.478  1.00  0.00     0.029 A 
ATOM     23  C   UNL A   1      43.792  28.906  27.905  1.00  0.00     0.049 A 
ATOM     24  H   UNL A   1      42.068  29.926  28.570  1.00  0.00     0.167 HD
ATOM     25  C   UNL A   1      38.477  31.728  29.912  1.00  0.00     0.034 A 
ATOM     26  C   UNL A   1      44.820  29.833  27.970  1.00  0.00     0.034 A 
ATOM     27  C   UNL A   1      39.513  32.641  30.018  1.00  0.00     0.049 A 
ATOM     28  C   UNL A   1      44.651  31.150  28.404  1.00  0.00     0.074 A 
ATOM     29  C   UNL A   1      39.372  33.951  30.514  1.00  0.00     0.029 A 
ATOM     30  N   UNL A   1      40.834  32.462  29.669  1.00  0.00    -0.354 N 
ATOM     31  N   UNL A   1      43.528  31.720  28.844  1.00  0.00    -0.248 NA
ATOM     32  C   UNL A   1      45.726  32.150  28.446  1.00  0.00     0.031 C 
ATOM     33  C   UNL A   1      40.588  34.557  30.459  1.00  0.00     0.029 A 
ATOM     34  C   UNL A   1      41.509  33.635  29.925  1.00  0.00     0.049 A 
ATOM     35  H   UNL A   1      41.228  31.638  29.302  1.00  0.00     0.167 HD
ATOM     36  C   UNL A   1      43.761  32.989  29.189  1.00  0.00     0.074 A 
ATOM     37  C   UNL A   1      45.177  33.286  28.930  1.00  0.00     0.031 C 
ATOM     38  C   UNL A   1      42.850  33.909  29.711  1.00  0.00     0.034 A 
BRANCH  25  39
ATOM     39  C   UNL A   1      37.089  32.164  30.352  1.00  0.00     0.023 A 
ATOM     40  C   UNL A   1      36.145  32.688  29.484  1.00  0.00     0.031 A 
ATOM     41  C   UNL A   1      36.782  31.875  31.611  1.00  0.00     0.131 A 
ATOM     42  C   UNL A   1      34.968  33.145  30.125  1.00  0.00     0.055 A 
ATOM     43  C   UNL A   1      35.560  32.230  32.133  1.00  0.00     0.041 A 
ATOM     44  F   UNL A   1      37.663  31.236  32.375  1.00  0.00    -0.206 F 
ATOM     45  C   UNL A   1      34.601  32.805  31.347  1.00  0.00     0.022 A 
BRANCH  42  46
ATOM     46  S   UNL A   1      33.892  34.271  29.204  1.00  0.00     0.124 S 
ATOM     47  O   UNL A   1      32.905  34.935  30.167  1.00  0.00    -0.237 OA
ATOM     48  O   UNL A   1      34.742  35.346  28.522  1.00  0.00    -0.237 OA
ATOM     49  O   UNL A   1      33.028  33.393  28.019  1.00  0.00    -0.744 OA
ENDBRANCH  42  46
ENDBRANCH  25  39
BRANCH  26  50
ATOM     50  C   UNL A   1      46.211  29.392  27.546  1.00  0.00     0.023 A 
ATOM     51  C   UNL A   1      46.542  29.260  26.207  1.00  0.00     0.031 A 
ATOM     52  C   UNL A   1      47.036  28.979  28.503  1.00  0.00     0.131 A 
ATOM     53  C   UNL A   1      47.648  28.409  25.971  1.00  0.00     0.055 A 
ATOM     54  C   UNL A   1      48.170  28.271  28.191  1.00  0.00     0.041 A 
ATOM     55  F   UNL A   1      46.759  29.255  29.773  1.00  0.00    -0.206 F 
ATOM     56  C   UNL A   1      48.527  28.051  26.889  1.00  0.00     0.022 A 
BRANCH  53  57
ATOM     57  S   UNL A   1      47.875  27.769  24.293  1.00  0.00     0.124 S 
ATOM     58  O   UNL A   1      46.975  28.542  23.327  1.00  0.00    -0.237 OA
ATOM     59  O   UNL A   1      49.337  27.938  23.876  1.00  0.00    -0.237 OA
ATOM     60  O   UNL A   1      47.460  26.110  24.256  1.00  0.00    -0.744 OA
ENDBRANCH  53  57
ENDBRANCH  26  50
BRANCH  38  61
ATOM     61  C   UNL A   1      43.363  35.295  30.067  1.00  0.00     0.023 A 
ATOM     62  C   UNL A   1      43.194  36.242  29.071  1.00  0.00     0.031 A 
ATOM     63  C   UNL A   1      43.842  35.629  31.260  1.00  0.00     0.131 A 
ATOM     64  C   UNL A   1      43.836  37.475  29.337  1.00  0.00     0.055 A 
ATOM     65  C   UNL A   1      44.328  36.893  31.490  1.00  0.00     0.041 A 
ATOM     66  F   UNL A   1      43.852  34.730  32.241  1.00  0.00    -0.206 F 
ATOM     67  C   UNL A   1      44.248  37.863  30.529  1.00  0.00     0.022 A 
BRANCH  64  68
ATOM     68  S   UNL A   1      44.109  38.599  27.945  1.00  0.00     0.124 S 
ATOM     69  O   UNL A   1      44.258  40.029  28.467  1.00  0.00    -0.237 OA
ATOM     70  O   UNL A   1      45.384  38.192  27.202  1.00  0.00    -0.237 OA
ATOM     71  O   UNL A   1      42.777  38.518  26.876  1.00  0.00    -0.744 OA
ENDBRANCH  64  68
ENDBRANCH  38  61
ENDBRANCH  12  13
ENDBRANCH   5   7
ENDBRANCH   2   3
ENDBRANCH   1   2
BRANCH   1  72
ATOM     72  C   UNL A   1      34.412  25.085  25.558  1.00  0.00     0.023 C 
BRANCH  72  73
ATOM     73  C   UNL A   1      33.988  25.911  24.356  1.00  0.00     0.116 C 
BRANCH  73  74
ATOM     74  N   UNL A   1      34.043  25.080  23.145  1.00  0.00    -0.352 N 
ATOM     75  C   UNL A   1      32.883  25.015  22.244  1.00  0.00     0.253 C 
ATOM     76  H   UNL A   1      34.856  24.567  22.937  1.00  0.00     0.163 HD
ATOM     77  O   UNL A   1      32.931  24.296  21.197  1.00  0.00    -0.269 OA
BRANCH  75  78
ATOM     78  C   UNL A   1      31.626  25.808  22.565  1.00  0.00     0.063 A 
ATOM     79  C   UNL A   1      31.651  27.161  22.273  1.00  0.00     0.016 A 
ATOM     80  C   UNL A   1      30.602  25.261  23.210  1.00  0.00     0.051 A 
ATOM     81  C   UNL A   1      30.673  27.915  22.963  1.00  0.00     0.001 A 
ATOM     82  C   UNL A   1      29.611  26.049  23.742  1.00  0.00     0.027 A 
ATOM     83  C   UNL A   1      29.603  27.401  23.543  1.00  0.00     0.002 A 
BRANCH  80  84
ATOM     84  N   UNL A   1      30.529  23.800  23.358  1.00  0.00    -0.355 N 
ATOM     85  H   UNL A   1      30.067  23.260  22.676  1.00  0.00     0.167 HD
BRANCH  84  86
ATOM     86  C   UNL A   1      31.147  23.146  24.520  1.00  0.00     0.040 A 
ATOM     87  C   UNL A   1      30.947  23.660  25.790  1.00  0.00     0.026 A 
ATOM     88  C   UNL A   1      31.917  22.083  24.321  1.00  0.00     0.050 A 
ATOM     89  C   UNL A   1      31.841  23.152  26.762  1.00  0.00     0.004 A 
ATOM     90  C   UNL A   1      32.660  21.555  25.349  1.00  0.00     0.109 A 
ATOM     91  C   UNL A   1      32.556  22.051  26.618  1.00  0.00     0.024 A 
BRANCH  90  92
ATOM     92  S   UNL A   1      33.792  20.182  25.017  1.00  0.00     0.310 S 
ATOM     93  F   UNL A   1      33.100  19.863  23.626  1.00  0.00    -0.094 F 
ATOM     94  F   UNL A   1      32.753  19.200  25.681  1.00  0.00    -0.094 F 
ATOM     95  F   UNL A   1      34.765  19.003  24.733  1.00  0.00    -0.094 F 
ATOM     96  F   UNL A   1      34.755  21.157  24.233  1.00  0.00    -0.094 F 
ATOM     97  F   UNL A   1      32.763  21.368  25.199  1.00  0.00    -0.094 F 
ENDBRANCH  90  92
ENDBRANCH  84  86
ENDBRANCH  80  84
ENDBRANCH  75  78
ENDBRANCH  73  74
ENDBRANCH  72  73
ENDBRANCH   1  72
TORSDOF 17
ENDMDL
