MODEL 1
REMARK VINA RESULT:     -11.5      0.000      0.000
REMARK SMILES CC(C)CN(C)S(=O)(=O)c1ccc(C(=O)NCCCCNC(=O)c2ccc(-c3c4nc(c(-c5cc(S(=O)(=O)[O-])ccc5F)c5ccc([nH]5)c(-c5cc(S(=O)(=O)[O-])ccc5F)c5nc(c(-c6cc(S(=O)(=O)[O-])ccc6F)c6ccc3[nH]6)C=C5)C=C4)cc2)cc1
REMARK SMILES IDX 18 1 17 2 16 3 14 4 15 5 13 7 10 8 11 9 88 10 12 11 87 12
REMARK SMILES IDX 7 13 8 14 9 15 5 16 6 17 4 18 2 19 1 20 3 21 19 22 20 23
REMARK SMILES IDX 21 24 22 25 23 27 24 28 25 29 86 30 26 31 85 32 27 33 28 34
REMARK SMILES IDX 29 35 79 36 30 37 84 38 78 39 80 40 31 41 83 42 77 43 76 44
REMARK SMILES IDX 32 46 64 47 44 48 63 49 45 50 48 51 62 52 81 53 46 54 47 55
REMARK SMILES IDX 61 57 82 58 49 59 33 60 34 61 42 62 35 63 41 64 43 65 40 66
REMARK SMILES IDX 36 67 37 68 38 69 39 70 65 71 66 72 74 73 67 74 73 75 75 76
REMARK SMILES IDX 72 77 68 78 69 79 70 80 71 81 50 82 51 83 59 84 52 85 58 86
REMARK SMILES IDX 60 87 57 88 53 89 54 90 55 91 56 92
REMARK H PARENT 16 6 21 26 80 45 48 56
REMARK Flexibility Score: inf
ROOT
ATOM      1  C   UNL A   1      31.634  29.477  24.377  1.00  0.00     0.023 C 
ENDROOT
BRANCH   1   2
ATOM      2  C   UNL A   1      31.282  28.634  23.147  1.00  0.00     0.116 C 
BRANCH   2   3
ATOM      3  N   UNL A   1      29.877  28.265  23.133  1.00  0.00    -0.352 N 
ATOM      4  C   UNL A   1      29.206  27.184  23.656  1.00  0.00     0.251 C 
ATOM      5  O   UNL A   1      27.974  27.197  23.606  1.00  0.00    -0.269 OA
ATOM      6  H   UNL A   1      29.298  28.907  22.663  1.00  0.00     0.163 HD
BRANCH   4   7
ATOM      7  C   UNL A   1      29.880  26.013  24.295  1.00  0.00     0.039 A 
ATOM      8  C   UNL A   1      31.222  23.772  25.350  1.00  0.00     0.082 A 
ATOM      9  C   UNL A   1      31.038  23.874  23.973  1.00  0.00     0.022 A 
ATOM     10  C   UNL A   1      30.785  24.795  26.191  1.00  0.00     0.022 A 
ATOM     11  C   UNL A   1      30.349  24.984  23.454  1.00  0.00     0.015 A 
ATOM     12  C   UNL A   1      30.147  25.914  25.661  1.00  0.00     0.015 A 
BRANCH   8  13
ATOM     13  S   UNL A   1      32.041  22.420  26.152  1.00  0.00     0.242 S 
ATOM     14  O   UNL A   1      31.505  21.202  25.578  1.00  0.00    -0.207 OA
ATOM     15  O   UNL A   1      31.924  22.682  27.568  1.00  0.00    -0.207 OA
BRANCH  13  16
ATOM     16  N   UNL A   1      33.711  22.472  25.712  1.00  0.00    -0.201 NA
ATOM     17  C   UNL A   1      34.509  21.385  26.359  1.00  0.00     0.124 C 
BRANCH  16  18
ATOM     18  C   UNL A   1      34.338  23.808  26.039  1.00  0.00     0.105 C 
BRANCH  18  19
ATOM     19  C   UNL A   1      34.856  24.560  24.799  1.00  0.00    -0.002 C 
ATOM     20  C   UNL A   1      34.680  23.777  23.497  1.00  0.00     0.009 C 
ATOM     21  C   UNL A   1      34.098  25.888  24.671  1.00  0.00     0.009 C 
ENDBRANCH  18  19
ENDBRANCH  16  18
ENDBRANCH  13  16
ENDBRANCH   8  13
ENDBRANCH   4   7
ENDBRANCH   2   3
ENDBRANCH   1   2
BRANCH   1  22
ATOM     22  C   UNL A   1      32.310  28.721  25.521  1.00  0.00     0.023 C 
BRANCH  22  23
ATOM     23  C   UNL A   1      32.215  29.395  26.886  1.00  0.00     0.116 C 
BRANCH  23  24
ATOM     24  N   UNL A   1      32.127  30.843  26.813  1.00  0.00    -0.352 N 
ATOM     25  C   UNL A   1      33.043  31.779  27.232  1.00  0.00     0.251 C 
ATOM     26  H   UNL A   1      31.304  31.202  26.409  1.00  0.00     0.163 HD
ATOM     27  O   UNL A   1      32.758  32.971  27.179  1.00  0.00    -0.269 OA
BRANCH  25  28
ATOM     28  C   UNL A   1      34.336  31.340  27.801  1.00  0.00     0.039 A 
ATOM     29  C   UNL A   1      35.265  32.317  28.169  1.00  0.00     0.014 A 
ATOM     30  C   UNL A   1      34.630  29.986  27.991  1.00  0.00     0.014 A 
ATOM     31  C   UNL A   1      36.457  31.939  28.789  1.00  0.00     0.010 A 
ATOM     32  C   UNL A   1      35.790  29.615  28.668  1.00  0.00     0.010 A 
ATOM     33  C   UNL A   1      36.713  30.589  29.074  1.00  0.00    -0.014 A 
BRANCH  33  34
ATOM     34  C   UNL A   1      37.940  30.192  29.807  1.00  0.00     0.031 A 
ATOM     35  C   UNL A   1      38.186  30.691  31.203  1.00  0.00     0.074 A 
ATOM     36  C   UNL A   1      38.853  29.418  29.189  1.00  0.00     0.049 A 
ATOM     37  N   UNL A   1      39.191  30.444  32.004  1.00  0.00    -0.248 NA
ATOM     38  C   UNL A   1      37.188  31.616  31.757  1.00  0.00     0.031 C 
ATOM     39  C   UNL A   1      38.757  28.937  27.809  1.00  0.00     0.029 A 
ATOM     40  N   UNL A   1      40.039  28.901  29.639  1.00  0.00    -0.354 N 
ATOM     41  C   UNL A   1      38.950  31.188  33.154  1.00  0.00     0.074 A 
ATOM     42  C   UNL A   1      37.736  31.941  32.917  1.00  0.00     0.031 C 
ATOM     43  C   UNL A   1      39.826  28.172  27.535  1.00  0.00     0.029 A 
ATOM     44  C   UNL A   1      40.688  28.123  28.710  1.00  0.00     0.049 A 
ATOM     45  H   UNL A   1      40.392  29.069  30.542  1.00  0.00     0.167 HD
ATOM     46  C   UNL A   1      39.664  31.221  34.308  1.00  0.00     0.034 A 
ATOM     47  C   UNL A   1      41.842  27.436  28.802  1.00  0.00     0.034 A 
ATOM     48  C   UNL A   1      40.868  30.457  34.529  1.00  0.00     0.049 A 
ATOM     49  C   UNL A   1      42.587  27.441  30.110  1.00  0.00     0.074 A 
ATOM     50  C   UNL A   1      41.646  30.375  35.671  1.00  0.00     0.029 A 
ATOM     51  N   UNL A   1      41.471  29.638  33.582  1.00  0.00    -0.354 N 
ATOM     52  N   UNL A   1      42.312  28.096  31.215  1.00  0.00    -0.248 NA
ATOM     53  C   UNL A   1      43.782  26.593  30.189  1.00  0.00     0.031 C 
ATOM     54  C   UNL A   1      42.741  29.545  35.401  1.00  0.00     0.029 A 
ATOM     55  C   UNL A   1      42.618  29.061  34.108  1.00  0.00     0.049 A 
ATOM     56  H   UNL A   1      41.135  29.489  32.669  1.00  0.00     0.167 HD
ATOM     57  C   UNL A   1      43.292  27.720  32.129  1.00  0.00     0.074 A 
ATOM     58  C   UNL A   1      44.147  26.766  31.451  1.00  0.00     0.031 C 
ATOM     59  C   UNL A   1      43.470  28.126  33.412  1.00  0.00     0.034 A 
BRANCH  46  60
ATOM     60  C   UNL A   1      39.161  32.136  35.399  1.00  0.00     0.023 A 
ATOM     61  C   UNL A   1      39.574  33.478  35.483  1.00  0.00     0.031 A 
ATOM     62  C   UNL A   1      38.297  31.651  36.396  1.00  0.00     0.131 A 
ATOM     63  C   UNL A   1      39.193  34.262  36.582  1.00  0.00     0.055 A 
ATOM     64  C   UNL A   1      37.856  32.461  37.445  1.00  0.00     0.041 A 
ATOM     65  F   UNL A   1      37.883  30.375  36.381  1.00  0.00    -0.206 F 
ATOM     66  C   UNL A   1      38.318  33.770  37.551  1.00  0.00     0.022 A 
BRANCH  63  67
ATOM     67  S   UNL A   1      39.977  35.883  36.802  1.00  0.00     0.124 S 
ATOM     68  O   UNL A   1      41.374  35.508  37.013  1.00  0.00    -0.237 OA
ATOM     69  O   UNL A   1      39.678  36.552  35.543  1.00  0.00    -0.237 OA
ATOM     70  O   UNL A   1      39.303  36.432  37.977  1.00  0.00    -0.744 OA
ENDBRANCH  63  67
ENDBRANCH  46  60
BRANCH  47  71
ATOM     71  C   UNL A   1      42.352  26.663  27.638  1.00  0.00     0.023 A 
ATOM     72  C   UNL A   1      42.006  25.315  27.459  1.00  0.00     0.031 A 
ATOM     73  C   UNL A   1      43.213  27.258  26.699  1.00  0.00     0.131 A 
ATOM     74  C   UNL A   1      42.554  24.590  26.390  1.00  0.00     0.055 A 
ATOM     75  C   UNL A   1      43.724  26.543  25.615  1.00  0.00     0.041 A 
ATOM     76  F   UNL A   1      43.559  28.550  26.819  1.00  0.00    -0.206 F 
ATOM     77  C   UNL A   1      43.404  25.197  25.463  1.00  0.00     0.022 A 
BRANCH  74  78
ATOM     78  S   UNL A   1      42.183  22.819  26.264  1.00  0.00     0.124 S 
ATOM     79  O   UNL A   1      42.973  22.269  27.359  1.00  0.00    -0.237 OA
ATOM     80  O   UNL A   1      40.736  22.800  26.446  1.00  0.00    -0.237 OA
ATOM     81  O   UNL A   1      42.645  22.469  24.923  1.00  0.00    -0.744 OA
ENDBRANCH  74  78
ENDBRANCH  47  71
BRANCH  59  82
ATOM     82  C   UNL A   1      44.621  27.505  34.159  1.00  0.00     0.023 A 
ATOM     83  C   UNL A   1      44.451  26.353  34.946  1.00  0.00     0.031 A 
ATOM     84  C   UNL A   1      45.893  28.102  34.121  1.00  0.00     0.131 A 
ATOM     85  C   UNL A   1      45.518  25.871  35.719  1.00  0.00     0.055 A 
ATOM     86  C   UNL A   1      46.966  27.586  34.849  1.00  0.00     0.041 A 
ATOM     87  F   UNL A   1      46.110  29.204  33.386  1.00  0.00    -0.206 F 
ATOM     88  C   UNL A   1      46.777  26.474  35.667  1.00  0.00     0.022 A 
BRANCH  85  89
ATOM     89  S   UNL A   1      45.207  24.514  36.881  1.00  0.00     0.124 S 
ATOM     90  O   UNL A   1      44.490  23.554  36.047  1.00  0.00    -0.237 OA
ATOM     91  O   UNL A   1      46.557  24.130  37.277  1.00  0.00    -0.237 OA
ATOM     92  O   UNL A   1      44.406  25.139  37.932  1.00  0.00    -0.744 OA
ENDBRANCH  85  89
ENDBRANCH  59  82
ENDBRANCH  33  34
ENDBRANCH  25  28
ENDBRANCH  23  24
ENDBRANCH  22  23
ENDBRANCH   1  22
TORSDOF 18
ENDMDL
MODEL 2
REMARK VINA RESULT:     -11.3      2.277      3.096
REMARK SMILES CC(C)CN(C)S(=O)(=O)c1ccc(C(=O)NCCCCNC(=O)c2ccc(-c3c4nc(c(-c5cc(S(=O)(=O)[O-])ccc5F)c5ccc([nH]5)c(-c5cc(S(=O)(=O)[O-])ccc5F)c5nc(c(-c6cc(S(=O)(=O)[O-])ccc6F)c6ccc3[nH]6)C=C5)C=C4)cc2)cc1
REMARK SMILES IDX 18 1 17 2 16 3 14 4 15 5 13 7 10 8 11 9 88 10 12 11 87 12
REMARK SMILES IDX 7 13 8 14 9 15 5 16 6 17 4 18 2 19 1 20 3 21 19 22 20 23
REMARK SMILES IDX 21 24 22 25 23 27 24 28 25 29 86 30 26 31 85 32 27 33 28 34
REMARK SMILES IDX 29 35 79 36 30 37 84 38 78 39 80 40 31 41 83 42 77 43 76 44
REMARK SMILES IDX 32 46 64 47 44 48 63 49 45 50 48 51 62 52 81 53 46 54 47 55
REMARK SMILES IDX 61 57 82 58 49 59 33 60 34 61 42 62 35 63 41 64 43 65 40 66
REMARK SMILES IDX 36 67 37 68 38 69 39 70 65 71 66 72 74 73 67 74 73 75 75 76
REMARK SMILES IDX 72 77 68 78 69 79 70 80 71 81 50 82 51 83 59 84 52 85 58 86
REMARK SMILES IDX 60 87 57 88 53 89 54 90 55 91 56 92
REMARK H PARENT 16 6 21 26 80 45 48 56
REMARK Flexibility Score: inf
ROOT
ATOM      1  C   UNL A   1      32.748  29.570  24.877  1.00  0.00     0.023 C 
ENDROOT
BRANCH   1   2
ATOM      2  C   UNL A   1      31.218  29.536  24.953  1.00  0.00     0.116 C 
BRANCH   2   3
ATOM      3  N   UNL A   1      30.613  29.657  23.638  1.00  0.00    -0.352 N 
ATOM      4  C   UNL A   1      30.437  28.750  22.619  1.00  0.00     0.251 C 
ATOM      5  O   UNL A   1      29.762  29.102  21.650  1.00  0.00    -0.269 OA
ATOM      6  H   UNL A   1      30.263  30.556  23.439  1.00  0.00     0.163 HD
BRANCH   4   7
ATOM      7  C   UNL A   1      31.000  27.365  22.631  1.00  0.00     0.039 A 
ATOM      8  C   UNL A   1      32.213  24.822  22.641  1.00  0.00     0.082 A 
ATOM      9  C   UNL A   1      32.919  25.916  22.143  1.00  0.00     0.022 A 
ATOM     10  C   UNL A   1      30.935  24.998  23.171  1.00  0.00     0.022 A 
ATOM     11  C   UNL A   1      32.300  27.177  22.121  1.00  0.00     0.015 A 
ATOM     12  C   UNL A   1      30.352  26.262  23.189  1.00  0.00     0.015 A 
BRANCH   8  13
ATOM     13  S   UNL A   1      32.846  23.168  22.704  1.00  0.00     0.242 S 
ATOM     14  O   UNL A   1      33.867  23.068  21.681  1.00  0.00    -0.207 OA
ATOM     15  O   UNL A   1      31.686  22.308  22.675  1.00  0.00    -0.207 OA
BRANCH  13  16
ATOM     16  N   UNL A   1      33.653  22.964  24.218  1.00  0.00    -0.201 NA
ATOM     17  C   UNL A   1      34.220  21.590  24.386  1.00  0.00     0.124 C 
BRANCH  16  18
ATOM     18  C   UNL A   1      32.743  23.270  25.386  1.00  0.00     0.105 C 
BRANCH  18  19
ATOM     19  C   UNL A   1      33.232  24.447  26.250  1.00  0.00    -0.002 C 
ATOM     20  C   UNL A   1      34.336  25.270  25.585  1.00  0.00     0.009 C 
ATOM     21  C   UNL A   1      32.045  25.377  26.539  1.00  0.00     0.009 C 
ENDBRANCH  18  19
ENDBRANCH  16  18
ENDBRANCH  13  16
ENDBRANCH   8  13
ENDBRANCH   4   7
ENDBRANCH   2   3
ENDBRANCH   1   2
BRANCH   1  22
ATOM     22  C   UNL A   1      33.476  28.628  25.837  1.00  0.00     0.023 C 
BRANCH  22  23
ATOM     23  C   UNL A   1      33.379  29.004  27.311  1.00  0.00     0.116 C 
BRANCH  23  24
ATOM     24  N   UNL A   1      33.444  30.436  27.549  1.00  0.00    -0.352 N 
ATOM     25  C   UNL A   1      34.467  31.165  28.108  1.00  0.00     0.251 C 
ATOM     26  H   UNL A   1      32.653  30.952  27.274  1.00  0.00     0.163 HD
ATOM     27  O   UNL A   1      34.310  32.363  28.321  1.00  0.00    -0.269 OA
BRANCH  25  28
ATOM     28  C   UNL A   1      35.723  30.489  28.502  1.00  0.00     0.039 A 
ATOM     29  C   UNL A   1      36.847  30.648  27.687  1.00  0.00     0.014 A 
ATOM     30  C   UNL A   1      35.806  29.725  29.670  1.00  0.00     0.014 A 
ATOM     31  C   UNL A   1      38.067  30.096  28.077  1.00  0.00     0.010 A 
ATOM     32  C   UNL A   1      37.039  29.230  30.091  1.00  0.00     0.010 A 
ATOM     33  C   UNL A   1      38.181  29.413  29.298  1.00  0.00    -0.014 A 
BRANCH  33  34
ATOM     34  C   UNL A   1      39.494  28.898  29.756  1.00  0.00     0.031 A 
ATOM     35  C   UNL A   1      40.209  29.553  30.904  1.00  0.00     0.074 A 
ATOM     36  C   UNL A   1      40.061  27.868  29.099  1.00  0.00     0.049 A 
ATOM     37  N   UNL A   1      41.355  29.238  31.452  1.00  0.00    -0.248 NA
ATOM     38  C   UNL A   1      39.566  30.736  31.492  1.00  0.00     0.031 C 
ATOM     39  C   UNL A   1      39.496  27.204  27.922  1.00  0.00     0.029 A 
ATOM     40  N   UNL A   1      41.236  27.200  29.325  1.00  0.00    -0.354 N 
ATOM     41  C   UNL A   1      41.575  30.189  32.444  1.00  0.00     0.074 A 
ATOM     42  C   UNL A   1      40.471  31.123  32.377  1.00  0.00     0.031 C 
ATOM     43  C   UNL A   1      40.312  26.205  27.547  1.00  0.00     0.029 A 
ATOM     44  C   UNL A   1      41.462  26.170  28.443  1.00  0.00     0.049 A 
ATOM     45  H   UNL A   1      41.859  27.435  30.050  1.00  0.00     0.167 HD
ATOM     46  C   UNL A   1      42.591  30.259  33.341  1.00  0.00     0.034 A 
ATOM     47  C   UNL A   1      42.477  25.287  28.376  1.00  0.00     0.034 A 
ATOM     48  C   UNL A   1      43.678  29.313  33.398  1.00  0.00     0.049 A 
ATOM     49  C   UNL A   1      43.563  25.350  29.416  1.00  0.00     0.074 A 
ATOM     50  C   UNL A   1      44.734  29.258  34.291  1.00  0.00     0.029 A 
ATOM     51  N   UNL A   1      43.850  28.249  32.520  1.00  0.00    -0.354 N 
ATOM     52  N   UNL A   1      43.723  26.214  30.392  1.00  0.00    -0.248 NA
ATOM     53  C   UNL A   1      44.587  24.301  29.359  1.00  0.00     0.031 C 
ATOM     54  C   UNL A   1      45.566  28.192  33.927  1.00  0.00     0.029 A 
ATOM     55  C   UNL A   1      45.000  27.544  32.840  1.00  0.00     0.049 A 
ATOM     56  H   UNL A   1      43.243  28.029  31.777  1.00  0.00     0.167 HD
ATOM     57  C   UNL A   1      44.859  25.798  31.080  1.00  0.00     0.074 A 
ATOM     58  C   UNL A   1      45.327  24.595  30.419  1.00  0.00     0.031 C 
ATOM     59  C   UNL A   1      45.462  26.358  32.159  1.00  0.00     0.034 A 
BRANCH  46  60
ATOM     60  C   UNL A   1      42.571  31.418  34.309  1.00  0.00     0.023 A 
ATOM     61  C   UNL A   1      41.697  31.440  35.411  1.00  0.00     0.031 A 
ATOM     62  C   UNL A   1      43.398  32.536  34.103  1.00  0.00     0.131 A 
ATOM     63  C   UNL A   1      41.610  32.588  36.214  1.00  0.00     0.055 A 
ATOM     64  C   UNL A   1      43.364  33.643  34.954  1.00  0.00     0.041 A 
ATOM     65  F   UNL A   1      44.238  32.581  33.058  1.00  0.00    -0.206 F 
ATOM     66  C   UNL A   1      42.454  33.680  36.007  1.00  0.00     0.022 A 
BRANCH  63  67
ATOM     67  S   UNL A   1      40.275  32.688  37.438  1.00  0.00     0.124 S 
ATOM     68  O   UNL A   1      40.993  32.408  38.680  1.00  0.00    -0.237 OA
ATOM     69  O   UNL A   1      39.795  34.053  37.270  1.00  0.00    -0.237 OA
ATOM     70  O   UNL A   1      39.345  31.643  37.016  1.00  0.00    -0.744 OA
ENDBRANCH  63  67
ENDBRANCH  46  60
BRANCH  47  71
ATOM     71  C   UNL A   1      42.503  24.253  27.307  1.00  0.00     0.023 A 
ATOM     72  C   UNL A   1      41.685  23.115  27.384  1.00  0.00     0.031 A 
ATOM     73  C   UNL A   1      43.366  24.378  26.205  1.00  0.00     0.131 A 
ATOM     74  C   UNL A   1      41.777  22.122  26.397  1.00  0.00     0.055 A 
ATOM     75  C   UNL A   1      43.425  23.405  25.205  1.00  0.00     0.041 A 
ATOM     76  F   UNL A   1      44.155  25.457  26.079  1.00  0.00    -0.206 F 
ATOM     77  C   UNL A   1      42.636  22.262  25.305  1.00  0.00     0.022 A 
BRANCH  74  78
ATOM     78  S   UNL A   1      40.797  20.609  26.597  1.00  0.00     0.124 S 
ATOM     79  O   UNL A   1      41.539  19.661  25.775  1.00  0.00    -0.237 OA
ATOM     80  O   UNL A   1      40.862  20.395  28.038  1.00  0.00    -0.237 OA
ATOM     81  O   UNL A   1      39.482  20.986  26.084  1.00  0.00    -0.744 OA
ENDBRANCH  74  78
ENDBRANCH  47  71
BRANCH  59  82
ATOM     82  C   UNL A   1      46.675  25.644  32.696  1.00  0.00     0.023 A 
ATOM     83  C   UNL A   1      46.569  24.667  33.701  1.00  0.00     0.031 A 
ATOM     84  C   UNL A   1      47.958  25.980  32.231  1.00  0.00     0.131 A 
ATOM     85  C   UNL A   1      47.728  24.107  34.258  1.00  0.00     0.055 A 
ATOM     86  C   UNL A   1      49.106  25.380  32.750  1.00  0.00     0.041 A 
ATOM     87  F   UNL A   1      48.117  26.907  31.273  1.00  0.00    -0.206 F 
ATOM     88  C   UNL A   1      48.996  24.450  33.781  1.00  0.00     0.022 A 
BRANCH  85  89
ATOM     89  S   UNL A   1      47.562  23.010  35.693  1.00  0.00     0.124 S 
ATOM     90  O   UNL A   1      48.940  22.915  36.166  1.00  0.00    -0.237 OA
ATOM     91  O   UNL A   1      46.645  23.755  36.547  1.00  0.00    -0.237 OA
ATOM     92  O   UNL A   1      47.018  21.780  35.122  1.00  0.00    -0.744 OA
ENDBRANCH  85  89
ENDBRANCH  59  82
ENDBRANCH  33  34
ENDBRANCH  25  28
ENDBRANCH  23  24
ENDBRANCH  22  23
ENDBRANCH   1  22
TORSDOF 18
ENDMDL
MODEL 3
REMARK VINA RESULT:     -11.1      2.429      3.289
REMARK SMILES CC(C)CN(C)S(=O)(=O)c1ccc(C(=O)NCCCCNC(=O)c2ccc(-c3c4nc(c(-c5cc(S(=O)(=O)[O-])ccc5F)c5ccc([nH]5)c(-c5cc(S(=O)(=O)[O-])ccc5F)c5nc(c(-c6cc(S(=O)(=O)[O-])ccc6F)c6ccc3[nH]6)C=C5)C=C4)cc2)cc1
REMARK SMILES IDX 18 1 17 2 16 3 14 4 15 5 13 7 10 8 11 9 88 10 12 11 87 12
REMARK SMILES IDX 7 13 8 14 9 15 5 16 6 17 4 18 2 19 1 20 3 21 19 22 20 23
REMARK SMILES IDX 21 24 22 25 23 27 24 28 25 29 86 30 26 31 85 32 27 33 28 34
REMARK SMILES IDX 29 35 79 36 30 37 84 38 78 39 80 40 31 41 83 42 77 43 76 44
REMARK SMILES IDX 32 46 64 47 44 48 63 49 45 50 48 51 62 52 81 53 46 54 47 55
REMARK SMILES IDX 61 57 82 58 49 59 33 60 34 61 42 62 35 63 41 64 43 65 40 66
REMARK SMILES IDX 36 67 37 68 38 69 39 70 65 71 66 72 74 73 67 74 73 75 75 76
REMARK SMILES IDX 72 77 68 78 69 79 70 80 71 81 50 82 51 83 59 84 52 85 58 86
REMARK SMILES IDX 60 87 57 88 53 89 54 90 55 91 56 92
REMARK H PARENT 16 6 21 26 80 45 48 56
REMARK Flexibility Score: inf
ROOT
ATOM      1  C   UNL A   1      33.557  28.215  24.008  1.00  0.00     0.023 C 
ENDROOT
BRANCH   1   2
ATOM      2  C   UNL A   1      32.396  28.112  23.013  1.00  0.00     0.116 C 
BRANCH   2   3
ATOM      3  N   UNL A   1      32.787  27.413  21.801  1.00  0.00    -0.352 N 
ATOM      4  C   UNL A   1      32.944  26.076  21.522  1.00  0.00     0.251 C 
ATOM      5  O   UNL A   1      33.161  25.759  20.351  1.00  0.00    -0.269 OA
ATOM      6  H   UNL A   1      32.974  28.007  21.039  1.00  0.00     0.163 HD
BRANCH   4   7
ATOM      7  C   UNL A   1      32.848  24.993  22.548  1.00  0.00     0.039 A 
ATOM      8  C   UNL A   1      32.803  23.017  24.556  1.00  0.00     0.082 A 
ATOM      9  C   UNL A   1      33.980  23.724  24.317  1.00  0.00     0.022 A 
ATOM     10  C   UNL A   1      31.647  23.320  23.836  1.00  0.00     0.022 A 
ATOM     11  C   UNL A   1      34.002  24.693  23.300  1.00  0.00     0.015 A 
ATOM     12  C   UNL A   1      31.669  24.318  22.864  1.00  0.00     0.015 A 
BRANCH   8  13
ATOM     13  S   UNL A   1      32.630  21.747  25.780  1.00  0.00     0.242 S 
ATOM     14  O   UNL A   1      31.224  21.400  25.831  1.00  0.00    -0.207 OA
ATOM     15  O   UNL A   1      33.309  22.245  26.953  1.00  0.00    -0.207 OA
BRANCH  13  16
ATOM     16  N   UNL A   1      33.458  20.342  25.210  1.00  0.00    -0.201 NA
ATOM     17  C   UNL A   1      34.913  20.590  24.972  1.00  0.00     0.124 C 
BRANCH  16  18
ATOM     18  C   UNL A   1      32.836  19.798  23.944  1.00  0.00     0.105 C 
BRANCH  18  19
ATOM     19  C   UNL A   1      32.459  18.308  24.040  1.00  0.00    -0.002 C 
ATOM     20  C   UNL A   1      33.333  17.404  23.169  1.00  0.00     0.009 C 
ATOM     21  C   UNL A   1      32.599  17.853  25.499  1.00  0.00     0.009 C 
ENDBRANCH  18  19
ENDBRANCH  16  18
ENDBRANCH  13  16
ENDBRANCH   8  13
ENDBRANCH   4   7
ENDBRANCH   2   3
ENDBRANCH   1   2
BRANCH   1  22
ATOM     22  C   UNL A   1      33.211  27.883  25.460  1.00  0.00     0.023 C 
BRANCH  22  23
ATOM     23  C   UNL A   1      34.137  28.498  26.503  1.00  0.00     0.116 C 
BRANCH  23  24
ATOM     24  N   UNL A   1      33.791  29.865  26.853  1.00  0.00    -0.352 N 
ATOM     25  C   UNL A   1      34.483  30.747  27.649  1.00  0.00     0.251 C 
ATOM     26  H   UNL A   1      32.950  30.205  26.469  1.00  0.00     0.163 HD
ATOM     27  O   UNL A   1      33.989  31.838  27.915  1.00  0.00    -0.269 OA
BRANCH  25  28
ATOM     28  C   UNL A   1      35.786  30.350  28.226  1.00  0.00     0.039 A 
ATOM     29  C   UNL A   1      35.792  29.680  29.453  1.00  0.00     0.014 A 
ATOM     30  C   UNL A   1      36.989  30.613  27.565  1.00  0.00     0.014 A 
ATOM     31  C   UNL A   1      36.997  29.216  29.981  1.00  0.00     0.010 A 
ATOM     32  C   UNL A   1      38.183  30.093  28.061  1.00  0.00     0.010 A 
ATOM     33  C   UNL A   1      38.197  29.389  29.272  1.00  0.00    -0.014 A 
BRANCH  33  34
ATOM     34  C   UNL A   1      39.467  28.823  29.790  1.00  0.00     0.031 A 
ATOM     35  C   UNL A   1      40.121  29.416  31.007  1.00  0.00     0.074 A 
ATOM     36  C   UNL A   1      40.050  27.805  29.130  1.00  0.00     0.049 A 
ATOM     37  N   UNL A   1      41.223  29.051  31.612  1.00  0.00    -0.248 NA
ATOM     38  C   UNL A   1      39.469  30.592  31.599  1.00  0.00     0.031 C 
ATOM     39  C   UNL A   1      39.546  27.200  27.895  1.00  0.00     0.029 A 
ATOM     40  N   UNL A   1      41.193  27.099  29.403  1.00  0.00    -0.354 N 
ATOM     41  C   UNL A   1      41.401  29.957  32.653  1.00  0.00     0.074 A 
ATOM     42  C   UNL A   1      40.325  30.922  32.554  1.00  0.00     0.031 C 
ATOM     43  C   UNL A   1      40.362  26.196  27.533  1.00  0.00     0.029 A 
ATOM     44  C   UNL A   1      41.451  26.098  28.497  1.00  0.00     0.049 A 
ATOM     45  H   UNL A   1      41.773  27.291  30.175  1.00  0.00     0.167 HD
ATOM     46  C   UNL A   1      42.359  29.968  33.614  1.00  0.00     0.034 A 
ATOM     47  C   UNL A   1      42.448  25.193  28.459  1.00  0.00     0.034 A 
ATOM     48  C   UNL A   1      43.418  28.993  33.702  1.00  0.00     0.049 A 
ATOM     49  C   UNL A   1      43.466  25.189  29.567  1.00  0.00     0.074 A 
ATOM     50  C   UNL A   1      44.414  28.878  34.657  1.00  0.00     0.029 A 
ATOM     51  N   UNL A   1      43.621  27.960  32.795  1.00  0.00    -0.354 N 
ATOM     52  N   UNL A   1      43.584  26.010  30.584  1.00  0.00    -0.248 NA
ATOM     53  C   UNL A   1      44.468  24.117  29.533  1.00  0.00     0.031 C 
ATOM     54  C   UNL A   1      45.243  27.805  34.304  1.00  0.00     0.029 A 
ATOM     55  C   UNL A   1      44.732  27.213  33.159  1.00  0.00     0.049 A 
ATOM     56  H   UNL A   1      43.058  27.783  32.008  1.00  0.00     0.167 HD
ATOM     57  C   UNL A   1      44.663  25.540  31.325  1.00  0.00     0.074 A 
ATOM     58  C   UNL A   1      45.145  24.352  30.648  1.00  0.00     0.031 C 
ATOM     59  C   UNL A   1      45.209  26.043  32.462  1.00  0.00     0.034 A 
BRANCH  46  60
ATOM     60  C   UNL A   1      42.303  31.089  34.624  1.00  0.00     0.023 A 
ATOM     61  C   UNL A   1      43.004  32.293  34.426  1.00  0.00     0.031 A 
ATOM     62  C   UNL A   1      41.581  30.938  35.821  1.00  0.00     0.131 A 
ATOM     63  C   UNL A   1      43.039  33.259  35.443  1.00  0.00     0.055 A 
ATOM     64  C   UNL A   1      41.554  31.939  36.795  1.00  0.00     0.041 A 
ATOM     65  F   UNL A   1      40.909  29.805  36.075  1.00  0.00    -0.206 F 
ATOM     66  C   UNL A   1      42.300  33.101  36.616  1.00  0.00     0.022 A 
BRANCH  63  67
ATOM     67  S   UNL A   1      44.182  34.657  35.269  1.00  0.00     0.124 S 
ATOM     68  O   UNL A   1      44.930  34.582  36.523  1.00  0.00    -0.237 OA
ATOM     69  O   UNL A   1      44.921  34.312  34.062  1.00  0.00    -0.237 OA
ATOM     70  O   UNL A   1      43.295  35.812  35.150  1.00  0.00    -0.744 OA
ENDBRANCH  63  67
ENDBRANCH  46  60
BRANCH  47  71
ATOM     71  C   UNL A   1      42.518  24.200  27.354  1.00  0.00     0.023 A 
ATOM     72  C   UNL A   1      41.724  23.043  27.371  1.00  0.00     0.031 A 
ATOM     73  C   UNL A   1      43.400  24.384  26.275  1.00  0.00     0.131 A 
ATOM     74  C   UNL A   1      41.859  22.089  26.352  1.00  0.00     0.055 A 
ATOM     75  C   UNL A   1      43.501  23.451  25.242  1.00  0.00     0.041 A 
ATOM     76  F   UNL A   1      44.167  25.484  26.205  1.00  0.00    -0.206 F 
ATOM     77  C   UNL A   1      42.736  22.288  25.283  1.00  0.00     0.022 A 
BRANCH  74  78
ATOM     78  S   UNL A   1      40.908  20.549  26.475  1.00  0.00     0.124 S 
ATOM     79  O   UNL A   1      40.964  20.277  27.907  1.00  0.00    -0.237 OA
ATOM     80  O   UNL A   1      39.608  20.954  25.950  1.00  0.00    -0.237 OA
ATOM     81  O   UNL A   1      41.656  19.619  25.632  1.00  0.00    -0.744 OA
ENDBRANCH  74  78
ENDBRANCH  47  71
BRANCH  59  82
ATOM     82  C   UNL A   1      46.369  25.278  33.045  1.00  0.00     0.023 A 
ATOM     83  C   UNL A   1      46.173  24.230  33.961  1.00  0.00     0.031 A 
ATOM     84  C   UNL A   1      47.688  25.635  32.717  1.00  0.00     0.131 A 
ATOM     85  C   UNL A   1      47.278  23.619  34.571  1.00  0.00     0.055 A 
ATOM     86  C   UNL A   1      48.785  24.986  33.286  1.00  0.00     0.041 A 
ATOM     87  F   UNL A   1      47.932  26.629  31.848  1.00  0.00    -0.206 F 
ATOM     88  C   UNL A   1      48.583  23.983  34.231  1.00  0.00     0.022 A 
BRANCH  85  89
ATOM     89  S   UNL A   1      46.985  22.420  35.901  1.00  0.00     0.124 S 
ATOM     90  O   UNL A   1      47.402  23.168  37.084  1.00  0.00    -0.237 OA
ATOM     91  O   UNL A   1      45.554  22.167  35.779  1.00  0.00    -0.237 OA
ATOM     92  O   UNL A   1      47.847  21.296  35.544  1.00  0.00    -0.744 OA
ENDBRANCH  85  89
ENDBRANCH  59  82
ENDBRANCH  33  34
ENDBRANCH  25  28
ENDBRANCH  23  24
ENDBRANCH  22  23
ENDBRANCH   1  22
TORSDOF 18
ENDMDL
