MODEL 1
REMARK VINA RESULT:     -11.4      0.000      0.000
REMARK SMILES CCc1ccc(C[NH+]2CCC(Oc3ccccc3OC)(C(=O)NCCCCNC(=O)c3ccc(-c4c5nc(c(-c6cc(S(=O)(=O)[O-])ccc6F)c6ccc([nH]6)c(-c6cc(S(=O)(=O)[O-])ccc6F)c6nc(c(-c7cc(S(=O)(=O)[O-])ccc7F)c7ccc4[nH]7)C=C6)C=C5)cc3)CC2)nc1
REMARK SMILES IDX 25 1 24 2 23 3 21 4 22 5 11 7 8 8 9 9 95 10 10 12 94 13 7 14
REMARK SMILES IDX 6 15 3 16 4 17 97 18 5 19 96 20 2 21 1 22 12 23 13 24 14 25
REMARK SMILES IDX 18 26 15 27 17 28 16 29 19 30 20 31 26 32 27 33 28 34 29 35
REMARK SMILES IDX 30 37 31 38 32 39 93 40 33 41 92 42 34 43 35 44 36 45 86 46
REMARK SMILES IDX 37 47 91 48 85 49 87 50 38 51 90 52 84 53 83 54 39 56 71 57
REMARK SMILES IDX 51 58 70 59 52 60 55 61 69 62 88 63 53 64 54 65 68 67 89 68
REMARK SMILES IDX 56 69 40 70 41 71 49 72 42 73 48 74 50 75 47 76 43 77 44 78
REMARK SMILES IDX 45 79 46 80 72 81 73 82 81 83 74 84 80 85 82 86 79 87 75 88
REMARK SMILES IDX 76 89 77 90 78 91 57 92 58 93 66 94 59 95 65 96 67 97 64 98
REMARK SMILES IDX 60 99 61 100 62 101 63 102
REMARK H PARENT 23 6 8 11 28 36 87 55 55 66
REMARK Flexibility Score: inf
ROOT
ATOM      1  C   UNL A   1      39.089  22.957  26.554  1.00  0.00     0.023 C 
ENDROOT
BRANCH   1   2
ATOM      2  C   UNL A   1      37.846  23.676  26.037  1.00  0.00     0.116 C 
BRANCH   2   3
ATOM      3  N   UNL A   1      37.567  23.385  24.646  1.00  0.00    -0.353 N 
ATOM      4  C   UNL A   1      36.384  23.326  23.962  1.00  0.00     0.264 C 
ATOM      5  O   UNL A   1      36.497  23.332  22.730  1.00  0.00    -0.270 OA
ATOM      6  H   UNL A   1      38.365  23.198  24.099  1.00  0.00     0.163 HD
BRANCH   4   7
ATOM      7  C   UNL A   1      34.984  23.244  24.672  1.00  0.00     0.197 C 
ATOM      8  N   UNL A   1      33.353  25.404  23.504  1.00  0.00    -0.330 N 
ATOM      9  C   UNL A   1      33.687  24.209  22.724  1.00  0.00     0.267 C 
ATOM     10  C   UNL A   1      34.433  25.741  24.445  1.00  0.00     0.267 C 
ATOM     11  H   UNL A   1      32.523  25.192  24.056  1.00  0.00     0.348 HD
ATOM     12  C   UNL A   1      33.859  23.025  23.657  1.00  0.00     0.120 C 
ATOM     13  C   UNL A   1      34.720  24.577  25.412  1.00  0.00     0.120 C 
BRANCH   8  14
ATOM     14  C   UNL A   1      32.996  26.551  22.630  1.00  0.00     0.319 C 
BRANCH  14  15
ATOM     15  C   UNL A   1      31.659  27.216  22.918  1.00  0.00     0.095 A 
ATOM     16  C   UNL A   1      29.131  28.328  23.014  1.00  0.00    -0.030 A 
ATOM     17  C   UNL A   1      29.341  27.041  23.513  1.00  0.00     0.007 A 
ATOM     18  C   UNL A   1      30.242  28.996  22.511  1.00  0.00     0.115 A 
ATOM     19  C   UNL A   1      30.614  26.477  23.469  1.00  0.00     0.030 A 
ATOM     20  N   UNL A   1      31.492  28.486  22.479  1.00  0.00    -0.255 NA
BRANCH  16  21
ATOM     21  C   UNL A   1      27.740  28.898  22.943  1.00  0.00     0.034 C 
ATOM     22  C   UNL A   1      27.654  30.399  23.193  1.00  0.00     0.009 C 
ENDBRANCH  16  21
ENDBRANCH  14  15
ENDBRANCH   8  14
BRANCH   7  23
ATOM     23  O   UNL A   1      35.130  22.094  25.538  1.00  0.00    -0.473 OA
BRANCH  23  24
ATOM     24  C   UNL A   1      34.329  21.005  25.373  1.00  0.00     0.162 A 
ATOM     25  C   UNL A   1      34.898  19.922  24.693  1.00  0.00     0.050 A 
ATOM     26  C   UNL A   1      32.964  20.984  25.678  1.00  0.00     0.160 A 
ATOM     27  C   UNL A   1      34.129  18.802  24.375  1.00  0.00     0.004 A 
ATOM     28  C   UNL A   1      32.202  19.851  25.378  1.00  0.00     0.050 A 
ATOM     29  C   UNL A   1      32.780  18.765  24.721  1.00  0.00     0.004 A 
BRANCH  26  30
ATOM     30  O   UNL A   1      32.293  21.982  26.331  1.00  0.00    -0.493 OA
ATOM     31  C   UNL A   1      31.001  22.226  25.784  1.00  0.00     0.278 C 
ENDBRANCH  26  30
ENDBRANCH  23  24
ENDBRANCH   7  23
ENDBRANCH   4   7
ENDBRANCH   2   3
ENDBRANCH   1   2
BRANCH   1  32
ATOM     32  C   UNL A   1      39.348  21.594  25.918  1.00  0.00     0.023 C 
BRANCH  32  33
ATOM     33  C   UNL A   1      40.060  20.591  26.814  1.00  0.00     0.116 C 
BRANCH  33  34
ATOM     34  N   UNL A   1      41.174  19.919  26.162  1.00  0.00    -0.352 N 
ATOM     35  C   UNL A   1      42.402  20.439  25.822  1.00  0.00     0.251 C 
ATOM     36  H   UNL A   1      41.031  18.972  25.936  1.00  0.00     0.163 HD
ATOM     37  O   UNL A   1      43.190  19.771  25.167  1.00  0.00    -0.269 OA
BRANCH  35  38
ATOM     38  C   UNL A   1      42.730  21.825  26.219  1.00  0.00     0.039 A 
ATOM     39  C   UNL A   1      42.673  22.837  25.259  1.00  0.00     0.014 A 
ATOM     40  C   UNL A   1      43.047  22.128  27.547  1.00  0.00     0.014 A 
ATOM     41  C   UNL A   1      42.871  24.164  25.646  1.00  0.00     0.010 A 
ATOM     42  C   UNL A   1      43.156  23.456  27.944  1.00  0.00     0.010 A 
ATOM     43  C   UNL A   1      43.079  24.488  26.996  1.00  0.00    -0.014 A 
BRANCH  43  44
ATOM     44  C   UNL A   1      43.252  25.896  27.436  1.00  0.00     0.031 A 
ATOM     45  C   UNL A   1      44.617  26.528  27.394  1.00  0.00     0.074 A 
ATOM     46  C   UNL A   1      42.200  26.583  27.926  1.00  0.00     0.049 A 
ATOM     47  N   UNL A   1      44.997  27.714  27.799  1.00  0.00    -0.248 NA
ATOM     48  C   UNL A   1      45.708  25.701  26.856  1.00  0.00     0.031 C 
ATOM     49  C   UNL A   1      40.838  26.062  28.060  1.00  0.00     0.029 A 
ATOM     50  N   UNL A   1      42.111  27.864  28.407  1.00  0.00    -0.354 N 
ATOM     51  C   UNL A   1      46.370  27.767  27.580  1.00  0.00     0.074 A 
ATOM     52  C   UNL A   1      46.763  26.469  27.077  1.00  0.00     0.031 C 
ATOM     53  C   UNL A   1      40.046  27.023  28.562  1.00  0.00     0.029 A 
ATOM     54  C   UNL A   1      40.848  28.214  28.824  1.00  0.00     0.049 A 
ATOM     55  H   UNL A   1      42.881  28.477  28.451  1.00  0.00     0.167 HD
ATOM     56  C   UNL A   1      47.218  28.810  27.755  1.00  0.00     0.034 A 
ATOM     57  C   UNL A   1      40.390  29.362  29.364  1.00  0.00     0.034 A 
ATOM     58  C   UNL A   1      46.804  30.103  28.243  1.00  0.00     0.049 A 
ATOM     59  C   UNL A   1      41.353  30.506  29.556  1.00  0.00     0.074 A 
ATOM     60  C   UNL A   1      47.565  31.246  28.415  1.00  0.00     0.029 A 
ATOM     61  N   UNL A   1      45.512  30.425  28.642  1.00  0.00    -0.354 N 
ATOM     62  N   UNL A   1      42.640  30.558  29.297  1.00  0.00    -0.248 NA
ATOM     63  C   UNL A   1      40.796  31.753  30.096  1.00  0.00     0.031 C 
ATOM     64  C   UNL A   1      46.751  32.235  28.977  1.00  0.00     0.029 A 
ATOM     65  C   UNL A   1      45.461  31.739  29.081  1.00  0.00     0.049 A 
ATOM     66  H   UNL A   1      44.743  29.810  28.615  1.00  0.00     0.167 HD
ATOM     67  C   UNL A   1      43.038  31.855  29.612  1.00  0.00     0.074 A 
ATOM     68  C   UNL A   1      41.851  32.555  30.061  1.00  0.00     0.031 C 
ATOM     69  C   UNL A   1      44.270  32.420  29.534  1.00  0.00     0.034 A 
BRANCH  56  70
ATOM     70  C   UNL A   1      48.677  28.576  27.435  1.00  0.00     0.023 A 
ATOM     71  C   UNL A   1      49.153  28.581  26.111  1.00  0.00     0.031 A 
ATOM     72  C   UNL A   1      49.598  28.305  28.462  1.00  0.00     0.131 A 
ATOM     73  C   UNL A   1      50.485  28.234  25.843  1.00  0.00     0.055 A 
ATOM     74  C   UNL A   1      50.946  28.050  28.194  1.00  0.00     0.041 A 
ATOM     75  F   UNL A   1      49.203  28.265  29.744  1.00  0.00    -0.206 F 
ATOM     76  C   UNL A   1      51.393  27.995  26.877  1.00  0.00     0.022 A 
BRANCH  73  77
ATOM     77  S   UNL A   1      50.973  27.944  24.120  1.00  0.00     0.124 S 
ATOM     78  O   UNL A   1      51.714  26.691  24.232  1.00  0.00    -0.237 OA
ATOM     79  O   UNL A   1      49.686  27.867  23.437  1.00  0.00    -0.237 OA
ATOM     80  O   UNL A   1      51.786  29.114  23.792  1.00  0.00    -0.744 OA
ENDBRANCH  73  77
ENDBRANCH  56  70
BRANCH  57  81
ATOM     81  C   UNL A   1      38.958  29.496  29.759  1.00  0.00     0.023 A 
ATOM     82  C   UNL A   1      38.033  30.141  28.922  1.00  0.00     0.031 A 
ATOM     83  C   UNL A   1      38.502  29.025  31.002  1.00  0.00     0.131 A 
ATOM     84  C   UNL A   1      36.716  30.345  29.359  1.00  0.00     0.055 A 
ATOM     85  C   UNL A   1      37.176  29.181  31.409  1.00  0.00     0.041 A 
ATOM     86  F   UNL A   1      39.342  28.394  31.839  1.00  0.00    -0.206 F 
ATOM     87  C   UNL A   1      36.277  29.857  30.591  1.00  0.00     0.022 A 
BRANCH  84  88
ATOM     88  S   UNL A   1      35.602  31.337  28.326  1.00  0.00     0.124 S 
ATOM     89  O   UNL A   1      35.283  30.404  27.252  1.00  0.00    -0.237 OA
ATOM     90  O   UNL A   1      34.519  31.642  29.256  1.00  0.00    -0.237 OA
ATOM     91  O   UNL A   1      36.426  32.480  27.938  1.00  0.00    -0.744 OA
ENDBRANCH  84  88
ENDBRANCH  57  81
BRANCH  69  92
ATOM     92  C   UNL A   1      44.377  33.883  29.894  1.00  0.00     0.023 A 
ATOM     93  C   UNL A   1      44.094  34.899  28.964  1.00  0.00     0.031 A 
ATOM     94  C   UNL A   1      44.794  34.263  31.182  1.00  0.00     0.131 A 
ATOM     95  C   UNL A   1      44.297  36.242  29.314  1.00  0.00     0.055 A 
ATOM     96  C   UNL A   1      44.927  35.604  31.546  1.00  0.00     0.041 A 
ATOM     97  F   UNL A   1      45.079  33.337  32.110  1.00  0.00    -0.206 F 
ATOM     98  C   UNL A   1      44.695  36.602  30.604  1.00  0.00     0.022 A 
BRANCH  95  99
ATOM     99  S   UNL A   1      44.143  37.510  28.025  1.00  0.00     0.124 S 
ATOM    100  O   UNL A   1      42.697  37.583  27.843  1.00  0.00    -0.237 OA
ATOM    101  O   UNL A   1      44.764  38.671  28.656  1.00  0.00    -0.237 OA
ATOM    102  O   UNL A   1      44.883  36.947  26.899  1.00  0.00    -0.744 OA
ENDBRANCH  95  99
ENDBRANCH  69  92
ENDBRANCH  43  44
ENDBRANCH  35  38
ENDBRANCH  33  34
ENDBRANCH  32  33
ENDBRANCH   1  32
TORSDOF 20
ENDMDL
MODEL 2
REMARK VINA RESULT:     -11.0      2.183      7.669
REMARK SMILES CCc1ccc(C[NH+]2CCC(Oc3ccccc3OC)(C(=O)NCCCCNC(=O)c3ccc(-c4c5nc(c(-c6cc(S(=O)(=O)[O-])ccc6F)c6ccc([nH]6)c(-c6cc(S(=O)(=O)[O-])ccc6F)c6nc(c(-c7cc(S(=O)(=O)[O-])ccc7F)c7ccc4[nH]7)C=C6)C=C5)cc3)CC2)nc1
REMARK SMILES IDX 25 1 24 2 23 3 21 4 22 5 11 7 8 8 9 9 95 10 10 12 94 13 7 14
REMARK SMILES IDX 6 15 3 16 4 17 97 18 5 19 96 20 2 21 1 22 12 23 13 24 14 25
REMARK SMILES IDX 18 26 15 27 17 28 16 29 19 30 20 31 26 32 27 33 28 34 29 35
REMARK SMILES IDX 30 37 31 38 32 39 93 40 33 41 92 42 34 43 35 44 36 45 86 46
REMARK SMILES IDX 37 47 91 48 85 49 87 50 38 51 90 52 84 53 83 54 39 56 71 57
REMARK SMILES IDX 51 58 70 59 52 60 55 61 69 62 88 63 53 64 54 65 68 67 89 68
REMARK SMILES IDX 56 69 40 70 41 71 49 72 42 73 48 74 50 75 47 76 43 77 44 78
REMARK SMILES IDX 45 79 46 80 72 81 73 82 81 83 74 84 80 85 82 86 79 87 75 88
REMARK SMILES IDX 76 89 77 90 78 91 57 92 58 93 66 94 59 95 65 96 67 97 64 98
REMARK SMILES IDX 60 99 61 100 62 101 63 102
REMARK H PARENT 23 6 8 11 28 36 87 55 55 66
REMARK Flexibility Score: inf
ROOT
ATOM      1  C   UNL A   1      38.897  23.061  26.423  1.00  0.00     0.023 C 
ENDROOT
BRANCH   1   2
ATOM      2  C   UNL A   1      37.533  23.570  25.967  1.00  0.00     0.116 C 
BRANCH   2   3
ATOM      3  N   UNL A   1      37.196  23.146  24.624  1.00  0.00    -0.353 N 
ATOM      4  C   UNL A   1      35.994  23.102  23.974  1.00  0.00     0.264 C 
ATOM      5  O   UNL A   1      36.073  22.960  22.748  1.00  0.00    -0.270 OA
ATOM      6  H   UNL A   1      37.963  22.838  24.088  1.00  0.00     0.163 HD
BRANCH   4   7
ATOM      7  C   UNL A   1      34.611  23.207  24.714  1.00  0.00     0.197 C 
ATOM      8  N   UNL A   1      33.239  25.540  23.542  1.00  0.00    -0.330 N 
ATOM      9  C   UNL A   1      33.402  24.301  22.777  1.00  0.00     0.267 C 
ATOM     10  C   UNL A   1      34.374  25.750  24.456  1.00  0.00     0.267 C 
ATOM     11  H   UNL A   1      32.402  25.442  24.116  1.00  0.00     0.348 HD
ATOM     12  C   UNL A   1      33.445  23.117  23.726  1.00  0.00     0.120 C 
ATOM     13  C   UNL A   1      34.534  24.574  25.436  1.00  0.00     0.120 C 
BRANCH   8  14
ATOM     14  C   UNL A   1      33.010  26.709  22.657  1.00  0.00     0.319 C 
BRANCH  14  15
ATOM     15  C   UNL A   1      31.864  27.628  23.050  1.00  0.00     0.095 A 
ATOM     16  C   UNL A   1      29.934  29.568  23.442  1.00  0.00    -0.030 A 
ATOM     17  C   UNL A   1      29.634  28.434  22.683  1.00  0.00     0.007 A 
ATOM     18  C   UNL A   1      31.211  29.637  23.989  1.00  0.00     0.115 A 
ATOM     19  C   UNL A   1      30.601  27.453  22.485  1.00  0.00     0.030 A 
ATOM     20  N   UNL A   1      32.161  28.689  23.836  1.00  0.00    -0.255 NA
BRANCH  16  21
ATOM     21  C   UNL A   1      28.939  30.690  23.559  1.00  0.00     0.034 C 
ATOM     22  C   UNL A   1      27.518  30.327  23.147  1.00  0.00     0.009 C 
ENDBRANCH  16  21
ENDBRANCH  14  15
ENDBRANCH   8  14
BRANCH   7  23
ATOM     23  O   UNL A   1      34.630  22.061  25.596  1.00  0.00    -0.473 OA
BRANCH  23  24
ATOM     24  C   UNL A   1      34.301  20.826  25.124  1.00  0.00     0.162 A 
ATOM     25  C   UNL A   1      32.933  20.541  25.053  1.00  0.00     0.050 A 
ATOM     26  C   UNL A   1      35.230  19.807  24.887  1.00  0.00     0.160 A 
ATOM     27  C   UNL A   1      32.494  19.267  24.689  1.00  0.00     0.004 A 
ATOM     28  C   UNL A   1      34.786  18.539  24.500  1.00  0.00     0.050 A 
ATOM     29  C   UNL A   1      33.421  18.267  24.409  1.00  0.00     0.004 A 
BRANCH  26  30
ATOM     30  O   UNL A   1      36.589  19.960  24.933  1.00  0.00    -0.493 OA
ATOM     31  C   UNL A   1      37.284  18.718  24.903  1.00  0.00     0.278 C 
ENDBRANCH  26  30
ENDBRANCH  23  24
ENDBRANCH   7  23
ENDBRANCH   4   7
ENDBRANCH   2   3
ENDBRANCH   1   2
BRANCH   1  32
ATOM     32  C   UNL A   1      39.306  21.715  25.831  1.00  0.00     0.023 C 
BRANCH  32  33
ATOM     33  C   UNL A   1      39.710  20.659  26.850  1.00  0.00     0.116 C 
BRANCH  33  34
ATOM     34  N   UNL A   1      40.642  19.674  26.326  1.00  0.00    -0.352 N 
ATOM     35  C   UNL A   1      41.968  19.845  25.993  1.00  0.00     0.251 C 
ATOM     36  H   UNL A   1      40.280  18.768  26.193  1.00  0.00     0.163 HD
ATOM     37  O   UNL A   1      42.585  18.939  25.449  1.00  0.00    -0.269 OA
BRANCH  35  38
ATOM     38  C   UNL A   1      42.612  21.149  26.261  1.00  0.00     0.039 A 
ATOM     39  C   UNL A   1      42.804  22.039  25.203  1.00  0.00     0.014 A 
ATOM     40  C   UNL A   1      42.981  21.506  27.561  1.00  0.00     0.014 A 
ATOM     41  C   UNL A   1      43.308  23.316  25.461  1.00  0.00     0.010 A 
ATOM     42  C   UNL A   1      43.399  22.805  27.827  1.00  0.00     0.010 A 
ATOM     43  C   UNL A   1      43.576  23.721  26.779  1.00  0.00    -0.014 A 
BRANCH  43  44
ATOM     44  C   UNL A   1      44.075  25.087  27.081  1.00  0.00     0.031 A 
ATOM     45  C   UNL A   1      43.146  26.104  27.688  1.00  0.00     0.074 A 
ATOM     46  C   UNL A   1      45.338  25.430  26.758  1.00  0.00     0.049 A 
ATOM     47  N   UNL A   1      43.358  27.366  27.961  1.00  0.00    -0.248 NA
ATOM     48  C   UNL A   1      41.782  25.646  27.995  1.00  0.00     0.031 C 
ATOM     49  C   UNL A   1      46.319  24.545  26.123  1.00  0.00     0.029 A 
ATOM     50  N   UNL A   1      46.015  26.613  26.913  1.00  0.00    -0.354 N 
ATOM     51  C   UNL A   1      42.154  27.855  28.455  1.00  0.00     0.074 A 
ATOM     52  C   UNL A   1      41.198  26.772  28.374  1.00  0.00     0.031 C 
ATOM     53  C   UNL A   1      47.476  25.209  25.970  1.00  0.00     0.029 A 
ATOM     54  C   UNL A   1      47.311  26.575  26.455  1.00  0.00     0.049 A 
ATOM     55  H   UNL A   1      45.609  27.416  27.315  1.00  0.00     0.167 HD
ATOM     56  C   UNL A   1      41.878  29.084  28.958  1.00  0.00     0.034 A 
ATOM     57  C   UNL A   1      48.257  27.536  26.423  1.00  0.00     0.034 A 
ATOM     58  C   UNL A   1      42.849  30.147  29.046  1.00  0.00     0.049 A 
ATOM     59  C   UNL A   1      47.925  28.897  26.980  1.00  0.00     0.074 A 
ATOM     60  C   UNL A   1      42.696  31.415  29.578  1.00  0.00     0.029 A 
ATOM     61  N   UNL A   1      44.158  30.067  28.584  1.00  0.00    -0.354 N 
ATOM     62  N   UNL A   1      46.795  29.331  27.491  1.00  0.00    -0.248 NA
ATOM     63  C   UNL A   1      49.004  29.894  26.972  1.00  0.00     0.031 C 
ATOM     64  C   UNL A   1      43.887  32.121  29.381  1.00  0.00     0.029 A 
ATOM     65  C   UNL A   1      44.813  31.271  28.799  1.00  0.00     0.049 A 
ATOM     66  H   UNL A   1      44.562  29.272  28.167  1.00  0.00     0.167 HD
ATOM     67  C   UNL A   1      47.039  30.640  27.897  1.00  0.00     0.074 A 
ATOM     68  C   UNL A   1      48.428  30.917  27.587  1.00  0.00     0.031 C 
ATOM     69  C   UNL A   1      46.197  31.533  28.477  1.00  0.00     0.034 A 
BRANCH  56  70
ATOM     70  C   UNL A   1      40.463  29.338  29.426  1.00  0.00     0.023 A 
ATOM     71  C   UNL A   1      40.140  29.417  30.792  1.00  0.00     0.031 A 
ATOM     72  C   UNL A   1      39.415  29.463  28.496  1.00  0.00     0.131 A 
ATOM     73  C   UNL A   1      38.800  29.526  31.192  1.00  0.00     0.055 A 
ATOM     74  C   UNL A   1      38.092  29.663  28.900  1.00  0.00     0.041 A 
ATOM     75  F   UNL A   1      39.655  29.375  27.178  1.00  0.00    -0.206 F 
ATOM     76  C   UNL A   1      37.776  29.677  30.255  1.00  0.00     0.022 A 
BRANCH  73  77
ATOM     77  S   UNL A   1      38.401  29.306  32.948  1.00  0.00     0.124 S 
ATOM     78  O   UNL A   1      37.439  28.208  32.895  1.00  0.00    -0.237 OA
ATOM     79  O   UNL A   1      39.700  28.989  33.530  1.00  0.00    -0.237 OA
ATOM     80  O   UNL A   1      37.841  30.599  33.337  1.00  0.00    -0.744 OA
ENDBRANCH  73  77
ENDBRANCH  56  70
BRANCH  57  81
ATOM     81  C   UNL A   1      49.605  27.255  25.849  1.00  0.00     0.023 A 
ATOM     82  C   UNL A   1      50.676  26.872  26.673  1.00  0.00     0.031 A 
ATOM     83  C   UNL A   1      49.856  27.412  24.475  1.00  0.00     0.131 A 
ATOM     84  C   UNL A   1      51.958  26.711  26.126  1.00  0.00     0.055 A 
ATOM     85  C   UNL A   1      51.121  27.197  23.926  1.00  0.00     0.041 A 
ATOM     86  F   UNL A   1      48.866  27.770  23.641  1.00  0.00    -0.206 F 
ATOM     87  C   UNL A   1      52.185  26.858  24.756  1.00  0.00     0.022 A 
BRANCH  84  88
ATOM     88  S   UNL A   1      53.347  26.391  27.247  1.00  0.00     0.124 S 
ATOM     89  O   UNL A   1      52.670  26.283  28.534  1.00  0.00    -0.237 OA
ATOM     90  O   UNL A   1      53.896  25.153  26.704  1.00  0.00    -0.237 OA
ATOM     91  O   UNL A   1      54.195  27.571  27.084  1.00  0.00    -0.744 OA
ENDBRANCH  84  88
ENDBRANCH  57  81
BRANCH  69  92
ATOM     92  C   UNL A   1      46.778  32.874  28.860  1.00  0.00     0.023 A 
ATOM     93  C   UNL A   1      46.752  33.972  27.983  1.00  0.00     0.031 A 
ATOM     94  C   UNL A   1      47.390  33.044  30.115  1.00  0.00     0.131 A 
ATOM     95  C   UNL A   1      47.385  35.170  28.346  1.00  0.00     0.055 A 
ATOM     96  C   UNL A   1      47.958  34.260  30.497  1.00  0.00     0.041 A 
ATOM     97  F   UNL A   1      47.445  32.030  30.992  1.00  0.00    -0.206 F 
ATOM     98  C   UNL A   1      47.974  35.326  29.603  1.00  0.00     0.022 A 
BRANCH  95  99
ATOM     99  S   UNL A   1      47.532  36.487  27.106  1.00  0.00     0.124 S 
ATOM    100  O   UNL A   1      46.765  37.567  27.718  1.00  0.00    -0.237 OA
ATOM    101  O   UNL A   1      48.976  36.690  27.037  1.00  0.00    -0.237 OA
ATOM    102  O   UNL A   1      46.932  35.901  25.910  1.00  0.00    -0.744 OA
ENDBRANCH  95  99
ENDBRANCH  69  92
ENDBRANCH  43  44
ENDBRANCH  35  38
ENDBRANCH  33  34
ENDBRANCH  32  33
ENDBRANCH   1  32
TORSDOF 20
ENDMDL
MODEL 3
REMARK VINA RESULT:     -10.3      2.488      3.166
REMARK SMILES CCc1ccc(C[NH+]2CCC(Oc3ccccc3OC)(C(=O)NCCCCNC(=O)c3ccc(-c4c5nc(c(-c6cc(S(=O)(=O)[O-])ccc6F)c6ccc([nH]6)c(-c6cc(S(=O)(=O)[O-])ccc6F)c6nc(c(-c7cc(S(=O)(=O)[O-])ccc7F)c7ccc4[nH]7)C=C6)C=C5)cc3)CC2)nc1
REMARK SMILES IDX 25 1 24 2 23 3 21 4 22 5 11 7 8 8 9 9 95 10 10 12 94 13 7 14
REMARK SMILES IDX 6 15 3 16 4 17 97 18 5 19 96 20 2 21 1 22 12 23 13 24 14 25
REMARK SMILES IDX 18 26 15 27 17 28 16 29 19 30 20 31 26 32 27 33 28 34 29 35
REMARK SMILES IDX 30 37 31 38 32 39 93 40 33 41 92 42 34 43 35 44 36 45 86 46
REMARK SMILES IDX 37 47 91 48 85 49 87 50 38 51 90 52 84 53 83 54 39 56 71 57
REMARK SMILES IDX 51 58 70 59 52 60 55 61 69 62 88 63 53 64 54 65 68 67 89 68
REMARK SMILES IDX 56 69 40 70 41 71 49 72 42 73 48 74 50 75 47 76 43 77 44 78
REMARK SMILES IDX 45 79 46 80 72 81 73 82 81 83 74 84 80 85 82 86 79 87 75 88
REMARK SMILES IDX 76 89 77 90 78 91 57 92 58 93 66 94 59 95 65 96 67 97 64 98
REMARK SMILES IDX 60 99 61 100 62 101 63 102
REMARK H PARENT 23 6 8 11 28 36 87 55 55 66
REMARK Flexibility Score: inf
ROOT
ATOM      1  C   UNL A   1      37.508  23.405  25.822  1.00  0.00     0.023 C 
ENDROOT
BRANCH   1   2
ATOM      2  C   UNL A   1      36.113  23.223  25.232  1.00  0.00     0.116 C 
BRANCH   2   3
ATOM      3  N   UNL A   1      35.064  23.362  26.221  1.00  0.00    -0.353 N 
ATOM      4  C   UNL A   1      33.751  22.977  26.194  1.00  0.00     0.264 C 
ATOM      5  O   UNL A   1      33.188  22.983  27.295  1.00  0.00    -0.270 OA
ATOM      6  H   UNL A   1      35.342  23.809  27.053  1.00  0.00     0.163 HD
BRANCH   4   7
ATOM      7  C   UNL A   1      33.001  22.571  24.873  1.00  0.00     0.197 C 
ATOM      8  N   UNL A   1      30.958  24.650  24.429  1.00  0.00    -0.330 N 
ATOM      9  C   UNL A   1      32.380  24.940  24.229  1.00  0.00     0.267 C 
ATOM     10  C   UNL A   1      30.764  23.662  25.503  1.00  0.00     0.267 C 
ATOM     11  H   UNL A   1      30.602  24.236  23.567  1.00  0.00     0.348 HD
ATOM     12  C   UNL A   1      33.105  23.672  23.815  1.00  0.00     0.120 C 
ATOM     13  C   UNL A   1      31.505  22.346  25.198  1.00  0.00     0.120 C 
BRANCH   8  14
ATOM     14  C   UNL A   1      30.169  25.887  24.659  1.00  0.00     0.319 C 
BRANCH  14  15
ATOM     15  C   UNL A   1      30.937  27.069  25.229  1.00  0.00     0.095 A 
ATOM     16  C   UNL A   1      31.938  29.431  26.258  1.00  0.00    -0.030 A 
ATOM     17  C   UNL A   1      31.629  28.375  27.119  1.00  0.00     0.007 A 
ATOM     18  C   UNL A   1      31.742  29.211  24.899  1.00  0.00     0.115 A 
ATOM     19  C   UNL A   1      31.127  27.183  26.605  1.00  0.00     0.030 A 
ATOM     20  N   UNL A   1      31.282  28.057  24.369  1.00  0.00    -0.255 NA
BRANCH  16  21
ATOM     21  C   UNL A   1      32.363  30.764  26.811  1.00  0.00     0.034 C 
ATOM     22  C   UNL A   1      31.336  31.878  26.649  1.00  0.00     0.009 C 
ENDBRANCH  16  21
ENDBRANCH  14  15
ENDBRANCH   8  14
BRANCH   7  23
ATOM     23  O   UNL A   1      33.711  21.383  24.453  1.00  0.00    -0.473 OA
BRANCH  23  24
ATOM     24  C   UNL A   1      33.153  20.152  24.626  1.00  0.00     0.162 A 
ATOM     25  C   UNL A   1      33.430  19.518  25.842  1.00  0.00     0.050 A 
ATOM     26  C   UNL A   1      32.493  19.444  23.616  1.00  0.00     0.160 A 
ATOM     27  C   UNL A   1      32.999  18.212  26.074  1.00  0.00     0.004 A 
ATOM     28  C   UNL A   1      32.044  18.143  23.860  1.00  0.00     0.050 A 
ATOM     29  C   UNL A   1      32.302  17.525  25.083  1.00  0.00     0.004 A 
BRANCH  26  30
ATOM     30  O   UNL A   1      32.174  19.950  22.385  1.00  0.00    -0.493 OA
ATOM     31  C   UNL A   1      32.214  18.966  21.358  1.00  0.00     0.278 C 
ENDBRANCH  26  30
ENDBRANCH  23  24
ENDBRANCH   7  23
ENDBRANCH   4   7
ENDBRANCH   2   3
ENDBRANCH   1   2
BRANCH   1  32
ATOM     32  C   UNL A   1      38.407  22.175  25.729  1.00  0.00     0.023 C 
BRANCH  32  33
ATOM     33  C   UNL A   1      39.636  22.205  26.625  1.00  0.00     0.116 C 
BRANCH  33  34
ATOM     34  N   UNL A   1      40.872  21.890  25.926  1.00  0.00    -0.352 N 
ATOM     35  C   UNL A   1      41.969  22.697  25.726  1.00  0.00     0.251 C 
ATOM     36  H   UNL A   1      40.931  20.983  25.548  1.00  0.00     0.163 HD
ATOM     37  O   UNL A   1      42.886  22.318  25.009  1.00  0.00    -0.269 OA
BRANCH  35  38
ATOM     38  C   UNL A   1      41.998  24.037  26.351  1.00  0.00     0.039 A 
ATOM     39  C   UNL A   1      42.323  24.146  27.704  1.00  0.00     0.014 A 
ATOM     40  C   UNL A   1      41.750  25.182  25.589  1.00  0.00     0.014 A 
ATOM     41  C   UNL A   1      42.464  25.412  28.277  1.00  0.00     0.010 A 
ATOM     42  C   UNL A   1      41.976  26.439  26.139  1.00  0.00     0.010 A 
ATOM     43  C   UNL A   1      42.326  26.568  27.492  1.00  0.00    -0.014 A 
BRANCH  43  44
ATOM     44  C   UNL A   1      42.509  27.924  28.071  1.00  0.00     0.031 A 
ATOM     45  C   UNL A   1      43.892  28.508  28.178  1.00  0.00     0.074 A 
ATOM     46  C   UNL A   1      41.447  28.599  28.552  1.00  0.00     0.049 A 
ATOM     47  N   UNL A   1      44.277  29.638  28.716  1.00  0.00    -0.248 NA
ATOM     48  C   UNL A   1      44.993  27.695  27.640  1.00  0.00     0.031 C 
ATOM     49  C   UNL A   1      40.063  28.117  28.547  1.00  0.00     0.029 A 
ATOM     50  N   UNL A   1      41.362  29.835  29.143  1.00  0.00    -0.354 N 
ATOM     51  C   UNL A   1      45.662  29.662  28.595  1.00  0.00     0.074 A 
ATOM     52  C   UNL A   1      46.052  28.402  28.000  1.00  0.00     0.031 C 
ATOM     53  C   UNL A   1      39.267  29.057  29.082  1.00  0.00     0.029 A 
ATOM     54  C   UNL A   1      40.083  30.189  29.506  1.00  0.00     0.049 A 
ATOM     55  H   UNL A   1      42.144  30.413  29.294  1.00  0.00     0.167 HD
ATOM     56  C   UNL A   1      46.527  30.654  28.921  1.00  0.00     0.034 A 
ATOM     57  C   UNL A   1      39.623  31.299  30.118  1.00  0.00     0.034 A 
ATOM     58  C   UNL A   1      46.117  31.912  29.498  1.00  0.00     0.049 A 
ATOM     59  C   UNL A   1      40.603  32.387  30.479  1.00  0.00     0.074 A 
ATOM     60  C   UNL A   1      46.898  33.007  29.826  1.00  0.00     0.029 A 
ATOM     61  N   UNL A   1      44.811  32.242  29.839  1.00  0.00    -0.354 N 
ATOM     62  N   UNL A   1      41.906  32.417  30.312  1.00  0.00    -0.248 NA
ATOM     63  C   UNL A   1      40.047  33.599  31.095  1.00  0.00     0.031 C 
ATOM     64  C   UNL A   1      46.076  33.970  30.421  1.00  0.00     0.029 A 
ATOM     65  C   UNL A   1      44.768  33.512  30.394  1.00  0.00     0.049 A 
ATOM     66  H   UNL A   1      44.028  31.659  29.704  1.00  0.00     0.167 HD
ATOM     67  C   UNL A   1      42.319  33.665  30.771  1.00  0.00     0.074 A 
ATOM     68  C   UNL A   1      41.124  34.362  31.204  1.00  0.00     0.031 C 
ATOM     69  C   UNL A   1      43.569  34.191  30.828  1.00  0.00     0.034 A 
BRANCH  56  70
ATOM     70  C   UNL A   1      47.997  30.400  28.678  1.00  0.00     0.023 A 
ATOM     71  C   UNL A   1      48.788  29.698  29.605  1.00  0.00     0.031 A 
ATOM     72  C   UNL A   1      48.627  30.899  27.525  1.00  0.00     0.131 A 
ATOM     73  C   UNL A   1      50.173  29.592  29.409  1.00  0.00     0.055 A 
ATOM     74  C   UNL A   1      49.992  30.711  27.290  1.00  0.00     0.041 A 
ATOM     75  F   UNL A   1      47.931  31.596  26.611  1.00  0.00    -0.206 F 
ATOM     76  C   UNL A   1      50.776  30.070  28.244  1.00  0.00     0.022 A 
BRANCH  73  77
ATOM     77  S   UNL A   1      51.193  28.963  30.771  1.00  0.00     0.124 S 
ATOM     78  O   UNL A   1      51.871  27.837  30.133  1.00  0.00    -0.237 OA
ATOM     79  O   UNL A   1      52.030  30.113  31.094  1.00  0.00    -0.237 OA
ATOM     80  O   UNL A   1      50.214  28.595  31.791  1.00  0.00    -0.744 OA
ENDBRANCH  73  77
ENDBRANCH  56  70
BRANCH  57  81
ATOM     81  C   UNL A   1      38.171  31.448  30.429  1.00  0.00     0.023 A 
ATOM     82  C   UNL A   1      37.303  32.098  29.537  1.00  0.00     0.031 A 
ATOM     83  C   UNL A   1      37.639  30.985  31.645  1.00  0.00     0.131 A 
ATOM     84  C   UNL A   1      35.964  32.315  29.895  1.00  0.00     0.055 A 
ATOM     85  C   UNL A   1      36.293  31.154  31.973  1.00  0.00     0.041 A 
ATOM     86  F   UNL A   1      38.423  30.350  32.532  1.00  0.00    -0.206 F 
ATOM     87  C   UNL A   1      35.450  31.836  31.101  1.00  0.00     0.022 A 
BRANCH  84  88
ATOM     88  S   UNL A   1      34.922  33.313  28.796  1.00  0.00     0.124 S 
ATOM     89  O   UNL A   1      33.586  33.004  29.293  1.00  0.00    -0.237 OA
ATOM     90  O   UNL A   1      35.410  34.663  29.059  1.00  0.00    -0.237 OA
ATOM     91  O   UNL A   1      35.231  32.790  27.466  1.00  0.00    -0.744 OA
ENDBRANCH  84  88
ENDBRANCH  57  81
BRANCH  69  92
ATOM     92  C   UNL A   1      43.693  35.610  31.328  1.00  0.00     0.023 A 
ATOM     93  C   UNL A   1      43.803  36.701  30.448  1.00  0.00     0.031 A 
ATOM     94  C   UNL A   1      43.727  35.870  32.710  1.00  0.00     0.131 A 
ATOM     95  C   UNL A   1      44.010  37.991  30.957  1.00  0.00     0.055 A 
ATOM     96  C   UNL A   1      43.864  37.165  33.211  1.00  0.00     0.041 A 
ATOM     97  F   UNL A   1      43.628  34.868  33.597  1.00  0.00    -0.206 F 
ATOM     98  C   UNL A   1      44.025  38.233  32.333  1.00  0.00     0.022 A 
BRANCH  95  99
ATOM     99  S   UNL A   1      44.376  39.337  29.796  1.00  0.00     0.124 S 
ATOM    100  O   UNL A   1      43.408  40.354  30.196  1.00  0.00    -0.237 OA
ATOM    101  O   UNL A   1      45.773  39.636  30.096  1.00  0.00    -0.237 OA
ATOM    102  O   UNL A   1      44.138  38.735  28.486  1.00  0.00    -0.744 OA
ENDBRANCH  95  99
ENDBRANCH  69  92
ENDBRANCH  43  44
ENDBRANCH  35  38
ENDBRANCH  33  34
ENDBRANCH  32  33
ENDBRANCH   1  32
TORSDOF 20
ENDMDL
