MODEL 1
REMARK VINA RESULT:     -11.3      0.000      0.000
REMARK SMILES O=C(CC[NH+]1CCC([N@H+]2CCC[C@H](C(=O)NCc3cccnc3)C2)CC1)NCCCCNC(=O)c1ccc(-c2c3nc(c(-c4cc(S(=O)(=O)[O-])ccc4F)c4ccc([nH]4)c(-c4cc(S(=O)(=O)[O-])ccc4F)c4nc(c(-c5cc(S(=O)(=O)[O-])ccc5F)c5ccc2[nH]5)C=C4)C=C3)cc1
REMARK SMILES IDX 28 1 27 2 1 3 2 4 3 6 4 7 5 8 6 9 26 10 7 12 25 13 8 14 9 15
REMARK SMILES IDX 10 16 24 17 11 19 13 20 12 21 14 22 15 23 16 24 17 26 18 27
REMARK SMILES IDX 19 28 23 29 20 30 22 31 21 32 29 33 30 34 31 35 32 36 33 37
REMARK SMILES IDX 34 39 35 40 36 41 97 42 37 43 96 44 38 45 39 46 40 47 90 48
REMARK SMILES IDX 41 49 95 50 89 51 91 52 42 53 94 54 88 55 87 56 43 58 75 59
REMARK SMILES IDX 55 60 74 61 56 62 59 63 73 64 92 65 57 66 58 67 72 69 93 70
REMARK SMILES IDX 60 71 44 72 45 73 53 74 46 75 52 76 54 77 51 78 47 79 48 80
REMARK SMILES IDX 49 81 50 82 76 83 77 84 85 85 78 86 84 87 86 88 83 89 79 90
REMARK SMILES IDX 80 91 81 92 82 93 61 94 62 95 70 96 63 97 69 98 71 99 68 100
REMARK SMILES IDX 64 101 65 102 66 103 67 104
REMARK H PARENT 27 5 5 11 9 18 16 25 32 38 91 57 59 68
REMARK Flexibility Score: inf
ROOT
ATOM      1  C   UNL A   1      34.713  33.000  29.467  1.00  0.00     0.116 C 
ENDROOT
BRANCH   1   2
ATOM      2  N   UNL A   1      34.457  31.700  28.864  1.00  0.00    -0.356 N 
ATOM      3  O   UNL A   1      36.627  31.271  28.256  1.00  0.00    -0.275 OA
ATOM      4  C   UNL A   1      35.453  30.909  28.332  1.00  0.00     0.225 C 
ATOM      5  H   UNL A   1      33.530  31.370  28.833  1.00  0.00     0.163 HD
BRANCH   4   6
ATOM      6  C   UNL A   1      35.018  29.578  27.730  1.00  0.00     0.161 C 
BRANCH   6   7
ATOM      7  C   UNL A   1      33.619  29.526  27.104  1.00  0.00     0.272 C 
BRANCH   7   8
ATOM      8  N   UNL A   1      33.304  28.281  26.395  1.00  0.00    -0.334 N 
ATOM      9  C   UNL A   1      32.033  27.665  26.803  1.00  0.00     0.268 C 
ATOM     10  C   UNL A   1      33.268  28.493  24.938  1.00  0.00     0.268 C 
ATOM     11  H   UNL A   1      34.056  27.640  26.651  1.00  0.00     0.348 HD
ATOM     12  C   UNL A   1      32.046  26.234  26.291  1.00  0.00     0.126 C 
ATOM     13  C   UNL A   1      33.304  27.142  24.234  1.00  0.00     0.126 C 
ATOM     14  C   UNL A   1      32.240  26.157  24.765  1.00  0.00     0.195 C 
BRANCH  14  15
ATOM     15  N   UNL A   1      32.567  24.806  24.267  1.00  0.00    -0.331 N 
ATOM     16  C   UNL A   1      33.195  24.825  22.946  1.00  0.00     0.262 C 
ATOM     17  C   UNL A   1      33.359  24.009  25.215  1.00  0.00     0.275 C 
ATOM     18  H   UNL A   1      31.664  24.341  24.170  1.00  0.00     0.348 HD
ATOM     19  C   UNL A   1      33.311  23.438  22.370  1.00  0.00     0.062 C 
ATOM     20  C   UNL A   1      33.659  22.586  24.735  1.00  0.00     0.133 C 
ATOM     21  C   UNL A   1      34.083  22.503  23.275  1.00  0.00     0.025 C 
BRANCH  20  22
ATOM     22  C   UNL A   1      32.664  21.500  25.149  1.00  0.00     0.229 C 
ATOM     23  O   UNL A   1      31.489  21.818  25.368  1.00  0.00    -0.275 OA
ATOM     24  N   UNL A   1      32.983  20.194  25.341  1.00  0.00    -0.352 N 
ATOM     25  H   UNL A   1      32.502  19.756  26.080  1.00  0.00     0.163 HD
BRANCH  24  26
ATOM     26  C   UNL A   1      33.915  19.343  24.637  1.00  0.00     0.153 C 
BRANCH  26  27
ATOM     27  C   UNL A   1      33.694  17.864  24.806  1.00  0.00    -0.010 A 
ATOM     28  C   UNL A   1      32.526  17.311  25.337  1.00  0.00     0.009 A 
ATOM     29  C   UNL A   1      34.738  16.978  24.542  1.00  0.00     0.116 A 
ATOM     30  C   UNL A   1      32.451  15.939  25.576  1.00  0.00     0.020 A 
ATOM     31  N   UNL A   1      34.697  15.643  24.759  1.00  0.00    -0.264 NA
ATOM     32  C   UNL A   1      33.544  15.152  25.263  1.00  0.00     0.111 A 
ENDBRANCH  26  27
ENDBRANCH  24  26
ENDBRANCH  20  22
ENDBRANCH  14  15
ENDBRANCH   7   8
ENDBRANCH   6   7
ENDBRANCH   4   6
ENDBRANCH   1   2
BRANCH   1  33
ATOM     33  C   UNL A   1      34.883  34.143  28.459  1.00  0.00     0.023 C 
BRANCH  33  34
ATOM     34  C   UNL A   1      33.810  35.243  28.482  1.00  0.00     0.023 C 
BRANCH  34  35
ATOM     35  C   UNL A   1      33.854  36.256  29.640  1.00  0.00     0.116 C 
BRANCH  35  36
ATOM     36  N   UNL A   1      32.699  36.197  30.523  1.00  0.00    -0.352 N 
ATOM     37  C   UNL A   1      32.558  35.619  31.771  1.00  0.00     0.251 C 
ATOM     38  H   UNL A   1      31.890  36.639  30.178  1.00  0.00     0.163 HD
ATOM     39  O   UNL A   1      31.446  35.584  32.293  1.00  0.00    -0.269 OA
BRANCH  37  40
ATOM     40  C   UNL A   1      33.713  35.020  32.489  1.00  0.00     0.039 A 
ATOM     41  C   UNL A   1      33.556  33.829  33.202  1.00  0.00     0.014 A 
ATOM     42  C   UNL A   1      34.950  35.653  32.522  1.00  0.00     0.014 A 
ATOM     43  C   UNL A   1      34.664  33.210  33.818  1.00  0.00     0.010 A 
ATOM     44  C   UNL A   1      36.061  34.995  33.086  1.00  0.00     0.010 A 
ATOM     45  C   UNL A   1      35.967  33.725  33.687  1.00  0.00    -0.014 A 
BRANCH  45  46
ATOM     46  C   UNL A   1      37.205  32.924  34.065  1.00  0.00     0.031 A 
ATOM     47  C   UNL A   1      38.076  33.282  35.262  1.00  0.00     0.074 A 
ATOM     48  C   UNL A   1      37.687  31.957  33.242  1.00  0.00     0.049 A 
ATOM     49  N   UNL A   1      39.276  32.852  35.586  1.00  0.00    -0.248 NA
ATOM     50  C   UNL A   1      37.561  34.314  36.167  1.00  0.00     0.031 C 
ATOM     51  C   UNL A   1      37.100  31.548  31.964  1.00  0.00     0.029 A 
ATOM     52  N   UNL A   1      38.807  31.155  33.344  1.00  0.00    -0.354 N 
ATOM     53  C   UNL A   1      39.692  33.621  36.673  1.00  0.00     0.074 A 
ATOM     54  C   UNL A   1      38.628  34.576  36.908  1.00  0.00     0.031 C 
ATOM     55  C   UNL A   1      37.819  30.544  31.438  1.00  0.00     0.029 A 
ATOM     56  C   UNL A   1      38.960  30.264  32.302  1.00  0.00     0.049 A 
ATOM     57  H   UNL A   1      39.440  31.213  34.095  1.00  0.00     0.167 HD
ATOM     58  C   UNL A   1      40.824  33.533  37.427  1.00  0.00     0.034 A 
ATOM     59  C   UNL A   1      39.899  29.328  32.045  1.00  0.00     0.034 A 
ATOM     60  C   UNL A   1      41.816  32.488  37.301  1.00  0.00     0.049 A 
ATOM     61  C   UNL A   1      41.057  29.126  32.990  1.00  0.00     0.074 A 
ATOM     62  C   UNL A   1      42.882  32.211  38.146  1.00  0.00     0.029 A 
ATOM     63  N   UNL A   1      41.861  31.534  36.296  1.00  0.00    -0.354 N 
ATOM     64  N   UNL A   1      41.379  29.813  34.060  1.00  0.00    -0.248 NA
ATOM     65  C   UNL A   1      41.966  28.004  32.703  1.00  0.00     0.031 C 
ATOM     66  C   UNL A   1      43.594  31.123  37.631  1.00  0.00     0.029 A 
ATOM     67  C   UNL A   1      42.930  30.671  36.505  1.00  0.00     0.049 A 
ATOM     68  H   UNL A   1      41.229  31.478  35.543  1.00  0.00     0.167 HD
ATOM     69  C   UNL A   1      42.509  29.186  34.584  1.00  0.00     0.074 A 
ATOM     70  C   UNL A   1      42.799  28.056  33.733  1.00  0.00     0.031 C 
ATOM     71  C   UNL A   1      43.233  29.526  35.680  1.00  0.00     0.034 A 
BRANCH  58  72
ATOM     72  C   UNL A   1      41.051  34.582  38.502  1.00  0.00     0.023 A 
ATOM     73  C   UNL A   1      40.595  34.402  39.818  1.00  0.00     0.031 A 
ATOM     74  C   UNL A   1      41.734  35.779  38.214  1.00  0.00     0.131 A 
ATOM     75  C   UNL A   1      40.700  35.445  40.748  1.00  0.00     0.055 A 
ATOM     76  C   UNL A   1      41.954  36.761  39.185  1.00  0.00     0.041 A 
ATOM     77  F   UNL A   1      42.203  36.022  36.979  1.00  0.00    -0.206 F 
ATOM     78  C   UNL A   1      41.409  36.609  40.457  1.00  0.00     0.022 A 
BRANCH  75  79
ATOM     79  S   UNL A   1      39.712  35.325  42.263  1.00  0.00     0.124 S 
ATOM     80  O   UNL A   1      38.974  36.587  42.222  1.00  0.00    -0.237 OA
ATOM     81  O   UNL A   1      38.929  34.120  42.039  1.00  0.00    -0.237 OA
ATOM     82  O   UNL A   1      40.718  35.234  43.322  1.00  0.00    -0.744 OA
ENDBRANCH  75  79
ENDBRANCH  58  72
BRANCH  59  83
ATOM     83  C   UNL A   1      39.779  28.454  30.839  1.00  0.00     0.023 A 
ATOM     84  C   UNL A   1      40.452  28.785  29.651  1.00  0.00     0.031 A 
ATOM     85  C   UNL A   1      38.957  27.315  30.836  1.00  0.00     0.131 A 
ATOM     86  C   UNL A   1      40.248  28.021  28.493  1.00  0.00     0.055 A 
ATOM     87  C   UNL A   1      38.801  26.524  29.696  1.00  0.00     0.041 A 
ATOM     88  F   UNL A   1      38.307  26.943  31.951  1.00  0.00    -0.206 F 
ATOM     89  C   UNL A   1      39.437  26.885  28.511  1.00  0.00     0.022 A 
BRANCH  86  90
ATOM     90  S   UNL A   1      40.994  28.585  26.939  1.00  0.00     0.124 S 
ATOM     91  O   UNL A   1      41.356  27.322  26.307  1.00  0.00    -0.237 OA
ATOM     92  O   UNL A   1      39.893  29.318  26.323  1.00  0.00    -0.237 OA
ATOM     93  O   UNL A   1      42.118  29.409  27.381  1.00  0.00    -0.744 OA
ENDBRANCH  86  90
ENDBRANCH  59  83
BRANCH  71  94
ATOM     94  C   UNL A   1      44.367  28.612  36.086  1.00  0.00     0.023 A 
ATOM     95  C   UNL A   1      44.220  27.619  37.071  1.00  0.00     0.031 A 
ATOM     96  C   UNL A   1      45.629  28.750  35.476  1.00  0.00     0.131 A 
ATOM     97  C   UNL A   1      45.325  26.839  37.452  1.00  0.00     0.055 A 
ATOM     98  C   UNL A   1      46.709  27.933  35.818  1.00  0.00     0.041 A 
ATOM     99  F   UNL A   1      45.834  29.683  34.532  1.00  0.00    -0.206 F 
ATOM    100  C   UNL A   1      46.563  26.979  36.820  1.00  0.00     0.022 A 
BRANCH  97 101
ATOM    101  S   UNL A   1      45.152  25.691  38.848  1.00  0.00     0.124 S 
ATOM    102  O   UNL A   1      44.222  26.405  39.716  1.00  0.00    -0.237 OA
ATOM    103  O   UNL A   1      44.629  24.491  38.203  1.00  0.00    -0.237 OA
ATOM    104  O   UNL A   1      46.514  25.570  39.366  1.00  0.00    -0.744 OA
ENDBRANCH  97 101
ENDBRANCH  71  94
ENDBRANCH  45  46
ENDBRANCH  37  40
ENDBRANCH  35  36
ENDBRANCH  34  35
ENDBRANCH  33  34
ENDBRANCH   1  33
TORSDOF 20
ENDMDL
MODEL 2
REMARK VINA RESULT:     -11.0      6.718     13.789
REMARK SMILES O=C(CC[NH+]1CCC([N@H+]2CCC[C@H](C(=O)NCc3cccnc3)C2)CC1)NCCCCNC(=O)c1ccc(-c2c3nc(c(-c4cc(S(=O)(=O)[O-])ccc4F)c4ccc([nH]4)c(-c4cc(S(=O)(=O)[O-])ccc4F)c4nc(c(-c5cc(S(=O)(=O)[O-])ccc5F)c5ccc2[nH]5)C=C4)C=C3)cc1
REMARK SMILES IDX 28 1 27 2 1 3 2 4 3 6 4 7 5 8 6 9 26 10 7 12 25 13 8 14 9 15
REMARK SMILES IDX 10 16 24 17 11 19 13 20 12 21 14 22 15 23 16 24 17 26 18 27
REMARK SMILES IDX 19 28 23 29 20 30 22 31 21 32 29 33 30 34 31 35 32 36 33 37
REMARK SMILES IDX 34 39 35 40 36 41 97 42 37 43 96 44 38 45 39 46 40 47 90 48
REMARK SMILES IDX 41 49 95 50 89 51 91 52 42 53 94 54 88 55 87 56 43 58 75 59
REMARK SMILES IDX 55 60 74 61 56 62 59 63 73 64 92 65 57 66 58 67 72 69 93 70
REMARK SMILES IDX 60 71 44 72 45 73 53 74 46 75 52 76 54 77 51 78 47 79 48 80
REMARK SMILES IDX 49 81 50 82 76 83 77 84 85 85 78 86 84 87 86 88 83 89 79 90
REMARK SMILES IDX 80 91 81 92 82 93 61 94 62 95 70 96 63 97 69 98 71 99 68 100
REMARK SMILES IDX 64 101 65 102 66 103 67 104
REMARK H PARENT 27 5 5 11 9 18 16 25 32 38 91 57 59 68
REMARK Flexibility Score: inf
ROOT
ATOM      1  C   UNL A   1      44.624  21.520  25.738  1.00  0.00     0.116 C 
ENDROOT
BRANCH   1   2
ATOM      2  N   UNL A   1      44.818  22.367  26.907  1.00  0.00    -0.356 N 
ATOM      3  O   UNL A   1      46.771  23.336  26.197  1.00  0.00    -0.275 OA
ATOM      4  C   UNL A   1      45.870  23.248  27.030  1.00  0.00     0.225 C 
ATOM      5  H   UNL A   1      44.167  22.306  27.644  1.00  0.00     0.163 HD
BRANCH   4   6
ATOM      6  C   UNL A   1      45.934  24.056  28.321  1.00  0.00     0.161 C 
BRANCH   6   7
ATOM      7  C   UNL A   1      44.654  24.120  29.162  1.00  0.00     0.272 C 
BRANCH   7   8
ATOM      8  N   UNL A   1      44.862  24.050  30.613  1.00  0.00    -0.334 N 
ATOM      9  C   UNL A   1      45.053  25.358  31.254  1.00  0.00     0.268 C 
ATOM     10  C   UNL A   1      43.738  23.368  31.278  1.00  0.00     0.268 C 
ATOM     11  H   UNL A   1      45.727  23.519  30.725  1.00  0.00     0.348 HD
ATOM     12  C   UNL A   1      45.635  25.097  32.634  1.00  0.00     0.126 C 
ATOM     13  C   UNL A   1      44.149  22.994  32.697  1.00  0.00     0.126 C 
ATOM     14  C   UNL A   1      44.738  24.182  33.488  1.00  0.00     0.195 C 
BRANCH  14  15
ATOM     15  N   UNL A   1      45.395  23.655  34.700  1.00  0.00    -0.331 N 
ATOM     16  C   UNL A   1      45.228  24.529  35.862  1.00  0.00     0.262 C 
ATOM     17  C   UNL A   1      45.007  22.274  35.021  1.00  0.00     0.275 C 
ATOM     18  H   UNL A   1      46.388  23.638  34.469  1.00  0.00     0.348 HD
ATOM     19  C   UNL A   1      46.089  24.084  37.014  1.00  0.00     0.062 C 
ATOM     20  C   UNL A   1      45.722  21.694  36.245  1.00  0.00     0.133 C 
ATOM     21  C   UNL A   1      45.808  22.655  37.423  1.00  0.00     0.025 C 
BRANCH  20  22
ATOM     22  C   UNL A   1      47.019  20.927  35.981  1.00  0.00     0.229 C 
ATOM     23  O   UNL A   1      47.721  21.256  35.018  1.00  0.00    -0.275 OA
ATOM     24  N   UNL A   1      47.450  19.865  36.709  1.00  0.00    -0.352 N 
ATOM     25  H   UNL A   1      47.899  19.162  36.186  1.00  0.00     0.163 HD
BRANCH  24  26
ATOM     26  C   UNL A   1      47.355  19.600  38.126  1.00  0.00     0.153 C 
BRANCH  26  27
ATOM     27  C   UNL A   1      46.339  18.562  38.523  1.00  0.00    -0.010 A 
ATOM     28  C   UNL A   1      46.470  17.739  39.643  1.00  0.00     0.009 A 
ATOM     29  C   UNL A   1      45.259  18.301  37.680  1.00  0.00     0.116 A 
ATOM     30  C   UNL A   1      45.546  16.719  39.870  1.00  0.00     0.020 A 
ATOM     31  N   UNL A   1      44.343  17.323  37.873  1.00  0.00    -0.264 NA
ATOM     32  C   UNL A   1      44.504  16.560  38.975  1.00  0.00     0.111 A 
ENDBRANCH  26  27
ENDBRANCH  24  26
ENDBRANCH  20  22
ENDBRANCH  14  15
ENDBRANCH   7   8
ENDBRANCH   6   7
ENDBRANCH   4   6
ENDBRANCH   1   2
BRANCH   1  33
ATOM     33  C   UNL A   1      43.164  21.140  25.466  1.00  0.00     0.023 C 
BRANCH  33  34
ATOM     34  C   UNL A   1      42.747  19.707  25.836  1.00  0.00     0.023 C 
BRANCH  34  35
ATOM     35  C   UNL A   1      41.548  19.539  26.787  1.00  0.00     0.116 C 
BRANCH  35  36
ATOM     36  N   UNL A   1      40.254  19.590  26.123  1.00  0.00    -0.352 N 
ATOM     37  C   UNL A   1      39.352  20.631  26.003  1.00  0.00     0.251 C 
ATOM     38  H   UNL A   1      39.977  18.750  25.691  1.00  0.00     0.163 HD
ATOM     39  O   UNL A   1      38.254  20.417  25.497  1.00  0.00    -0.269 OA
BRANCH  37  40
ATOM     40  C   UNL A   1      39.670  21.998  26.490  1.00  0.00     0.039 A 
ATOM     41  C   UNL A   1      40.575  22.177  27.538  1.00  0.00     0.014 A 
ATOM     42  C   UNL A   1      39.036  23.118  25.965  1.00  0.00     0.014 A 
ATOM     43  C   UNL A   1      40.946  23.474  27.954  1.00  0.00     0.010 A 
ATOM     44  C   UNL A   1      39.460  24.408  26.343  1.00  0.00     0.010 A 
ATOM     45  C   UNL A   1      40.474  24.625  27.295  1.00  0.00    -0.014 A 
BRANCH  45  46
ATOM     46  C   UNL A   1      41.091  26.001  27.510  1.00  0.00     0.031 A 
ATOM     47  C   UNL A   1      42.461  26.376  26.960  1.00  0.00     0.074 A 
ATOM     48  C   UNL A   1      40.518  26.897  28.354  1.00  0.00     0.049 A 
ATOM     49  N   UNL A   1      43.223  27.410  27.241  1.00  0.00    -0.248 NA
ATOM     50  C   UNL A   1      43.084  25.424  26.036  1.00  0.00     0.031 C 
ATOM     51  C   UNL A   1      39.280  26.693  29.110  1.00  0.00     0.029 A 
ATOM     52  N   UNL A   1      40.920  28.159  28.744  1.00  0.00    -0.354 N 
ATOM     53  C   UNL A   1      44.443  27.187  26.602  1.00  0.00     0.074 A 
ATOM     54  C   UNL A   1      44.322  25.891  25.966  1.00  0.00     0.031 C 
ATOM     55  C   UNL A   1      38.995  27.798  29.815  1.00  0.00     0.029 A 
ATOM     56  C   UNL A   1      40.054  28.782  29.620  1.00  0.00     0.049 A 
ATOM     57  H   UNL A   1      41.751  28.579  28.426  1.00  0.00     0.167 HD
ATOM     58  C   UNL A   1      45.546  27.984  26.516  1.00  0.00     0.034 A 
ATOM     59  C   UNL A   1      40.087  29.995  30.212  1.00  0.00     0.034 A 
ATOM     60  C   UNL A   1      45.620  29.340  27.011  1.00  0.00     0.049 A 
ATOM     61  C   UNL A   1      41.238  30.938  29.964  1.00  0.00     0.074 A 
ATOM     62  C   UNL A   1      46.620  30.279  26.795  1.00  0.00     0.029 A 
ATOM     63  N   UNL A   1      44.663  29.969  27.794  1.00  0.00    -0.354 N 
ATOM     64  N   UNL A   1      42.340  30.733  29.283  1.00  0.00    -0.248 NA
ATOM     65  C   UNL A   1      41.137  32.285  30.547  1.00  0.00     0.031 C 
ATOM     66  C   UNL A   1      46.289  31.455  27.478  1.00  0.00     0.029 A 
ATOM     67  C   UNL A   1      45.047  31.277  28.060  1.00  0.00     0.049 A 
ATOM     68  H   UNL A   1      43.832  29.548  28.115  1.00  0.00     0.167 HD
ATOM     69  C   UNL A   1      43.045  31.935  29.336  1.00  0.00     0.074 A 
ATOM     70  C   UNL A   1      42.237  32.865  30.089  1.00  0.00     0.031 C 
ATOM     71  C   UNL A   1      44.254  32.231  28.798  1.00  0.00     0.034 A 
BRANCH  58  72
ATOM     72  C   UNL A   1      46.777  27.429  25.822  1.00  0.00     0.023 A 
ATOM     73  C   UNL A   1      47.722  26.647  26.505  1.00  0.00     0.031 A 
ATOM     74  C   UNL A   1      47.015  27.681  24.456  1.00  0.00     0.131 A 
ATOM     75  C   UNL A   1      48.913  26.267  25.872  1.00  0.00     0.055 A 
ATOM     76  C   UNL A   1      48.143  27.183  23.795  1.00  0.00     0.041 A 
ATOM     77  F   UNL A   1      46.155  28.417  23.734  1.00  0.00    -0.206 F 
ATOM     78  C   UNL A   1      49.116  26.494  24.512  1.00  0.00     0.022 A 
BRANCH  75  79
ATOM     79  S   UNL A   1      50.265  25.661  26.915  1.00  0.00     0.124 S 
ATOM     80  O   UNL A   1      49.664  24.458  27.490  1.00  0.00    -0.237 OA
ATOM     81  O   UNL A   1      51.336  25.443  25.956  1.00  0.00    -0.237 OA
ATOM     82  O   UNL A   1      50.483  26.754  27.864  1.00  0.00    -0.744 OA
ENDBRANCH  75  79
ENDBRANCH  58  72
BRANCH  59  83
ATOM     83  C   UNL A   1      38.961  30.432  31.091  1.00  0.00     0.023 A 
ATOM     84  C   UNL A   1      37.826  31.051  30.539  1.00  0.00     0.031 A 
ATOM     85  C   UNL A   1      39.021  30.289  32.488  1.00  0.00     0.131 A 
ATOM     86  C   UNL A   1      36.824  31.556  31.380  1.00  0.00     0.055 A 
ATOM     87  C   UNL A   1      37.993  30.744  33.318  1.00  0.00     0.041 A 
ATOM     88  F   UNL A   1      40.073  29.688  33.065  1.00  0.00    -0.206 F 
ATOM     89  C   UNL A   1      36.894  31.395  32.765  1.00  0.00     0.022 A 
BRANCH  86  90
ATOM     90  S   UNL A   1      35.467  32.503  30.638  1.00  0.00     0.124 S 
ATOM     91  O   UNL A   1      35.189  31.729  29.433  1.00  0.00    -0.237 OA
ATOM     92  O   UNL A   1      34.451  32.447  31.684  1.00  0.00    -0.237 OA
ATOM     93  O   UNL A   1      36.055  33.822  30.413  1.00  0.00    -0.744 OA
ENDBRANCH  86  90
ENDBRANCH  59  83
BRANCH  71  94
ATOM     94  C   UNL A   1      44.752  33.654  28.923  1.00  0.00     0.023 A 
ATOM     95  C   UNL A   1      45.561  34.078  29.992  1.00  0.00     0.031 A 
ATOM     96  C   UNL A   1      44.396  34.607  27.950  1.00  0.00     0.131 A 
ATOM     97  C   UNL A   1      45.944  35.427  30.090  1.00  0.00     0.055 A 
ATOM     98  C   UNL A   1      44.827  35.933  28.022  1.00  0.00     0.041 A 
ATOM     99  F   UNL A   1      43.622  34.264  26.907  1.00  0.00    -0.206 F 
ATOM    100  C   UNL A   1      45.596  36.352  29.103  1.00  0.00     0.022 A 
BRANCH  97 101
ATOM    101  S   UNL A   1      46.836  35.982  31.572  1.00  0.00     0.124 S 
ATOM    102  O   UNL A   1      47.835  34.932  31.737  1.00  0.00    -0.237 OA
ATOM    103  O   UNL A   1      47.342  37.287  31.161  1.00  0.00    -0.237 OA
ATOM    104  O   UNL A   1      45.800  36.018  32.603  1.00  0.00    -0.744 OA
ENDBRANCH  97 101
ENDBRANCH  71  94
ENDBRANCH  45  46
ENDBRANCH  37  40
ENDBRANCH  35  36
ENDBRANCH  34  35
ENDBRANCH  33  34
ENDBRANCH   1  33
TORSDOF 20
ENDMDL
MODEL 3
REMARK VINA RESULT:     -10.8      1.856      2.148
REMARK SMILES O=C(CC[NH+]1CCC([N@H+]2CCC[C@H](C(=O)NCc3cccnc3)C2)CC1)NCCCCNC(=O)c1ccc(-c2c3nc(c(-c4cc(S(=O)(=O)[O-])ccc4F)c4ccc([nH]4)c(-c4cc(S(=O)(=O)[O-])ccc4F)c4nc(c(-c5cc(S(=O)(=O)[O-])ccc5F)c5ccc2[nH]5)C=C4)C=C3)cc1
REMARK SMILES IDX 28 1 27 2 1 3 2 4 3 6 4 7 5 8 6 9 26 10 7 12 25 13 8 14 9 15
REMARK SMILES IDX 10 16 24 17 11 19 13 20 12 21 14 22 15 23 16 24 17 26 18 27
REMARK SMILES IDX 19 28 23 29 20 30 22 31 21 32 29 33 30 34 31 35 32 36 33 37
REMARK SMILES IDX 34 39 35 40 36 41 97 42 37 43 96 44 38 45 39 46 40 47 90 48
REMARK SMILES IDX 41 49 95 50 89 51 91 52 42 53 94 54 88 55 87 56 43 58 75 59
REMARK SMILES IDX 55 60 74 61 56 62 59 63 73 64 92 65 57 66 58 67 72 69 93 70
REMARK SMILES IDX 60 71 44 72 45 73 53 74 46 75 52 76 54 77 51 78 47 79 48 80
REMARK SMILES IDX 49 81 50 82 76 83 77 84 85 85 78 86 84 87 86 88 83 89 79 90
REMARK SMILES IDX 80 91 81 92 82 93 61 94 62 95 70 96 63 97 69 98 71 99 68 100
REMARK SMILES IDX 64 101 65 102 66 103 67 104
REMARK H PARENT 27 5 5 11 9 18 16 25 32 38 91 57 59 68
REMARK Flexibility Score: inf
ROOT
ATOM      1  C   UNL A   1      34.589  32.754  29.490  1.00  0.00     0.116 C 
ENDROOT
BRANCH   1   2
ATOM      2  N   UNL A   1      34.378  31.560  28.681  1.00  0.00    -0.356 N 
ATOM      3  O   UNL A   1      36.591  31.181  28.211  1.00  0.00    -0.275 OA
ATOM      4  C   UNL A   1      35.413  30.836  28.129  1.00  0.00     0.225 C 
ATOM      5  H   UNL A   1      33.455  31.258  28.521  1.00  0.00     0.163 HD
BRANCH   4   6
ATOM      6  C   UNL A   1      35.024  29.616  27.301  1.00  0.00     0.161 C 
BRANCH   6   7
ATOM      7  C   UNL A   1      33.628  29.626  26.668  1.00  0.00     0.272 C 
BRANCH   7   8
ATOM      8  N   UNL A   1      33.202  28.348  26.088  1.00  0.00    -0.334 N 
ATOM      9  C   UNL A   1      31.764  28.075  26.231  1.00  0.00     0.268 C 
ATOM     10  C   UNL A   1      33.547  28.271  24.658  1.00  0.00     0.268 C 
ATOM     11  H   UNL A   1      33.706  27.640  26.623  1.00  0.00     0.348 HD
ATOM     12  C   UNL A   1      31.562  26.595  25.952  1.00  0.00     0.126 C 
ATOM     13  C   UNL A   1      33.427  26.825  24.192  1.00  0.00     0.126 C 
ATOM     14  C   UNL A   1      32.073  26.183  24.559  1.00  0.00     0.195 C 
BRANCH  14  15
ATOM     15  N   UNL A   1      32.182  24.723  24.365  1.00  0.00    -0.331 N 
ATOM     16  C   UNL A   1      31.451  24.251  23.188  1.00  0.00     0.262 C 
ATOM     17  C   UNL A   1      33.569  24.237  24.353  1.00  0.00     0.275 C 
ATOM     18  H   UNL A   1      31.733  24.319  25.187  1.00  0.00     0.348 HD
ATOM     19  C   UNL A   1      31.393  22.747  23.142  1.00  0.00     0.062 C 
ATOM     20  C   UNL A   1      33.696  22.718  24.207  1.00  0.00     0.133 C 
ATOM     21  C   UNL A   1      32.769  22.119  23.158  1.00  0.00     0.025 C 
BRANCH  20  22
ATOM     22  C   UNL A   1      33.764  21.909  25.503  1.00  0.00     0.229 C 
ATOM     23  O   UNL A   1      33.007  22.208  26.434  1.00  0.00    -0.275 OA
ATOM     24  N   UNL A   1      34.635  20.894  25.735  1.00  0.00    -0.352 N 
ATOM     25  H   UNL A   1      34.974  20.844  26.658  1.00  0.00     0.163 HD
BRANCH  24  26
ATOM     26  C   UNL A   1      35.146  19.875  24.846  1.00  0.00     0.153 C 
BRANCH  26  27
ATOM     27  C   UNL A   1      34.347  18.601  24.796  1.00  0.00    -0.010 A 
ATOM     28  C   UNL A   1      34.801  17.425  24.195  1.00  0.00     0.009 A 
ATOM     29  C   UNL A   1      33.030  18.597  25.256  1.00  0.00     0.116 A 
ATOM     30  C   UNL A   1      33.950  16.326  24.081  1.00  0.00     0.020 A 
ATOM     31  N   UNL A   1      32.180  17.548  25.165  1.00  0.00    -0.264 NA
ATOM     32  C   UNL A   1      32.666  16.430  24.587  1.00  0.00     0.111 A 
ENDBRANCH  26  27
ENDBRANCH  24  26
ENDBRANCH  20  22
ENDBRANCH  14  15
ENDBRANCH   7   8
ENDBRANCH   6   7
ENDBRANCH   4   6
ENDBRANCH   1   2
BRANCH   1  33
ATOM     33  C   UNL A   1      35.041  33.985  28.695  1.00  0.00     0.023 C 
BRANCH  33  34
ATOM     34  C   UNL A   1      34.017  35.122  28.549  1.00  0.00     0.023 C 
BRANCH  34  35
ATOM     35  C   UNL A   1      33.997  36.206  29.641  1.00  0.00     0.116 C 
BRANCH  35  36
ATOM     36  N   UNL A   1      32.849  36.128  30.532  1.00  0.00    -0.352 N 
ATOM     37  C   UNL A   1      32.720  35.530  31.773  1.00  0.00     0.251 C 
ATOM     38  H   UNL A   1      32.036  36.572  30.200  1.00  0.00     0.163 HD
ATOM     39  O   UNL A   1      31.613  35.482  32.302  1.00  0.00    -0.269 OA
BRANCH  37  40
ATOM     40  C   UNL A   1      33.884  34.926  32.472  1.00  0.00     0.039 A 
ATOM     41  C   UNL A   1      33.715  33.780  33.254  1.00  0.00     0.014 A 
ATOM     42  C   UNL A   1      35.143  35.511  32.419  1.00  0.00     0.014 A 
ATOM     43  C   UNL A   1      34.827  33.152  33.855  1.00  0.00     0.010 A 
ATOM     44  C   UNL A   1      36.254  34.842  32.969  1.00  0.00     0.010 A 
ATOM     45  C   UNL A   1      36.140  33.609  33.642  1.00  0.00    -0.014 A 
BRANCH  45  46
ATOM     46  C   UNL A   1      37.365  32.782  34.009  1.00  0.00     0.031 A 
ATOM     47  C   UNL A   1      38.220  33.088  35.231  1.00  0.00     0.074 A 
ATOM     48  C   UNL A   1      37.849  31.840  33.159  1.00  0.00     0.049 A 
ATOM     49  N   UNL A   1      39.411  32.634  35.557  1.00  0.00    -0.248 NA
ATOM     50  C   UNL A   1      37.702  34.092  36.165  1.00  0.00     0.031 C 
ATOM     51  C   UNL A   1      37.278  31.483  31.859  1.00  0.00     0.029 A 
ATOM     52  N   UNL A   1      38.959  31.022  33.250  1.00  0.00    -0.354 N 
ATOM     53  C   UNL A   1      39.818  33.359  36.678  1.00  0.00     0.074 A 
ATOM     54  C   UNL A   1      38.760  34.316  36.931  1.00  0.00     0.031 C 
ATOM     55  C   UNL A   1      37.995  30.491  31.308  1.00  0.00     0.029 A 
ATOM     56  C   UNL A   1      39.120  30.168  32.179  1.00  0.00     0.049 A 
ATOM     57  H   UNL A   1      39.581  31.047  34.012  1.00  0.00     0.167 HD
ATOM     58  C   UNL A   1      40.937  33.232  37.445  1.00  0.00     0.034 A 
ATOM     59  C   UNL A   1      40.053  29.231  31.902  1.00  0.00     0.034 A 
ATOM     60  C   UNL A   1      41.920  32.182  37.297  1.00  0.00     0.049 A 
ATOM     61  C   UNL A   1      41.194  28.983  32.857  1.00  0.00     0.074 A 
ATOM     62  C   UNL A   1      42.970  31.864  38.147  1.00  0.00     0.029 A 
ATOM     63  N   UNL A   1      41.971  31.264  36.259  1.00  0.00    -0.354 N 
ATOM     64  N   UNL A   1      41.507  29.628  33.955  1.00  0.00    -0.248 NA
ATOM     65  C   UNL A   1      42.096  27.863  32.544  1.00  0.00     0.031 C 
ATOM     66  C   UNL A   1      43.679  30.786  37.604  1.00  0.00     0.029 A 
ATOM     67  C   UNL A   1      43.027  30.382  36.453  1.00  0.00     0.049 A 
ATOM     68  H   UNL A   1      41.350  31.241  35.495  1.00  0.00     0.167 HD
ATOM     69  C   UNL A   1      42.622  28.972  34.474  1.00  0.00     0.074 A 
ATOM     70  C   UNL A   1      42.913  27.869  33.588  1.00  0.00     0.031 C 
ATOM     71  C   UNL A   1      43.332  29.265  35.592  1.00  0.00     0.034 A 
BRANCH  58  72
ATOM     72  C   UNL A   1      41.158  34.240  38.560  1.00  0.00     0.023 A 
ATOM     73  C   UNL A   1      42.003  35.348  38.397  1.00  0.00     0.031 A 
ATOM     74  C   UNL A   1      40.516  34.094  39.806  1.00  0.00     0.131 A 
ATOM     75  C   UNL A   1      42.292  36.180  39.488  1.00  0.00     0.055 A 
ATOM     76  C   UNL A   1      40.707  35.006  40.849  1.00  0.00     0.041 A 
ATOM     77  F   UNL A   1      39.691  33.061  40.036  1.00  0.00    -0.206 F 
ATOM     78  C   UNL A   1      41.623  36.044  40.702  1.00  0.00     0.022 A 
BRANCH  75  79
ATOM     79  S   UNL A   1      43.708  37.302  39.339  1.00  0.00     0.124 S 
ATOM     80  O   UNL A   1      44.810  36.351  39.194  1.00  0.00    -0.237 OA
ATOM     81  O   UNL A   1      43.377  38.080  38.156  1.00  0.00    -0.237 OA
ATOM     82  O   UNL A   1      43.695  38.040  40.603  1.00  0.00    -0.744 OA
ENDBRANCH  75  79
ENDBRANCH  58  72
BRANCH  59  83
ATOM     83  C   UNL A   1      39.942  28.403  30.665  1.00  0.00     0.023 A 
ATOM     84  C   UNL A   1      40.674  28.741  29.514  1.00  0.00     0.031 A 
ATOM     85  C   UNL A   1      39.074  27.300  30.593  1.00  0.00     0.131 A 
ATOM     86  C   UNL A   1      40.483  28.024  28.324  1.00  0.00     0.055 A 
ATOM     87  C   UNL A   1      38.928  26.554  29.422  1.00  0.00     0.041 A 
ATOM     88  F   UNL A   1      38.366  26.922  31.670  1.00  0.00    -0.206 F 
ATOM     89  C   UNL A   1      39.624  26.924  28.274  1.00  0.00     0.022 A 
BRANCH  86  90
ATOM     90  S   UNL A   1      41.312  28.604  26.819  1.00  0.00     0.124 S 
ATOM     91  O   UNL A   1      41.797  27.354  26.246  1.00  0.00    -0.237 OA
ATOM     92  O   UNL A   1      40.220  29.256  26.104  1.00  0.00    -0.237 OA
ATOM     93  O   UNL A   1      42.346  29.504  27.326  1.00  0.00    -0.744 OA
ENDBRANCH  86  90
ENDBRANCH  59  83
BRANCH  71  94
ATOM     94  C   UNL A   1      44.450  28.325  35.982  1.00  0.00     0.023 A 
ATOM     95  C   UNL A   1      45.780  28.522  35.569  1.00  0.00     0.031 A 
ATOM     96  C   UNL A   1      44.172  27.199  36.781  1.00  0.00     0.131 A 
ATOM     97  C   UNL A   1      46.769  27.583  35.911  1.00  0.00     0.055 A 
ATOM     98  C   UNL A   1      45.169  26.300  37.165  1.00  0.00     0.041 A 
ATOM     99  F   UNL A   1      42.921  26.953  37.203  1.00  0.00    -0.206 F 
ATOM    100  C   UNL A   1      46.474  26.483  36.720  1.00  0.00     0.022 A 
BRANCH  97 101
ATOM    101  S   UNL A   1      48.436  27.768  35.215  1.00  0.00     0.124 S 
ATOM    102  O   UNL A   1      48.163  27.829  33.783  1.00  0.00    -0.237 OA
ATOM    103  O   UNL A   1      48.896  29.008  35.830  1.00  0.00    -0.237 OA
ATOM    104  O   UNL A   1      49.130  26.562  35.662  1.00  0.00    -0.744 OA
ENDBRANCH  97 101
ENDBRANCH  71  94
ENDBRANCH  45  46
ENDBRANCH  37  40
ENDBRANCH  35  36
ENDBRANCH  34  35
ENDBRANCH  33  34
ENDBRANCH   1  33
TORSDOF 20
ENDMDL
