MODEL 1
REMARK VINA RESULT:     -11.3      0.000      0.000
REMARK SMILES CCCC1(CCC)C[NH+]([C@H]2C=C[C@@H](C(=O)NCCCCNC(=O)c3ccc(-c4c5nc(c(-c6cc(S(=O)(=O)[O-])ccc6F)c6ccc([nH]6)c(-c6cc(S(=O)(=O)[O-])ccc6F)c6nc(c(-c7cc(S(=O)(=O)[O-])ccc7F)c7ccc4[nH]7)C=C6)C=C5)cc3)C2)C1
REMARK SMILES IDX 18 1 17 2 16 3 14 4 15 5 13 7 10 8 11 9 87 10 12 11 9 12
REMARK SMILES IDX 4 13 8 14 88 15 3 17 2 18 1 19 5 20 6 21 7 22 19 23 20 24
REMARK SMILES IDX 21 25 22 26 23 28 24 29 25 30 86 31 26 32 85 33 27 34 28 35
REMARK SMILES IDX 29 36 79 37 30 38 84 39 78 40 80 41 31 42 83 43 77 44 76 45
REMARK SMILES IDX 32 47 64 48 44 49 63 50 45 51 48 52 62 53 81 54 46 55 47 56
REMARK SMILES IDX 61 58 82 59 49 60 33 61 34 62 42 63 35 64 41 65 43 66 40 67
REMARK SMILES IDX 36 68 37 69 38 70 39 71 65 72 66 73 74 74 67 75 73 76 75 77
REMARK SMILES IDX 72 78 68 79 69 80 70 81 71 82 50 83 51 84 59 85 52 86 58 87
REMARK SMILES IDX 60 88 57 89 53 90 54 91 55 92 56 93
REMARK H PARENT 16 6 9 16 21 27 80 46 48 57
REMARK Flexibility Score: inf
ROOT
ATOM      1  C   UNL A   1      32.282  28.607  23.089  1.00  0.00     0.023 C 
ENDROOT
BRANCH   1   2
ATOM      2  C   UNL A   1      33.701  28.076  22.888  1.00  0.00     0.116 C 
BRANCH   2   3
ATOM      3  N   UNL A   1      33.733  26.762  22.268  1.00  0.00    -0.356 N 
ATOM      4  C   UNL A   1      33.331  25.529  22.678  1.00  0.00     0.227 C 
ATOM      5  O   UNL A   1      33.392  24.629  21.829  1.00  0.00    -0.274 OA
ATOM      6  H   UNL A   1      34.127  26.765  21.365  1.00  0.00     0.163 HD
BRANCH   4   7
ATOM      7  C   UNL A   1      32.922  25.151  24.120  1.00  0.00     0.107 C 
ATOM      8  C   UNL A   1      33.346  23.217  25.653  1.00  0.00     0.208 C 
ATOM      9  C   UNL A   1      33.992  24.509  26.106  1.00  0.00     0.033 C 
ATOM     10  C   UNL A   1      32.784  23.629  24.271  1.00  0.00     0.087 C 
ATOM     11  C   UNL A   1      33.783  25.535  25.272  1.00  0.00    -0.012 C 
BRANCH   8  12
ATOM     12  N   UNL A   1      34.304  22.103  25.781  1.00  0.00    -0.328 N 
ATOM     13  C   UNL A   1      33.933  20.211  24.743  1.00  0.00     0.068 C 
ATOM     14  C   UNL A   1      33.786  20.803  26.206  1.00  0.00     0.275 C 
ATOM     15  C   UNL A   1      34.703  21.572  24.493  1.00  0.00     0.275 C 
ATOM     16  H   UNL A   1      34.967  22.560  26.408  1.00  0.00     0.348 HD
BRANCH  13  17
ATOM     17  C   UNL A   1      34.794  18.914  24.625  1.00  0.00     0.018 C 
BRANCH  17  18
ATOM     18  C   UNL A   1      34.072  17.565  24.606  1.00  0.00    -0.002 C 
ATOM     19  C   UNL A   1      34.099  16.896  23.241  1.00  0.00     0.004 C 
ENDBRANCH  17  18
ENDBRANCH  13  17
BRANCH  13  20
ATOM     20  C   UNL A   1      32.467  19.853  24.306  1.00  0.00     0.018 C 
BRANCH  20  21
ATOM     21  C   UNL A   1      32.113  19.815  22.815  1.00  0.00    -0.002 C 
ATOM     22  C   UNL A   1      31.998  21.150  22.104  1.00  0.00     0.004 C 
ENDBRANCH  20  21
ENDBRANCH  13  20
ENDBRANCH   8  12
ENDBRANCH   4   7
ENDBRANCH   2   3
ENDBRANCH   1   2
BRANCH   1  23
ATOM     23  C   UNL A   1      31.810  28.764  24.519  1.00  0.00     0.023 C 
BRANCH  23  24
ATOM     24  C   UNL A   1      32.826  29.486  25.376  1.00  0.00     0.116 C 
BRANCH  24  25
ATOM     25  N   UNL A   1      32.322  30.772  25.858  1.00  0.00    -0.352 N 
ATOM     26  C   UNL A   1      32.751  31.584  26.879  1.00  0.00     0.251 C 
ATOM     27  H   UNL A   1      31.542  31.115  25.364  1.00  0.00     0.163 HD
ATOM     28  O   UNL A   1      32.026  32.511  27.253  1.00  0.00    -0.269 OA
BRANCH  26  29
ATOM     29  C   UNL A   1      34.049  31.344  27.543  1.00  0.00     0.039 A 
ATOM     30  C   UNL A   1      34.908  32.414  27.813  1.00  0.00     0.014 A 
ATOM     31  C   UNL A   1      34.433  30.052  27.898  1.00  0.00     0.014 A 
ATOM     32  C   UNL A   1      36.104  32.189  28.503  1.00  0.00     0.010 A 
ATOM     33  C   UNL A   1      35.529  29.855  28.722  1.00  0.00     0.010 A 
ATOM     34  C   UNL A   1      36.402  30.911  29.005  1.00  0.00    -0.014 A 
BRANCH  34  35
ATOM     35  C   UNL A   1      37.644  30.612  29.766  1.00  0.00     0.031 A 
ATOM     36  C   UNL A   1      38.701  29.738  29.134  1.00  0.00     0.074 A 
ATOM     37  C   UNL A   1      37.775  31.024  31.042  1.00  0.00     0.049 A 
ATOM     38  N   UNL A   1      39.749  29.175  29.675  1.00  0.00    -0.248 NA
ATOM     39  C   UNL A   1      38.508  29.398  27.714  1.00  0.00     0.031 C 
ATOM     40  C   UNL A   1      36.800  31.827  31.782  1.00  0.00     0.029 A 
ATOM     41  N   UNL A   1      38.781  30.808  31.951  1.00  0.00    -0.354 N 
ATOM     42  C   UNL A   1      40.304  28.376  28.678  1.00  0.00     0.074 A 
ATOM     43  C   UNL A   1      39.431  28.467  27.531  1.00  0.00     0.031 C 
ATOM     44  C   UNL A   1      37.271  32.066  33.017  1.00  0.00     0.029 A 
ATOM     45  C   UNL A   1      38.551  31.387  33.178  1.00  0.00     0.049 A 
ATOM     46  H   UNL A   1      39.591  30.289  31.744  1.00  0.00     0.167 HD
ATOM     47  C   UNL A   1      41.455  27.660  28.706  1.00  0.00     0.034 A 
ATOM     48  C   UNL A   1      39.284  31.357  34.308  1.00  0.00     0.034 A 
ATOM     49  C   UNL A   1      42.345  27.639  29.839  1.00  0.00     0.049 A 
ATOM     50  C   UNL A   1      40.580  30.586  34.306  1.00  0.00     0.074 A 
ATOM     51  C   UNL A   1      43.579  27.024  29.958  1.00  0.00     0.029 A 
ATOM     52  N   UNL A   1      42.100  28.277  31.049  1.00  0.00    -0.354 N 
ATOM     53  N   UNL A   1      41.112  29.866  33.346  1.00  0.00    -0.248 NA
ATOM     54  C   UNL A   1      41.375  30.629  35.539  1.00  0.00     0.031 C 
ATOM     55  C   UNL A   1      44.053  27.244  31.257  1.00  0.00     0.029 A 
ATOM     56  C   UNL A   1      43.149  28.054  31.927  1.00  0.00     0.049 A 
ATOM     57  H   UNL A   1      41.298  28.810  31.253  1.00  0.00     0.167 HD
ATOM     58  C   UNL A   1      42.318  29.392  33.851  1.00  0.00     0.074 A 
ATOM     59  C   UNL A   1      42.442  29.925  35.193  1.00  0.00     0.031 C 
ATOM     60  C   UNL A   1      43.242  28.590  33.263  1.00  0.00     0.034 A 
BRANCH  47  61
ATOM     61  C   UNL A   1      41.799  26.841  27.481  1.00  0.00     0.023 A 
ATOM     62  C   UNL A   1      41.494  25.471  27.396  1.00  0.00     0.031 A 
ATOM     63  C   UNL A   1      42.483  27.426  26.401  1.00  0.00     0.131 A 
ATOM     64  C   UNL A   1      41.956  24.714  26.309  1.00  0.00     0.055 A 
ATOM     65  C   UNL A   1      42.857  26.686  25.277  1.00  0.00     0.041 A 
ATOM     66  F   UNL A   1      42.821  28.725  26.428  1.00  0.00    -0.206 F 
ATOM     67  C   UNL A   1      42.611  25.317  25.234  1.00  0.00     0.022 A 
BRANCH  64  68
ATOM     68  S   UNL A   1      41.830  22.906  26.401  1.00  0.00     0.124 S 
ATOM     69  O   UNL A   1      42.532  22.501  25.184  1.00  0.00    -0.237 OA
ATOM     70  O   UNL A   1      42.506  22.605  27.658  1.00  0.00    -0.237 OA
ATOM     71  O   UNL A   1      40.390  22.662  26.392  1.00  0.00    -0.744 OA
ENDBRANCH  64  68
ENDBRANCH  47  61
BRANCH  48  72
ATOM     72  C   UNL A   1      38.822  32.075  35.530  1.00  0.00     0.023 A 
ATOM     73  C   UNL A   1      38.232  31.376  36.595  1.00  0.00     0.031 A 
ATOM     74  C   UNL A   1      38.936  33.472  35.642  1.00  0.00     0.131 A 
ATOM     75  C   UNL A   1      37.737  32.077  37.705  1.00  0.00     0.055 A 
ATOM     76  C   UNL A   1      38.489  34.160  36.771  1.00  0.00     0.041 A 
ATOM     77  F   UNL A   1      39.501  34.188  34.657  1.00  0.00    -0.206 F 
ATOM     78  C   UNL A   1      37.873  33.463  37.806  1.00  0.00     0.022 A 
BRANCH  75  79
ATOM     79  S   UNL A   1      36.841  31.154  38.985  1.00  0.00     0.124 S 
ATOM     80  O   UNL A   1      37.747  31.268  40.122  1.00  0.00    -0.237 OA
ATOM     81  O   UNL A   1      35.593  31.904  39.079  1.00  0.00    -0.237 OA
ATOM     82  O   UNL A   1      36.718  29.815  38.414  1.00  0.00    -0.744 OA
ENDBRANCH  75  79
ENDBRANCH  48  72
BRANCH  60  83
ATOM     83  C   UNL A   1      44.481  28.281  34.064  1.00  0.00     0.023 A 
ATOM     84  C   UNL A   1      44.574  27.129  34.862  1.00  0.00     0.031 A 
ATOM     85  C   UNL A   1      45.579  29.159  34.035  1.00  0.00     0.131 A 
ATOM     86  C   UNL A   1      45.717  26.913  35.645  1.00  0.00     0.055 A 
ATOM     87  C   UNL A   1      46.739  28.909  34.769  1.00  0.00     0.041 A 
ATOM     88  F   UNL A   1      45.542  30.275  33.289  1.00  0.00    -0.206 F 
ATOM     89  C   UNL A   1      46.806  27.786  35.590  1.00  0.00     0.022 A 
BRANCH  86  90
ATOM     90  S   UNL A   1      45.726  25.520  36.805  1.00  0.00     0.124 S 
ATOM     91  O   UNL A   1      46.760  25.923  37.755  1.00  0.00    -0.237 OA
ATOM     92  O   UNL A   1      44.358  25.527  37.312  1.00  0.00    -0.237 OA
ATOM     93  O   UNL A   1      46.069  24.374  35.965  1.00  0.00    -0.744 OA
ENDBRANCH  86  90
ENDBRANCH  60  83
ENDBRANCH  34  35
ENDBRANCH  26  29
ENDBRANCH  24  25
ENDBRANCH  23  24
ENDBRANCH   1  23
TORSDOF 19
ENDMDL
MODEL 2
REMARK VINA RESULT:     -11.2      2.170      7.814
REMARK SMILES CCCC1(CCC)C[NH+]([C@H]2C=C[C@@H](C(=O)NCCCCNC(=O)c3ccc(-c4c5nc(c(-c6cc(S(=O)(=O)[O-])ccc6F)c6ccc([nH]6)c(-c6cc(S(=O)(=O)[O-])ccc6F)c6nc(c(-c7cc(S(=O)(=O)[O-])ccc7F)c7ccc4[nH]7)C=C6)C=C5)cc3)C2)C1
REMARK SMILES IDX 18 1 17 2 16 3 14 4 15 5 13 7 10 8 11 9 87 10 12 11 9 12
REMARK SMILES IDX 4 13 8 14 88 15 3 17 2 18 1 19 5 20 6 21 7 22 19 23 20 24
REMARK SMILES IDX 21 25 22 26 23 28 24 29 25 30 86 31 26 32 85 33 27 34 28 35
REMARK SMILES IDX 29 36 79 37 30 38 84 39 78 40 80 41 31 42 83 43 77 44 76 45
REMARK SMILES IDX 32 47 64 48 44 49 63 50 45 51 48 52 62 53 81 54 46 55 47 56
REMARK SMILES IDX 61 58 82 59 49 60 33 61 34 62 42 63 35 64 41 65 43 66 40 67
REMARK SMILES IDX 36 68 37 69 38 70 39 71 65 72 66 73 74 74 67 75 73 76 75 77
REMARK SMILES IDX 72 78 68 79 69 80 70 81 71 82 50 83 51 84 59 85 52 86 58 87
REMARK SMILES IDX 60 88 57 89 53 90 54 91 55 92 56 93
REMARK H PARENT 16 6 9 16 21 27 80 46 48 57
REMARK Flexibility Score: inf
ROOT
ATOM      1  C   UNL A   1      31.498  27.851  26.561  1.00  0.00     0.023 C 
ENDROOT
BRANCH   1   2
ATOM      2  C   UNL A   1      31.127  26.993  25.352  1.00  0.00     0.116 C 
BRANCH   2   3
ATOM      3  N   UNL A   1      30.782  25.627  25.709  1.00  0.00    -0.356 N 
ATOM      4  C   UNL A   1      31.482  24.608  26.274  1.00  0.00     0.227 C 
ATOM      5  O   UNL A   1      30.829  23.595  26.560  1.00  0.00    -0.274 OA
ATOM      6  H   UNL A   1      29.849  25.392  25.497  1.00  0.00     0.163 HD
BRANCH   4   7
ATOM      7  C   UNL A   1      33.014  24.574  26.478  1.00  0.00     0.107 C 
ATOM      8  C   UNL A   1      34.751  22.786  26.705  1.00  0.00     0.208 C 
ATOM      9  C   UNL A   1      34.873  23.597  25.434  1.00  0.00     0.033 C 
ATOM     10  C   UNL A   1      33.434  23.344  27.294  1.00  0.00     0.087 C 
ATOM     11  C   UNL A   1      33.929  24.537  25.304  1.00  0.00    -0.012 C 
BRANCH   8  12
ATOM     12  N   UNL A   1      34.900  21.351  26.404  1.00  0.00    -0.328 N 
ATOM     13  C   UNL A   1      33.682  20.425  24.837  1.00  0.00     0.068 C 
ATOM     14  C   UNL A   1      33.696  20.520  26.419  1.00  0.00     0.275 C 
ATOM     15  C   UNL A   1      35.103  21.105  24.989  1.00  0.00     0.275 C 
ATOM     16  H   UNL A   1      35.615  21.135  27.099  1.00  0.00     0.348 HD
BRANCH  13  17
ATOM     17  C   UNL A   1      33.682  18.978  24.249  1.00  0.00     0.018 C 
BRANCH  17  18
ATOM     18  C   UNL A   1      32.364  18.410  23.722  1.00  0.00    -0.002 C 
ATOM     19  C   UNL A   1      32.422  18.045  22.247  1.00  0.00     0.004 C 
ENDBRANCH  17  18
ENDBRANCH  13  17
BRANCH  13  20
ATOM     20  C   UNL A   1      32.338  21.116  24.405  1.00  0.00     0.018 C 
BRANCH  20  21
ATOM     21  C   UNL A   1      32.310  21.991  23.147  1.00  0.00    -0.002 C 
ATOM     22  C   UNL A   1      31.263  23.087  23.098  1.00  0.00     0.004 C 
ENDBRANCH  20  21
ENDBRANCH  13  20
ENDBRANCH   8  12
ENDBRANCH   4   7
ENDBRANCH   2   3
ENDBRANCH   1   2
BRANCH   1  23
ATOM     23  C   UNL A   1      31.926  29.276  26.281  1.00  0.00     0.023 C 
BRANCH  23  24
ATOM     24  C   UNL A   1      33.252  29.609  26.930  1.00  0.00     0.116 C 
BRANCH  24  25
ATOM     25  N   UNL A   1      33.366  31.032  27.245  1.00  0.00    -0.352 N 
ATOM     26  C   UNL A   1      34.297  31.722  27.983  1.00  0.00     0.251 C 
ATOM     27  H   UNL A   1      32.653  31.593  26.861  1.00  0.00     0.163 HD
ATOM     28  O   UNL A   1      34.060  32.889  28.308  1.00  0.00    -0.269 OA
BRANCH  26  29
ATOM     29  C   UNL A   1      35.557  31.075  28.407  1.00  0.00     0.039 A 
ATOM     30  C   UNL A   1      36.783  31.703  28.166  1.00  0.00     0.014 A 
ATOM     31  C   UNL A   1      35.535  29.834  29.039  1.00  0.00     0.014 A 
ATOM     32  C   UNL A   1      37.966  31.118  28.631  1.00  0.00     0.010 A 
ATOM     33  C   UNL A   1      36.682  29.342  29.641  1.00  0.00     0.010 A 
ATOM     34  C   UNL A   1      37.920  29.953  29.414  1.00  0.00    -0.014 A 
BRANCH  34  35
ATOM     35  C   UNL A   1      39.139  29.296  29.958  1.00  0.00     0.031 A 
ATOM     36  C   UNL A   1      39.780  29.854  31.206  1.00  0.00     0.074 A 
ATOM     37  C   UNL A   1      39.724  28.286  29.285  1.00  0.00     0.049 A 
ATOM     38  N   UNL A   1      40.945  29.587  31.734  1.00  0.00    -0.248 NA
ATOM     39  C   UNL A   1      39.032  30.907  31.914  1.00  0.00     0.031 C 
ATOM     40  C   UNL A   1      39.231  27.695  28.039  1.00  0.00     0.029 A 
ATOM     41  N   UNL A   1      40.874  27.586  29.549  1.00  0.00    -0.354 N 
ATOM     42  C   UNL A   1      41.089  30.474  32.798  1.00  0.00     0.074 A 
ATOM     43  C   UNL A   1      39.929  31.336  32.786  1.00  0.00     0.031 C 
ATOM     44  C   UNL A   1      40.053  26.700  27.667  1.00  0.00     0.029 A 
ATOM     45  C   UNL A   1      41.161  26.620  28.612  1.00  0.00     0.049 A 
ATOM     46  H   UNL A   1      41.441  27.759  30.334  1.00  0.00     0.167 HD
ATOM     47  C   UNL A   1      42.080  30.542  33.721  1.00  0.00     0.034 A 
ATOM     48  C   UNL A   1      42.208  25.777  28.520  1.00  0.00     0.034 A 
ATOM     49  C   UNL A   1      43.193  29.626  33.751  1.00  0.00     0.049 A 
ATOM     50  C   UNL A   1      43.281  25.842  29.577  1.00  0.00     0.074 A 
ATOM     51  C   UNL A   1      44.213  29.537  34.683  1.00  0.00     0.029 A 
ATOM     52  N   UNL A   1      43.424  28.630  32.812  1.00  0.00    -0.354 N 
ATOM     53  N   UNL A   1      43.385  26.660  30.599  1.00  0.00    -0.248 NA
ATOM     54  C   UNL A   1      44.372  24.866  29.471  1.00  0.00     0.031 C 
ATOM     55  C   UNL A   1      45.088  28.523  34.276  1.00  0.00     0.029 A 
ATOM     56  C   UNL A   1      44.579  27.934  33.129  1.00  0.00     0.049 A 
ATOM     57  H   UNL A   1      42.850  28.444  32.034  1.00  0.00     0.167 HD
ATOM     58  C   UNL A   1      44.542  26.279  31.272  1.00  0.00     0.074 A 
ATOM     59  C   UNL A   1      45.086  25.147  30.551  1.00  0.00     0.031 C 
ATOM     60  C   UNL A   1      45.105  26.813  32.386  1.00  0.00     0.034 A 
BRANCH  47  61
ATOM     61  C   UNL A   1      42.001  31.644  34.754  1.00  0.00     0.023 A 
ATOM     62  C   UNL A   1      41.073  31.603  35.811  1.00  0.00     0.031 A 
ATOM     63  C   UNL A   1      42.831  32.774  34.656  1.00  0.00     0.131 A 
ATOM     64  C   UNL A   1      40.930  32.708  36.663  1.00  0.00     0.055 A 
ATOM     65  C   UNL A   1      42.748  33.830  35.567  1.00  0.00     0.041 A 
ATOM     66  F   UNL A   1      43.724  32.883  33.660  1.00  0.00    -0.206 F 
ATOM     67  C   UNL A   1      41.781  33.810  36.567  1.00  0.00     0.022 A 
BRANCH  64  68
ATOM     68  S   UNL A   1      39.510  32.749  37.792  1.00  0.00     0.124 S 
ATOM     69  O   UNL A   1      38.978  34.087  37.545  1.00  0.00    -0.237 OA
ATOM     70  O   UNL A   1      38.694  31.638  37.314  1.00  0.00    -0.237 OA
ATOM     71  O   UNL A   1      40.114  32.558  39.109  1.00  0.00    -0.744 OA
ENDBRANCH  64  68
ENDBRANCH  47  61
BRANCH  48  72
ATOM     72  C   UNL A   1      42.298  24.801  27.397  1.00  0.00     0.023 A 
ATOM     73  C   UNL A   1      41.553  23.610  27.418  1.00  0.00     0.031 A 
ATOM     74  C   UNL A   1      43.147  25.027  26.300  1.00  0.00     0.131 A 
ATOM     75  C   UNL A   1      41.706  22.670  26.388  1.00  0.00     0.055 A 
ATOM     76  C   UNL A   1      43.257  24.112  25.251  1.00  0.00     0.041 A 
ATOM     77  F   UNL A   1      43.873  26.153  26.225  1.00  0.00    -0.206 F 
ATOM     78  C   UNL A   1      42.544  22.918  25.297  1.00  0.00     0.022 A 
BRANCH  75  79
ATOM     79  S   UNL A   1      40.849  21.077  26.532  1.00  0.00     0.124 S 
ATOM     80  O   UNL A   1      40.773  20.912  27.979  1.00  0.00    -0.237 OA
ATOM     81  O   UNL A   1      39.588  21.349  25.849  1.00  0.00    -0.237 OA
ATOM     82  O   UNL A   1      41.740  20.148  25.842  1.00  0.00    -0.744 OA
ENDBRANCH  75  79
ENDBRANCH  48  72
BRANCH  60  83
ATOM     83  C   UNL A   1      46.352  26.144  32.903  1.00  0.00     0.023 A 
ATOM     84  C   UNL A   1      46.291  25.018  33.741  1.00  0.00     0.031 A 
ATOM     85  C   UNL A   1      47.619  26.648  32.560  1.00  0.00     0.131 A 
ATOM     86  C   UNL A   1      47.473  24.466  34.255  1.00  0.00     0.055 A 
ATOM     87  C   UNL A   1      48.794  26.059  33.026  1.00  0.00     0.041 A 
ATOM     88  F   UNL A   1      47.734  27.722  31.762  1.00  0.00    -0.206 F 
ATOM     89  C   UNL A   1      48.724  24.969  33.889  1.00  0.00     0.022 A 
BRANCH  86  90
ATOM     90  S   UNL A   1      47.350  23.136  35.482  1.00  0.00     0.124 S 
ATOM     91  O   UNL A   1      48.153  23.663  36.581  1.00  0.00    -0.237 OA
ATOM     92  O   UNL A   1      45.912  23.065  35.721  1.00  0.00    -0.237 OA
ATOM     93  O   UNL A   1      47.922  21.981  34.794  1.00  0.00    -0.744 OA
ENDBRANCH  86  90
ENDBRANCH  60  83
ENDBRANCH  34  35
ENDBRANCH  26  29
ENDBRANCH  24  25
ENDBRANCH  23  24
ENDBRANCH   1  23
TORSDOF 19
ENDMDL
MODEL 3
REMARK VINA RESULT:     -11.1      1.885      2.158
REMARK SMILES CCCC1(CCC)C[NH+]([C@H]2C=C[C@@H](C(=O)NCCCCNC(=O)c3ccc(-c4c5nc(c(-c6cc(S(=O)(=O)[O-])ccc6F)c6ccc([nH]6)c(-c6cc(S(=O)(=O)[O-])ccc6F)c6nc(c(-c7cc(S(=O)(=O)[O-])ccc7F)c7ccc4[nH]7)C=C6)C=C5)cc3)C2)C1
REMARK SMILES IDX 18 1 17 2 16 3 14 4 15 5 13 7 10 8 11 9 87 10 12 11 9 12
REMARK SMILES IDX 4 13 8 14 88 15 3 17 2 18 1 19 5 20 6 21 7 22 19 23 20 24
REMARK SMILES IDX 21 25 22 26 23 28 24 29 25 30 86 31 26 32 85 33 27 34 28 35
REMARK SMILES IDX 29 36 79 37 30 38 84 39 78 40 80 41 31 42 83 43 77 44 76 45
REMARK SMILES IDX 32 47 64 48 44 49 63 50 45 51 48 52 62 53 81 54 46 55 47 56
REMARK SMILES IDX 61 58 82 59 49 60 33 61 34 62 42 63 35 64 41 65 43 66 40 67
REMARK SMILES IDX 36 68 37 69 38 70 39 71 65 72 66 73 74 74 67 75 73 76 75 77
REMARK SMILES IDX 72 78 68 79 69 80 70 81 71 82 50 83 51 84 59 85 52 86 58 87
REMARK SMILES IDX 60 88 57 89 53 90 54 91 55 92 56 93
REMARK H PARENT 16 6 9 16 21 27 80 46 48 57
REMARK Flexibility Score: inf
ROOT
ATOM      1  C   UNL A   1      31.081  28.410  25.202  1.00  0.00     0.023 C 
ENDROOT
BRANCH   1   2
ATOM      2  C   UNL A   1      32.214  27.390  25.097  1.00  0.00     0.116 C 
BRANCH   2   3
ATOM      3  N   UNL A   1      31.806  26.047  25.477  1.00  0.00    -0.356 N 
ATOM      4  C   UNL A   1      32.488  24.960  25.927  1.00  0.00     0.227 C 
ATOM      5  O   UNL A   1      31.796  23.997  26.284  1.00  0.00    -0.274 OA
ATOM      6  H   UNL A   1      30.837  25.894  25.391  1.00  0.00     0.163 HD
BRANCH   4   7
ATOM      7  C   UNL A   1      34.025  24.797  25.921  1.00  0.00     0.107 C 
ATOM      8  C   UNL A   1      35.625  22.895  26.220  1.00  0.00     0.208 C 
ATOM      9  C   UNL A   1      35.616  23.471  24.820  1.00  0.00     0.033 C 
ATOM     10  C   UNL A   1      34.463  23.678  26.876  1.00  0.00     0.087 C 
ATOM     11  C   UNL A   1      34.742  24.472  24.658  1.00  0.00    -0.012 C 
BRANCH   8  12
ATOM     12  N   UNL A   1      35.608  21.422  26.159  1.00  0.00    -0.328 N 
ATOM     13  C   UNL A   1      34.140  20.391  24.902  1.00  0.00     0.068 C 
ATOM     14  C   UNL A   1      34.343  20.741  26.435  1.00  0.00     0.275 C 
ATOM     15  C   UNL A   1      35.625  20.929  24.795  1.00  0.00     0.275 C 
ATOM     16  H   UNL A   1      36.375  21.246  26.808  1.00  0.00     0.348 HD
BRANCH  13  17
ATOM     17  C   UNL A   1      33.943  18.876  24.577  1.00  0.00     0.018 C 
BRANCH  17  18
ATOM     18  C   UNL A   1      32.517  18.324  24.534  1.00  0.00    -0.002 C 
ATOM     19  C   UNL A   1      32.345  17.059  25.359  1.00  0.00     0.004 C 
ENDBRANCH  17  18
ENDBRANCH  13  17
BRANCH  13  20
ATOM     20  C   UNL A   1      32.824  21.143  24.490  1.00  0.00     0.018 C 
BRANCH  20  21
ATOM     21  C   UNL A   1      32.711  21.753  23.087  1.00  0.00    -0.002 C 
ATOM     22  C   UNL A   1      31.792  22.950  22.933  1.00  0.00     0.004 C 
ENDBRANCH  20  21
ENDBRANCH  13  20
ENDBRANCH   8  12
ENDBRANCH   4   7
ENDBRANCH   2   3
ENDBRANCH   1   2
BRANCH   1  23
ATOM     23  C   UNL A   1      31.468  29.870  25.102  1.00  0.00     0.023 C 
BRANCH  23  24
ATOM     24  C   UNL A   1      32.176  30.357  26.348  1.00  0.00     0.116 C 
BRANCH  24  25
ATOM     25  N   UNL A   1      32.013  31.797  26.544  1.00  0.00    -0.352 N 
ATOM     26  C   UNL A   1      32.715  32.688  27.319  1.00  0.00     0.251 C 
ATOM     27  H   UNL A   1      31.273  32.197  26.032  1.00  0.00     0.163 HD
ATOM     28  O   UNL A   1      32.249  33.815  27.509  1.00  0.00    -0.269 OA
BRANCH  26  29
ATOM     29  C   UNL A   1      33.998  32.301  27.942  1.00  0.00     0.039 A 
ATOM     30  C   UNL A   1      35.028  33.240  28.067  1.00  0.00     0.014 A 
ATOM     31  C   UNL A   1      34.198  31.001  28.400  1.00  0.00     0.014 A 
ATOM     32  C   UNL A   1      36.214  32.887  28.719  1.00  0.00     0.010 A 
ATOM     33  C   UNL A   1      35.299  30.703  29.186  1.00  0.00     0.010 A 
ATOM     34  C   UNL A   1      36.341  31.627  29.326  1.00  0.00    -0.014 A 
BRANCH  34  35
ATOM     35  C   UNL A   1      37.566  31.200  30.053  1.00  0.00     0.031 A 
ATOM     36  C   UNL A   1      38.495  30.200  29.405  1.00  0.00     0.074 A 
ATOM     37  C   UNL A   1      37.787  31.615  31.315  1.00  0.00     0.049 A 
ATOM     38  N   UNL A   1      39.490  29.530  29.923  1.00  0.00    -0.248 NA
ATOM     39  C   UNL A   1      38.217  29.862  27.999  1.00  0.00     0.031 C 
ATOM     40  C   UNL A   1      36.934  32.537  32.070  1.00  0.00     0.029 A 
ATOM     41  N   UNL A   1      38.791  31.301  32.196  1.00  0.00    -0.354 N 
ATOM     42  C   UNL A   1      39.917  28.657  28.926  1.00  0.00     0.074 A 
ATOM     43  C   UNL A   1      39.021  28.828  27.806  1.00  0.00     0.031 C 
ATOM     44  C   UNL A   1      37.471  32.740  33.284  1.00  0.00     0.029 A 
ATOM     45  C   UNL A   1      38.671  31.921  33.418  1.00  0.00     0.049 A 
ATOM     46  H   UNL A   1      39.529  30.689  31.974  1.00  0.00     0.167 HD
ATOM     47  C   UNL A   1      40.979  27.814  28.931  1.00  0.00     0.034 A 
ATOM     48  C   UNL A   1      39.433  31.827  34.524  1.00  0.00     0.034 A 
ATOM     49  C   UNL A   1      41.899  27.711  30.036  1.00  0.00     0.049 A 
ATOM     50  C   UNL A   1      40.632  30.913  34.497  1.00  0.00     0.074 A 
ATOM     51  C   UNL A   1      43.058  26.961  30.128  1.00  0.00     0.029 A 
ATOM     52  N   UNL A   1      41.769  28.392  31.240  1.00  0.00    -0.354 N 
ATOM     53  N   UNL A   1      41.046  30.121  33.535  1.00  0.00    -0.248 NA
ATOM     54  C   UNL A   1      41.468  30.885  35.703  1.00  0.00     0.031 C 
ATOM     55  C   UNL A   1      43.598  27.147  31.406  1.00  0.00     0.029 A 
ATOM     56  C   UNL A   1      42.814  28.065  32.088  1.00  0.00     0.049 A 
ATOM     57  H   UNL A   1      41.040  29.016  31.459  1.00  0.00     0.167 HD
ATOM     58  C   UNL A   1      42.207  29.521  34.011  1.00  0.00     0.074 A 
ATOM     59  C   UNL A   1      42.436  30.058  35.337  1.00  0.00     0.031 C 
ATOM     60  C   UNL A   1      43.014  28.609  33.410  1.00  0.00     0.034 A 
BRANCH  47  61
ATOM     61  C   UNL A   1      41.186  26.942  27.713  1.00  0.00     0.023 A 
ATOM     62  C   UNL A   1      40.789  25.593  27.692  1.00  0.00     0.031 A 
ATOM     63  C   UNL A   1      41.831  27.451  26.573  1.00  0.00     0.131 A 
ATOM     64  C   UNL A   1      41.127  24.778  26.601  1.00  0.00     0.055 A 
ATOM     65  C   UNL A   1      42.080  26.658  25.450  1.00  0.00     0.041 A 
ATOM     66  F   UNL A   1      42.252  28.725  26.536  1.00  0.00    -0.206 F 
ATOM     67  C   UNL A   1      41.744  25.307  25.467  1.00  0.00     0.022 A 
BRANCH  64  68
ATOM     68  S   UNL A   1      40.892  22.985  26.758  1.00  0.00     0.124 S 
ATOM     69  O   UNL A   1      39.461  22.853  26.496  1.00  0.00    -0.237 OA
ATOM     70  O   UNL A   1      41.781  22.459  25.729  1.00  0.00    -0.237 OA
ATOM     71  O   UNL A   1      41.296  22.706  28.134  1.00  0.00    -0.744 OA
ENDBRANCH  64  68
ENDBRANCH  47  61
BRANCH  48  72
ATOM     72  C   UNL A   1      39.097  32.613  35.745  1.00  0.00     0.023 A 
ATOM     73  C   UNL A   1      39.574  33.924  35.911  1.00  0.00     0.031 A 
ATOM     74  C   UNL A   1      38.320  32.060  36.778  1.00  0.00     0.131 A 
ATOM     75  C   UNL A   1      39.308  34.621  37.098  1.00  0.00     0.055 A 
ATOM     76  C   UNL A   1      38.014  32.777  37.936  1.00  0.00     0.041 A 
ATOM     77  F   UNL A   1      37.831  30.814  36.666  1.00  0.00    -0.206 F 
ATOM     78  C   UNL A   1      38.521  34.061  38.108  1.00  0.00     0.022 A 
BRANCH  75  79
ATOM     79  S   UNL A   1      40.073  36.249  37.339  1.00  0.00     0.124 S 
ATOM     80  O   UNL A   1      39.228  36.823  38.379  1.00  0.00    -0.237 OA
ATOM     81  O   UNL A   1      41.430  35.888  37.738  1.00  0.00    -0.237 OA
ATOM     82  O   UNL A   1      39.959  36.875  36.024  1.00  0.00    -0.744 OA
ENDBRANCH  75  79
ENDBRANCH  48  72
BRANCH  60  83
ATOM     83  C   UNL A   1      44.236  28.174  34.177  1.00  0.00     0.023 A 
ATOM     84  C   UNL A   1      44.208  27.066  35.041  1.00  0.00     0.031 A 
ATOM     85  C   UNL A   1      45.442  28.885  34.048  1.00  0.00     0.131 A 
ATOM     86  C   UNL A   1      45.347  26.735  35.788  1.00  0.00     0.055 A 
ATOM     87  C   UNL A   1      46.590  28.515  34.748  1.00  0.00     0.041 A 
ATOM     88  F   UNL A   1      45.523  29.951  33.236  1.00  0.00    -0.206 F 
ATOM     89  C   UNL A   1      46.543  27.442  35.634  1.00  0.00     0.022 A 
BRANCH  86  90
ATOM     90  S   UNL A   1      45.220  25.422  37.032  1.00  0.00     0.124 S 
ATOM     91  O   UNL A   1      44.462  26.081  38.092  1.00  0.00    -0.237 OA
ATOM     92  O   UNL A   1      44.516  24.371  36.305  1.00  0.00    -0.237 OA
ATOM     93  O   UNL A   1      46.613  25.123  37.359  1.00  0.00    -0.744 OA
ENDBRANCH  86  90
ENDBRANCH  60  83
ENDBRANCH  34  35
ENDBRANCH  26  29
ENDBRANCH  24  25
ENDBRANCH  23  24
ENDBRANCH   1  23
TORSDOF 19
ENDMDL
