MODEL 1
REMARK VINA RESULT:     -11.4      0.000      0.000
REMARK SMILES O=C(CC[N@@H+]1CCc2ccccc2C1)NCCCCNC(=O)c1ccc(-c2c3nc(c(-c4cc(S(=O)(=O)[O-])ccc4F)c4ccc([nH]4)c(-c4cc(S(=O)(=O)[O-])ccc4F)c4nc(c(-c5cc(S(=O)(=O)[O-])ccc5F)c5ccc2[nH]5)C=C4)C=C3)cc1
REMARK SMILES IDX 18 1 17 2 16 3 15 4 1 5 2 6 3 8 4 9 5 10 6 11 14 12 7 14
REMARK SMILES IDX 13 15 8 16 12 17 9 18 11 19 10 20 19 21 20 22 21 23 22 25
REMARK SMILES IDX 23 26 24 27 85 28 25 29 84 30 26 31 27 32 28 33 78 34 29 35
REMARK SMILES IDX 83 36 77 37 79 38 30 39 82 40 76 41 75 42 31 44 63 45 43 46
REMARK SMILES IDX 62 47 44 48 47 49 61 50 80 51 45 52 46 53 60 55 81 56 48 57
REMARK SMILES IDX 32 58 33 59 41 60 34 61 40 62 42 63 39 64 35 65 36 66 37 67
REMARK SMILES IDX 38 68 64 69 65 70 73 71 66 72 72 73 74 74 71 75 67 76 68 77
REMARK SMILES IDX 69 78 70 79 49 80 50 81 58 82 51 83 57 84 59 85 56 86 52 87
REMARK SMILES IDX 53 88 54 89 55 90
REMARK H PARENT 15 7 5 13 20 24 79 43 47 54
REMARK Flexibility Score: inf
ROOT
ATOM      1  C   UNL A   1      31.524  31.730  26.668  1.00  0.00     0.023 C 
ENDROOT
BRANCH   1   2
ATOM      2  C   UNL A   1      31.789  30.498  25.788  1.00  0.00     0.023 C 
BRANCH   2   3
ATOM      3  C   UNL A   1      32.783  29.461  26.324  1.00  0.00     0.116 C 
BRANCH   3   4
ATOM      4  N   UNL A   1      32.435  28.088  26.005  1.00  0.00    -0.356 N 
ATOM      5  O   UNL A   1      31.119  27.775  27.859  1.00  0.00    -0.275 OA
ATOM      6  C   UNL A   1      31.488  27.405  26.748  1.00  0.00     0.225 C 
ATOM      7  H   UNL A   1      32.877  27.638  25.249  1.00  0.00     0.163 HD
BRANCH   6   8
ATOM      8  C   UNL A   1      30.858  26.211  26.039  1.00  0.00     0.161 C 
BRANCH   8   9
ATOM      9  C   UNL A   1      31.577  25.911  24.701  1.00  0.00     0.272 C 
BRANCH   9  10
ATOM     10  N   UNL A   1      32.318  24.626  24.629  1.00  0.00    -0.330 N 
ATOM     11  C   UNL A   1      32.974  24.269  25.896  1.00  0.00     0.267 C 
ATOM     12  C   UNL A   1      33.325  24.645  23.513  1.00  0.00     0.299 C 
ATOM     13  H   UNL A   1      31.619  23.908  24.437  1.00  0.00     0.348 HD
ATOM     14  C   UNL A   1      34.284  25.040  26.094  1.00  0.00     0.097 C 
ATOM     15  C   UNL A   1      34.690  24.056  23.874  1.00  0.00     0.010 A 
ATOM     16  C   UNL A   1      35.220  24.346  25.151  1.00  0.00    -0.034 A 
ATOM     17  C   UNL A   1      35.409  23.212  23.030  1.00  0.00     0.010 A 
ATOM     18  C   UNL A   1      36.437  23.815  25.577  1.00  0.00     0.004 A 
ATOM     19  C   UNL A   1      36.611  22.646  23.473  1.00  0.00     0.001 A 
ATOM     20  C   UNL A   1      37.125  22.948  24.738  1.00  0.00     0.000 A 
ENDBRANCH   9  10
ENDBRANCH   8   9
ENDBRANCH   6   8
ENDBRANCH   3   4
ENDBRANCH   2   3
ENDBRANCH   1   2
BRANCH   1  21
ATOM     21  C   UNL A   1      32.740  32.457  27.246  1.00  0.00     0.116 C 
BRANCH  21  22
ATOM     22  N   UNL A   1      32.490  33.829  27.646  1.00  0.00    -0.352 N 
ATOM     23  C   UNL A   1      33.159  34.630  28.542  1.00  0.00     0.251 C 
ATOM     24  H   UNL A   1      31.720  34.253  27.205  1.00  0.00     0.163 HD
ATOM     25  O   UNL A   1      32.738  35.769  28.745  1.00  0.00    -0.269 OA
BRANCH  23  26
ATOM     26  C   UNL A   1      34.338  34.141  29.302  1.00  0.00     0.039 A 
ATOM     27  C   UNL A   1      34.111  33.394  30.463  1.00  0.00     0.014 A 
ATOM     28  C   UNL A   1      35.652  34.423  28.917  1.00  0.00     0.014 A 
ATOM     29  C   UNL A   1      35.187  32.867  31.186  1.00  0.00     0.010 A 
ATOM     30  C   UNL A   1      36.727  33.849  29.607  1.00  0.00     0.010 A 
ATOM     31  C   UNL A   1      36.507  33.052  30.742  1.00  0.00    -0.014 A 
BRANCH  31  32
ATOM     32  C   UNL A   1      37.645  32.384  31.436  1.00  0.00     0.031 A 
ATOM     33  C   UNL A   1      38.380  31.237  30.793  1.00  0.00     0.074 A 
ATOM     34  C   UNL A   1      37.995  32.789  32.676  1.00  0.00     0.049 A 
ATOM     35  N   UNL A   1      39.371  30.522  31.262  1.00  0.00    -0.248 NA
ATOM     36  C   UNL A   1      37.928  30.832  29.456  1.00  0.00     0.031 C 
ATOM     37  C   UNL A   1      37.345  33.867  33.423  1.00  0.00     0.029 A 
ATOM     38  N   UNL A   1      38.977  32.344  33.528  1.00  0.00    -0.354 N 
ATOM     39  C   UNL A   1      39.660  29.578  30.283  1.00  0.00     0.074 A 
ATOM     40  C   UNL A   1      38.700  29.780  29.217  1.00  0.00     0.031 C 
ATOM     41  C   UNL A   1      37.961  34.016  34.607  1.00  0.00     0.029 A 
ATOM     42  C   UNL A   1      39.018  33.017  34.729  1.00  0.00     0.049 A 
ATOM     43  H   UNL A   1      39.594  31.611  33.302  1.00  0.00     0.167 HD
ATOM     44  C   UNL A   1      40.643  28.642  30.265  1.00  0.00     0.034 A 
ATOM     45  C   UNL A   1      39.805  32.846  35.810  1.00  0.00     0.034 A 
ATOM     46  C   UNL A   1      41.596  28.451  31.335  1.00  0.00     0.049 A 
ATOM     47  C   UNL A   1      40.861  31.768  35.784  1.00  0.00     0.074 A 
ATOM     48  C   UNL A   1      42.664  27.570  31.389  1.00  0.00     0.029 A 
ATOM     49  N   UNL A   1      41.592  29.136  32.543  1.00  0.00    -0.354 N 
ATOM     50  N   UNL A   1      41.156  30.922  34.823  1.00  0.00    -0.248 NA
ATOM     51  C   UNL A   1      41.697  31.630  36.984  1.00  0.00     0.031 C 
ATOM     52  C   UNL A   1      43.252  27.665  32.655  1.00  0.00     0.029 A 
ATOM     53  C   UNL A   1      42.611  28.669  33.361  1.00  0.00     0.049 A 
ATOM     54  H   UNL A   1      40.957  29.849  32.783  1.00  0.00     0.167 HD
ATOM     55  C   UNL A   1      42.235  30.179  35.293  1.00  0.00     0.074 A 
ATOM     56  C   UNL A   1      42.547  30.685  36.613  1.00  0.00     0.031 C 
ATOM     57  C   UNL A   1      42.911  29.171  34.683  1.00  0.00     0.034 A 
BRANCH  44  58
ATOM     58  C   UNL A   1      40.719  27.727  29.064  1.00  0.00     0.023 A 
ATOM     59  C   UNL A   1      41.656  27.932  28.036  1.00  0.00     0.031 A 
ATOM     60  C   UNL A   1      39.840  26.636  28.940  1.00  0.00     0.131 A 
ATOM     61  C   UNL A   1      41.645  27.105  26.901  1.00  0.00     0.055 A 
ATOM     62  C   UNL A   1      39.889  25.767  27.849  1.00  0.00     0.041 A 
ATOM     63  F   UNL A   1      38.909  26.399  29.879  1.00  0.00    -0.206 F 
ATOM     64  C   UNL A   1      40.786  26.009  26.812  1.00  0.00     0.022 A 
BRANCH  61  65
ATOM     65  S   UNL A   1      42.673  27.571  25.481  1.00  0.00     0.124 S 
ATOM     66  O   UNL A   1      43.974  27.777  26.113  1.00  0.00    -0.237 OA
ATOM     67  O   UNL A   1      42.560  26.406  24.613  1.00  0.00    -0.237 OA
ATOM     68  O   UNL A   1      42.033  28.787  24.980  1.00  0.00    -0.744 OA
ENDBRANCH  61  65
ENDBRANCH  44  58
BRANCH  45  69
ATOM     69  C   UNL A   1      39.625  33.698  37.023  1.00  0.00     0.023 A 
ATOM     70  C   UNL A   1      40.466  34.796  37.267  1.00  0.00     0.031 A 
ATOM     71  C   UNL A   1      38.646  33.394  37.986  1.00  0.00     0.131 A 
ATOM     72  C   UNL A   1      40.349  35.516  38.466  1.00  0.00     0.055 A 
ATOM     73  C   UNL A   1      38.494  34.150  39.149  1.00  0.00     0.041 A 
ATOM     74  F   UNL A   1      37.815  32.355  37.805  1.00  0.00    -0.206 F 
ATOM     75  C   UNL A   1      39.359  35.210  39.401  1.00  0.00     0.022 A 
BRANCH  72  76
ATOM     76  S   UNL A   1      41.579  36.799  38.833  1.00  0.00     0.124 S 
ATOM     77  O   UNL A   1      42.389  36.148  39.856  1.00  0.00    -0.237 OA
ATOM     78  O   UNL A   1      42.214  36.989  37.534  1.00  0.00    -0.237 OA
ATOM     79  O   UNL A   1      40.768  37.922  39.299  1.00  0.00    -0.744 OA
ENDBRANCH  72  76
ENDBRANCH  45  69
BRANCH  57  80
ATOM     80  C   UNL A   1      44.092  28.585  35.423  1.00  0.00     0.023 A 
ATOM     81  C   UNL A   1      43.947  27.522  36.332  1.00  0.00     0.031 A 
ATOM     82  C   UNL A   1      45.382  29.110  35.223  1.00  0.00     0.131 A 
ATOM     83  C   UNL A   1      45.061  27.059  37.050  1.00  0.00     0.055 A 
ATOM     84  C   UNL A   1      46.496  28.602  35.890  1.00  0.00     0.041 A 
ATOM     85  F   UNL A   1      45.581  30.129  34.371  1.00  0.00    -0.206 F 
ATOM     86  C   UNL A   1      46.337  27.579  36.821  1.00  0.00     0.022 A 
BRANCH  83  87
ATOM     87  S   UNL A   1      44.805  25.833  38.363  1.00  0.00     0.124 S 
ATOM     88  O   UNL A   1      44.086  26.610  39.368  1.00  0.00    -0.237 OA
ATOM     89  O   UNL A   1      44.029  24.802  37.680  1.00  0.00    -0.237 OA
ATOM     90  O   UNL A   1      46.163  25.441  38.736  1.00  0.00    -0.744 OA
ENDBRANCH  83  87
ENDBRANCH  57  80
ENDBRANCH  31  32
ENDBRANCH  23  26
ENDBRANCH  21  22
ENDBRANCH   1  21
TORSDOF 16
ENDMDL
MODEL 2
REMARK VINA RESULT:     -11.2      4.231     10.460
REMARK SMILES O=C(CC[N@@H+]1CCc2ccccc2C1)NCCCCNC(=O)c1ccc(-c2c3nc(c(-c4cc(S(=O)(=O)[O-])ccc4F)c4ccc([nH]4)c(-c4cc(S(=O)(=O)[O-])ccc4F)c4nc(c(-c5cc(S(=O)(=O)[O-])ccc5F)c5ccc2[nH]5)C=C4)C=C3)cc1
REMARK SMILES IDX 18 1 17 2 16 3 15 4 1 5 2 6 3 8 4 9 5 10 6 11 14 12 7 14
REMARK SMILES IDX 13 15 8 16 12 17 9 18 11 19 10 20 19 21 20 22 21 23 22 25
REMARK SMILES IDX 23 26 24 27 85 28 25 29 84 30 26 31 27 32 28 33 78 34 29 35
REMARK SMILES IDX 83 36 77 37 79 38 30 39 82 40 76 41 75 42 31 44 63 45 43 46
REMARK SMILES IDX 62 47 44 48 47 49 61 50 80 51 45 52 46 53 60 55 81 56 48 57
REMARK SMILES IDX 32 58 33 59 41 60 34 61 40 62 42 63 39 64 35 65 36 66 37 67
REMARK SMILES IDX 38 68 64 69 65 70 73 71 66 72 72 73 74 74 71 75 67 76 68 77
REMARK SMILES IDX 69 78 70 79 49 80 50 81 58 82 51 83 57 84 59 85 56 86 52 87
REMARK SMILES IDX 53 88 54 89 55 90
REMARK H PARENT 15 7 5 13 20 24 79 43 47 54
REMARK Flexibility Score: inf
ROOT
ATOM      1  C   UNL A   1      34.185  34.735  28.813  1.00  0.00     0.023 C 
ENDROOT
BRANCH   1   2
ATOM      2  C   UNL A   1      34.104  35.463  30.165  1.00  0.00     0.023 C 
BRANCH   2   3
ATOM      3  C   UNL A   1      32.931  35.096  31.082  1.00  0.00     0.116 C 
BRANCH   3   4
ATOM      4  N   UNL A   1      33.310  34.880  32.466  1.00  0.00    -0.356 N 
ATOM      5  O   UNL A   1      33.988  32.709  32.156  1.00  0.00    -0.275 OA
ATOM      6  C   UNL A   1      33.961  33.721  32.852  1.00  0.00     0.225 C 
ATOM      7  H   UNL A   1      33.102  35.567  33.140  1.00  0.00     0.163 HD
BRANCH   6   8
ATOM      8  C   UNL A   1      34.732  33.825  34.162  1.00  0.00     0.161 C 
BRANCH   8   9
ATOM      9  C   UNL A   1      36.136  34.438  33.937  1.00  0.00     0.272 C 
BRANCH   9  10
ATOM     10  N   UNL A   1      37.062  33.659  33.076  1.00  0.00    -0.330 N 
ATOM     11  C   UNL A   1      38.333  33.335  33.743  1.00  0.00     0.267 C 
ATOM     12  C   UNL A   1      37.327  34.374  31.781  1.00  0.00     0.299 C 
ATOM     13  H   UNL A   1      36.590  32.776  32.881  1.00  0.00     0.348 HD
ATOM     14  C   UNL A   1      39.296  34.528  33.739  1.00  0.00     0.097 C 
ATOM     15  C   UNL A   1      38.790  34.370  31.334  1.00  0.00     0.010 A 
ATOM     16  C   UNL A   1      39.783  34.552  32.322  1.00  0.00    -0.034 A 
ATOM     17  C   UNL A   1      39.191  34.146  30.019  1.00  0.00     0.010 A 
ATOM     18  C   UNL A   1      41.142  34.519  32.009  1.00  0.00     0.004 A 
ATOM     19  C   UNL A   1      40.555  34.071  29.711  1.00  0.00     0.001 A 
ATOM     20  C   UNL A   1      41.526  34.259  30.700  1.00  0.00     0.000 A 
ENDBRANCH   9  10
ENDBRANCH   8   9
ENDBRANCH   6   8
ENDBRANCH   3   4
ENDBRANCH   2   3
ENDBRANCH   1   2
BRANCH   1  21
ATOM     21  C   UNL A   1      34.738  33.308  28.814  1.00  0.00     0.116 C 
BRANCH  21  22
ATOM     22  N   UNL A   1      34.037  32.388  27.938  1.00  0.00    -0.352 N 
ATOM     23  C   UNL A   1      34.339  31.094  27.581  1.00  0.00     0.251 C 
ATOM     24  H   UNL A   1      33.213  32.747  27.536  1.00  0.00     0.163 HD
ATOM     25  O   UNL A   1      33.601  30.513  26.785  1.00  0.00    -0.269 OA
BRANCH  23  26
ATOM     26  C   UNL A   1      35.552  30.404  28.090  1.00  0.00     0.039 A 
ATOM     27  C   UNL A   1      36.700  30.411  27.289  1.00  0.00     0.014 A 
ATOM     28  C   UNL A   1      35.578  29.732  29.316  1.00  0.00     0.014 A 
ATOM     29  C   UNL A   1      37.883  29.819  27.745  1.00  0.00     0.010 A 
ATOM     30  C   UNL A   1      36.776  29.191  29.796  1.00  0.00     0.010 A 
ATOM     31  C   UNL A   1      37.947  29.240  29.024  1.00  0.00    -0.014 A 
BRANCH  31  32
ATOM     32  C   UNL A   1      39.239  28.726  29.563  1.00  0.00     0.031 A 
ATOM     33  C   UNL A   1      39.911  29.395  30.734  1.00  0.00     0.074 A 
ATOM     34  C   UNL A   1      39.833  27.671  28.967  1.00  0.00     0.049 A 
ATOM     35  N   UNL A   1      41.048  29.102  31.314  1.00  0.00    -0.248 NA
ATOM     36  C   UNL A   1      39.222  30.554  31.316  1.00  0.00     0.031 C 
ATOM     37  C   UNL A   1      39.303  26.953  27.806  1.00  0.00     0.029 A 
ATOM     38  N   UNL A   1      41.010  27.019  29.248  1.00  0.00    -0.354 N 
ATOM     39  C   UNL A   1      41.216  30.042  32.325  1.00  0.00     0.074 A 
ATOM     40  C   UNL A   1      40.087  30.946  32.241  1.00  0.00     0.031 C 
ATOM     41  C   UNL A   1      40.136  25.947  27.493  1.00  0.00     0.029 A 
ATOM     42  C   UNL A   1      41.283  25.973  28.395  1.00  0.00     0.049 A 
ATOM     43  H   UNL A   1      41.603  27.276  29.990  1.00  0.00     0.167 HD
ATOM     44  C   UNL A   1      42.207  30.132  33.248  1.00  0.00     0.034 A 
ATOM     45  C   UNL A   1      42.339  25.137  28.333  1.00  0.00     0.034 A 
ATOM     46  C   UNL A   1      43.327  29.222  33.322  1.00  0.00     0.049 A 
ATOM     47  C   UNL A   1      43.452  25.287  29.342  1.00  0.00     0.074 A 
ATOM     48  C   UNL A   1      44.353  29.193  34.253  1.00  0.00     0.029 A 
ATOM     49  N   UNL A   1      43.581  28.190  32.428  1.00  0.00    -0.354 N 
ATOM     50  N   UNL A   1      43.563  26.148  30.328  1.00  0.00    -0.248 NA
ATOM     51  C   UNL A   1      44.574  24.345  29.236  1.00  0.00     0.031 C 
ATOM     52  C   UNL A   1      45.265  28.202  33.877  1.00  0.00     0.029 A 
ATOM     53  C   UNL A   1      44.765  27.548  32.762  1.00  0.00     0.049 A 
ATOM     54  H   UNL A   1      43.004  27.949  31.667  1.00  0.00     0.167 HD
ATOM     55  C   UNL A   1      44.751  25.824  30.980  1.00  0.00     0.074 A 
ATOM     56  C   UNL A   1      45.309  24.684  30.285  1.00  0.00     0.031 C 
ATOM     57  C   UNL A   1      45.324  26.415  32.059  1.00  0.00     0.034 A 
BRANCH  44  58
ATOM     58  C   UNL A   1      42.145  31.276  34.234  1.00  0.00     0.023 A 
ATOM     59  C   UNL A   1      41.237  31.280  35.307  1.00  0.00     0.031 A 
ATOM     60  C   UNL A   1      43.003  32.383  34.098  1.00  0.00     0.131 A 
ATOM     61  C   UNL A   1      41.158  32.395  36.157  1.00  0.00     0.055 A 
ATOM     62  C   UNL A   1      42.978  33.452  34.996  1.00  0.00     0.041 A 
ATOM     63  F   UNL A   1      43.879  32.448  33.083  1.00  0.00    -0.206 F 
ATOM     64  C   UNL A   1      42.040  33.469  36.025  1.00  0.00     0.022 A 
BRANCH  61  65
ATOM     65  S   UNL A   1      39.792  32.482  37.346  1.00  0.00     0.124 S 
ATOM     66  O   UNL A   1      40.496  32.327  38.616  1.00  0.00    -0.237 OA
ATOM     67  O   UNL A   1      39.229  33.801  37.084  1.00  0.00    -0.237 OA
ATOM     68  O   UNL A   1      38.940  31.355  36.972  1.00  0.00    -0.744 OA
ENDBRANCH  61  65
ENDBRANCH  44  58
BRANCH  45  69
ATOM     69  C   UNL A   1      42.418  24.088  27.273  1.00  0.00     0.023 A 
ATOM     70  C   UNL A   1      41.603  22.945  27.325  1.00  0.00     0.031 A 
ATOM     71  C   UNL A   1      43.348  24.185  26.223  1.00  0.00     0.131 A 
ATOM     72  C   UNL A   1      41.771  21.922  26.379  1.00  0.00     0.055 A 
ATOM     73  C   UNL A   1      43.469  23.192  25.249  1.00  0.00     0.041 A 
ATOM     74  F   UNL A   1      44.152  25.256  26.125  1.00  0.00    -0.206 F 
ATOM     75  C   UNL A   1      42.688  22.045  25.333  1.00  0.00     0.022 A 
BRANCH  72  76
ATOM     76  S   UNL A   1      40.842  20.378  26.595  1.00  0.00     0.124 S 
ATOM     77  O   UNL A   1      40.946  20.169  28.035  1.00  0.00    -0.237 OA
ATOM     78  O   UNL A   1      39.523  20.746  26.092  1.00  0.00    -0.237 OA
ATOM     79  O   UNL A   1      41.577  19.422  25.770  1.00  0.00    -0.744 OA
ENDBRANCH  72  76
ENDBRANCH  45  69
BRANCH  57  80
ATOM     80  C   UNL A   1      46.600  25.800  32.587  1.00  0.00     0.023 A 
ATOM     81  C   UNL A   1      47.832  25.960  31.927  1.00  0.00     0.031 A 
ATOM     82  C   UNL A   1      46.578  25.030  33.764  1.00  0.00     0.131 A 
ATOM     83  C   UNL A   1      48.976  25.310  32.414  1.00  0.00     0.055 A 
ATOM     84  C   UNL A   1      47.733  24.440  34.280  1.00  0.00     0.041 A 
ATOM     85  F   UNL A   1      45.430  24.837  34.434  1.00  0.00    -0.206 F 
ATOM     86  C   UNL A   1      48.939  24.568  33.597  1.00  0.00     0.022 A 
BRANCH  83  87
ATOM     87  S   UNL A   1      50.498  25.366  31.427  1.00  0.00     0.124 S 
ATOM     88  O   UNL A   1      50.997  24.001  31.562  1.00  0.00    -0.237 OA
ATOM     89  O   UNL A   1      50.000  25.735  30.106  1.00  0.00    -0.237 OA
ATOM     90  O   UNL A   1      51.302  26.389  32.094  1.00  0.00    -0.744 OA
ENDBRANCH  83  87
ENDBRANCH  57  80
ENDBRANCH  31  32
ENDBRANCH  23  26
ENDBRANCH  21  22
ENDBRANCH   1  21
TORSDOF 16
ENDMDL
MODEL 3
REMARK VINA RESULT:     -11.2      2.425      8.450
REMARK SMILES O=C(CC[N@@H+]1CCc2ccccc2C1)NCCCCNC(=O)c1ccc(-c2c3nc(c(-c4cc(S(=O)(=O)[O-])ccc4F)c4ccc([nH]4)c(-c4cc(S(=O)(=O)[O-])ccc4F)c4nc(c(-c5cc(S(=O)(=O)[O-])ccc5F)c5ccc2[nH]5)C=C4)C=C3)cc1
REMARK SMILES IDX 18 1 17 2 16 3 15 4 1 5 2 6 3 8 4 9 5 10 6 11 14 12 7 14
REMARK SMILES IDX 13 15 8 16 12 17 9 18 11 19 10 20 19 21 20 22 21 23 22 25
REMARK SMILES IDX 23 26 24 27 85 28 25 29 84 30 26 31 27 32 28 33 78 34 29 35
REMARK SMILES IDX 83 36 77 37 79 38 30 39 82 40 76 41 75 42 31 44 63 45 43 46
REMARK SMILES IDX 62 47 44 48 47 49 61 50 80 51 45 52 46 53 60 55 81 56 48 57
REMARK SMILES IDX 32 58 33 59 41 60 34 61 40 62 42 63 39 64 35 65 36 66 37 67
REMARK SMILES IDX 38 68 64 69 65 70 73 71 66 72 72 73 74 74 71 75 67 76 68 77
REMARK SMILES IDX 69 78 70 79 49 80 50 81 58 82 51 83 57 84 59 85 56 86 52 87
REMARK SMILES IDX 53 88 54 89 55 90
REMARK H PARENT 15 7 5 13 20 24 79 43 47 54
REMARK Flexibility Score: inf
ROOT
ATOM      1  C   UNL A   1      31.460  31.798  26.477  1.00  0.00     0.023 C 
ENDROOT
BRANCH   1   2
ATOM      2  C   UNL A   1      31.595  30.394  25.865  1.00  0.00     0.023 C 
BRANCH   2   3
ATOM      3  C   UNL A   1      32.738  29.517  26.386  1.00  0.00     0.116 C 
BRANCH   3   4
ATOM      4  N   UNL A   1      32.601  28.110  26.055  1.00  0.00    -0.356 N 
ATOM      5  O   UNL A   1      31.273  27.605  27.858  1.00  0.00    -0.275 OA
ATOM      6  C   UNL A   1      31.733  27.296  26.762  1.00  0.00     0.225 C 
ATOM      7  H   UNL A   1      33.131  27.730  25.318  1.00  0.00     0.163 HD
BRANCH   6   8
ATOM      8  C   UNL A   1      31.306  26.028  26.031  1.00  0.00     0.161 C 
BRANCH   8   9
ATOM      9  C   UNL A   1      31.815  26.027  24.569  1.00  0.00     0.272 C 
BRANCH   9  10
ATOM     10  N   UNL A   1      30.809  26.347  23.524  1.00  0.00    -0.330 N 
ATOM     11  C   UNL A   1      31.378  27.083  22.384  1.00  0.00     0.267 C 
ATOM     12  C   UNL A   1      29.650  27.109  24.104  1.00  0.00     0.299 C 
ATOM     13  H   UNL A   1      30.476  25.450  23.169  1.00  0.00     0.348 HD
ATOM     14  C   UNL A   1      31.556  28.572  22.702  1.00  0.00     0.097 C 
ATOM     15  C   UNL A   1      29.173  28.291  23.257  1.00  0.00     0.010 A 
ATOM     16  C   UNL A   1      30.152  29.093  22.631  1.00  0.00    -0.034 A 
ATOM     17  C   UNL A   1      27.829  28.582  23.034  1.00  0.00     0.010 A 
ATOM     18  C   UNL A   1      29.804  30.163  21.807  1.00  0.00     0.004 A 
ATOM     19  C   UNL A   1      27.479  29.630  22.174  1.00  0.00     0.001 A 
ATOM     20  C   UNL A   1      28.460  30.419  21.565  1.00  0.00     0.000 A 
ENDBRANCH   9  10
ENDBRANCH   8   9
ENDBRANCH   6   8
ENDBRANCH   3   4
ENDBRANCH   2   3
ENDBRANCH   1   2
BRANCH   1  21
ATOM     21  C   UNL A   1      32.716  32.424  27.087  1.00  0.00     0.116 C 
BRANCH  21  22
ATOM     22  N   UNL A   1      32.531  33.767  27.606  1.00  0.00    -0.352 N 
ATOM     23  C   UNL A   1      33.265  34.470  28.533  1.00  0.00     0.251 C 
ATOM     24  H   UNL A   1      31.758  34.250  27.235  1.00  0.00     0.163 HD
ATOM     25  O   UNL A   1      32.892  35.602  28.844  1.00  0.00    -0.269 OA
BRANCH  23  26
ATOM     26  C   UNL A   1      34.457  33.885  29.198  1.00  0.00     0.039 A 
ATOM     27  C   UNL A   1      34.250  32.938  30.207  1.00  0.00     0.014 A 
ATOM     28  C   UNL A   1      35.763  34.264  28.872  1.00  0.00     0.014 A 
ATOM     29  C   UNL A   1      35.340  32.319  30.829  1.00  0.00     0.010 A 
ATOM     30  C   UNL A   1      36.852  33.603  29.454  1.00  0.00     0.010 A 
ATOM     31  C   UNL A   1      36.654  32.612  30.428  1.00  0.00    -0.014 A 
BRANCH  31  32
ATOM     32  C   UNL A   1      37.810  31.860  30.997  1.00  0.00     0.031 A 
ATOM     33  C   UNL A   1      38.324  32.162  32.381  1.00  0.00     0.074 A 
ATOM     34  C   UNL A   1      38.426  30.924  30.246  1.00  0.00     0.049 A 
ATOM     35  N   UNL A   1      39.333  31.628  33.022  1.00  0.00    -0.248 NA
ATOM     36  C   UNL A   1      37.624  33.211  33.131  1.00  0.00     0.031 C 
ATOM     37  C   UNL A   1      38.046  30.558  28.880  1.00  0.00     0.029 A 
ATOM     38  N   UNL A   1      39.501  30.111  30.517  1.00  0.00    -0.354 N 
ATOM     39  C   UNL A   1      39.395  32.280  34.250  1.00  0.00     0.074 A 
ATOM     40  C   UNL A   1      38.351  33.285  34.237  1.00  0.00     0.031 C 
ATOM     41  C   UNL A   1      38.855  29.578  28.445  1.00  0.00     0.029 A 
ATOM     42  C   UNL A   1      39.843  29.276  29.476  1.00  0.00     0.049 A 
ATOM     43  H   UNL A   1      39.982  30.124  31.375  1.00  0.00     0.167 HD
ATOM     44  C   UNL A   1      40.229  32.050  35.295  1.00  0.00     0.034 A 
ATOM     45  C   UNL A   1      40.842  28.380  29.357  1.00  0.00     0.034 A 
ATOM     46  C   UNL A   1      41.265  31.042  35.296  1.00  0.00     0.049 A 
ATOM     47  C   UNL A   1      41.786  28.175  30.517  1.00  0.00     0.074 A 
ATOM     48  C   UNL A   1      42.125  30.692  36.325  1.00  0.00     0.029 A 
ATOM     49  N   UNL A   1      41.595  30.233  34.217  1.00  0.00    -0.354 N 
ATOM     50  N   UNL A   1      41.790  28.761  31.692  1.00  0.00    -0.248 NA
ATOM     51  C   UNL A   1      42.851  27.179  30.337  1.00  0.00     0.031 C 
ATOM     52  C   UNL A   1      43.023  29.734  35.844  1.00  0.00     0.029 A 
ATOM     53  C   UNL A   1      42.669  29.416  34.543  1.00  0.00     0.049 A 
ATOM     54  H   UNL A   1      41.134  30.238  33.347  1.00  0.00     0.167 HD
ATOM     55  C   UNL A   1      42.836  28.177  32.402  1.00  0.00     0.074 A 
ATOM     56  C   UNL A   1      43.428  27.185  31.530  1.00  0.00     0.031 C 
ATOM     57  C   UNL A   1      43.263  28.434  33.664  1.00  0.00     0.034 A 
BRANCH  44  58
ATOM     58  C   UNL A   1      40.080  32.927  36.518  1.00  0.00     0.023 A 
ATOM     59  C   UNL A   1      39.285  32.543  37.612  1.00  0.00     0.031 A 
ATOM     60  C   UNL A   1      40.737  34.169  36.590  1.00  0.00     0.131 A 
ATOM     61  C   UNL A   1      39.111  33.418  38.696  1.00  0.00     0.055 A 
ATOM     62  C   UNL A   1      40.628  34.999  37.707  1.00  0.00     0.041 A 
ATOM     63  F   UNL A   1      41.495  34.601  35.570  1.00  0.00    -0.206 F 
ATOM     64  C   UNL A   1      39.798  34.632  38.763  1.00  0.00     0.022 A 
BRANCH  61  65
ATOM     65  S   UNL A   1      37.864  33.010  39.947  1.00  0.00     0.124 S 
ATOM     66  O   UNL A   1      38.443  31.819  40.564  1.00  0.00    -0.237 OA
ATOM     67  O   UNL A   1      37.839  34.211  40.773  1.00  0.00    -0.237 OA
ATOM     68  O   UNL A   1      36.656  32.769  39.160  1.00  0.00    -0.744 OA
ENDBRANCH  61  65
ENDBRANCH  44  58
BRANCH  45  69
ATOM     69  C   UNL A   1      41.025  27.610  28.090  1.00  0.00     0.023 A 
ATOM     70  C   UNL A   1      40.701  26.246  28.019  1.00  0.00     0.031 A 
ATOM     71  C   UNL A   1      41.579  28.215  26.947  1.00  0.00     0.131 A 
ATOM     72  C   UNL A   1      40.984  25.518  26.852  1.00  0.00     0.055 A 
ATOM     73  C   UNL A   1      41.801  27.500  25.768  1.00  0.00     0.041 A 
ATOM     74  F   UNL A   1      41.907  29.516  26.958  1.00  0.00    -0.206 F 
ATOM     75  C   UNL A   1      41.517  26.140  25.722  1.00  0.00     0.022 A 
BRANCH  72  76
ATOM     76  S   UNL A   1      40.737  23.721  26.868  1.00  0.00     0.124 S 
ATOM     77  O   UNL A   1      41.723  23.278  25.889  1.00  0.00    -0.237 OA
ATOM     78  O   UNL A   1      41.019  23.389  28.260  1.00  0.00    -0.237 OA
ATOM     79  O   UNL A   1      39.341  23.566  26.464  1.00  0.00    -0.744 OA
ENDBRANCH  72  76
ENDBRANCH  45  69
BRANCH  57  80
ATOM     80  C   UNL A   1      44.399  27.589  34.195  1.00  0.00     0.023 A 
ATOM     81  C   UNL A   1      44.173  26.360  34.841  1.00  0.00     0.031 A 
ATOM     82  C   UNL A   1      45.728  28.030  34.062  1.00  0.00     0.131 A 
ATOM     83  C   UNL A   1      45.253  25.645  35.382  1.00  0.00     0.055 A 
ATOM     84  C   UNL A   1      46.804  27.282  34.544  1.00  0.00     0.041 A 
ATOM     85  F   UNL A   1      46.005  29.197  33.460  1.00  0.00    -0.206 F 
ATOM     86  C   UNL A   1      46.568  26.088  35.220  1.00  0.00     0.022 A 
BRANCH  83  87
ATOM     87  S   UNL A   1      44.910  24.174  36.387  1.00  0.00     0.124 S 
ATOM     88  O   UNL A   1      43.803  23.561  35.661  1.00  0.00    -0.237 OA
ATOM     89  O   UNL A   1      46.181  23.457  36.335  1.00  0.00    -0.237 OA
ATOM     90  O   UNL A   1      44.564  24.726  37.696  1.00  0.00    -0.744 OA
ENDBRANCH  83  87
ENDBRANCH  57  80
ENDBRANCH  31  32
ENDBRANCH  23  26
ENDBRANCH  21  22
ENDBRANCH   1  21
TORSDOF 16
ENDMDL
