MODEL 1
REMARK VINA RESULT:     -13.0      0.000      0.000
REMARK SMILES C[C@H]1CC[C@H]([NH2+]Cc2c(C(=O)NCCCCNC(=O)c3ccc(-c4c5nc(c(-c6cc(S(=O)(=O)[O-])ccc6F)c6ccc([nH]6)c(-c6cc(S(=O)(=O)[O-])ccc6F)c6nc(c(-c7cc(S(=O)(=O)[O-])ccc7F)c7ccc4[nH]7)C=C6)C=C5)cc3)n(Cc3ccccc3F)c3ccccc23)CC1
REMARK SMILES IDX 14 1 13 2 12 3 10 4 11 5 9 7 8 8 97 9 83 10 92 11 96 12
REMARK SMILES IDX 93 13 95 14 94 15 7 16 6 17 5 20 1 21 2 22 3 23 99 24 4 25
REMARK SMILES IDX 98 26 84 27 85 28 86 29 90 30 87 31 89 32 91 33 88 34 15 35
REMARK SMILES IDX 16 36 17 37 18 38 19 40 20 41 21 42 82 43 22 44 81 45 23 46
REMARK SMILES IDX 24 47 25 48 75 49 26 50 80 51 74 52 76 53 27 54 79 55 73 56
REMARK SMILES IDX 72 57 28 59 60 60 40 61 59 62 41 63 44 64 58 65 77 66 42 67
REMARK SMILES IDX 43 68 57 70 78 71 45 72 29 73 30 74 38 75 31 76 37 77 39 78
REMARK SMILES IDX 36 79 32 80 33 81 34 82 35 83 61 84 62 85 70 86 63 87 69 88
REMARK SMILES IDX 71 89 68 90 64 91 65 92 66 93 67 94 46 95 47 96 55 97 48 98
REMARK SMILES IDX 54 99 56 100 53 101 49 102 50 103 51 104 52 105
REMARK H PARENT 12 6 6 18 6 19 17 39 76 58 44 69
REMARK Flexibility Score: inf
ROOT
ATOM      1  C   UNL A   1      39.294  22.730  26.596  1.00  0.00     0.023 C 
ENDROOT
BRANCH   1   2
ATOM      2  C   UNL A   1      37.892  22.877  26.014  1.00  0.00     0.116 C 
BRANCH   2   3
ATOM      3  N   UNL A   1      37.711  22.666  24.602  1.00  0.00    -0.351 N 
ATOM      4  C   UNL A   1      36.587  22.881  23.825  1.00  0.00     0.268 C 
ATOM      5  O   UNL A   1      36.781  22.739  22.615  1.00  0.00    -0.268 OA
ATOM      6  H   UNL A   1      38.497  22.320  24.122  1.00  0.00     0.163 HD
BRANCH   4   7
ATOM      7  C   UNL A   1      35.249  23.186  24.369  1.00  0.00     0.117 A 
ATOM      8  C   UNL A   1      34.310  24.212  24.137  1.00  0.00     0.045 A 
ATOM      9  C   UNL A   1      33.441  24.211  25.275  1.00  0.00     0.009 A 
ATOM     10  N   UNL A   1      34.528  22.280  25.194  1.00  0.00    -0.331 N 
ATOM     11  C   UNL A   1      33.413  22.907  25.737  1.00  0.00     0.049 A 
ATOM     12  C   UNL A   1      32.547  25.157  25.824  1.00  0.00     0.011 A 
ATOM     13  C   UNL A   1      32.372  22.465  26.573  1.00  0.00     0.027 A 
ATOM     14  C   UNL A   1      31.631  24.759  26.798  1.00  0.00     0.001 A 
ATOM     15  C   UNL A   1      31.513  23.417  27.130  1.00  0.00     0.002 A 
BRANCH   8  16
ATOM     16  C   UNL A   1      34.053  25.220  23.049  1.00  0.00     0.300 C 
BRANCH  16  17
ATOM     17  N   UNL A   1      32.753  25.204  22.406  1.00  0.00    -0.340 N 
ATOM     18  H   UNL A   1      32.907  24.786  21.488  1.00  0.00     0.346 HD
ATOM     19  H   UNL A   1      32.196  24.731  23.117  1.00  0.00     0.346 HD
BRANCH  17  20
ATOM     20  C   UNL A   1      31.934  26.390  22.164  1.00  0.00     0.182 C 
ATOM     21  C   UNL A   1      29.661  29.894  23.646  1.00  0.00     0.007 C 
ATOM     22  C   UNL A   1      30.590  28.698  23.502  1.00  0.00    -0.014 C 
ATOM     23  C   UNL A   1      31.615  28.909  22.384  1.00  0.00     0.009 C 
ATOM     24  C   UNL A   1      29.806  27.417  23.223  1.00  0.00     0.009 C 
ATOM     25  C   UNL A   1      32.606  27.750  22.362  1.00  0.00     0.065 C 
ATOM     26  C   UNL A   1      30.750  26.226  23.145  1.00  0.00     0.065 C 
ENDBRANCH  17  20
ENDBRANCH  16  17
ENDBRANCH   8  16
BRANCH  10  27
ATOM     27  C   UNL A   1      34.791  20.842  25.384  1.00  0.00     0.161 C 
BRANCH  27  28
ATOM     28  C   UNL A   1      33.970  19.918  24.511  1.00  0.00     0.008 A 
ATOM     29  C   UNL A   1      32.834  20.351  23.804  1.00  0.00     0.008 A 
ATOM     30  C   UNL A   1      34.374  18.596  24.306  1.00  0.00     0.128 A 
ATOM     31  C   UNL A   1      32.109  19.491  22.975  1.00  0.00     0.001 A 
ATOM     32  C   UNL A   1      33.648  17.725  23.491  1.00  0.00     0.039 A 
ATOM     33  F   UNL A   1      35.508  18.144  24.855  1.00  0.00    -0.207 F 
ATOM     34  C   UNL A   1      32.507  18.171  22.829  1.00  0.00     0.003 A 
ENDBRANCH  27  28
ENDBRANCH  10  27
ENDBRANCH   4   7
ENDBRANCH   2   3
ENDBRANCH   1   2
BRANCH   1  35
ATOM     35  C   UNL A   1      40.091  21.482  26.167  1.00  0.00     0.023 C 
BRANCH  35  36
ATOM     36  C   UNL A   1      41.625  21.573  26.130  1.00  0.00     0.116 C 
BRANCH  36  37
ATOM     37  N   UNL A   1      42.234  22.507  25.201  1.00  0.00    -0.352 N 
ATOM     38  C   UNL A   1      42.824  23.730  25.423  1.00  0.00     0.251 C 
ATOM     39  H   UNL A   1      42.224  22.218  24.260  1.00  0.00     0.163 HD
ATOM     40  O   UNL A   1      43.761  24.058  24.693  1.00  0.00    -0.269 OA
BRANCH  38  41
ATOM     41  C   UNL A   1      42.241  24.718  26.362  1.00  0.00     0.039 A 
ATOM     42  C   UNL A   1      41.359  25.722  25.976  1.00  0.00     0.014 A 
ATOM     43  C   UNL A   1      42.750  24.715  27.673  1.00  0.00     0.014 A 
ATOM     44  C   UNL A   1      41.165  26.818  26.793  1.00  0.00     0.010 A 
ATOM     45  C   UNL A   1      42.515  25.790  28.520  1.00  0.00     0.010 A 
ATOM     46  C   UNL A   1      41.789  26.876  28.040  1.00  0.00    -0.014 A 
BRANCH  46  47
ATOM     47  C   UNL A   1      41.554  28.085  28.816  1.00  0.00     0.031 A 
ATOM     48  C   UNL A   1      42.512  29.190  28.528  1.00  0.00     0.074 A 
ATOM     49  C   UNL A   1      40.537  28.223  29.686  1.00  0.00     0.049 A 
ATOM     50  N   UNL A   1      43.380  29.737  29.315  1.00  0.00    -0.248 NA
ATOM     51  C   UNL A   1      42.612  29.622  27.127  1.00  0.00     0.031 C 
ATOM     52  C   UNL A   1      39.353  27.375  29.833  1.00  0.00     0.029 A 
ATOM     53  N   UNL A   1      40.295  29.246  30.550  1.00  0.00    -0.354 N 
ATOM     54  C   UNL A   1      44.023  30.715  28.553  1.00  0.00     0.074 A 
ATOM     55  C   UNL A   1      43.625  30.481  27.188  1.00  0.00     0.031 C 
ATOM     56  C   UNL A   1      38.412  28.056  30.527  1.00  0.00     0.029 A 
ATOM     57  C   UNL A   1      38.983  29.310  30.991  1.00  0.00     0.049 A 
ATOM     58  H   UNL A   1      40.989  29.883  30.835  1.00  0.00     0.167 HD
ATOM     59  C   UNL A   1      44.691  31.761  29.120  1.00  0.00     0.034 A 
ATOM     60  C   UNL A   1      38.388  30.375  31.583  1.00  0.00     0.034 A 
ATOM     61  C   UNL A   1      44.981  31.506  30.503  1.00  0.00     0.049 A 
ATOM     62  C   UNL A   1      39.448  31.297  32.063  1.00  0.00     0.074 A 
ATOM     63  C   UNL A   1      45.750  30.581  31.180  1.00  0.00     0.029 A 
ATOM     64  N   UNL A   1      44.163  32.078  31.446  1.00  0.00    -0.354 N 
ATOM     65  N   UNL A   1      40.242  31.056  33.067  1.00  0.00    -0.248 NA
ATOM     66  C   UNL A   1      39.902  32.329  31.140  1.00  0.00     0.031 C 
ATOM     67  C   UNL A   1      45.033  30.313  32.379  1.00  0.00     0.029 A 
ATOM     68  C   UNL A   1      43.896  31.124  32.391  1.00  0.00     0.049 A 
ATOM     69  H   UNL A   1      43.829  33.004  31.443  1.00  0.00     0.167 HD
ATOM     70  C   UNL A   1      41.470  31.561  32.666  1.00  0.00     0.074 A 
ATOM     71  C   UNL A   1      41.176  32.422  31.523  1.00  0.00     0.031 C 
ATOM     72  C   UNL A   1      42.642  31.018  33.107  1.00  0.00     0.034 A 
BRANCH  59  73
ATOM     73  C   UNL A   1      44.780  33.145  28.510  1.00  0.00     0.023 A 
ATOM     74  C   UNL A   1      45.923  33.618  27.841  1.00  0.00     0.031 A 
ATOM     75  C   UNL A   1      43.626  33.948  28.380  1.00  0.00     0.131 A 
ATOM     76  C   UNL A   1      45.905  34.795  27.081  1.00  0.00     0.055 A 
ATOM     77  C   UNL A   1      43.588  35.091  27.571  1.00  0.00     0.041 A 
ATOM     78  F   UNL A   1      42.475  33.610  28.981  1.00  0.00    -0.206 F 
ATOM     79  C   UNL A   1      44.731  35.518  26.910  1.00  0.00     0.022 A 
BRANCH  76  80
ATOM     80  S   UNL A   1      47.422  35.386  26.280  1.00  0.00     0.124 S 
ATOM     81  O   UNL A   1      47.479  34.546  25.089  1.00  0.00    -0.237 OA
ATOM     82  O   UNL A   1      47.106  36.793  26.050  1.00  0.00    -0.237 OA
ATOM     83  O   UNL A   1      48.456  35.142  27.282  1.00  0.00    -0.744 OA
ENDBRANCH  76  80
ENDBRANCH  59  73
BRANCH  60  84
ATOM     84  C   UNL A   1      37.017  30.870  31.314  1.00  0.00     0.023 A 
ATOM     85  C   UNL A   1      36.569  31.006  29.987  1.00  0.00     0.031 A 
ATOM     86  C   UNL A   1      36.277  31.516  32.318  1.00  0.00     0.131 A 
ATOM     87  C   UNL A   1      35.463  31.813  29.689  1.00  0.00     0.055 A 
ATOM     88  C   UNL A   1      35.163  32.309  32.020  1.00  0.00     0.041 A 
ATOM     89  F   UNL A   1      36.670  31.452  33.600  1.00  0.00    -0.206 F 
ATOM     90  C   UNL A   1      34.760  32.472  30.698  1.00  0.00     0.022 A 
BRANCH  87  91
ATOM     91  S   UNL A   1      34.973  32.080  27.964  1.00  0.00     0.124 S 
ATOM     92  O   UNL A   1      35.833  33.193  27.564  1.00  0.00    -0.237 OA
ATOM     93  O   UNL A   1      35.293  30.789  27.364  1.00  0.00    -0.237 OA
ATOM     94  O   UNL A   1      33.553  32.404  28.061  1.00  0.00    -0.744 OA
ENDBRANCH  87  91
ENDBRANCH  60  84
BRANCH  72  95
ATOM     95  C   UNL A   1      42.623  30.031  34.250  1.00  0.00     0.023 A 
ATOM     96  C   UNL A   1      43.202  30.455  35.461  1.00  0.00     0.031 A 
ATOM     97  C   UNL A   1      42.304  28.666  34.124  1.00  0.00     0.131 A 
ATOM     98  C   UNL A   1      43.500  29.531  36.467  1.00  0.00     0.055 A 
ATOM     99  C   UNL A   1      42.530  27.758  35.165  1.00  0.00     0.041 A 
ATOM    100  F   UNL A   1      41.861  28.151  32.969  1.00  0.00    -0.206 F 
ATOM    101  C   UNL A   1      43.151  28.185  36.335  1.00  0.00     0.022 A 
BRANCH  98 102
ATOM    102  S   UNL A   1      44.521  30.031  37.878  1.00  0.00     0.124 S 
ATOM    103  O   UNL A   1      43.662  31.008  38.547  1.00  0.00    -0.237 OA
ATOM    104  O   UNL A   1      44.701  28.766  38.594  1.00  0.00    -0.237 OA
ATOM    105  O   UNL A   1      45.727  30.570  37.272  1.00  0.00    -0.744 OA
ENDBRANCH  98 102
ENDBRANCH  72  95
ENDBRANCH  46  47
ENDBRANCH  38  41
ENDBRANCH  36  37
ENDBRANCH  35  36
ENDBRANCH   1  35
TORSDOF 19
ENDMDL
MODEL 2
REMARK VINA RESULT:     -12.7      3.954      8.935
REMARK SMILES C[C@H]1CC[C@H]([NH2+]Cc2c(C(=O)NCCCCNC(=O)c3ccc(-c4c5nc(c(-c6cc(S(=O)(=O)[O-])ccc6F)c6ccc([nH]6)c(-c6cc(S(=O)(=O)[O-])ccc6F)c6nc(c(-c7cc(S(=O)(=O)[O-])ccc7F)c7ccc4[nH]7)C=C6)C=C5)cc3)n(Cc3ccccc3F)c3ccccc23)CC1
REMARK SMILES IDX 14 1 13 2 12 3 10 4 11 5 9 7 8 8 97 9 83 10 92 11 96 12
REMARK SMILES IDX 93 13 95 14 94 15 7 16 6 17 5 20 1 21 2 22 3 23 99 24 4 25
REMARK SMILES IDX 98 26 84 27 85 28 86 29 90 30 87 31 89 32 91 33 88 34 15 35
REMARK SMILES IDX 16 36 17 37 18 38 19 40 20 41 21 42 82 43 22 44 81 45 23 46
REMARK SMILES IDX 24 47 25 48 75 49 26 50 80 51 74 52 76 53 27 54 79 55 73 56
REMARK SMILES IDX 72 57 28 59 60 60 40 61 59 62 41 63 44 64 58 65 77 66 42 67
REMARK SMILES IDX 43 68 57 70 78 71 45 72 29 73 30 74 38 75 31 76 37 77 39 78
REMARK SMILES IDX 36 79 32 80 33 81 34 82 35 83 61 84 62 85 70 86 63 87 69 88
REMARK SMILES IDX 71 89 68 90 64 91 65 92 66 93 67 94 46 95 47 96 55 97 48 98
REMARK SMILES IDX 54 99 56 100 53 101 49 102 50 103 51 104 52 105
REMARK H PARENT 12 6 6 18 6 19 17 39 76 58 44 69
REMARK Flexibility Score: inf
ROOT
ATOM      1  C   UNL A   1      34.182  23.150  22.746  1.00  0.00     0.023 C 
ENDROOT
BRANCH   1   2
ATOM      2  C   UNL A   1      33.235  24.259  22.301  1.00  0.00     0.116 C 
BRANCH   2   3
ATOM      3  N   UNL A   1      31.826  24.093  22.536  1.00  0.00    -0.351 N 
ATOM      4  C   UNL A   1      30.967  24.880  23.281  1.00  0.00     0.268 C 
ATOM      5  O   UNL A   1      29.780  24.558  23.182  1.00  0.00    -0.268 OA
ATOM      6  H   UNL A   1      31.415  23.308  22.106  1.00  0.00     0.163 HD
BRANCH   4   7
ATOM      7  C   UNL A   1      31.406  25.967  24.178  1.00  0.00     0.117 A 
ATOM      8  C   UNL A   1      32.135  26.006  25.384  1.00  0.00     0.045 A 
ATOM      9  C   UNL A   1      31.835  27.273  25.981  1.00  0.00     0.009 A 
ATOM     10  N   UNL A   1      31.297  27.342  23.831  1.00  0.00    -0.331 N 
ATOM     11  C   UNL A   1      31.574  28.140  24.935  1.00  0.00     0.049 A 
ATOM     12  C   UNL A   1      31.946  27.787  27.292  1.00  0.00     0.011 A 
ATOM     13  C   UNL A   1      31.639  29.532  25.124  1.00  0.00     0.027 A 
ATOM     14  C   UNL A   1      31.823  29.159  27.510  1.00  0.00     0.001 A 
ATOM     15  C   UNL A   1      31.721  30.025  26.430  1.00  0.00     0.002 A 
BRANCH   8  16
ATOM     16  C   UNL A   1      33.072  25.083  26.115  1.00  0.00     0.300 C 
BRANCH  16  17
ATOM     17  N   UNL A   1      32.491  24.076  26.981  1.00  0.00    -0.340 N 
ATOM     18  H   UNL A   1      32.767  24.337  27.928  1.00  0.00     0.346 HD
ATOM     19  H   UNL A   1      31.517  24.110  26.683  1.00  0.00     0.346 HD
BRANCH  17  20
ATOM     20  C   UNL A   1      32.755  22.642  26.877  1.00  0.00     0.182 C 
ATOM     21  C   UNL A   1      33.968  19.088  24.525  1.00  0.00     0.007 C 
ATOM     22  C   UNL A   1      33.712  20.500  25.029  1.00  0.00    -0.014 C 
ATOM     23  C   UNL A   1      34.388  20.749  26.381  1.00  0.00     0.009 C 
ATOM     24  C   UNL A   1      32.217  20.780  25.160  1.00  0.00     0.009 C 
ATOM     25  C   UNL A   1      34.219  22.211  26.783  1.00  0.00     0.065 C 
ATOM     26  C   UNL A   1      31.985  22.216  25.606  1.00  0.00     0.065 C 
ENDBRANCH  17  20
ENDBRANCH  16  17
ENDBRANCH   8  16
BRANCH  10  27
ATOM     27  C   UNL A   1      31.061  27.909  22.491  1.00  0.00     0.161 C 
BRANCH  27  28
ATOM     28  C   UNL A   1      29.904  28.880  22.400  1.00  0.00     0.008 A 
ATOM     29  C   UNL A   1      29.994  30.108  21.722  1.00  0.00     0.008 A 
ATOM     30  C   UNL A   1      28.654  28.540  22.925  1.00  0.00     0.128 A 
ATOM     31  C   UNL A   1      28.904  30.975  21.619  1.00  0.00     0.001 A 
ATOM     32  C   UNL A   1      27.562  29.406  22.840  1.00  0.00     0.039 A 
ATOM     33  F   UNL A   1      28.462  27.339  23.485  1.00  0.00    -0.207 F 
ATOM     34  C   UNL A   1      27.688  30.632  22.192  1.00  0.00     0.003 A 
ENDBRANCH  27  28
ENDBRANCH  10  27
ENDBRANCH   4   7
ENDBRANCH   2   3
ENDBRANCH   1   2
BRANCH   1  35
ATOM     35  C   UNL A   1      35.231  23.525  23.811  1.00  0.00     0.023 C 
BRANCH  35  36
ATOM     36  C   UNL A   1      36.719  23.387  23.451  1.00  0.00     0.116 C 
BRANCH  36  37
ATOM     37  N   UNL A   1      37.355  22.096  23.642  1.00  0.00    -0.352 N 
ATOM     38  C   UNL A   1      37.742  21.455  24.797  1.00  0.00     0.251 C 
ATOM     39  H   UNL A   1      37.538  21.600  22.813  1.00  0.00     0.163 HD
ATOM     40  O   UNL A   1      37.684  20.224  24.818  1.00  0.00    -0.269 OA
BRANCH  38  41
ATOM     41  C   UNL A   1      38.400  22.180  25.909  1.00  0.00     0.039 A 
ATOM     42  C   UNL A   1      38.036  23.459  26.319  1.00  0.00     0.014 A 
ATOM     43  C   UNL A   1      39.553  21.585  26.452  1.00  0.00     0.014 A 
ATOM     44  C   UNL A   1      38.913  24.214  27.072  1.00  0.00     0.010 A 
ATOM     45  C   UNL A   1      40.413  22.323  27.254  1.00  0.00     0.010 A 
ATOM     46  C   UNL A   1      40.125  23.664  27.490  1.00  0.00    -0.014 A 
BRANCH  46  47
ATOM     47  C   UNL A   1      41.000  24.547  28.248  1.00  0.00     0.031 A 
ATOM     48  C   UNL A   1      40.474  25.931  28.413  1.00  0.00     0.074 A 
ATOM     49  C   UNL A   1      42.162  24.148  28.797  1.00  0.00     0.049 A 
ATOM     50  N   UNL A   1      40.961  27.043  27.966  1.00  0.00    -0.248 NA
ATOM     51  C   UNL A   1      39.143  26.058  29.024  1.00  0.00     0.031 C 
ATOM     52  C   UNL A   1      42.643  22.781  29.000  1.00  0.00     0.029 A 
ATOM     53  N   UNL A   1      43.111  24.905  29.411  1.00  0.00    -0.354 N 
ATOM     54  C   UNL A   1      40.084  28.042  28.394  1.00  0.00     0.074 A 
ATOM     55  C   UNL A   1      38.915  27.361  28.889  1.00  0.00     0.031 C 
ATOM     56  C   UNL A   1      43.644  22.800  29.910  1.00  0.00     0.029 A 
ATOM     57  C   UNL A   1      43.962  24.182  30.232  1.00  0.00     0.049 A 
ATOM     58  H   UNL A   1      43.187  25.878  29.283  1.00  0.00     0.167 HD
ATOM     59  C   UNL A   1      40.456  29.353  28.481  1.00  0.00     0.034 A 
ATOM     60  C   UNL A   1      44.773  24.691  31.192  1.00  0.00     0.034 A 
ATOM     61  C   UNL A   1      41.652  29.605  27.726  1.00  0.00     0.049 A 
ATOM     62  C   UNL A   1      44.928  26.148  30.951  1.00  0.00     0.074 A 
ATOM     63  C   UNL A   1      41.986  29.546  26.388  1.00  0.00     0.029 A 
ATOM     64  N   UNL A   1      42.840  29.671  28.410  1.00  0.00    -0.354 N 
ATOM     65  N   UNL A   1      45.601  26.669  29.965  1.00  0.00    -0.248 NA
ATOM     66  C   UNL A   1      43.965  27.035  31.589  1.00  0.00     0.031 C 
ATOM     67  C   UNL A   1      43.338  29.102  26.367  1.00  0.00     0.029 A 
ATOM     68  C   UNL A   1      43.767  28.966  27.690  1.00  0.00     0.049 A 
ATOM     69  H   UNL A   1      42.997  30.137  29.262  1.00  0.00     0.167 HD
ATOM     70  C   UNL A   1      44.847  27.765  29.572  1.00  0.00     0.074 A 
ATOM     71  C   UNL A   1      43.913  28.001  30.670  1.00  0.00     0.031 C 
ATOM     72  C   UNL A   1      44.849  28.206  28.280  1.00  0.00     0.034 A 
BRANCH  59  73
ATOM     73  C   UNL A   1      39.927  30.321  29.519  1.00  0.00     0.023 A 
ATOM     74  C   UNL A   1      38.896  31.240  29.258  1.00  0.00     0.031 A 
ATOM     75  C   UNL A   1      40.288  30.185  30.877  1.00  0.00     0.131 A 
ATOM     76  C   UNL A   1      38.259  31.953  30.282  1.00  0.00     0.055 A 
ATOM     77  C   UNL A   1      39.612  30.849  31.909  1.00  0.00     0.041 A 
ATOM     78  F   UNL A   1      41.266  29.347  31.255  1.00  0.00    -0.206 F 
ATOM     79  C   UNL A   1      38.585  31.735  31.615  1.00  0.00     0.022 A 
BRANCH  76  80
ATOM     80  S   UNL A   1      36.969  33.164  29.884  1.00  0.00     0.124 S 
ATOM     81  O   UNL A   1      36.100  32.397  28.998  1.00  0.00    -0.237 OA
ATOM     82  O   UNL A   1      36.424  33.462  31.206  1.00  0.00    -0.237 OA
ATOM     83  O   UNL A   1      37.707  34.259  29.260  1.00  0.00    -0.744 OA
ENDBRANCH  76  80
ENDBRANCH  59  73
BRANCH  60  84
ATOM     84  C   UNL A   1      44.997  24.118  32.540  1.00  0.00     0.023 A 
ATOM     85  C   UNL A   1      46.233  24.309  33.186  1.00  0.00     0.031 A 
ATOM     86  C   UNL A   1      44.147  23.121  33.047  1.00  0.00     0.131 A 
ATOM     87  C   UNL A   1      46.612  23.483  34.252  1.00  0.00     0.055 A 
ATOM     88  C   UNL A   1      44.522  22.307  34.122  1.00  0.00     0.041 A 
ATOM     89  F   UNL A   1      42.969  22.868  32.457  1.00  0.00    -0.206 F 
ATOM     90  C   UNL A   1      45.767  22.476  34.720  1.00  0.00     0.022 A 
BRANCH  87  91
ATOM     91  S   UNL A   1      48.258  23.657  34.993  1.00  0.00     0.124 S 
ATOM     92  O   UNL A   1      47.974  24.416  36.210  1.00  0.00    -0.237 OA
ATOM     93  O   UNL A   1      48.640  22.264  35.193  1.00  0.00    -0.237 OA
ATOM     94  O   UNL A   1      49.012  24.386  33.976  1.00  0.00    -0.744 OA
ENDBRANCH  87  91
ENDBRANCH  60  84
BRANCH  72  95
ATOM     95  C   UNL A   1      45.879  27.674  27.312  1.00  0.00     0.023 A 
ATOM     96  C   UNL A   1      45.537  26.506  26.605  1.00  0.00     0.031 A 
ATOM     97  C   UNL A   1      47.217  28.102  27.252  1.00  0.00     0.131 A 
ATOM     98  C   UNL A   1      46.516  25.777  25.924  1.00  0.00     0.055 A 
ATOM     99  C   UNL A   1      48.178  27.414  26.502  1.00  0.00     0.041 A 
ATOM    100  F   UNL A   1      47.661  29.133  27.987  1.00  0.00    -0.206 F 
ATOM    101  C   UNL A   1      47.834  26.233  25.852  1.00  0.00     0.022 A 
BRANCH  98 102
ATOM    102  S   UNL A   1      46.131  24.125  25.286  1.00  0.00     0.124 S 
ATOM    103  O   UNL A   1      46.834  24.121  24.003  1.00  0.00    -0.237 OA
ATOM    104  O   UNL A   1      46.707  23.254  26.314  1.00  0.00    -0.237 OA
ATOM    105  O   UNL A   1      44.680  24.103  25.205  1.00  0.00    -0.744 OA
ENDBRANCH  98 102
ENDBRANCH  72  95
ENDBRANCH  46  47
ENDBRANCH  38  41
ENDBRANCH  36  37
ENDBRANCH  35  36
ENDBRANCH   1  35
TORSDOF 19
ENDMDL
MODEL 3
REMARK VINA RESULT:     -12.4      3.041      8.262
REMARK SMILES C[C@H]1CC[C@H]([NH2+]Cc2c(C(=O)NCCCCNC(=O)c3ccc(-c4c5nc(c(-c6cc(S(=O)(=O)[O-])ccc6F)c6ccc([nH]6)c(-c6cc(S(=O)(=O)[O-])ccc6F)c6nc(c(-c7cc(S(=O)(=O)[O-])ccc7F)c7ccc4[nH]7)C=C6)C=C5)cc3)n(Cc3ccccc3F)c3ccccc23)CC1
REMARK SMILES IDX 14 1 13 2 12 3 10 4 11 5 9 7 8 8 97 9 83 10 92 11 96 12
REMARK SMILES IDX 93 13 95 14 94 15 7 16 6 17 5 20 1 21 2 22 3 23 99 24 4 25
REMARK SMILES IDX 98 26 84 27 85 28 86 29 90 30 87 31 89 32 91 33 88 34 15 35
REMARK SMILES IDX 16 36 17 37 18 38 19 40 20 41 21 42 82 43 22 44 81 45 23 46
REMARK SMILES IDX 24 47 25 48 75 49 26 50 80 51 74 52 76 53 27 54 79 55 73 56
REMARK SMILES IDX 72 57 28 59 60 60 40 61 59 62 41 63 44 64 58 65 77 66 42 67
REMARK SMILES IDX 43 68 57 70 78 71 45 72 29 73 30 74 38 75 31 76 37 77 39 78
REMARK SMILES IDX 36 79 32 80 33 81 34 82 35 83 61 84 62 85 70 86 63 87 69 88
REMARK SMILES IDX 71 89 68 90 64 91 65 92 66 93 67 94 46 95 47 96 55 97 48 98
REMARK SMILES IDX 54 99 56 100 53 101 49 102 50 103 51 104 52 105
REMARK H PARENT 12 6 6 18 6 19 17 39 76 58 44 69
REMARK Flexibility Score: inf
ROOT
ATOM      1  C   UNL A   1      34.291  26.669  25.458  1.00  0.00     0.023 C 
ENDROOT
BRANCH   1   2
ATOM      2  C   UNL A   1      33.797  25.232  25.332  1.00  0.00     0.116 C 
BRANCH   2   3
ATOM      3  N   UNL A   1      32.755  24.785  26.217  1.00  0.00    -0.351 N 
ATOM      4  C   UNL A   1      32.227  23.516  26.373  1.00  0.00     0.268 C 
ATOM      5  O   UNL A   1      31.435  23.415  27.314  1.00  0.00    -0.268 OA
ATOM      6  H   UNL A   1      32.362  25.480  26.792  1.00  0.00     0.163 HD
BRANCH   4   7
ATOM      7  C   UNL A   1      32.513  22.383  25.472  1.00  0.00     0.117 A 
ATOM      8  C   UNL A   1      32.123  22.058  24.156  1.00  0.00     0.045 A 
ATOM      9  C   UNL A   1      32.341  20.649  24.020  1.00  0.00     0.009 A 
ATOM     10  N   UNL A   1      33.492  21.394  25.763  1.00  0.00    -0.331 N 
ATOM     11  C   UNL A   1      33.393  20.339  24.864  1.00  0.00     0.049 A 
ATOM     12  C   UNL A   1      31.861  19.666  23.127  1.00  0.00     0.011 A 
ATOM     13  C   UNL A   1      34.126  19.151  24.690  1.00  0.00     0.027 A 
ATOM     14  C   UNL A   1      32.471  18.412  23.084  1.00  0.00     0.001 A 
ATOM     15  C   UNL A   1      33.622  18.178  23.822  1.00  0.00     0.002 A 
BRANCH   8  16
ATOM     16  C   UNL A   1      31.573  22.806  22.972  1.00  0.00     0.300 C 
BRANCH  16  17
ATOM     17  N   UNL A   1      30.500  23.753  23.209  1.00  0.00    -0.340 N 
ATOM     18  H   UNL A   1      29.929  23.737  22.364  1.00  0.00     0.346 HD
ATOM     19  H   UNL A   1      30.140  23.411  24.099  1.00  0.00     0.346 HD
BRANCH  17  20
ATOM     20  C   UNL A   1      30.698  25.166  23.522  1.00  0.00     0.182 C 
ATOM     21  C   UNL A   1      30.444  29.450  22.417  1.00  0.00     0.007 C 
ATOM     22  C   UNL A   1      30.288  27.940  22.490  1.00  0.00    -0.014 C 
ATOM     23  C   UNL A   1      29.711  27.495  23.838  1.00  0.00     0.009 C 
ATOM     24  C   UNL A   1      31.621  27.231  22.261  1.00  0.00     0.009 C 
ATOM     25  C   UNL A   1      29.446  25.993  23.819  1.00  0.00     0.065 C 
ATOM     26  C   UNL A   1      31.427  25.722  22.277  1.00  0.00     0.065 C 
ENDBRANCH  17  20
ENDBRANCH  16  17
ENDBRANCH   8  16
BRANCH  10  27
ATOM     27  C   UNL A   1      34.567  21.472  26.769  1.00  0.00     0.161 C 
BRANCH  27  28
ATOM     28  C   UNL A   1      35.838  22.144  26.298  1.00  0.00     0.008 A 
ATOM     29  C   UNL A   1      36.132  23.491  26.572  1.00  0.00     0.008 A 
ATOM     30  C   UNL A   1      36.823  21.406  25.634  1.00  0.00     0.128 A 
ATOM     31  C   UNL A   1      37.327  24.085  26.159  1.00  0.00     0.001 A 
ATOM     32  C   UNL A   1      38.014  21.994  25.204  1.00  0.00     0.039 A 
ATOM     33  F   UNL A   1      36.664  20.092  25.438  1.00  0.00    -0.207 F 
ATOM     34  C   UNL A   1      38.265  23.340  25.460  1.00  0.00     0.003 A 
ENDBRANCH  27  28
ENDBRANCH  10  27
ENDBRANCH   4   7
ENDBRANCH   2   3
ENDBRANCH   1   2
BRANCH   1  35
ATOM     35  C   UNL A   1      33.518  27.580  26.432  1.00  0.00     0.023 C 
BRANCH  35  36
ATOM     36  C   UNL A   1      33.745  29.098  26.347  1.00  0.00     0.116 C 
BRANCH  36  37
ATOM     37  N   UNL A   1      33.733  29.863  27.581  1.00  0.00    -0.352 N 
ATOM     38  C   UNL A   1      34.666  30.731  28.102  1.00  0.00     0.251 C 
ATOM     39  H   UNL A   1      32.928  29.742  28.133  1.00  0.00     0.163 HD
ATOM     40  O   UNL A   1      34.257  31.682  28.769  1.00  0.00    -0.269 OA
BRANCH  38  41
ATOM     41  C   UNL A   1      36.119  30.437  28.051  1.00  0.00     0.039 A 
ATOM     42  C   UNL A   1      36.648  29.244  27.571  1.00  0.00     0.014 A 
ATOM     43  C   UNL A   1      36.969  31.367  28.674  1.00  0.00     0.014 A 
ATOM     44  C   UNL A   1      37.939  28.882  27.903  1.00  0.00     0.010 A 
ATOM     45  C   UNL A   1      38.285  31.031  28.964  1.00  0.00     0.010 A 
ATOM     46  C   UNL A   1      38.735  29.753  28.649  1.00  0.00    -0.014 A 
BRANCH  46  47
ATOM     47  C   UNL A   1      40.069  29.271  28.981  1.00  0.00     0.031 A 
ATOM     48  C   UNL A   1      40.257  28.943  30.422  1.00  0.00     0.074 A 
ATOM     49  C   UNL A   1      41.041  29.090  28.069  1.00  0.00     0.049 A 
ATOM     50  N   UNL A   1      41.044  29.499  31.285  1.00  0.00    -0.248 NA
ATOM     51  C   UNL A   1      39.320  27.969  31.000  1.00  0.00     0.031 C 
ATOM     52  C   UNL A   1      40.917  29.054  26.611  1.00  0.00     0.029 A 
ATOM     53  N   UNL A   1      42.347  28.770  28.277  1.00  0.00    -0.354 N 
ATOM     54  C   UNL A   1      40.829  28.821  32.488  1.00  0.00     0.074 A 
ATOM     55  C   UNL A   1      39.652  28.016  32.287  1.00  0.00     0.031 C 
ATOM     56  C   UNL A   1      42.024  28.474  26.092  1.00  0.00     0.029 A 
ATOM     57  C   UNL A   1      42.980  28.242  27.163  1.00  0.00     0.049 A 
ATOM     58  H   UNL A   1      42.801  28.902  29.140  1.00  0.00     0.167 HD
ATOM     59  C   UNL A   1      41.740  28.831  33.504  1.00  0.00     0.034 A 
ATOM     60  C   UNL A   1      44.149  27.554  27.157  1.00  0.00     0.034 A 
ATOM     61  C   UNL A   1      42.688  29.898  33.344  1.00  0.00     0.049 A 
ATOM     62  C   UNL A   1      44.851  27.811  28.439  1.00  0.00     0.074 A 
ATOM     63  C   UNL A   1      42.607  31.276  33.336  1.00  0.00     0.029 A 
ATOM     64  N   UNL A   1      43.919  29.589  32.820  1.00  0.00    -0.354 N 
ATOM     65  N   UNL A   1      45.404  28.944  28.767  1.00  0.00    -0.248 NA
ATOM     66  C   UNL A   1      44.568  26.909  29.547  1.00  0.00     0.031 C 
ATOM     67  C   UNL A   1      43.577  31.695  32.383  1.00  0.00     0.029 A 
ATOM     68  C   UNL A   1      44.229  30.557  31.903  1.00  0.00     0.049 A 
ATOM     69  H   UNL A   1      44.477  28.814  33.059  1.00  0.00     0.167 HD
ATOM     70  C   UNL A   1      45.126  29.086  30.119  1.00  0.00     0.074 A 
ATOM     71  C   UNL A   1      44.705  27.761  30.565  1.00  0.00     0.031 C 
ATOM     72  C   UNL A   1      44.986  30.317  30.692  1.00  0.00     0.034 A 
BRANCH  59  73
ATOM     73  C   UNL A   1      41.971  27.671  34.452  1.00  0.00     0.023 A 
ATOM     74  C   UNL A   1      42.708  26.527  34.101  1.00  0.00     0.031 A 
ATOM     75  C   UNL A   1      41.650  27.790  35.822  1.00  0.00     0.131 A 
ATOM     76  C   UNL A   1      43.113  25.582  35.054  1.00  0.00     0.055 A 
ATOM     77  C   UNL A   1      42.107  26.881  36.785  1.00  0.00     0.041 A 
ATOM     78  F   UNL A   1      40.941  28.832  36.281  1.00  0.00    -0.206 F 
ATOM     79  C   UNL A   1      42.849  25.772  36.405  1.00  0.00     0.022 A 
BRANCH  76  80
ATOM     80  S   UNL A   1      44.019  24.098  34.538  1.00  0.00     0.124 S 
ATOM     81  O   UNL A   1      45.208  24.164  35.380  1.00  0.00    -0.237 OA
ATOM     82  O   UNL A   1      43.067  23.041  34.867  1.00  0.00    -0.237 OA
ATOM     83  O   UNL A   1      44.237  24.309  33.109  1.00  0.00    -0.744 OA
ENDBRANCH  76  80
ENDBRANCH  59  73
BRANCH  60  84
ATOM     84  C   UNL A   1      44.441  26.337  26.364  1.00  0.00     0.023 A 
ATOM     85  C   UNL A   1      43.671  25.175  26.554  1.00  0.00     0.031 A 
ATOM     86  C   UNL A   1      45.659  26.202  25.676  1.00  0.00     0.131 A 
ATOM     87  C   UNL A   1      44.147  23.928  26.127  1.00  0.00     0.055 A 
ATOM     88  C   UNL A   1      46.125  24.958  25.236  1.00  0.00     0.041 A 
ATOM     89  F   UNL A   1      46.455  27.266  25.490  1.00  0.00    -0.206 F 
ATOM     90  C   UNL A   1      45.375  23.811  25.474  1.00  0.00     0.022 A 
BRANCH  87  91
ATOM     91  S   UNL A   1      43.203  22.423  26.491  1.00  0.00     0.124 S 
ATOM     92  O   UNL A   1      44.016  21.384  25.861  1.00  0.00    -0.237 OA
ATOM     93  O   UNL A   1      43.198  22.424  27.949  1.00  0.00    -0.237 OA
ATOM     94  O   UNL A   1      41.914  22.668  25.849  1.00  0.00    -0.744 OA
ENDBRANCH  87  91
ENDBRANCH  60  84
BRANCH  72  95
ATOM     95  C   UNL A   1      45.396  31.550  29.922  1.00  0.00     0.023 A 
ATOM     96  C   UNL A   1      44.981  31.622  28.579  1.00  0.00     0.031 A 
ATOM     97  C   UNL A   1      46.350  32.487  30.359  1.00  0.00     0.131 A 
ATOM     98  C   UNL A   1      45.550  32.557  27.709  1.00  0.00     0.055 A 
ATOM     99  C   UNL A   1      46.857  33.474  29.507  1.00  0.00     0.041 A 
ATOM    100  F   UNL A   1      46.891  32.422  31.584  1.00  0.00    -0.206 F 
ATOM    101  C   UNL A   1      46.475  33.498  28.169  1.00  0.00     0.022 A 
BRANCH  98 102
ATOM    102  S   UNL A   1      45.243  32.438  25.928  1.00  0.00     0.124 S 
ATOM    103  O   UNL A   1      45.727  33.732  25.446  1.00  0.00    -0.237 OA
ATOM    104  O   UNL A   1      46.064  31.286  25.548  1.00  0.00    -0.237 OA
ATOM    105  O   UNL A   1      43.809  32.229  25.827  1.00  0.00    -0.744 OA
ENDBRANCH  98 102
ENDBRANCH  72  95
ENDBRANCH  46  47
ENDBRANCH  38  41
ENDBRANCH  36  37
ENDBRANCH  35  36
ENDBRANCH   1  35
TORSDOF 19
ENDMDL
