MODEL 1
REMARK VINA RESULT:     -12.2      0.000      0.000
REMARK SMILES C[C@@H](C(=O)NCCCCNC(=O)c1ccc(-c2c3nc(c(-c4cc(S(=O)(=O)[O-])ccc4F)c4ccc([nH]4)c(-c4cc(S(=O)(=O)[O-])ccc4F)c4nc(c(-c5cc(S(=O)(=O)[O-])ccc5F)c5ccc2[nH]5)C=C4)C=C3)cc1)N1C(=O)/C(=C/c2nc3ccccc3[nH]2)SC1=S
REMARK SMILES IDX 8 1 7 2 6 3 5 4 3 5 4 6 2 8 1 9 76 10 77 11 91 12 78 13
REMARK SMILES IDX 79 14 90 15 92 16 80 17 81 18 82 19 89 20 83 21 88 22 84 24
REMARK SMILES IDX 87 25 85 26 86 27 9 28 10 29 11 30 12 32 13 33 14 34 75 35
REMARK SMILES IDX 15 36 74 37 16 38 17 39 18 40 68 41 19 42 73 43 67 44 69 45
REMARK SMILES IDX 20 46 72 47 66 48 65 49 21 51 53 52 33 53 52 54 34 55 37 56
REMARK SMILES IDX 51 57 70 58 35 59 36 60 50 62 71 63 38 64 22 65 23 66 31 67
REMARK SMILES IDX 24 68 30 69 32 70 29 71 25 72 26 73 27 74 28 75 54 76 55 77
REMARK SMILES IDX 63 78 56 79 62 80 64 81 61 82 57 83 58 84 59 85 60 86 39 87
REMARK SMILES IDX 40 88 48 89 41 90 47 91 49 92 46 93 42 94 43 95 44 96 45 97
REMARK H PARENT 5 7 89 23 10 31 69 50 37 61
REMARK Flexibility Score: inf
ROOT
ATOM      1  C   UNL A   1      37.008  23.656  24.583  1.00  0.00     0.023 C 
ENDROOT
BRANCH   1   2
ATOM      2  C   UNL A   1      36.532  22.806  23.402  1.00  0.00     0.023 C 
BRANCH   2   3
ATOM      3  C   UNL A   1      35.053  22.951  23.056  1.00  0.00     0.116 C 
BRANCH   3   4
ATOM      4  N   UNL A   1      34.210  22.089  23.856  1.00  0.00    -0.354 N 
ATOM      5  C   UNL A   1      33.364  22.397  24.875  1.00  0.00     0.242 C 
ATOM      6  O   UNL A   1      32.509  21.548  25.149  1.00  0.00    -0.273 OA
ATOM      7  H   UNL A   1      34.256  21.133  23.627  1.00  0.00     0.163 HD
BRANCH   5   8
ATOM      8  C   UNL A   1      33.395  23.776  25.580  1.00  0.00     0.178 C 
ATOM      9  C   UNL A   1      33.248  23.829  27.099  1.00  0.00     0.042 C 
BRANCH   8  10
ATOM     10  N   UNL A   1      32.396  24.663  24.944  1.00  0.00    -0.281 N 
ATOM     11  C   UNL A   1      32.843  25.675  24.103  1.00  0.00     0.267 C 
ATOM     12  C   UNL A   1      31.036  24.646  25.212  1.00  0.00     0.149 C 
ATOM     13  O   UNL A   1      34.002  25.913  23.799  1.00  0.00    -0.268 OA
ATOM     14  C   UNL A   1      31.704  26.541  23.702  1.00  0.00     0.084 C 
ATOM     15  S   UNL A   1      30.228  25.779  24.154  1.00  0.00    -0.054 SA
ATOM     16  S   UNL A   1      30.165  23.778  26.344  1.00  0.00    -0.052 S 
ATOM     17  C   UNL A   1      31.867  27.762  23.165  1.00  0.00     0.068 C 
BRANCH  17  18
ATOM     18  C   UNL A   1      30.753  28.623  23.028  1.00  0.00     0.132 A 
ATOM     19  N   UNL A   1      29.907  28.716  22.024  1.00  0.00    -0.229 NA
ATOM     20  N   UNL A   1      30.480  29.583  23.975  1.00  0.00    -0.338 N 
ATOM     21  C   UNL A   1      29.247  29.894  22.200  1.00  0.00     0.089 A 
ATOM     22  C   UNL A   1      29.566  30.457  23.429  1.00  0.00     0.066 A 
ATOM     23  H   UNL A   1      30.867  29.635  24.878  1.00  0.00     0.168 HD
ATOM     24  C   UNL A   1      28.390  30.563  21.319  1.00  0.00     0.030 A 
ATOM     25  C   UNL A   1      29.034  31.674  23.860  1.00  0.00     0.028 A 
ATOM     26  C   UNL A   1      27.874  31.801  21.709  1.00  0.00     0.002 A 
ATOM     27  C   UNL A   1      28.184  32.338  22.962  1.00  0.00     0.002 A 
ENDBRANCH  17  18
ENDBRANCH   8  10
ENDBRANCH   5   8
ENDBRANCH   3   4
ENDBRANCH   2   3
ENDBRANCH   1   2
BRANCH   1  28
ATOM     28  C   UNL A   1      37.088  22.933  25.921  1.00  0.00     0.116 C 
BRANCH  28  29
ATOM     29  N   UNL A   1      38.211  22.014  26.001  1.00  0.00    -0.352 N 
ATOM     30  C   UNL A   1      39.521  22.271  26.325  1.00  0.00     0.251 C 
ATOM     31  H   UNL A   1      38.003  21.075  25.792  1.00  0.00     0.163 HD
ATOM     32  O   UNL A   1      40.358  21.383  26.186  1.00  0.00    -0.269 OA
BRANCH  30  33
ATOM     33  C   UNL A   1      39.922  23.612  26.809  1.00  0.00     0.039 A 
ATOM     34  C   UNL A   1      40.107  24.636  25.876  1.00  0.00     0.014 A 
ATOM     35  C   UNL A   1      40.129  23.860  28.168  1.00  0.00     0.014 A 
ATOM     36  C   UNL A   1      40.464  25.915  26.313  1.00  0.00     0.010 A 
ATOM     37  C   UNL A   1      40.395  25.156  28.607  1.00  0.00     0.010 A 
ATOM     38  C   UNL A   1      40.592  26.193  27.683  1.00  0.00    -0.014 A 
BRANCH  38  39
ATOM     39  C   UNL A   1      40.988  27.545  28.160  1.00  0.00     0.031 A 
ATOM     40  C   UNL A   1      42.440  27.951  28.140  1.00  0.00     0.074 A 
ATOM     41  C   UNL A   1      40.055  28.392  28.637  1.00  0.00     0.049 A 
ATOM     42  N   UNL A   1      42.994  29.070  28.529  1.00  0.00    -0.248 NA
ATOM     43  C   UNL A   1      43.398  26.950  27.647  1.00  0.00     0.031 C 
ATOM     44  C   UNL A   1      38.624  28.101  28.742  1.00  0.00     0.029 A 
ATOM     45  N   UNL A   1      40.168  29.672  29.119  1.00  0.00    -0.354 N 
ATOM     46  C   UNL A   1      44.363  28.901  28.347  1.00  0.00     0.074 A 
ATOM     47  C   UNL A   1      44.556  27.545  27.881  1.00  0.00     0.031 C 
ATOM     48  C   UNL A   1      37.988  29.186  29.212  1.00  0.00     0.029 A 
ATOM     49  C   UNL A   1      38.967  30.234  29.487  1.00  0.00     0.049 A 
ATOM     50  H   UNL A   1      41.029  30.144  29.194  1.00  0.00     0.167 HD
ATOM     51  C   UNL A   1      45.364  29.800  28.522  1.00  0.00     0.034 A 
ATOM     52  C   UNL A   1      38.688  31.454  29.988  1.00  0.00     0.034 A 
ATOM     53  C   UNL A   1      45.149  31.154  28.973  1.00  0.00     0.049 A 
ATOM     54  C   UNL A   1      39.819  32.431  30.194  1.00  0.00     0.074 A 
ATOM     55  C   UNL A   1      46.079  32.166  29.134  1.00  0.00     0.029 A 
ATOM     56  N   UNL A   1      43.920  31.684  29.345  1.00  0.00    -0.354 N 
ATOM     57  N   UNL A   1      41.103  32.276  29.963  1.00  0.00    -0.248 NA
ATOM     58  C   UNL A   1      39.457  33.756  30.713  1.00  0.00     0.031 C 
ATOM     59  C   UNL A   1      45.427  33.278  29.680  1.00  0.00     0.029 A 
ATOM     60  C   UNL A   1      44.073  32.997  29.767  1.00  0.00     0.049 A 
ATOM     61  H   UNL A   1      43.064  31.199  29.315  1.00  0.00     0.167 HD
ATOM     62  C   UNL A   1      41.693  33.502  30.262  1.00  0.00     0.074 A 
ATOM     63  C   UNL A   1      40.623  34.384  30.680  1.00  0.00     0.031 C 
ATOM     64  C   UNL A   1      42.999  33.869  30.185  1.00  0.00     0.034 A 
BRANCH  51  65
ATOM     65  C   UNL A   1      46.777  29.329  28.260  1.00  0.00     0.023 A 
ATOM     66  C   UNL A   1      47.236  29.035  26.962  1.00  0.00     0.031 A 
ATOM     67  C   UNL A   1      47.669  29.125  29.328  1.00  0.00     0.131 A 
ATOM     68  C   UNL A   1      48.507  28.469  26.778  1.00  0.00     0.055 A 
ATOM     69  C   UNL A   1      48.968  28.653  29.128  1.00  0.00     0.041 A 
ATOM     70  F   UNL A   1      47.287  29.364  30.593  1.00  0.00    -0.206 F 
ATOM     71  C   UNL A   1      49.387  28.303  27.848  1.00  0.00     0.022 A 
BRANCH  68  72
ATOM     72  S   UNL A   1      48.923  27.788  25.148  1.00  0.00     0.124 S 
ATOM     73  O   UNL A   1      47.797  28.252  24.340  1.00  0.00    -0.237 OA
ATOM     74  O   UNL A   1      50.211  28.411  24.865  1.00  0.00    -0.237 OA
ATOM     75  O   UNL A   1      48.962  26.346  25.377  1.00  0.00    -0.744 OA
ENDBRANCH  68  72
ENDBRANCH  51  65
BRANCH  52  76
ATOM     76  C   UNL A   1      37.284  31.838  30.313  1.00  0.00     0.023 A 
ATOM     77  C   UNL A   1      36.400  32.262  29.308  1.00  0.00     0.031 A 
ATOM     78  C   UNL A   1      36.817  31.833  31.640  1.00  0.00     0.131 A 
ATOM     79  C   UNL A   1      35.116  32.714  29.649  1.00  0.00     0.055 A 
ATOM     80  C   UNL A   1      35.518  32.228  31.967  1.00  0.00     0.041 A 
ATOM     81  F   UNL A   1      37.618  31.433  32.640  1.00  0.00    -0.206 F 
ATOM     82  C   UNL A   1      34.664  32.687  30.969  1.00  0.00     0.022 A 
BRANCH  79  83
ATOM     83  S   UNL A   1      34.074  33.430  28.347  1.00  0.00     0.124 S 
ATOM     84  O   UNL A   1      33.556  32.236  27.691  1.00  0.00    -0.237 OA
ATOM     85  O   UNL A   1      33.113  34.207  29.121  1.00  0.00    -0.237 OA
ATOM     86  O   UNL A   1      35.016  34.219  27.554  1.00  0.00    -0.744 OA
ENDBRANCH  79  83
ENDBRANCH  52  76
BRANCH  64  87
ATOM     87  C   UNL A   1      43.328  35.312  30.494  1.00  0.00     0.023 A 
ATOM     88  C   UNL A   1      43.338  36.309  29.502  1.00  0.00     0.031 A 
ATOM     89  C   UNL A   1      43.665  35.688  31.808  1.00  0.00     0.131 A 
ATOM     90  C   UNL A   1      43.751  37.611  29.824  1.00  0.00     0.055 A 
ATOM     91  C   UNL A   1      44.001  37.002  32.135  1.00  0.00     0.041 A 
ATOM     92  F   UNL A   1      43.678  34.781  32.798  1.00  0.00    -0.206 F 
ATOM     93  C   UNL A   1      44.064  37.968  31.137  1.00  0.00     0.022 A 
BRANCH  90  94
ATOM     94  S   UNL A   1      44.004  38.800  28.477  1.00  0.00     0.124 S 
ATOM     95  O   UNL A   1      45.432  39.082  28.585  1.00  0.00    -0.237 OA
ATOM     96  O   UNL A   1      43.593  38.035  27.305  1.00  0.00    -0.237 OA
ATOM     97  O   UNL A   1      43.123  39.913  28.832  1.00  0.00    -0.744 OA
ENDBRANCH  90  94
ENDBRANCH  64  87
ENDBRANCH  38  39
ENDBRANCH  30  33
ENDBRANCH  28  29
ENDBRANCH   1  28
TORSDOF 16
ENDMDL
MODEL 2
REMARK VINA RESULT:     -11.6      5.389     12.100
REMARK SMILES C[C@@H](C(=O)NCCCCNC(=O)c1ccc(-c2c3nc(c(-c4cc(S(=O)(=O)[O-])ccc4F)c4ccc([nH]4)c(-c4cc(S(=O)(=O)[O-])ccc4F)c4nc(c(-c5cc(S(=O)(=O)[O-])ccc5F)c5ccc2[nH]5)C=C4)C=C3)cc1)N1C(=O)/C(=C/c2nc3ccccc3[nH]2)SC1=S
REMARK SMILES IDX 8 1 7 2 6 3 5 4 3 5 4 6 2 8 1 9 76 10 77 11 91 12 78 13
REMARK SMILES IDX 79 14 90 15 92 16 80 17 81 18 82 19 89 20 83 21 88 22 84 24
REMARK SMILES IDX 87 25 85 26 86 27 9 28 10 29 11 30 12 32 13 33 14 34 75 35
REMARK SMILES IDX 15 36 74 37 16 38 17 39 18 40 68 41 19 42 73 43 67 44 69 45
REMARK SMILES IDX 20 46 72 47 66 48 65 49 21 51 53 52 33 53 52 54 34 55 37 56
REMARK SMILES IDX 51 57 70 58 35 59 36 60 50 62 71 63 38 64 22 65 23 66 31 67
REMARK SMILES IDX 24 68 30 69 32 70 29 71 25 72 26 73 27 74 28 75 54 76 55 77
REMARK SMILES IDX 63 78 56 79 62 80 64 81 61 82 57 83 58 84 59 85 60 86 39 87
REMARK SMILES IDX 40 88 48 89 41 90 47 91 49 92 46 93 42 94 43 95 44 96 45 97
REMARK H PARENT 5 7 89 23 10 31 69 50 37 61
REMARK Flexibility Score: inf
ROOT
ATOM      1  C   UNL A   1      33.696  34.737  27.965  1.00  0.00     0.023 C 
ENDROOT
BRANCH   1   2
ATOM      2  C   UNL A   1      33.585  35.874  28.982  1.00  0.00     0.023 C 
BRANCH   2   3
ATOM      3  C   UNL A   1      32.778  35.544  30.236  1.00  0.00     0.116 C 
BRANCH   3   4
ATOM      4  N   UNL A   1      33.389  36.062  31.440  1.00  0.00    -0.354 N 
ATOM      5  C   UNL A   1      34.465  35.608  32.137  1.00  0.00     0.242 C 
ATOM      6  O   UNL A   1      34.994  36.414  32.910  1.00  0.00    -0.273 OA
ATOM      7  H   UNL A   1      32.961  36.866  31.812  1.00  0.00     0.163 HD
BRANCH   5   8
ATOM      8  C   UNL A   1      35.065  34.200  31.898  1.00  0.00     0.178 C 
ATOM      9  C   UNL A   1      34.609  33.045  32.786  1.00  0.00     0.042 C 
BRANCH   8  10
ATOM     10  N   UNL A   1      36.541  34.297  31.913  1.00  0.00    -0.281 N 
ATOM     11  C   UNL A   1      37.221  34.307  30.701  1.00  0.00     0.267 C 
ATOM     12  C   UNL A   1      37.326  34.261  33.056  1.00  0.00     0.149 C 
ATOM     13  O   UNL A   1      36.726  34.265  29.586  1.00  0.00    -0.268 OA
ATOM     14  C   UNL A   1      38.687  34.248  30.942  1.00  0.00     0.084 C 
ATOM     15  S   UNL A   1      38.997  34.524  32.613  1.00  0.00    -0.054 SA
ATOM     16  S   UNL A   1      36.907  33.987  34.650  1.00  0.00    -0.052 S 
ATOM     17  C   UNL A   1      39.573  33.927  29.985  1.00  0.00     0.068 C 
BRANCH  17  18
ATOM     18  C   UNL A   1      40.918  33.658  30.334  1.00  0.00     0.132 A 
ATOM     19  N   UNL A   1      41.522  32.493  30.428  1.00  0.00    -0.229 NA
ATOM     20  N   UNL A   1      41.764  34.669  30.722  1.00  0.00    -0.338 N 
ATOM     21  C   UNL A   1      42.673  32.725  31.118  1.00  0.00     0.089 A 
ATOM     22  C   UNL A   1      42.870  34.088  31.301  1.00  0.00     0.066 A 
ATOM     23  H   UNL A   1      41.608  35.634  30.607  1.00  0.00     0.168 HD
ATOM     24  C   UNL A   1      43.576  31.803  31.658  1.00  0.00     0.030 A 
ATOM     25  C   UNL A   1      43.973  34.603  31.985  1.00  0.00     0.028 A 
ATOM     26  C   UNL A   1      44.667  32.291  32.381  1.00  0.00     0.002 A 
ATOM     27  C   UNL A   1      44.864  33.666  32.530  1.00  0.00     0.002 A 
ENDBRANCH  17  18
ENDBRANCH   8  10
ENDBRANCH   5   8
ENDBRANCH   3   4
ENDBRANCH   2   3
ENDBRANCH   1   2
BRANCH   1  28
ATOM     28  C   UNL A   1      33.842  33.340  28.554  1.00  0.00     0.116 C 
BRANCH  28  29
ATOM     29  N   UNL A   1      33.352  32.299  27.667  1.00  0.00    -0.352 N 
ATOM     30  C   UNL A   1      33.948  31.115  27.307  1.00  0.00     0.251 C 
ATOM     31  H   UNL A   1      32.468  32.466  27.267  1.00  0.00     0.163 HD
ATOM     32  O   UNL A   1      33.441  30.433  26.419  1.00  0.00    -0.269 OA
BRANCH  30  33
ATOM     33  C   UNL A   1      35.204  30.681  27.962  1.00  0.00     0.039 A 
ATOM     34  C   UNL A   1      35.183  29.539  28.767  1.00  0.00     0.014 A 
ATOM     35  C   UNL A   1      36.391  31.399  27.800  1.00  0.00     0.014 A 
ATOM     36  C   UNL A   1      36.361  29.099  29.377  1.00  0.00     0.010 A 
ATOM     37  C   UNL A   1      37.580  30.908  28.334  1.00  0.00     0.010 A 
ATOM     38  C   UNL A   1      37.575  29.767  29.151  1.00  0.00    -0.014 A 
BRANCH  38  39
ATOM     39  C   UNL A   1      38.833  29.320  29.808  1.00  0.00     0.031 A 
ATOM     40  C   UNL A   1      39.198  29.853  31.170  1.00  0.00     0.074 A 
ATOM     41  C   UNL A   1      39.658  28.466  29.173  1.00  0.00     0.049 A 
ATOM     42  N   UNL A   1      40.253  29.607  31.902  1.00  0.00    -0.248 NA
ATOM     43  C   UNL A   1      38.264  30.817  31.772  1.00  0.00     0.031 C 
ATOM     44  C   UNL A   1      39.434  27.910  27.837  1.00  0.00     0.029 A 
ATOM     45  N   UNL A   1      40.851  27.911  29.566  1.00  0.00    -0.354 N 
ATOM     46  C   UNL A   1      40.120  30.397  33.040  1.00  0.00     0.074 A 
ATOM     47  C   UNL A   1      38.918  31.182  32.862  1.00  0.00     0.031 C 
ATOM     48  C   UNL A   1      40.431  27.059  27.542  1.00  0.00     0.029 A 
ATOM     49  C   UNL A   1      41.389  27.043  28.643  1.00  0.00     0.049 A 
ATOM     50  H   UNL A   1      41.280  28.114  30.428  1.00  0.00     0.167 HD
ATOM     51  C   UNL A   1      40.909  30.444  34.143  1.00  0.00     0.034 A 
ATOM     52  C   UNL A   1      42.525  26.318  28.682  1.00  0.00     0.034 A 
ATOM     53  C   UNL A   1      42.096  29.640  34.307  1.00  0.00     0.049 A 
ATOM     54  C   UNL A   1      43.398  26.400  29.910  1.00  0.00     0.074 A 
ATOM     55  C   UNL A   1      42.940  29.565  35.401  1.00  0.00     0.029 A 
ATOM     56  N   UNL A   1      42.616  28.780  33.348  1.00  0.00    -0.354 N 
ATOM     57  N   UNL A   1      43.230  27.110  31.002  1.00  0.00    -0.248 NA
ATOM     58  C   UNL A   1      44.607  25.566  29.914  1.00  0.00     0.031 C 
ATOM     59  C   UNL A   1      44.011  28.725  35.073  1.00  0.00     0.029 A 
ATOM     60  C   UNL A   1      43.786  28.197  33.812  1.00  0.00     0.049 A 
ATOM     61  H   UNL A   1      42.213  28.610  32.466  1.00  0.00     0.167 HD
ATOM     62  C   UNL A   1      44.286  26.768  31.844  1.00  0.00     0.074 A 
ATOM     63  C   UNL A   1      45.077  25.784  31.133  1.00  0.00     0.031 C 
ATOM     64  C   UNL A   1      44.570  27.218  33.094  1.00  0.00     0.034 A 
BRANCH  51  65
ATOM     65  C   UNL A   1      40.527  31.422  35.231  1.00  0.00     0.023 A 
ATOM     66  C   UNL A   1      39.576  31.104  36.218  1.00  0.00     0.031 A 
ATOM     67  C   UNL A   1      41.089  32.711  35.258  1.00  0.00     0.131 A 
ATOM     68  C   UNL A   1      39.148  32.087  37.124  1.00  0.00     0.055 A 
ATOM     69  C   UNL A   1      40.730  33.654  36.225  1.00  0.00     0.041 A 
ATOM     70  F   UNL A   1      41.985  33.087  34.332  1.00  0.00    -0.206 F 
ATOM     71  C   UNL A   1      39.740  33.350  37.154  1.00  0.00     0.022 A 
BRANCH  68  72
ATOM     72  S   UNL A   1      37.687  31.746  38.145  1.00  0.00     0.124 S 
ATOM     73  O   UNL A   1      36.783  32.817  37.730  1.00  0.00    -0.237 OA
ATOM     74  O   UNL A   1      37.316  30.399  37.726  1.00  0.00    -0.237 OA
ATOM     75  O   UNL A   1      38.188  31.861  39.513  1.00  0.00    -0.744 OA
ENDBRANCH  68  72
ENDBRANCH  51  65
BRANCH  52  76
ATOM     76  C   UNL A   1      42.901  25.433  27.541  1.00  0.00     0.023 A 
ATOM     77  C   UNL A   1      42.326  24.160  27.394  1.00  0.00     0.031 A 
ATOM     78  C   UNL A   1      43.874  25.827  26.606  1.00  0.00     0.131 A 
ATOM     79  C   UNL A   1      42.767  23.306  26.372  1.00  0.00     0.055 A 
ATOM     80  C   UNL A   1      44.267  24.996  25.555  1.00  0.00     0.041 A 
ATOM     81  F   UNL A   1      44.453  27.036  26.696  1.00  0.00    -0.206 F 
ATOM     82  C   UNL A   1      43.724  23.721  25.443  1.00  0.00     0.022 A 
BRANCH  79  83
ATOM     83  S   UNL A   1      42.139  21.604  26.331  1.00  0.00     0.124 S 
ATOM     84  O   UNL A   1      40.737  21.814  25.989  1.00  0.00    -0.237 OA
ATOM     85  O   UNL A   1      42.970  21.000  25.296  1.00  0.00    -0.237 OA
ATOM     86  O   UNL A   1      42.385  21.120  27.688  1.00  0.00    -0.744 OA
ENDBRANCH  79  83
ENDBRANCH  52  76
BRANCH  64  87
ATOM     87  C   UNL A   1      45.750  26.589  33.800  1.00  0.00     0.023 A 
ATOM     88  C   UNL A   1      45.627  25.425  34.579  1.00  0.00     0.031 A 
ATOM     89  C   UNL A   1      47.021  27.189  33.710  1.00  0.00     0.131 A 
ATOM     90  C   UNL A   1      46.733  24.944  35.296  1.00  0.00     0.055 A 
ATOM     91  C   UNL A   1      48.133  26.661  34.365  1.00  0.00     0.041 A 
ATOM     92  F   UNL A   1      47.201  28.305  32.985  1.00  0.00    -0.206 F 
ATOM     93  C   UNL A   1      47.990  25.543  35.179  1.00  0.00     0.022 A 
BRANCH  90  94
ATOM     94  S   UNL A   1      46.477  23.603  36.492  1.00  0.00     0.124 S 
ATOM     95  O   UNL A   1      46.978  22.444  35.760  1.00  0.00    -0.237 OA
ATOM     96  O   UNL A   1      47.287  24.039  37.625  1.00  0.00    -0.237 OA
ATOM     97  O   UNL A   1      45.033  23.616  36.719  1.00  0.00    -0.744 OA
ENDBRANCH  90  94
ENDBRANCH  64  87
ENDBRANCH  38  39
ENDBRANCH  30  33
ENDBRANCH  28  29
ENDBRANCH   1  28
TORSDOF 16
ENDMDL
MODEL 3
REMARK VINA RESULT:     -11.6      1.768      2.131
REMARK SMILES C[C@@H](C(=O)NCCCCNC(=O)c1ccc(-c2c3nc(c(-c4cc(S(=O)(=O)[O-])ccc4F)c4ccc([nH]4)c(-c4cc(S(=O)(=O)[O-])ccc4F)c4nc(c(-c5cc(S(=O)(=O)[O-])ccc5F)c5ccc2[nH]5)C=C4)C=C3)cc1)N1C(=O)/C(=C/c2nc3ccccc3[nH]2)SC1=S
REMARK SMILES IDX 8 1 7 2 6 3 5 4 3 5 4 6 2 8 1 9 76 10 77 11 91 12 78 13
REMARK SMILES IDX 79 14 90 15 92 16 80 17 81 18 82 19 89 20 83 21 88 22 84 24
REMARK SMILES IDX 87 25 85 26 86 27 9 28 10 29 11 30 12 32 13 33 14 34 75 35
REMARK SMILES IDX 15 36 74 37 16 38 17 39 18 40 68 41 19 42 73 43 67 44 69 45
REMARK SMILES IDX 20 46 72 47 66 48 65 49 21 51 53 52 33 53 52 54 34 55 37 56
REMARK SMILES IDX 51 57 70 58 35 59 36 60 50 62 71 63 38 64 22 65 23 66 31 67
REMARK SMILES IDX 24 68 30 69 32 70 29 71 25 72 26 73 27 74 28 75 54 76 55 77
REMARK SMILES IDX 63 78 56 79 62 80 64 81 61 82 57 83 58 84 59 85 60 86 39 87
REMARK SMILES IDX 40 88 48 89 41 90 47 91 49 92 46 93 42 94 43 95 44 96 45 97
REMARK H PARENT 5 7 89 23 10 31 69 50 37 61
REMARK Flexibility Score: inf
ROOT
ATOM      1  C   UNL A   1      37.785  21.623  24.907  1.00  0.00     0.023 C 
ENDROOT
BRANCH   1   2
ATOM      2  C   UNL A   1      36.411  21.025  25.216  1.00  0.00     0.023 C 
BRANCH   2   3
ATOM      3  C   UNL A   1      35.583  21.800  26.238  1.00  0.00     0.116 C 
BRANCH   3   4
ATOM      4  N   UNL A   1      35.584  23.224  25.986  1.00  0.00    -0.354 N 
ATOM      5  C   UNL A   1      34.751  23.976  25.217  1.00  0.00     0.242 C 
ATOM      6  O   UNL A   1      34.744  25.190  25.447  1.00  0.00    -0.273 OA
ATOM      7  H   UNL A   1      36.298  23.727  26.440  1.00  0.00     0.163 HD
BRANCH   5   8
ATOM      8  C   UNL A   1      33.783  23.339  24.189  1.00  0.00     0.178 C 
ATOM      9  C   UNL A   1      34.351  22.807  22.875  1.00  0.00     0.042 C 
BRANCH   8  10
ATOM     10  N   UNL A   1      32.680  24.286  23.916  1.00  0.00    -0.281 N 
ATOM     11  C   UNL A   1      32.880  25.291  22.978  1.00  0.00     0.267 C 
ATOM     12  C   UNL A   1      31.482  24.328  24.613  1.00  0.00     0.149 C 
ATOM     13  O   UNL A   1      33.887  25.479  22.314  1.00  0.00    -0.268 OA
ATOM     14  C   UNL A   1      31.719  26.219  22.974  1.00  0.00     0.084 C 
ATOM     15  S   UNL A   1      30.433  25.519  23.881  1.00  0.00    -0.054 SA
ATOM     16  S   UNL A   1      30.983  23.480  25.965  1.00  0.00    -0.052 S 
ATOM     17  C   UNL A   1      31.761  27.440  22.417  1.00  0.00     0.068 C 
BRANCH  17  18
ATOM     18  C   UNL A   1      30.709  28.357  22.654  1.00  0.00     0.132 A 
ATOM     19  N   UNL A   1      29.618  28.553  21.944  1.00  0.00    -0.229 NA
ATOM     20  N   UNL A   1      30.779  29.262  23.686  1.00  0.00    -0.338 N 
ATOM     21  C   UNL A   1      29.110  29.744  22.364  1.00  0.00     0.089 A 
ATOM     22  C   UNL A   1      29.802  30.210  23.475  1.00  0.00     0.066 A 
ATOM     23  H   UNL A   1      31.411  29.237  24.440  1.00  0.00     0.168 HD
ATOM     24  C   UNL A   1      28.079  30.507  21.805  1.00  0.00     0.030 A 
ATOM     25  C   UNL A   1      29.491  31.417  24.104  1.00  0.00     0.028 A 
ATOM     26  C   UNL A   1      27.773  31.738  22.391  1.00  0.00     0.002 A 
ATOM     27  C   UNL A   1      28.462  32.176  23.526  1.00  0.00     0.002 A 
ENDBRANCH  17  18
ENDBRANCH   8  10
ENDBRANCH   5   8
ENDBRANCH   3   4
ENDBRANCH   2   3
ENDBRANCH   1   2
BRANCH   1  28
ATOM     28  C   UNL A   1      38.668  21.899  26.118  1.00  0.00     0.116 C 
BRANCH  28  29
ATOM     29  N   UNL A   1      39.883  21.103  26.123  1.00  0.00    -0.352 N 
ATOM     30  C   UNL A   1      41.175  21.492  26.385  1.00  0.00     0.251 C 
ATOM     31  H   UNL A   1      39.765  20.149  25.908  1.00  0.00     0.163 HD
ATOM     32  O   UNL A   1      42.092  20.699  26.188  1.00  0.00    -0.269 OA
BRANCH  30  33
ATOM     33  C   UNL A   1      41.457  22.862  26.873  1.00  0.00     0.039 A 
ATOM     34  C   UNL A   1      41.453  23.917  25.956  1.00  0.00     0.014 A 
ATOM     35  C   UNL A   1      41.739  23.108  28.219  1.00  0.00     0.014 A 
ATOM     36  C   UNL A   1      41.696  25.220  26.398  1.00  0.00     0.010 A 
ATOM     37  C   UNL A   1      41.890  24.418  28.671  1.00  0.00     0.010 A 
ATOM     38  C   UNL A   1      41.896  25.486  27.762  1.00  0.00    -0.014 A 
BRANCH  38  39
ATOM     39  C   UNL A   1      42.173  26.867  28.243  1.00  0.00     0.031 A 
ATOM     40  C   UNL A   1      43.591  27.378  28.281  1.00  0.00     0.074 A 
ATOM     41  C   UNL A   1      41.161  27.646  28.674  1.00  0.00     0.049 A 
ATOM     42  N   UNL A   1      44.044  28.537  28.683  1.00  0.00    -0.248 NA
ATOM     43  C   UNL A   1      44.639  26.447  27.836  1.00  0.00     0.031 C 
ATOM     44  C   UNL A   1      39.752  27.252  28.721  1.00  0.00     0.029 A 
ATOM     45  N   UNL A   1      41.160  28.934  29.149  1.00  0.00    -0.354 N 
ATOM     46  C   UNL A   1      45.429  28.467  28.558  1.00  0.00     0.074 A 
ATOM     47  C   UNL A   1      45.739  27.127  28.113  1.00  0.00     0.031 C 
ATOM     48  C   UNL A   1      39.020  28.290  29.156  1.00  0.00     0.029 A 
ATOM     49  C   UNL A   1      39.907  29.408  29.462  1.00  0.00     0.049 A 
ATOM     50  H   UNL A   1      41.981  29.468  29.255  1.00  0.00     0.167 HD
ATOM     51  C   UNL A   1      46.353  29.438  28.767  1.00  0.00     0.034 A 
ATOM     52  C   UNL A   1      39.519  30.607  29.940  1.00  0.00     0.034 A 
ATOM     53  C   UNL A   1      46.022  30.775  29.197  1.00  0.00     0.049 A 
ATOM     54  C   UNL A   1      40.566  31.666  30.185  1.00  0.00     0.074 A 
ATOM     55  C   UNL A   1      46.867  31.853  29.388  1.00  0.00     0.029 A 
ATOM     56  N   UNL A   1      44.743  31.216  29.514  1.00  0.00    -0.354 N 
ATOM     57  N   UNL A   1      41.866  31.603  30.009  1.00  0.00    -0.248 NA
ATOM     58  C   UNL A   1      40.087  32.963  30.676  1.00  0.00     0.031 C 
ATOM     59  C   UNL A   1      46.114  32.918  29.897  1.00  0.00     0.029 A 
ATOM     60  C   UNL A   1      44.782  32.539  29.930  1.00  0.00     0.049 A 
ATOM     61  H   UNL A   1      43.926  30.669  29.452  1.00  0.00     0.167 HD
ATOM     62  C   UNL A   1      42.353  32.871  30.321  1.00  0.00     0.074 A 
ATOM     63  C   UNL A   1      41.204  33.674  30.687  1.00  0.00     0.031 C 
ATOM     64  C   UNL A   1      43.631  33.332  30.296  1.00  0.00     0.034 A 
BRANCH  51  65
ATOM     65  C   UNL A   1      47.807  29.070  28.568  1.00  0.00     0.023 A 
ATOM     66  C   UNL A   1      48.409  29.072  27.296  1.00  0.00     0.031 A 
ATOM     67  C   UNL A   1      48.594  28.665  29.661  1.00  0.00     0.131 A 
ATOM     68  C   UNL A   1      49.717  28.591  27.137  1.00  0.00     0.055 A 
ATOM     69  C   UNL A   1      49.928  28.280  29.509  1.00  0.00     0.041 A 
ATOM     70  F   UNL A   1      48.075  28.618  30.898  1.00  0.00    -0.206 F 
ATOM     71  C   UNL A   1      50.491  28.223  28.238  1.00  0.00     0.022 A 
BRANCH  68  72
ATOM     72  S   UNL A   1      50.329  28.286  25.456  1.00  0.00     0.124 S 
ATOM     73  O   UNL A   1      51.001  29.548  25.154  1.00  0.00    -0.237 OA
ATOM     74  O   UNL A   1      51.197  27.129  25.640  1.00  0.00    -0.237 OA
ATOM     75  O   UNL A   1      49.112  28.039  24.686  1.00  0.00    -0.744 OA
ENDBRANCH  68  72
ENDBRANCH  51  65
BRANCH  52  76
ATOM     76  C   UNL A   1      38.078  30.889  30.204  1.00  0.00     0.023 A 
ATOM     77  C   UNL A   1      37.241  31.380  29.189  1.00  0.00     0.031 A 
ATOM     78  C   UNL A   1      37.526  30.718  31.486  1.00  0.00     0.131 A 
ATOM     79  C   UNL A   1      35.915  31.733  29.483  1.00  0.00     0.055 A 
ATOM     80  C   UNL A   1      36.189  31.016  31.759  1.00  0.00     0.041 A 
ATOM     81  F   UNL A   1      38.279  30.248  32.493  1.00  0.00    -0.206 F 
ATOM     82  C   UNL A   1      35.380  31.541  30.758  1.00  0.00     0.022 A 
BRANCH  79  83
ATOM     83  S   UNL A   1      34.925  32.539  28.193  1.00  0.00     0.124 S 
ATOM     84  O   UNL A   1      35.929  33.343  27.507  1.00  0.00    -0.237 OA
ATOM     85  O   UNL A   1      34.402  31.395  27.454  1.00  0.00    -0.237 OA
ATOM     86  O   UNL A   1      33.930  33.295  28.952  1.00  0.00    -0.744 OA
ENDBRANCH  79  83
ENDBRANCH  52  76
BRANCH  64  87
ATOM     87  C   UNL A   1      43.840  34.797  30.605  1.00  0.00     0.023 A 
ATOM     88  C   UNL A   1      43.985  35.274  31.919  1.00  0.00     0.031 A 
ATOM     89  C   UNL A   1      43.868  35.738  29.557  1.00  0.00     0.131 A 
ATOM     90  C   UNL A   1      44.073  36.654  32.157  1.00  0.00     0.055 A 
ATOM     91  C   UNL A   1      44.032  37.102  29.796  1.00  0.00     0.041 A 
ATOM     92  F   UNL A   1      43.730  35.344  28.281  1.00  0.00    -0.206 F 
ATOM     93  C   UNL A   1      44.116  37.570  31.103  1.00  0.00     0.022 A 
BRANCH  90  94
ATOM     94  S   UNL A   1      43.993  37.249  33.869  1.00  0.00     0.124 S 
ATOM     95  O   UNL A   1      44.452  38.628  33.733  1.00  0.00    -0.237 OA
ATOM     96  O   UNL A   1      42.581  37.077  34.193  1.00  0.00    -0.237 OA
ATOM     97  O   UNL A   1      44.906  36.359  34.585  1.00  0.00    -0.744 OA
ENDBRANCH  90  94
ENDBRANCH  64  87
ENDBRANCH  38  39
ENDBRANCH  30  33
ENDBRANCH  28  29
ENDBRANCH   1  28
TORSDOF 16
ENDMDL
