MODEL 1
REMARK VINA RESULT:     -10.7      0.000      0.000
REMARK SMILES Cc1ccoc1C(=O)N1CCO[C@H](CC(=O)NCCCCNC(=O)c2ccc(-c3c4nc(c(-c5cc(S(=O)(=O)[O-])ccc5F)c5ccc([nH]5)c(-c5cc(S(=O)(=O)[O-])ccc5F)c5nc(c(-c6cc(S(=O)(=O)[O-])ccc6F)c6ccc3[nH]6)C=C5)C=C4)cc2)C1
REMARK SMILES IDX 19 1 18 2 17 3 15 4 16 5 14 7 13 8 9 9 10 10 88 11 11 12
REMARK SMILES IDX 12 13 7 14 8 15 6 16 1 17 2 18 3 19 4 20 5 21 20 22 21 23
REMARK SMILES IDX 22 24 23 25 24 27 25 28 26 29 87 30 27 31 86 32 28 33 29 34
REMARK SMILES IDX 30 35 80 36 31 37 85 38 79 39 81 40 32 41 84 42 78 43 77 44
REMARK SMILES IDX 33 46 65 47 45 48 64 49 46 50 49 51 63 52 82 53 47 54 48 55
REMARK SMILES IDX 62 57 83 58 50 59 34 60 35 61 43 62 36 63 42 64 44 65 41 66
REMARK SMILES IDX 37 67 38 68 39 69 40 70 66 71 67 72 75 73 68 74 74 75 76 76
REMARK SMILES IDX 73 77 69 78 70 79 71 80 72 81 51 82 52 83 60 84 53 85 59 86
REMARK SMILES IDX 61 87 58 88 54 89 55 90 56 91 57 92
REMARK H PARENT 17 6 22 26 81 45 49 56
REMARK Flexibility Score: inf
ROOT
ATOM      1  C   UNL A   1      33.850  35.638  28.570  1.00  0.00     0.023 C 
ENDROOT
BRANCH   1   2
ATOM      2  C   UNL A   1      32.950  35.229  29.731  1.00  0.00     0.116 C 
BRANCH   2   3
ATOM      3  N   UNL A   1      32.663  36.371  30.575  1.00  0.00    -0.356 N 
ATOM      4  C   UNL A   1      33.185  36.658  31.798  1.00  0.00     0.222 C 
ATOM      5  O   UNL A   1      32.673  37.541  32.485  1.00  0.00    -0.275 OA
ATOM      6  H   UNL A   1      32.013  37.019  30.219  1.00  0.00     0.163 HD
BRANCH   4   7
ATOM      7  C   UNL A   1      34.427  35.938  32.250  1.00  0.00     0.133 C 
BRANCH   7   8
ATOM      8  C   UNL A   1      34.198  34.941  33.396  1.00  0.00     0.147 C 
ATOM      9  N   UNL A   1      36.419  34.041  33.103  1.00  0.00    -0.331 N 
ATOM     10  C   UNL A   1      35.938  32.762  32.610  1.00  0.00     0.148 C 
ATOM     11  C   UNL A   1      35.533  34.650  34.092  1.00  0.00     0.152 C 
ATOM     12  C   UNL A   1      34.458  32.831  32.182  1.00  0.00     0.182 C 
ATOM     13  O   UNL A   1      33.617  33.680  32.984  1.00  0.00    -0.374 OA
BRANCH   9  14
ATOM     14  C   UNL A   1      37.738  34.472  33.048  1.00  0.00     0.289 C 
ATOM     15  O   UNL A   1      38.214  35.023  34.045  1.00  0.00    -0.265 OA
BRANCH  14  16
ATOM     16  C   UNL A   1      38.469  34.416  31.779  1.00  0.00     0.194 A 
ATOM     17  C   UNL A   1      41.082  34.478  32.066  1.00  0.00     0.049 C 
ATOM     18  C   UNL A   1      39.797  34.374  31.342  1.00  0.00     0.000 A 
ATOM     19  C   UNL A   1      39.751  34.129  29.933  1.00  0.00     0.046 A 
ATOM     20  C   UNL A   1      38.432  34.049  29.589  1.00  0.00     0.196 A 
ATOM     21  O   UNL A   1      37.658  34.241  30.676  1.00  0.00    -0.459 OA
ENDBRANCH  14  16
ENDBRANCH   9  14
ENDBRANCH   7   8
ENDBRANCH   4   7
ENDBRANCH   2   3
ENDBRANCH   1   2
BRANCH   1  22
ATOM     22  C   UNL A   1      34.465  34.447  27.833  1.00  0.00     0.023 C 
BRANCH  22  23
ATOM     23  C   UNL A   1      34.475  33.147  28.628  1.00  0.00     0.116 C 
BRANCH  23  24
ATOM     24  N   UNL A   1      33.851  32.048  27.909  1.00  0.00    -0.352 N 
ATOM     25  C   UNL A   1      34.371  30.807  27.629  1.00  0.00     0.251 C 
ATOM     26  H   UNL A   1      32.939  32.215  27.579  1.00  0.00     0.163 HD
ATOM     27  O   UNL A   1      33.774  30.051  26.868  1.00  0.00    -0.269 OA
BRANCH  25  28
ATOM     28  C   UNL A   1      35.665  30.415  28.225  1.00  0.00     0.039 A 
ATOM     29  C   UNL A   1      35.675  29.826  29.490  1.00  0.00     0.014 A 
ATOM     30  C   UNL A   1      36.858  30.590  27.517  1.00  0.00     0.014 A 
ATOM     31  C   UNL A   1      36.877  29.355  30.019  1.00  0.00     0.010 A 
ATOM     32  C   UNL A   1      38.040  30.050  28.013  1.00  0.00     0.010 A 
ATOM     33  C   UNL A   1      38.064  29.428  29.269  1.00  0.00    -0.014 A 
BRANCH  33  34
ATOM     34  C   UNL A   1      39.335  28.857  29.789  1.00  0.00     0.031 A 
ATOM     35  C   UNL A   1      40.010  29.477  30.982  1.00  0.00     0.074 A 
ATOM     36  C   UNL A   1      39.902  27.809  29.158  1.00  0.00     0.049 A 
ATOM     37  N   UNL A   1      41.142  29.155  31.553  1.00  0.00    -0.248 NA
ATOM     38  C   UNL A   1      39.335  30.632  31.596  1.00  0.00     0.031 C 
ATOM     39  C   UNL A   1      39.363  27.148  27.967  1.00  0.00     0.029 A 
ATOM     40  N   UNL A   1      41.058  27.118  29.425  1.00  0.00    -0.354 N 
ATOM     41  C   UNL A   1      41.318  30.066  32.589  1.00  0.00     0.074 A 
ATOM     42  C   UNL A   1      40.212  30.998  32.518  1.00  0.00     0.031 C 
ATOM     43  C   UNL A   1      40.167  26.127  27.630  1.00  0.00     0.029 A 
ATOM     44  C   UNL A   1      41.302  26.088  28.545  1.00  0.00     0.049 A 
ATOM     45  H   UNL A   1      41.654  27.337  30.177  1.00  0.00     0.167 HD
ATOM     46  C   UNL A   1      42.296  30.107  33.527  1.00  0.00     0.034 A 
ATOM     47  C   UNL A   1      42.330  25.219  28.477  1.00  0.00     0.034 A 
ATOM     48  C   UNL A   1      43.391  29.168  33.585  1.00  0.00     0.049 A 
ATOM     49  C   UNL A   1      43.428  25.309  29.508  1.00  0.00     0.074 A 
ATOM     50  C   UNL A   1      44.411  29.091  34.516  1.00  0.00     0.029 A 
ATOM     51  N   UNL A   1      43.616  28.148  32.668  1.00  0.00    -0.354 N 
ATOM     52  N   UNL A   1      43.554  26.147  30.512  1.00  0.00    -0.248 NA
ATOM     53  C   UNL A   1      44.515  24.328  29.404  1.00  0.00     0.031 C 
ATOM     54  C   UNL A   1      45.291  28.077  34.122  1.00  0.00     0.029 A 
ATOM     55  C   UNL A   1      44.775  27.461  32.994  1.00  0.00     0.049 A 
ATOM     56  H   UNL A   1      43.036  27.944  31.899  1.00  0.00     0.167 HD
ATOM     57  C   UNL A   1      44.717  25.770  31.177  1.00  0.00     0.074 A 
ATOM     58  C   UNL A   1      45.242  24.619  30.471  1.00  0.00     0.031 C 
ATOM     59  C   UNL A   1      45.297  26.322  32.275  1.00  0.00     0.034 A 
BRANCH  46  60
ATOM     60  C   UNL A   1      42.233  31.219  34.549  1.00  0.00     0.023 A 
ATOM     61  C   UNL A   1      42.928  32.429  34.367  1.00  0.00     0.031 A 
ATOM     62  C   UNL A   1      41.491  31.061  35.732  1.00  0.00     0.131 A 
ATOM     63  C   UNL A   1      42.930  33.396  35.383  1.00  0.00     0.055 A 
ATOM     64  C   UNL A   1      41.424  32.065  36.701  1.00  0.00     0.041 A 
ATOM     65  F   UNL A   1      40.825  29.921  35.975  1.00  0.00    -0.206 F 
ATOM     66  C   UNL A   1      42.160  33.236  36.536  1.00  0.00     0.022 A 
BRANCH  63  67
ATOM     67  S   UNL A   1      44.073  34.798  35.241  1.00  0.00     0.124 S 
ATOM     68  O   UNL A   1      43.187  35.852  34.751  1.00  0.00    -0.237 OA
ATOM     69  O   UNL A   1      44.556  34.952  36.608  1.00  0.00    -0.237 OA
ATOM     70  O   UNL A   1      45.067  34.333  34.275  1.00  0.00    -0.744 OA
ENDBRANCH  63  67
ENDBRANCH  46  60
BRANCH  47  71
ATOM     71  C   UNL A   1      42.385  24.191  27.397  1.00  0.00     0.023 A 
ATOM     72  C   UNL A   1      41.776  22.936  27.561  1.00  0.00     0.031 A 
ATOM     73  C   UNL A   1      43.088  24.430  26.203  1.00  0.00     0.131 A 
ATOM     74  C   UNL A   1      41.928  21.950  26.575  1.00  0.00     0.055 A 
ATOM     75  C   UNL A   1      43.185  23.465  25.198  1.00  0.00     0.041 A 
ATOM     76  F   UNL A   1      43.686  25.613  25.992  1.00  0.00    -0.206 F 
ATOM     77  C   UNL A   1      42.614  22.211  25.388  1.00  0.00     0.022 A 
BRANCH  74  78
ATOM     78  S   UNL A   1      41.293  20.284  26.909  1.00  0.00     0.124 S 
ATOM     79  O   UNL A   1      42.488  19.469  26.723  1.00  0.00    -0.237 OA
ATOM     80  O   UNL A   1      40.810  20.413  28.281  1.00  0.00    -0.237 OA
ATOM     81  O   UNL A   1      40.251  20.108  25.899  1.00  0.00    -0.744 OA
ENDBRANCH  74  78
ENDBRANCH  47  71
BRANCH  59  82
ATOM     82  C   UNL A   1      46.543  25.650  32.804  1.00  0.00     0.023 A 
ATOM     83  C   UNL A   1      46.482  24.608  33.746  1.00  0.00     0.031 A 
ATOM     84  C   UNL A   1      47.812  26.075  32.370  1.00  0.00     0.131 A 
ATOM     85  C   UNL A   1      47.667  24.071  34.272  1.00  0.00     0.055 A 
ATOM     86  C   UNL A   1      48.986  25.489  32.846  1.00  0.00     0.041 A 
ATOM     87  F   UNL A   1      47.932  27.068  31.476  1.00  0.00    -0.206 F 
ATOM     88  C   UNL A   1      48.918  24.492  33.813  1.00  0.00     0.022 A 
BRANCH  85  89
ATOM     89  S   UNL A   1      47.554  22.891  35.645  1.00  0.00     0.124 S 
ATOM     90  O   UNL A   1      47.653  21.610  34.951  1.00  0.00    -0.237 OA
ATOM     91  O   UNL A   1      48.700  23.260  36.469  1.00  0.00    -0.237 OA
ATOM     92  O   UNL A   1      46.248  23.177  36.236  1.00  0.00    -0.744 OA
ENDBRANCH  85  89
ENDBRANCH  59  82
ENDBRANCH  33  34
ENDBRANCH  25  28
ENDBRANCH  23  24
ENDBRANCH  22  23
ENDBRANCH   1  22
TORSDOF 17
ENDMDL
MODEL 2
REMARK VINA RESULT:     -10.7      3.693      6.660
REMARK SMILES Cc1ccoc1C(=O)N1CCO[C@H](CC(=O)NCCCCNC(=O)c2ccc(-c3c4nc(c(-c5cc(S(=O)(=O)[O-])ccc5F)c5ccc([nH]5)c(-c5cc(S(=O)(=O)[O-])ccc5F)c5nc(c(-c6cc(S(=O)(=O)[O-])ccc6F)c6ccc3[nH]6)C=C5)C=C4)cc2)C1
REMARK SMILES IDX 19 1 18 2 17 3 15 4 16 5 14 7 13 8 9 9 10 10 88 11 11 12
REMARK SMILES IDX 12 13 7 14 8 15 6 16 1 17 2 18 3 19 4 20 5 21 20 22 21 23
REMARK SMILES IDX 22 24 23 25 24 27 25 28 26 29 87 30 27 31 86 32 28 33 29 34
REMARK SMILES IDX 30 35 80 36 31 37 85 38 79 39 81 40 32 41 84 42 78 43 77 44
REMARK SMILES IDX 33 46 65 47 45 48 64 49 46 50 49 51 63 52 82 53 47 54 48 55
REMARK SMILES IDX 62 57 83 58 50 59 34 60 35 61 43 62 36 63 42 64 44 65 41 66
REMARK SMILES IDX 37 67 38 68 39 69 40 70 66 71 67 72 75 73 68 74 74 75 76 76
REMARK SMILES IDX 73 77 69 78 70 79 71 80 72 81 51 82 52 83 60 84 53 85 59 86
REMARK SMILES IDX 61 87 58 88 54 89 55 90 56 91 57 92
REMARK H PARENT 17 6 22 26 81 45 49 56
REMARK Flexibility Score: inf
ROOT
ATOM      1  C   UNL A   1      32.097  28.026  26.772  1.00  0.00     0.023 C 
ENDROOT
BRANCH   1   2
ATOM      2  C   UNL A   1      31.088  27.111  26.086  1.00  0.00     0.116 C 
BRANCH   2   3
ATOM      3  N   UNL A   1      30.942  25.875  26.827  1.00  0.00    -0.356 N 
ATOM      4  C   UNL A   1      30.951  24.604  26.342  1.00  0.00     0.222 C 
ATOM      5  O   UNL A   1      30.588  23.676  27.062  1.00  0.00    -0.275 OA
ATOM      6  H   UNL A   1      30.823  25.966  27.800  1.00  0.00     0.163 HD
BRANCH   4   7
ATOM      7  C   UNL A   1      31.480  24.356  24.955  1.00  0.00     0.133 C 
BRANCH   7   8
ATOM      8  C   UNL A   1      32.954  23.924  24.909  1.00  0.00     0.147 C 
ATOM      9  N   UNL A   1      33.068  24.447  22.554  1.00  0.00    -0.331 N 
ATOM     10  C   UNL A   1      33.206  23.056  22.156  1.00  0.00     0.148 C 
ATOM     11  C   UNL A   1      33.690  24.743  23.842  1.00  0.00     0.152 C 
ATOM     12  C   UNL A   1      32.809  22.092  23.292  1.00  0.00     0.182 C 
ATOM     13  O   UNL A   1      33.156  22.519  24.621  1.00  0.00    -0.374 OA
BRANCH   9  14
ATOM     14  C   UNL A   1      32.811  25.502  21.689  1.00  0.00     0.289 C 
ATOM     15  O   UNL A   1      33.150  25.385  20.508  1.00  0.00    -0.265 OA
BRANCH  14  16
ATOM     16  C   UNL A   1      32.307  26.771  22.221  1.00  0.00     0.194 A 
ATOM     17  C   UNL A   1      34.176  28.591  22.551  1.00  0.00     0.049 C 
ATOM     18  C   UNL A   1      32.804  28.039  22.541  1.00  0.00     0.000 A 
ATOM     19  C   UNL A   1      31.668  28.856  22.839  1.00  0.00     0.046 A 
ATOM     20  C   UNL A   1      30.565  28.062  22.703  1.00  0.00     0.196 A 
ATOM     21  O   UNL A   1      30.933  26.813  22.357  1.00  0.00    -0.459 OA
ENDBRANCH  14  16
ENDBRANCH   9  14
ENDBRANCH   7   8
ENDBRANCH   4   7
ENDBRANCH   2   3
ENDBRANCH   1   2
BRANCH   1  22
ATOM     22  C   UNL A   1      33.550  27.681  26.439  1.00  0.00     0.023 C 
BRANCH  22  23
ATOM     23  C   UNL A   1      34.401  28.871  26.011  1.00  0.00     0.116 C 
BRANCH  23  24
ATOM     24  N   UNL A   1      33.904  30.131  26.540  1.00  0.00    -0.352 N 
ATOM     25  C   UNL A   1      34.406  30.879  27.578  1.00  0.00     0.251 C 
ATOM     26  H   UNL A   1      33.104  30.496  26.097  1.00  0.00     0.163 HD
ATOM     27  O   UNL A   1      33.769  31.838  28.005  1.00  0.00    -0.269 OA
BRANCH  25  28
ATOM     28  C   UNL A   1      35.693  30.492  28.190  1.00  0.00     0.039 A 
ATOM     29  C   UNL A   1      35.684  29.686  29.329  1.00  0.00     0.014 A 
ATOM     30  C   UNL A   1      36.904  30.889  27.615  1.00  0.00     0.014 A 
ATOM     31  C   UNL A   1      36.892  29.226  29.856  1.00  0.00     0.010 A 
ATOM     32  C   UNL A   1      38.101  30.366  28.095  1.00  0.00     0.010 A 
ATOM     33  C   UNL A   1      38.108  29.530  29.221  1.00  0.00    -0.014 A 
BRANCH  33  34
ATOM     34  C   UNL A   1      39.394  28.980  29.726  1.00  0.00     0.031 A 
ATOM     35  C   UNL A   1      40.070  29.608  30.914  1.00  0.00     0.074 A 
ATOM     36  C   UNL A   1      39.974  27.944  29.086  1.00  0.00     0.049 A 
ATOM     37  N   UNL A   1      41.213  29.303  31.473  1.00  0.00    -0.248 NA
ATOM     38  C   UNL A   1      39.381  30.748  31.540  1.00  0.00     0.031 C 
ATOM     39  C   UNL A   1      39.435  27.278  27.898  1.00  0.00     0.029 A 
ATOM     40  N   UNL A   1      41.144  27.273  29.338  1.00  0.00    -0.354 N 
ATOM     41  C   UNL A   1      41.384  30.214  32.511  1.00  0.00     0.074 A 
ATOM     42  C   UNL A   1      40.261  31.126  32.454  1.00  0.00     0.031 C 
ATOM     43  C   UNL A   1      40.253  26.272  27.549  1.00  0.00     0.029 A 
ATOM     44  C   UNL A   1      41.397  26.250  28.453  1.00  0.00     0.049 A 
ATOM     45  H   UNL A   1      41.744  27.499  30.085  1.00  0.00     0.167 HD
ATOM     46  C   UNL A   1      42.370  30.268  33.440  1.00  0.00     0.034 A 
ATOM     47  C   UNL A   1      42.440  25.400  28.371  1.00  0.00     0.034 A 
ATOM     48  C   UNL A   1      43.482  29.349  33.483  1.00  0.00     0.049 A 
ATOM     49  C   UNL A   1      43.546  25.505  29.392  1.00  0.00     0.074 A 
ATOM     50  C   UNL A   1      44.512  29.286  34.404  1.00  0.00     0.029 A 
ATOM     51  N   UNL A   1      43.715  28.336  32.560  1.00  0.00    -0.354 N 
ATOM     52  N   UNL A   1      43.667  26.342  30.397  1.00  0.00    -0.248 NA
ATOM     53  C   UNL A   1      44.649  24.544  29.273  1.00  0.00     0.031 C 
ATOM     54  C   UNL A   1      45.406  28.290  33.998  1.00  0.00     0.029 A 
ATOM     55  C   UNL A   1      44.890  27.668  32.872  1.00  0.00     0.049 A 
ATOM     56  H   UNL A   1      43.132  28.124  31.796  1.00  0.00     0.167 HD
ATOM     57  C   UNL A   1      44.843  25.983  31.050  1.00  0.00     0.074 A 
ATOM     58  C   UNL A   1      45.382  24.844  30.334  1.00  0.00     0.031 C 
ATOM     59  C   UNL A   1      45.424  26.541  32.144  1.00  0.00     0.034 A 
BRANCH  46  60
ATOM     60  C   UNL A   1      42.298  31.376  34.466  1.00  0.00     0.023 A 
ATOM     61  C   UNL A   1      41.337  31.367  35.494  1.00  0.00     0.031 A 
ATOM     62  C   UNL A   1      43.183  32.466  34.405  1.00  0.00     0.131 A 
ATOM     63  C   UNL A   1      41.233  32.461  36.365  1.00  0.00     0.055 A 
ATOM     64  C   UNL A   1      43.132  33.510  35.331  1.00  0.00     0.041 A 
ATOM     65  F   UNL A   1      44.107  32.543  33.434  1.00  0.00    -0.206 F 
ATOM     66  C   UNL A   1      42.142  33.520  36.310  1.00  0.00     0.022 A 
BRANCH  63  67
ATOM     67  S   UNL A   1      39.799  32.552  37.473  1.00  0.00     0.124 S 
ATOM     68  O   UNL A   1      39.291  33.892  37.188  1.00  0.00    -0.237 OA
ATOM     69  O   UNL A   1      38.973  31.443  37.011  1.00  0.00    -0.237 OA
ATOM     70  O   UNL A   1      40.382  32.386  38.803  1.00  0.00    -0.744 OA
ENDBRANCH  63  67
ENDBRANCH  46  60
BRANCH  47  71
ATOM     71  C   UNL A   1      42.502  24.377  27.287  1.00  0.00     0.023 A 
ATOM     72  C   UNL A   1      41.887  23.123  27.439  1.00  0.00     0.031 A 
ATOM     73  C   UNL A   1      43.218  24.618  26.101  1.00  0.00     0.131 A 
ATOM     74  C   UNL A   1      42.045  22.141  26.449  1.00  0.00     0.055 A 
ATOM     75  C   UNL A   1      43.322  23.658  25.093  1.00  0.00     0.041 A 
ATOM     76  F   UNL A   1      43.823  25.800  25.902  1.00  0.00    -0.206 F 
ATOM     77  C   UNL A   1      42.745  22.405  25.271  1.00  0.00     0.022 A 
BRANCH  74  78
ATOM     78  S   UNL A   1      41.401  20.476  26.770  1.00  0.00     0.124 S 
ATOM     79  O   UNL A   1      42.195  20.068  27.922  1.00  0.00    -0.237 OA
ATOM     80  O   UNL A   1      39.988  20.741  27.023  1.00  0.00    -0.237 OA
ATOM     81  O   UNL A   1      41.684  19.758  25.528  1.00  0.00    -0.744 OA
ENDBRANCH  74  78
ENDBRANCH  47  71
BRANCH  59  82
ATOM     82  C   UNL A   1      46.687  25.889  32.658  1.00  0.00     0.023 A 
ATOM     83  C   UNL A   1      46.654  24.837  33.590  1.00  0.00     0.031 A 
ATOM     84  C   UNL A   1      47.945  26.344  32.221  1.00  0.00     0.131 A 
ATOM     85  C   UNL A   1      47.852  24.319  34.103  1.00  0.00     0.055 A 
ATOM     86  C   UNL A   1      49.133  25.777  32.683  1.00  0.00     0.041 A 
ATOM     87  F   UNL A   1      48.038  27.349  31.336  1.00  0.00    -0.206 F 
ATOM     88  C   UNL A   1      49.092  24.769  33.640  1.00  0.00     0.022 A 
BRANCH  85  89
ATOM     89  S   UNL A   1      47.772  23.123  35.464  1.00  0.00     0.124 S 
ATOM     90  O   UNL A   1      48.848  22.199  35.119  1.00  0.00    -0.237 OA
ATOM     91  O   UNL A   1      48.005  23.964  36.633  1.00  0.00    -0.237 OA
ATOM     92  O   UNL A   1      46.423  22.571  35.357  1.00  0.00    -0.744 OA
ENDBRANCH  85  89
ENDBRANCH  59  82
ENDBRANCH  33  34
ENDBRANCH  25  28
ENDBRANCH  23  24
ENDBRANCH  22  23
ENDBRANCH   1  22
TORSDOF 17
ENDMDL
MODEL 3
REMARK VINA RESULT:     -10.3      3.982      7.204
REMARK SMILES Cc1ccoc1C(=O)N1CCO[C@H](CC(=O)NCCCCNC(=O)c2ccc(-c3c4nc(c(-c5cc(S(=O)(=O)[O-])ccc5F)c5ccc([nH]5)c(-c5cc(S(=O)(=O)[O-])ccc5F)c5nc(c(-c6cc(S(=O)(=O)[O-])ccc6F)c6ccc3[nH]6)C=C5)C=C4)cc2)C1
REMARK SMILES IDX 19 1 18 2 17 3 15 4 16 5 14 7 13 8 9 9 10 10 88 11 11 12
REMARK SMILES IDX 12 13 7 14 8 15 6 16 1 17 2 18 3 19 4 20 5 21 20 22 21 23
REMARK SMILES IDX 22 24 23 25 24 27 25 28 26 29 87 30 27 31 86 32 28 33 29 34
REMARK SMILES IDX 30 35 80 36 31 37 85 38 79 39 81 40 32 41 84 42 78 43 77 44
REMARK SMILES IDX 33 46 65 47 45 48 64 49 46 50 49 51 63 52 82 53 47 54 48 55
REMARK SMILES IDX 62 57 83 58 50 59 34 60 35 61 43 62 36 63 42 64 44 65 41 66
REMARK SMILES IDX 37 67 38 68 39 69 40 70 66 71 67 72 75 73 68 74 74 75 76 76
REMARK SMILES IDX 73 77 69 78 70 79 71 80 72 81 51 82 52 83 60 84 53 85 59 86
REMARK SMILES IDX 61 87 58 88 54 89 55 90 56 91 57 92
REMARK H PARENT 17 6 22 26 81 45 49 56
REMARK Flexibility Score: inf
ROOT
ATOM      1  C   UNL A   1      31.504  27.578  26.619  1.00  0.00     0.023 C 
ENDROOT
BRANCH   1   2
ATOM      2  C   UNL A   1      30.892  26.447  25.800  1.00  0.00     0.116 C 
BRANCH   2   3
ATOM      3  N   UNL A   1      30.427  25.387  26.671  1.00  0.00    -0.356 N 
ATOM      4  C   UNL A   1      30.671  24.052  26.566  1.00  0.00     0.222 C 
ATOM      5  O   UNL A   1      30.021  23.261  27.247  1.00  0.00    -0.275 OA
ATOM      6  H   UNL A   1      29.868  25.666  27.431  1.00  0.00     0.163 HD
BRANCH   4   7
ATOM      7  C   UNL A   1      31.787  23.581  25.673  1.00  0.00     0.133 C 
BRANCH   7   8
ATOM      8  C   UNL A   1      31.317  22.962  24.348  1.00  0.00     0.147 C 
ATOM      9  N   UNL A   1      33.526  22.076  23.940  1.00  0.00    -0.331 N 
ATOM     10  C   UNL A   1      33.777  22.964  22.817  1.00  0.00     0.148 C 
ATOM     11  C   UNL A   1      32.124  21.689  24.067  1.00  0.00     0.152 C 
ATOM     12  C   UNL A   1      32.785  24.144  22.785  1.00  0.00     0.182 C 
ATOM     13  O   UNL A   1      31.442  23.839  23.202  1.00  0.00    -0.374 OA
BRANCH   9  14
ATOM     14  C   UNL A   1      34.485  21.291  24.566  1.00  0.00     0.289 C 
ATOM     15  O   UNL A   1      34.220  20.104  24.777  1.00  0.00    -0.265 OA
BRANCH  14  16
ATOM     16  C   UNL A   1      35.698  21.915  25.102  1.00  0.00     0.194 A 
ATOM     17  C   UNL A   1      37.840  20.404  24.891  1.00  0.00     0.049 C 
ATOM     18  C   UNL A   1      37.061  21.618  25.216  1.00  0.00     0.000 A 
ATOM     19  C   UNL A   1      37.695  22.808  25.693  1.00  0.00     0.046 A 
ATOM     20  C   UNL A   1      36.712  23.742  25.854  1.00  0.00     0.196 A 
ATOM     21  O   UNL A   1      35.515  23.216  25.527  1.00  0.00    -0.459 OA
ENDBRANCH  14  16
ENDBRANCH   9  14
ENDBRANCH   7   8
ENDBRANCH   4   7
ENDBRANCH   2   3
ENDBRANCH   1   2
BRANCH   1  22
ATOM     22  C   UNL A   1      31.754  28.848  25.803  1.00  0.00     0.023 C 
BRANCH  22  23
ATOM     23  C   UNL A   1      33.059  29.563  26.129  1.00  0.00     0.116 C 
BRANCH  23  24
ATOM     24  N   UNL A   1      32.853  30.946  26.528  1.00  0.00    -0.352 N 
ATOM     25  C   UNL A   1      33.619  31.714  27.373  1.00  0.00     0.251 C 
ATOM     26  H   UNL A   1      32.063  31.390  26.145  1.00  0.00     0.163 HD
ATOM     27  O   UNL A   1      33.214  32.815  27.735  1.00  0.00    -0.269 OA
BRANCH  25  28
ATOM     28  C   UNL A   1      34.908  31.182  27.863  1.00  0.00     0.039 A 
ATOM     29  C   UNL A   1      36.003  32.043  27.951  1.00  0.00     0.014 A 
ATOM     30  C   UNL A   1      35.020  29.851  28.273  1.00  0.00     0.014 A 
ATOM     31  C   UNL A   1      37.195  31.582  28.510  1.00  0.00     0.010 A 
ATOM     32  C   UNL A   1      36.184  29.417  28.901  1.00  0.00     0.010 A 
ATOM     33  C   UNL A   1      37.284  30.278  29.026  1.00  0.00    -0.014 A 
BRANCH  33  34
ATOM     34  C   UNL A   1      38.524  29.802  29.696  1.00  0.00     0.031 A 
ATOM     35  C   UNL A   1      38.900  30.330  31.053  1.00  0.00     0.074 A 
ATOM     36  C   UNL A   1      39.331  28.928  29.061  1.00  0.00     0.049 A 
ATOM     37  N   UNL A   1      39.959  30.074  31.777  1.00  0.00    -0.248 NA
ATOM     38  C   UNL A   1      37.975  31.298  31.664  1.00  0.00     0.031 C 
ATOM     39  C   UNL A   1      39.093  28.375  27.726  1.00  0.00     0.029 A 
ATOM     40  N   UNL A   1      40.515  28.354  29.450  1.00  0.00    -0.354 N 
ATOM     41  C   UNL A   1      39.832  30.850  32.925  1.00  0.00     0.074 A 
ATOM     42  C   UNL A   1      38.629  31.639  32.764  1.00  0.00     0.031 C 
ATOM     43  C   UNL A   1      40.080  27.516  27.424  1.00  0.00     0.029 A 
ATOM     44  C   UNL A   1      41.045  27.492  28.516  1.00  0.00     0.049 A 
ATOM     45  H   UNL A   1      40.945  28.539  30.316  1.00  0.00     0.167 HD
ATOM     46  C   UNL A   1      40.629  30.881  34.021  1.00  0.00     0.034 A 
ATOM     47  C   UNL A   1      42.186  26.773  28.535  1.00  0.00     0.034 A 
ATOM     48  C   UNL A   1      41.824  30.085  34.167  1.00  0.00     0.049 A 
ATOM     49  C   UNL A   1      43.077  26.855  29.749  1.00  0.00     0.074 A 
ATOM     50  C   UNL A   1      42.680  30.006  35.250  1.00  0.00     0.029 A 
ATOM     51  N   UNL A   1      42.339  29.236  33.194  1.00  0.00    -0.354 N 
ATOM     52  N   UNL A   1      42.917  27.557  30.848  1.00  0.00    -0.248 NA
ATOM     53  C   UNL A   1      44.297  26.039  29.729  1.00  0.00     0.031 C 
ATOM     54  C   UNL A   1      43.749  29.172  34.907  1.00  0.00     0.029 A 
ATOM     55  C   UNL A   1      43.518  28.657  33.642  1.00  0.00     0.049 A 
ATOM     56  H   UNL A   1      41.927  29.069  32.316  1.00  0.00     0.167 HD
ATOM     57  C   UNL A   1      43.999  27.237  31.663  1.00  0.00     0.074 A 
ATOM     58  C   UNL A   1      44.792  26.268  30.936  1.00  0.00     0.031 C 
ATOM     59  C   UNL A   1      44.307  27.700  32.903  1.00  0.00     0.034 A 
BRANCH  46  60
ATOM     60  C   UNL A   1      40.241  31.826  35.136  1.00  0.00     0.023 A 
ATOM     61  C   UNL A   1      39.361  31.436  36.162  1.00  0.00     0.031 A 
ATOM     62  C   UNL A   1      40.736  33.141  35.162  1.00  0.00     0.131 A 
ATOM     63  C   UNL A   1      38.944  32.370  37.120  1.00  0.00     0.055 A 
ATOM     64  C   UNL A   1      40.386  34.041  36.171  1.00  0.00     0.041 A 
ATOM     65  F   UNL A   1      41.561  33.581  34.198  1.00  0.00    -0.206 F 
ATOM     66  C   UNL A   1      39.472  33.662  37.150  1.00  0.00     0.022 A 
BRANCH  63  67
ATOM     67  S   UNL A   1      37.586  31.917  38.236  1.00  0.00     0.124 S 
ATOM     68  O   UNL A   1      38.222  32.057  39.544  1.00  0.00    -0.237 OA
ATOM     69  O   UNL A   1      36.567  32.908  37.912  1.00  0.00    -0.237 OA
ATOM     70  O   UNL A   1      37.269  30.544  37.850  1.00  0.00    -0.744 OA
ENDBRANCH  63  67
ENDBRANCH  46  60
BRANCH  47  71
ATOM     71  C   UNL A   1      42.562  25.918  27.372  1.00  0.00     0.023 A 
ATOM     72  C   UNL A   1      42.183  24.567  27.314  1.00  0.00     0.031 A 
ATOM     73  C   UNL A   1      43.350  26.425  26.323  1.00  0.00     0.131 A 
ATOM     74  C   UNL A   1      42.634  23.757  26.262  1.00  0.00     0.055 A 
ATOM     75  C   UNL A   1      43.746  25.629  25.247  1.00  0.00     0.041 A 
ATOM     76  F   UNL A   1      43.739  27.710  26.325  1.00  0.00    -0.206 F 
ATOM     77  C   UNL A   1      43.400  24.282  25.219  1.00  0.00     0.022 A 
BRANCH  74  78
ATOM     78  S   UNL A   1      42.285  21.978  26.325  1.00  0.00     0.124 S 
ATOM     79  O   UNL A   1      42.687  21.645  27.686  1.00  0.00    -0.237 OA
ATOM     80  O   UNL A   1      40.851  21.941  26.050  1.00  0.00    -0.237 OA
ATOM     81  O   UNL A   1      43.132  21.428  25.269  1.00  0.00    -0.744 OA
ENDBRANCH  74  78
ENDBRANCH  47  71
BRANCH  59  82
ATOM     82  C   UNL A   1      45.535  27.120  33.566  1.00  0.00     0.023 A 
ATOM     83  C   UNL A   1      45.465  25.995  34.405  1.00  0.00     0.031 A 
ATOM     84  C   UNL A   1      46.793  27.718  33.368  1.00  0.00     0.131 A 
ATOM     85  C   UNL A   1      46.616  25.542  35.066  1.00  0.00     0.055 A 
ATOM     86  C   UNL A   1      47.948  27.220  33.974  1.00  0.00     0.041 A 
ATOM     87  F   UNL A   1      46.921  28.798  32.581  1.00  0.00    -0.206 F 
ATOM     88  C   UNL A   1      47.861  26.136  34.840  1.00  0.00     0.022 A 
BRANCH  85  89
ATOM     89  S   UNL A   1      46.448  24.233  36.312  1.00  0.00     0.124 S 
ATOM     90  O   UNL A   1      47.083  23.100  35.646  1.00  0.00    -0.237 OA
ATOM     91  O   UNL A   1      47.170  24.792  37.450  1.00  0.00    -0.237 OA
ATOM     92  O   UNL A   1      45.003  24.116  36.492  1.00  0.00    -0.744 OA
ENDBRANCH  85  89
ENDBRANCH  59  82
ENDBRANCH  33  34
ENDBRANCH  25  28
ENDBRANCH  23  24
ENDBRANCH  22  23
ENDBRANCH   1  22
TORSDOF 17
ENDMDL
