MODEL 1
REMARK VINA RESULT:     -12.2      0.000      0.000
REMARK SMILES O=C(N[C@@H]1[C@@H](C(=O)NCCCCNC(=O)c2ccc(-c3c4nc(c(-c5cc(S(=O)(=O)[O-])ccc5F)c5ccc([nH]5)c(-c5cc(S(=O)(=O)[O-])ccc5F)c5nc(c(-c6cc(S(=O)(=O)[O-])ccc6F)c6ccc3[nH]6)C=C5)C=C4)cc2)[C@H]2C=C[C@@H]1C2)OCc1ccccc1
REMARK SMILES IDX 10 1 9 2 8 3 6 4 7 5 5 7 4 8 82 9 79 10 81 11 83 12 80 13
REMARK SMILES IDX 3 14 1 15 2 16 84 18 85 19 86 20 87 21 91 22 88 23 90 24
REMARK SMILES IDX 89 25 11 26 12 27 13 28 14 29 15 31 16 32 17 33 78 34 18 35
REMARK SMILES IDX 77 36 19 37 20 38 21 39 71 40 22 41 76 42 70 43 72 44 23 45
REMARK SMILES IDX 75 46 69 47 68 48 24 50 56 51 36 52 55 53 37 54 40 55 54 56
REMARK SMILES IDX 73 57 38 58 39 59 53 61 74 62 41 63 25 64 26 65 34 66 27 67
REMARK SMILES IDX 33 68 35 69 32 70 28 71 29 72 30 73 31 74 57 75 58 76 66 77
REMARK SMILES IDX 59 78 65 79 67 80 64 81 60 82 61 83 62 84 63 85 42 86 43 87
REMARK SMILES IDX 51 88 44 89 50 90 52 91 49 92 45 93 46 94 47 95 48 96
REMARK H PARENT 8 6 3 17 13 30 72 49 40 60
REMARK Flexibility Score: inf
ROOT
ATOM      1  C   UNL A   1      35.604  23.862  23.656  1.00  0.00     0.023 C 
ENDROOT
BRANCH   1   2
ATOM      2  C   UNL A   1      34.203  24.231  23.155  1.00  0.00     0.116 C 
BRANCH   2   3
ATOM      3  N   UNL A   1      33.431  23.063  22.757  1.00  0.00    -0.356 N 
ATOM      4  C   UNL A   1      32.279  22.488  23.173  1.00  0.00     0.225 C 
ATOM      5  O   UNL A   1      31.906  21.518  22.496  1.00  0.00    -0.275 OA
ATOM      6  H   UNL A   1      33.845  22.577  22.007  1.00  0.00     0.163 HD
BRANCH   4   7
ATOM      7  C   UNL A   1      31.407  22.900  24.355  1.00  0.00     0.108 C 
ATOM      8  C   UNL A   1      31.257  24.421  24.659  1.00  0.00     0.105 C 
ATOM      9  C   UNL A   1      31.502  24.419  26.172  1.00  0.00     0.035 C 
ATOM     10  C   UNL A   1      31.688  22.256  25.748  1.00  0.00     0.026 C 
ATOM     11  C   UNL A   1      32.901  24.033  26.544  1.00  0.00    -0.025 C 
ATOM     12  C   UNL A   1      30.786  23.136  26.617  1.00  0.00     0.018 C 
ATOM     13  C   UNL A   1      32.978  22.710  26.370  1.00  0.00    -0.027 C 
BRANCH   8  14
ATOM     14  N   UNL A   1      29.929  24.949  24.238  1.00  0.00    -0.317 N 
ATOM     15  O   UNL A   1      28.256  26.354  23.676  1.00  0.00    -0.225 OA
ATOM     16  C   UNL A   1      29.383  26.203  24.134  1.00  0.00     0.407 C 
ATOM     17  H   UNL A   1      29.302  24.237  23.976  1.00  0.00     0.167 HD
BRANCH  16  18
ATOM     18  O   UNL A   1      30.044  27.205  24.743  1.00  0.00    -0.445 OA
BRANCH  18  19
ATOM     19  C   UNL A   1      30.894  28.107  23.985  1.00  0.00     0.270 C 
BRANCH  19  20
ATOM     20  C   UNL A   1      32.027  28.445  24.955  1.00  0.00    -0.011 A 
ATOM     21  C   UNL A   1      31.794  29.418  25.944  1.00  0.00     0.007 A 
ATOM     22  C   UNL A   1      33.174  27.639  25.064  1.00  0.00     0.007 A 
ATOM     23  C   UNL A   1      32.592  29.484  27.084  1.00  0.00     0.000 A 
ATOM     24  C   UNL A   1      33.972  27.708  26.215  1.00  0.00     0.000 A 
ATOM     25  C   UNL A   1      33.663  28.607  27.235  1.00  0.00     0.000 A 
ENDBRANCH  19  20
ENDBRANCH  18  19
ENDBRANCH  16  18
ENDBRANCH   8  14
ENDBRANCH   4   7
ENDBRANCH   2   3
ENDBRANCH   1   2
BRANCH   1  26
ATOM     26  C   UNL A   1      35.866  22.396  23.962  1.00  0.00     0.023 C 
BRANCH  26  27
ATOM     27  C   UNL A   1      36.661  22.160  25.234  1.00  0.00     0.116 C 
BRANCH  27  28
ATOM     28  N   UNL A   1      37.564  21.015  25.195  1.00  0.00    -0.352 N 
ATOM     29  C   UNL A   1      38.823  20.943  25.774  1.00  0.00     0.251 C 
ATOM     30  H   UNL A   1      37.250  20.217  24.713  1.00  0.00     0.163 HD
ATOM     31  O   UNL A   1      39.526  19.960  25.655  1.00  0.00    -0.269 OA
BRANCH  29  32
ATOM     32  C   UNL A   1      39.289  22.153  26.488  1.00  0.00     0.039 A 
ATOM     33  C   UNL A   1      40.404  22.058  27.323  1.00  0.00     0.014 A 
ATOM     34  C   UNL A   1      38.763  23.395  26.127  1.00  0.00     0.014 A 
ATOM     35  C   UNL A   1      41.062  23.227  27.713  1.00  0.00     0.010 A 
ATOM     36  C   UNL A   1      39.482  24.542  26.428  1.00  0.00     0.010 A 
ATOM     37  C   UNL A   1      40.643  24.473  27.218  1.00  0.00    -0.014 A 
BRANCH  37  38
ATOM     38  C   UNL A   1      41.375  25.731  27.523  1.00  0.00     0.031 A 
ATOM     39  C   UNL A   1      40.697  26.789  28.348  1.00  0.00     0.074 A 
ATOM     40  C   UNL A   1      42.593  25.961  26.991  1.00  0.00     0.049 A 
ATOM     41  N   UNL A   1      41.078  28.012  28.610  1.00  0.00    -0.248 NA
ATOM     42  C   UNL A   1      39.385  26.434  28.908  1.00  0.00     0.031 C 
ATOM     43  C   UNL A   1      43.341  25.033  26.141  1.00  0.00     0.029 A 
ATOM     44  N   UNL A   1      43.414  27.058  27.082  1.00  0.00    -0.354 N 
ATOM     45  C   UNL A   1      40.040  28.577  29.343  1.00  0.00     0.074 A 
ATOM     46  C   UNL A   1      38.981  27.593  29.399  1.00  0.00     0.031 C 
ATOM     47  C   UNL A   1      44.525  25.585  25.822  1.00  0.00     0.029 A 
ATOM     48  C   UNL A   1      44.601  26.923  26.400  1.00  0.00     0.049 A 
ATOM     49  H   UNL A   1      43.175  27.868  27.589  1.00  0.00     0.167 HD
ATOM     50  C   UNL A   1      39.987  29.790  29.948  1.00  0.00     0.034 A 
ATOM     51  C   UNL A   1      45.629  27.784  26.255  1.00  0.00     0.034 A 
ATOM     52  C   UNL A   1      41.061  30.749  29.903  1.00  0.00     0.049 A 
ATOM     53  C   UNL A   1      45.542  29.140  26.908  1.00  0.00     0.074 A 
ATOM     54  C   UNL A   1      41.139  31.990  30.508  1.00  0.00     0.029 A 
ATOM     55  N   UNL A   1      42.252  30.570  29.209  1.00  0.00    -0.354 N 
ATOM     56  N   UNL A   1      44.568  29.651  27.625  1.00  0.00    -0.248 NA
ATOM     57  C   UNL A   1      46.696  30.034  26.739  1.00  0.00     0.031 C 
ATOM     58  C   UNL A   1      42.351  32.585  30.137  1.00  0.00     0.029 A 
ATOM     59  C   UNL A   1      43.062  31.686  29.356  1.00  0.00     0.049 A 
ATOM     60  H   UNL A   1      42.487  29.769  28.688  1.00  0.00     0.167 HD
ATOM     61  C   UNL A   1      45.011  30.908  28.028  1.00  0.00     0.074 A 
ATOM     62  C   UNL A   1      46.338  31.078  27.472  1.00  0.00     0.031 C 
ATOM     63  C   UNL A   1      44.384  31.834  28.797  1.00  0.00     0.034 A 
BRANCH  50  64
ATOM     64  C   UNL A   1      38.714  30.129  30.687  1.00  0.00     0.023 A 
ATOM     65  C   UNL A   1      37.650  30.791  30.047  1.00  0.00     0.031 A 
ATOM     66  C   UNL A   1      38.589  29.867  32.062  1.00  0.00     0.131 A 
ATOM     67  C   UNL A   1      36.571  31.275  30.799  1.00  0.00     0.055 A 
ATOM     68  C   UNL A   1      37.461  30.260  32.785  1.00  0.00     0.041 A 
ATOM     69  F   UNL A   1      39.578  29.257  32.734  1.00  0.00    -0.206 F 
ATOM     70  C   UNL A   1      36.454  30.990  32.161  1.00  0.00     0.022 A 
BRANCH  67  71
ATOM     71  S   UNL A   1      35.435  32.451  30.012  1.00  0.00     0.124 S 
ATOM     72  O   UNL A   1      36.308  33.603  29.799  1.00  0.00    -0.237 OA
ATOM     73  O   UNL A   1      35.018  31.734  28.813  1.00  0.00    -0.237 OA
ATOM     74  O   UNL A   1      34.394  32.647  31.019  1.00  0.00    -0.744 OA
ENDBRANCH  67  71
ENDBRANCH  50  64
BRANCH  51  75
ATOM     75  C   UNL A   1      46.839  27.396  25.473  1.00  0.00     0.023 A 
ATOM     76  C   UNL A   1      47.002  27.830  24.146  1.00  0.00     0.031 A 
ATOM     77  C   UNL A   1      47.826  26.558  26.019  1.00  0.00     0.131 A 
ATOM     78  C   UNL A   1      48.103  27.389  23.396  1.00  0.00     0.055 A 
ATOM     79  C   UNL A   1      48.944  26.161  25.283  1.00  0.00     0.041 A 
ATOM     80  F   UNL A   1      47.721  26.121  27.284  1.00  0.00    -0.206 F 
ATOM     81  C   UNL A   1      49.082  26.567  23.958  1.00  0.00     0.022 A 
BRANCH  78  82
ATOM     82  S   UNL A   1      48.200  27.852  21.644  1.00  0.00     0.124 S 
ATOM     83  O   UNL A   1      46.841  28.311  21.383  1.00  0.00    -0.237 OA
ATOM     84  O   UNL A   1      49.234  28.880  21.660  1.00  0.00    -0.237 OA
ATOM     85  O   UNL A   1      48.576  26.603  20.985  1.00  0.00    -0.744 OA
ENDBRANCH  78  82
ENDBRANCH  51  75
BRANCH  63  86
ATOM     86  C   UNL A   1      45.157  33.082  29.140  1.00  0.00     0.023 A 
ATOM     87  C   UNL A   1      45.082  34.244  28.354  1.00  0.00     0.031 A 
ATOM     88  C   UNL A   1      45.974  33.106  30.286  1.00  0.00     0.131 A 
ATOM     89  C   UNL A   1      45.845  35.371  28.702  1.00  0.00     0.055 A 
ATOM     90  C   UNL A   1      46.688  34.245  30.655  1.00  0.00     0.041 A 
ATOM     91  F   UNL A   1      46.080  32.021  31.069  1.00  0.00    -0.206 F 
ATOM     92  C   UNL A   1      46.634  35.383  29.856  1.00  0.00     0.022 A 
BRANCH  89  93
ATOM     93  S   UNL A   1      45.843  36.803  27.589  1.00  0.00     0.124 S 
ATOM     94  O   UNL A   1      46.791  36.389  26.560  1.00  0.00    -0.237 OA
ATOM     95  O   UNL A   1      44.446  36.876  27.175  1.00  0.00    -0.237 OA
ATOM     96  O   UNL A   1      46.294  37.902  28.443  1.00  0.00    -0.744 OA
ENDBRANCH  89  93
ENDBRANCH  63  86
ENDBRANCH  37  38
ENDBRANCH  29  32
ENDBRANCH  27  28
ENDBRANCH  26  27
ENDBRANCH   1  26
TORSDOF 18
ENDMDL
MODEL 2
REMARK VINA RESULT:     -12.2      5.030      7.966
REMARK SMILES O=C(N[C@@H]1[C@@H](C(=O)NCCCCNC(=O)c2ccc(-c3c4nc(c(-c5cc(S(=O)(=O)[O-])ccc5F)c5ccc([nH]5)c(-c5cc(S(=O)(=O)[O-])ccc5F)c5nc(c(-c6cc(S(=O)(=O)[O-])ccc6F)c6ccc3[nH]6)C=C5)C=C4)cc2)[C@H]2C=C[C@@H]1C2)OCc1ccccc1
REMARK SMILES IDX 10 1 9 2 8 3 6 4 7 5 5 7 4 8 82 9 79 10 81 11 83 12 80 13
REMARK SMILES IDX 3 14 1 15 2 16 84 18 85 19 86 20 87 21 91 22 88 23 90 24
REMARK SMILES IDX 89 25 11 26 12 27 13 28 14 29 15 31 16 32 17 33 78 34 18 35
REMARK SMILES IDX 77 36 19 37 20 38 21 39 71 40 22 41 76 42 70 43 72 44 23 45
REMARK SMILES IDX 75 46 69 47 68 48 24 50 56 51 36 52 55 53 37 54 40 55 54 56
REMARK SMILES IDX 73 57 38 58 39 59 53 61 74 62 41 63 25 64 26 65 34 66 27 67
REMARK SMILES IDX 33 68 35 69 32 70 28 71 29 72 30 73 31 74 57 75 58 76 66 77
REMARK SMILES IDX 59 78 65 79 67 80 64 81 60 82 61 83 62 84 63 85 42 86 43 87
REMARK SMILES IDX 51 88 44 89 50 90 52 91 49 92 45 93 46 94 47 95 48 96
REMARK H PARENT 8 6 3 17 13 30 72 49 40 60
REMARK Flexibility Score: inf
ROOT
ATOM      1  C   UNL A   1      33.143  29.210  24.193  1.00  0.00     0.023 C 
ENDROOT
BRANCH   1   2
ATOM      2  C   UNL A   1      32.361  28.835  22.929  1.00  0.00     0.116 C 
BRANCH   2   3
ATOM      3  N   UNL A   1      32.961  27.716  22.216  1.00  0.00    -0.356 N 
ATOM      4  C   UNL A   1      33.161  26.406  22.484  1.00  0.00     0.225 C 
ATOM      5  O   UNL A   1      33.650  25.751  21.550  1.00  0.00    -0.275 OA
ATOM      6  H   UNL A   1      33.303  27.976  21.330  1.00  0.00     0.163 HD
BRANCH   4   7
ATOM      7  C   UNL A   1      32.849  25.661  23.779  1.00  0.00     0.108 C 
ATOM      8  C   UNL A   1      33.217  24.149  23.859  1.00  0.00     0.105 C 
ATOM      9  C   UNL A   1      31.915  23.586  24.439  1.00  0.00     0.035 C 
ATOM     10  C   UNL A   1      31.400  25.735  24.350  1.00  0.00     0.026 C 
ATOM     11  C   UNL A   1      30.751  23.705  23.502  1.00  0.00    -0.025 C 
ATOM     12  C   UNL A   1      31.509  24.671  25.446  1.00  0.00     0.018 C 
ATOM     13  C   UNL A   1      30.390  24.992  23.524  1.00  0.00    -0.027 C 
BRANCH   8  14
ATOM     14  N   UNL A   1      34.430  23.909  24.691  1.00  0.00    -0.317 N 
ATOM     15  O   UNL A   1      36.259  22.948  25.596  1.00  0.00    -0.225 OA
ATOM     16  C   UNL A   1      35.264  22.839  24.888  1.00  0.00     0.407 C 
ATOM     17  H   UNL A   1      34.691  24.699  25.218  1.00  0.00     0.167 HD
BRANCH  16  18
ATOM     18  O   UNL A   1      34.827  21.642  24.453  1.00  0.00    -0.445 OA
BRANCH  18  19
ATOM     19  C   UNL A   1      34.944  20.458  25.287  1.00  0.00     0.270 C 
BRANCH  19  20
ATOM     20  C   UNL A   1      34.003  19.450  24.625  1.00  0.00    -0.011 A 
ATOM     21  C   UNL A   1      32.830  19.929  24.015  1.00  0.00     0.007 A 
ATOM     22  C   UNL A   1      34.399  18.125  24.370  1.00  0.00     0.007 A 
ATOM     23  C   UNL A   1      32.156  19.166  23.063  1.00  0.00     0.000 A 
ATOM     24  C   UNL A   1      33.719  17.363  23.410  1.00  0.00     0.000 A 
ATOM     25  C   UNL A   1      32.619  17.894  22.737  1.00  0.00     0.000 A 
ENDBRANCH  19  20
ENDBRANCH  18  19
ENDBRANCH  16  18
ENDBRANCH   8  14
ENDBRANCH   4   7
ENDBRANCH   2   3
ENDBRANCH   1   2
BRANCH   1  26
ATOM     26  C   UNL A   1      32.338  29.702  25.385  1.00  0.00     0.023 C 
BRANCH  26  27
ATOM     27  C   UNL A   1      33.165  29.943  26.635  1.00  0.00     0.116 C 
BRANCH  27  28
ATOM     28  N   UNL A   1      33.039  31.277  27.212  1.00  0.00    -0.352 N 
ATOM     29  C   UNL A   1      34.025  31.972  27.896  1.00  0.00     0.251 C 
ATOM     30  H   UNL A   1      32.170  31.728  27.105  1.00  0.00     0.163 HD
ATOM     31  O   UNL A   1      33.818  33.066  28.381  1.00  0.00    -0.269 OA
BRANCH  29  32
ATOM     32  C   UNL A   1      35.324  31.280  28.060  1.00  0.00     0.039 A 
ATOM     33  C   UNL A   1      36.490  32.042  28.147  1.00  0.00     0.014 A 
ATOM     34  C   UNL A   1      35.330  29.918  28.366  1.00  0.00     0.014 A 
ATOM     35  C   UNL A   1      37.652  31.451  28.649  1.00  0.00     0.010 A 
ATOM     36  C   UNL A   1      36.454  29.367  28.963  1.00  0.00     0.010 A 
ATOM     37  C   UNL A   1      37.627  30.128  29.118  1.00  0.00    -0.014 A 
BRANCH  37  38
ATOM     38  C   UNL A   1      38.810  29.493  29.756  1.00  0.00     0.031 A 
ATOM     39  C   UNL A   1      39.251  29.968  31.113  1.00  0.00     0.074 A 
ATOM     40  C   UNL A   1      39.536  28.571  29.091  1.00  0.00     0.049 A 
ATOM     41  N   UNL A   1      40.329  29.671  31.789  1.00  0.00    -0.248 NA
ATOM     42  C   UNL A   1      38.380  30.954  31.770  1.00  0.00     0.031 C 
ATOM     43  C   UNL A   1      39.238  28.055  27.754  1.00  0.00     0.029 A 
ATOM     44  N   UNL A   1      40.683  27.908  29.451  1.00  0.00    -0.354 N 
ATOM     45  C   UNL A   1      40.277  30.453  32.938  1.00  0.00     0.074 A 
ATOM     46  C   UNL A   1      39.110  31.300  32.816  1.00  0.00     0.031 C 
ATOM     47  C   UNL A   1      40.156  27.130  27.424  1.00  0.00     0.029 A 
ATOM     48  C   UNL A   1      41.135  27.022  28.502  1.00  0.00     0.049 A 
ATOM     49  H   UNL A   1      41.141  28.054  30.311  1.00  0.00     0.167 HD
ATOM     50  C   UNL A   1      41.101  30.441  34.015  1.00  0.00     0.034 A 
ATOM     51  C   UNL A   1      42.219  26.219  28.499  1.00  0.00     0.034 A 
ATOM     52  C   UNL A   1      42.245  29.572  34.132  1.00  0.00     0.049 A 
ATOM     53  C   UNL A   1      43.143  26.239  29.691  1.00  0.00     0.074 A 
ATOM     54  C   UNL A   1      43.128  29.441  35.188  1.00  0.00     0.029 A 
ATOM     55  N   UNL A   1      42.664  28.681  33.150  1.00  0.00    -0.354 N 
ATOM     56  N   UNL A   1      43.065  26.961  30.786  1.00  0.00    -0.248 NA
ATOM     57  C   UNL A   1      44.298  25.332  29.651  1.00  0.00     0.031 C 
ATOM     58  C   UNL A   1      44.111  28.513  34.825  1.00  0.00     0.029 A 
ATOM     59  C   UNL A   1      43.804  28.012  33.570  1.00  0.00     0.049 A 
ATOM     60  H   UNL A   1      42.218  28.545  32.284  1.00  0.00     0.167 HD
ATOM     61  C   UNL A   1      44.135  26.561  31.581  1.00  0.00     0.074 A 
ATOM     62  C   UNL A   1      44.844  25.538  30.840  1.00  0.00     0.031 C 
ATOM     63  C   UNL A   1      44.493  26.991  32.817  1.00  0.00     0.034 A 
BRANCH  50  64
ATOM     64  C   UNL A   1      40.785  31.412  35.128  1.00  0.00     0.023 A 
ATOM     65  C   UNL A   1      39.757  31.156  36.053  1.00  0.00     0.031 A 
ATOM     66  C   UNL A   1      41.456  32.644  35.219  1.00  0.00     0.131 A 
ATOM     67  C   UNL A   1      39.348  32.159  36.943  1.00  0.00     0.055 A 
ATOM     68  C   UNL A   1      41.113  33.598  36.179  1.00  0.00     0.041 A 
ATOM     69  F   UNL A   1      42.433  32.957  34.353  1.00  0.00    -0.206 F 
ATOM     70  C   UNL A   1      40.037  33.370  37.033  1.00  0.00     0.022 A 
BRANCH  67  71
ATOM     71  S   UNL A   1      37.783  31.932  37.832  1.00  0.00     0.124 S 
ATOM     72  O   UNL A   1      37.403  30.584  37.417  1.00  0.00    -0.237 OA
ATOM     73  O   UNL A   1      38.185  32.083  39.225  1.00  0.00    -0.237 OA
ATOM     74  O   UNL A   1      36.933  32.999  37.307  1.00  0.00    -0.744 OA
ENDBRANCH  67  71
ENDBRANCH  50  64
BRANCH  51  75
ATOM     75  C   UNL A   1      42.493  25.316  27.344  1.00  0.00     0.023 A 
ATOM     76  C   UNL A   1      41.992  24.003  27.328  1.00  0.00     0.031 A 
ATOM     77  C   UNL A   1      43.289  25.731  26.263  1.00  0.00     0.131 A 
ATOM     78  C   UNL A   1      42.327  23.138  26.274  1.00  0.00     0.055 A 
ATOM     79  C   UNL A   1      43.580  24.881  25.193  1.00  0.00     0.041 A 
ATOM     80  F   UNL A   1      43.787  26.977  26.226  1.00  0.00    -0.206 F 
ATOM     81  C   UNL A   1      43.108  23.572  25.201  1.00  0.00     0.022 A 
BRANCH  78  82
ATOM     82  S   UNL A   1      41.782  21.410  26.365  1.00  0.00     0.124 S 
ATOM     83  O   UNL A   1      42.662  20.771  25.394  1.00  0.00    -0.237 OA
ATOM     84  O   UNL A   1      42.028  21.089  27.766  1.00  0.00    -0.237 OA
ATOM     85  O   UNL A   1      40.373  21.479  25.982  1.00  0.00    -0.744 OA
ENDBRANCH  78  82
ENDBRANCH  51  75
BRANCH  63  86
ATOM     86  C   UNL A   1      45.664  26.305  33.474  1.00  0.00     0.023 A 
ATOM     87  C   UNL A   1      45.513  25.120  34.214  1.00  0.00     0.031 A 
ATOM     88  C   UNL A   1      46.956  26.846  33.341  1.00  0.00     0.131 A 
ATOM     89  C   UNL A   1      46.632  24.536  34.829  1.00  0.00     0.055 A 
ATOM     90  C   UNL A   1      48.071  26.233  33.911  1.00  0.00     0.041 A 
ATOM     91  F   UNL A   1      47.153  27.977  32.645  1.00  0.00    -0.206 F 
ATOM     92  C   UNL A   1      47.912  25.077  34.668  1.00  0.00     0.022 A 
BRANCH  89  93
ATOM     93  S   UNL A   1      46.386  23.093  35.900  1.00  0.00     0.124 S 
ATOM     94  O   UNL A   1      44.944  23.122  36.122  1.00  0.00    -0.237 OA
ATOM     95  O   UNL A   1      46.881  21.999  35.070  1.00  0.00    -0.237 OA
ATOM     96  O   UNL A   1      47.202  23.395  37.076  1.00  0.00    -0.744 OA
ENDBRANCH  89  93
ENDBRANCH  63  86
ENDBRANCH  37  38
ENDBRANCH  29  32
ENDBRANCH  27  28
ENDBRANCH  26  27
ENDBRANCH   1  26
TORSDOF 18
ENDMDL
MODEL 3
REMARK VINA RESULT:     -12.1      2.059      8.006
REMARK SMILES O=C(N[C@@H]1[C@@H](C(=O)NCCCCNC(=O)c2ccc(-c3c4nc(c(-c5cc(S(=O)(=O)[O-])ccc5F)c5ccc([nH]5)c(-c5cc(S(=O)(=O)[O-])ccc5F)c5nc(c(-c6cc(S(=O)(=O)[O-])ccc6F)c6ccc3[nH]6)C=C5)C=C4)cc2)[C@H]2C=C[C@@H]1C2)OCc1ccccc1
REMARK SMILES IDX 10 1 9 2 8 3 6 4 7 5 5 7 4 8 82 9 79 10 81 11 83 12 80 13
REMARK SMILES IDX 3 14 1 15 2 16 84 18 85 19 86 20 87 21 91 22 88 23 90 24
REMARK SMILES IDX 89 25 11 26 12 27 13 28 14 29 15 31 16 32 17 33 78 34 18 35
REMARK SMILES IDX 77 36 19 37 20 38 21 39 71 40 22 41 76 42 70 43 72 44 23 45
REMARK SMILES IDX 75 46 69 47 68 48 24 50 56 51 36 52 55 53 37 54 40 55 54 56
REMARK SMILES IDX 73 57 38 58 39 59 53 61 74 62 41 63 25 64 26 65 34 66 27 67
REMARK SMILES IDX 33 68 35 69 32 70 28 71 29 72 30 73 31 74 57 75 58 76 66 77
REMARK SMILES IDX 59 78 65 79 67 80 64 81 60 82 61 83 62 84 63 85 42 86 43 87
REMARK SMILES IDX 51 88 44 89 50 90 52 91 49 92 45 93 46 94 47 95 48 96
REMARK H PARENT 8 6 3 17 13 30 72 49 40 60
REMARK Flexibility Score: inf
ROOT
ATOM      1  C   UNL A   1      34.396  24.198  25.639  1.00  0.00     0.023 C 
ENDROOT
BRANCH   1   2
ATOM      2  C   UNL A   1      33.754  25.584  25.766  1.00  0.00     0.116 C 
BRANCH   2   3
ATOM      3  N   UNL A   1      32.350  25.513  26.144  1.00  0.00    -0.356 N 
ATOM      4  C   UNL A   1      31.332  26.401  26.218  1.00  0.00     0.225 C 
ATOM      5  O   UNL A   1      30.233  25.909  26.516  1.00  0.00    -0.275 OA
ATOM      6  H   UNL A   1      32.078  24.605  26.408  1.00  0.00     0.163 HD
BRANCH   4   7
ATOM      7  C   UNL A   1      31.388  27.905  25.975  1.00  0.00     0.108 C 
ATOM      8  C   UNL A   1      32.186  28.417  24.738  1.00  0.00     0.105 C 
ATOM      9  C   UNL A   1      33.003  29.538  25.389  1.00  0.00     0.035 C 
ATOM     10  C   UNL A   1      31.852  28.832  27.141  1.00  0.00     0.026 C 
ATOM     11  C   UNL A   1      34.007  29.037  26.382  1.00  0.00    -0.025 C 
ATOM     12  C   UNL A   1      31.995  30.148  26.373  1.00  0.00     0.018 C 
ATOM     13  C   UNL A   1      33.311  28.696  27.471  1.00  0.00    -0.027 C 
BRANCH   8  14
ATOM     14  N   UNL A   1      31.288  28.855  23.633  1.00  0.00    -0.317 N 
ATOM     15  O   UNL A   1      29.768  28.841  21.966  1.00  0.00    -0.225 OA
ATOM     16  C   UNL A   1      30.470  28.205  22.744  1.00  0.00     0.407 C 
ATOM     17  H   UNL A   1      31.281  29.832  23.513  1.00  0.00     0.167 HD
BRANCH  16  18
ATOM     18  O   UNL A   1      30.636  26.875  22.629  1.00  0.00    -0.445 OA
BRANCH  18  19
ATOM     19  C   UNL A   1      31.675  26.325  21.776  1.00  0.00     0.270 C 
BRANCH  19  20
ATOM     20  C   UNL A   1      32.039  25.000  22.449  1.00  0.00    -0.011 A 
ATOM     21  C   UNL A   1      31.060  24.351  23.222  1.00  0.00     0.007 A 
ATOM     22  C   UNL A   1      33.202  24.289  22.104  1.00  0.00     0.007 A 
ATOM     23  C   UNL A   1      31.163  22.991  23.511  1.00  0.00     0.000 A 
ATOM     24  C   UNL A   1      33.300  22.922  22.396  1.00  0.00     0.000 A 
ATOM     25  C   UNL A   1      32.269  22.269  23.071  1.00  0.00     0.000 A 
ENDBRANCH  19  20
ENDBRANCH  18  19
ENDBRANCH  16  18
ENDBRANCH   8  14
ENDBRANCH   4   7
ENDBRANCH   2   3
ENDBRANCH   1   2
BRANCH   1  26
ATOM     26  C   UNL A   1      35.804  24.136  25.069  1.00  0.00     0.023 C 
BRANCH  26  27
ATOM     27  C   UNL A   1      36.889  23.949  26.113  1.00  0.00     0.116 C 
BRANCH  27  28
ATOM     28  N   UNL A   1      37.554  22.650  26.088  1.00  0.00    -0.352 N 
ATOM     29  C   UNL A   1      38.893  22.408  26.357  1.00  0.00     0.251 C 
ATOM     30  H   UNL A   1      36.999  21.870  25.858  1.00  0.00     0.163 HD
ATOM     31  O   UNL A   1      39.372  21.296  26.271  1.00  0.00    -0.269 OA
BRANCH  29  32
ATOM     32  C   UNL A   1      39.721  23.590  26.692  1.00  0.00     0.039 A 
ATOM     33  C   UNL A   1      39.958  24.550  25.706  1.00  0.00     0.014 A 
ATOM     34  C   UNL A   1      40.036  23.838  28.029  1.00  0.00     0.014 A 
ATOM     35  C   UNL A   1      40.420  25.812  26.086  1.00  0.00     0.010 A 
ATOM     36  C   UNL A   1      40.389  25.124  28.409  1.00  0.00     0.010 A 
ATOM     37  C   UNL A   1      40.579  26.129  27.444  1.00  0.00    -0.014 A 
BRANCH  37  38
ATOM     38  C   UNL A   1      40.967  27.490  27.898  1.00  0.00     0.031 A 
ATOM     39  C   UNL A   1      42.413  27.897  27.835  1.00  0.00     0.074 A 
ATOM     40  C   UNL A   1      40.053  28.317  28.446  1.00  0.00     0.049 A 
ATOM     41  N   UNL A   1      43.000  28.964  28.310  1.00  0.00    -0.248 NA
ATOM     42  C   UNL A   1      43.329  26.941  27.194  1.00  0.00     0.031 C 
ATOM     43  C   UNL A   1      38.627  28.026  28.604  1.00  0.00     0.029 A 
ATOM     44  N   UNL A   1      40.194  29.573  28.983  1.00  0.00    -0.354 N 
ATOM     45  C   UNL A   1      44.355  28.794  28.047  1.00  0.00     0.074 A 
ATOM     46  C   UNL A   1      44.506  27.481  27.458  1.00  0.00     0.031 C 
ATOM     47  C   UNL A   1      38.019  29.088  29.161  1.00  0.00     0.029 A 
ATOM     48  C   UNL A   1      39.017  30.115  29.447  1.00  0.00     0.049 A 
ATOM     49  H   UNL A   1      41.058  30.043  29.032  1.00  0.00     0.167 HD
ATOM     50  C   UNL A   1      45.376  29.665  28.242  1.00  0.00     0.034 A 
ATOM     51  C   UNL A   1      38.774  31.302  30.040  1.00  0.00     0.034 A 
ATOM     52  C   UNL A   1      45.205  30.979  28.807  1.00  0.00     0.049 A 
ATOM     53  C   UNL A   1      39.925  32.247  30.276  1.00  0.00     0.074 A 
ATOM     54  C   UNL A   1      46.154  31.962  29.015  1.00  0.00     0.029 A 
ATOM     55  N   UNL A   1      43.994  31.494  29.256  1.00  0.00    -0.354 N 
ATOM     56  N   UNL A   1      41.198  32.086  29.995  1.00  0.00    -0.248 NA
ATOM     57  C   UNL A   1      39.607  33.536  30.906  1.00  0.00     0.031 C 
ATOM     58  C   UNL A   1      45.530  33.049  29.639  1.00  0.00     0.029 A 
ATOM     59  C   UNL A   1      44.178  32.774  29.757  1.00  0.00     0.049 A 
ATOM     60  H   UNL A   1      43.132  31.021  29.223  1.00  0.00     0.167 HD
ATOM     61  C   UNL A   1      41.823  33.272  30.373  1.00  0.00     0.074 A 
ATOM     62  C   UNL A   1      40.789  34.135  30.904  1.00  0.00     0.031 C 
ATOM     63  C   UNL A   1      43.131  33.620  30.278  1.00  0.00     0.034 A 
BRANCH  50  64
ATOM     64  C   UNL A   1      46.757  29.195  27.849  1.00  0.00     0.023 A 
ATOM     65  C   UNL A   1      47.088  28.934  26.507  1.00  0.00     0.031 A 
ATOM     66  C   UNL A   1      47.729  28.924  28.827  1.00  0.00     0.131 A 
ATOM     67  C   UNL A   1      48.301  28.308  26.192  1.00  0.00     0.055 A 
ATOM     68  C   UNL A   1      48.979  28.397  28.494  1.00  0.00     0.041 A 
ATOM     69  F   UNL A   1      47.469  29.132  30.127  1.00  0.00    -0.206 F 
ATOM     70  C   UNL A   1      49.263  28.062  27.173  1.00  0.00     0.022 A 
BRANCH  67  71
ATOM     71  S   UNL A   1      48.513  27.638  24.519  1.00  0.00     0.124 S 
ATOM     72  O   UNL A   1      49.852  28.114  24.180  1.00  0.00    -0.237 OA
ATOM     73  O   UNL A   1      48.381  26.202  24.735  1.00  0.00    -0.237 OA
ATOM     74  O   UNL A   1      47.429  28.259  23.761  1.00  0.00    -0.744 OA
ENDBRANCH  67  71
ENDBRANCH  50  64
BRANCH  51  75
ATOM     75  C   UNL A   1      37.389  31.680  30.441  1.00  0.00     0.023 A 
ATOM     76  C   UNL A   1      36.536  32.337  29.538  1.00  0.00     0.031 A 
ATOM     77  C   UNL A   1      36.909  31.432  31.739  1.00  0.00     0.131 A 
ATOM     78  C   UNL A   1      35.265  32.761  29.956  1.00  0.00     0.055 A 
ATOM     79  C   UNL A   1      35.626  31.814  32.136  1.00  0.00     0.041 A 
ATOM     80  F   UNL A   1      37.681  30.802  32.638  1.00  0.00    -0.206 F 
ATOM     81  C   UNL A   1      34.800  32.494  31.246  1.00  0.00     0.022 A 
BRANCH  78  82
ATOM     82  S   UNL A   1      34.254  33.734  28.807  1.00  0.00     0.124 S 
ATOM     83  O   UNL A   1      33.731  32.699  27.923  1.00  0.00    -0.237 OA
ATOM     84  O   UNL A   1      33.291  34.359  29.706  1.00  0.00    -0.237 OA
ATOM     85  O   UNL A   1      35.219  34.648  28.197  1.00  0.00    -0.744 OA
ENDBRANCH  78  82
ENDBRANCH  51  75
BRANCH  63  86
ATOM     86  C   UNL A   1      43.503  35.021  30.695  1.00  0.00     0.023 A 
ATOM     87  C   UNL A   1      43.471  36.099  29.794  1.00  0.00     0.031 A 
ATOM     88  C   UNL A   1      43.883  35.277  32.024  1.00  0.00     0.131 A 
ATOM     89  C   UNL A   1      43.855  37.379  30.225  1.00  0.00     0.055 A 
ATOM     90  C   UNL A   1      44.213  36.560  32.460  1.00  0.00     0.041 A 
ATOM     91  F   UNL A   1      43.930  34.281  32.924  1.00  0.00    -0.206 F 
ATOM     92  C   UNL A   1      44.209  37.618  31.556  1.00  0.00     0.022 A 
BRANCH  89  93
ATOM     93  S   UNL A   1      43.947  38.719  29.007  1.00  0.00     0.124 S 
ATOM     94  O   UNL A   1      42.543  38.918  28.667  1.00  0.00    -0.237 OA
ATOM     95  O   UNL A   1      44.576  39.793  29.770  1.00  0.00    -0.237 OA
ATOM     96  O   UNL A   1      44.772  38.156  27.938  1.00  0.00    -0.744 OA
ENDBRANCH  89  93
ENDBRANCH  63  86
ENDBRANCH  37  38
ENDBRANCH  29  32
ENDBRANCH  27  28
ENDBRANCH  26  27
ENDBRANCH   1  26
TORSDOF 18
ENDMDL
