MODEL 1
REMARK VINA RESULT:     -12.0      0.000      0.000
REMARK SMILES CN1C(=O)[C@H](CC(=O)NCCCCNC(=O)c2ccc(-c3c4nc(c(-c5cc(S(=O)(=O)[O-])ccc5F)c5ccc([nH]5)c(-c5cc(S(=O)(=O)[O-])ccc5F)c5nc(c(-c6cc(S(=O)(=O)[O-])ccc6F)c6ccc3[nH]6)C=C5)C=C4)cc2)S/C1=[NH+]\N=C\c1ccc(O)cc1O
REMARK SMILES IDX 11 1 10 2 9 3 7 4 8 5 6 7 5 8 1 9 2 10 3 11 81 12 4 13 80 14
REMARK SMILES IDX 82 15 83 17 84 18 85 19 86 20 91 21 87 22 90 23 88 24 92 25
REMARK SMILES IDX 89 27 12 29 13 30 14 31 15 32 16 34 17 35 18 36 79 37 19 38
REMARK SMILES IDX 78 39 20 40 21 41 22 42 72 43 23 44 77 45 71 46 73 47 24 48
REMARK SMILES IDX 76 49 70 50 69 51 25 53 57 54 37 55 56 56 38 57 41 58 55 59
REMARK SMILES IDX 74 60 39 61 40 62 54 64 75 65 42 66 26 67 27 68 35 69 28 70
REMARK SMILES IDX 34 71 36 72 33 73 29 74 30 75 31 76 32 77 58 78 59 79 67 80
REMARK SMILES IDX 60 81 66 82 68 83 65 84 61 85 62 86 63 87 64 88 43 89 44 90
REMARK SMILES IDX 52 91 45 92 51 93 53 94 50 95 46 96 47 97 48 98 49 99
REMARK H PARENT 9 6 82 16 92 26 89 28 14 33 73 52 41 63
REMARK Flexibility Score: inf
ROOT
ATOM      1  C   UNL A   1      32.395  28.199  27.408  1.00  0.00     0.023 C 
ENDROOT
BRANCH   1   2
ATOM      2  C   UNL A   1      32.411  27.120  26.323  1.00  0.00     0.116 C 
BRANCH   2   3
ATOM      3  N   UNL A   1      31.131  27.030  25.643  1.00  0.00    -0.356 N 
ATOM      4  C   UNL A   1      30.406  25.933  25.290  1.00  0.00     0.221 C 
ATOM      5  O   UNL A   1      29.347  26.091  24.683  1.00  0.00    -0.275 OA
ATOM      6  H   UNL A   1      30.726  27.894  25.401  1.00  0.00     0.163 HD
BRANCH   4   7
ATOM      7  C   UNL A   1      30.874  24.551  25.682  1.00  0.00     0.127 C 
BRANCH   7   8
ATOM      8  C   UNL A   1      31.291  23.709  24.480  1.00  0.00     0.183 C 
ATOM      9  C   UNL A   1      34.971  24.130  23.856  1.00  0.00     0.301 C 
ATOM     10  N   UNL A   1      33.666  23.590  24.171  1.00  0.00    -0.191 N 
ATOM     11  C   UNL A   1      32.537  24.316  23.873  1.00  0.00     0.324 C 
ATOM     12  C   UNL A   1      33.475  22.337  24.677  1.00  0.00     0.339 C 
ATOM     13  O   UNL A   1      32.532  25.360  23.230  1.00  0.00    -0.245 OA
ATOM     14  S   UNL A   1      31.772  22.020  24.927  1.00  0.00    -0.020 SA
ATOM     15  N   UNL A   1      34.448  21.514  24.918  1.00  0.00    -0.142 N 
ATOM     16  H   UNL A   1      35.397  21.763  24.842  1.00  0.00     0.343 HD
BRANCH  15  17
ATOM     17  N   UNL A   1      34.020  20.249  25.291  1.00  0.00    -0.093 NA
ATOM     18  C   UNL A   1      34.532  19.308  24.568  1.00  0.00     0.170 C 
BRANCH  18  19
ATOM     19  C   UNL A   1      34.166  17.903  24.827  1.00  0.00     0.039 A 
ATOM     20  C   UNL A   1      35.180  16.941  24.812  1.00  0.00     0.017 A 
ATOM     21  C   UNL A   1      32.843  17.520  25.094  1.00  0.00     0.128 A 
ATOM     22  C   UNL A   1      34.867  15.605  25.076  1.00  0.00     0.047 A 
ATOM     23  C   UNL A   1      32.531  16.188  25.347  1.00  0.00     0.093 A 
ATOM     24  C   UNL A   1      33.551  15.241  25.344  1.00  0.00     0.119 A 
BRANCH  21  25
ATOM     25  O   UNL A   1      31.792  18.398  25.119  1.00  0.00    -0.507 OA
ATOM     26  H   UNL A   1      31.083  18.263  25.716  1.00  0.00     0.293 HD
ENDBRANCH  21  25
BRANCH  24  27
ATOM     27  O   UNL A   1      33.294  13.928  25.608  1.00  0.00    -0.508 OA
ATOM     28  H   UNL A   1      32.738  13.695  26.326  1.00  0.00     0.293 HD
ENDBRANCH  24  27
ENDBRANCH  18  19
ENDBRANCH  15  17
ENDBRANCH   7   8
ENDBRANCH   4   7
ENDBRANCH   2   3
ENDBRANCH   1   2
BRANCH   1  29
ATOM     29  C   UNL A   1      31.772  29.523  26.968  1.00  0.00     0.023 C 
BRANCH  29  30
ATOM     30  C   UNL A   1      32.757  30.518  26.370  1.00  0.00     0.116 C 
BRANCH  30  31
ATOM     31  N   UNL A   1      32.478  31.894  26.753  1.00  0.00    -0.352 N 
ATOM     32  C   UNL A   1      33.238  32.712  27.557  1.00  0.00     0.251 C 
ATOM     33  H   UNL A   1      31.649  32.286  26.395  1.00  0.00     0.163 HD
ATOM     34  O   UNL A   1      32.825  33.815  27.896  1.00  0.00    -0.269 OA
BRANCH  32  35
ATOM     35  C   UNL A   1      34.539  32.207  28.039  1.00  0.00     0.039 A 
ATOM     36  C   UNL A   1      35.658  33.042  27.977  1.00  0.00     0.014 A 
ATOM     37  C   UNL A   1      34.622  30.945  28.633  1.00  0.00     0.014 A 
ATOM     38  C   UNL A   1      36.849  32.638  28.585  1.00  0.00     0.010 A 
ATOM     39  C   UNL A   1      35.788  30.576  29.292  1.00  0.00     0.010 A 
ATOM     40  C   UNL A   1      36.909  31.422  29.283  1.00  0.00    -0.014 A 
BRANCH  40  41
ATOM     41  C   UNL A   1      38.130  30.993  30.011  1.00  0.00     0.031 A 
ATOM     42  C   UNL A   1      39.048  29.986  29.377  1.00  0.00     0.074 A 
ATOM     43  C   UNL A   1      38.349  31.419  31.269  1.00  0.00     0.049 A 
ATOM     44  N   UNL A   1      40.051  29.332  29.900  1.00  0.00    -0.248 NA
ATOM     45  C   UNL A   1      38.769  29.645  27.974  1.00  0.00     0.031 C 
ATOM     46  C   UNL A   1      37.513  32.375  31.999  1.00  0.00     0.029 A 
ATOM     47  N   UNL A   1      39.330  31.085  32.169  1.00  0.00    -0.354 N 
ATOM     48  C   UNL A   1      40.506  28.478  28.902  1.00  0.00     0.074 A 
ATOM     49  C   UNL A   1      39.635  28.666  27.760  1.00  0.00     0.031 C 
ATOM     50  C   UNL A   1      38.020  32.552  33.230  1.00  0.00     0.029 A 
ATOM     51  C   UNL A   1      39.184  31.687  33.397  1.00  0.00     0.049 A 
ATOM     52  H   UNL A   1      40.069  30.471  31.955  1.00  0.00     0.167 HD
ATOM     53  C   UNL A   1      41.561  27.627  28.932  1.00  0.00     0.034 A 
ATOM     54  C   UNL A   1      39.891  31.538  34.535  1.00  0.00     0.034 A 
ATOM     55  C   UNL A   1      42.432  27.474  30.071  1.00  0.00     0.049 A 
ATOM     56  C   UNL A   1      41.054  30.578  34.550  1.00  0.00     0.074 A 
ATOM     57  C   UNL A   1      43.561  26.682  30.194  1.00  0.00     0.029 A 
ATOM     58  N   UNL A   1      42.268  28.123  31.287  1.00  0.00    -0.354 N 
ATOM     59  N   UNL A   1      41.488  29.794  33.590  1.00  0.00    -0.248 NA
ATOM     60  C   UNL A   1      41.822  30.484  35.799  1.00  0.00     0.031 C 
ATOM     61  C   UNL A   1      44.050  26.816  31.499  1.00  0.00     0.029 A 
ATOM     62  C   UNL A   1      43.262  27.736  32.172  1.00  0.00     0.049 A 
ATOM     63  H   UNL A   1      41.549  28.765  31.492  1.00  0.00     0.167 HD
ATOM     64  C   UNL A   1      42.601  29.140  34.111  1.00  0.00     0.074 A 
ATOM     65  C   UNL A   1      42.772  29.621  35.466  1.00  0.00     0.031 C 
ATOM     66  C   UNL A   1      43.415  28.230  33.519  1.00  0.00     0.034 A 
BRANCH  53  67
ATOM     67  C   UNL A   1      41.804  26.785  27.704  1.00  0.00     0.023 A 
ATOM     68  C   UNL A   1      41.484  25.417  27.673  1.00  0.00     0.031 A 
ATOM     69  C   UNL A   1      42.405  27.347  26.565  1.00  0.00     0.131 A 
ATOM     70  C   UNL A   1      41.842  24.639  26.562  1.00  0.00     0.055 A 
ATOM     71  C   UNL A   1      42.683  26.585  25.428  1.00  0.00     0.041 A 
ATOM     72  F   UNL A   1      42.753  28.643  26.543  1.00  0.00    -0.206 F 
ATOM     73  C   UNL A   1      42.416  25.218  25.428  1.00  0.00     0.022 A 
BRANCH  70  74
ATOM     74  S   UNL A   1      41.682  22.837  26.682  1.00  0.00     0.124 S 
ATOM     75  O   UNL A   1      40.307  22.695  27.158  1.00  0.00    -0.237 OA
ATOM     76  O   UNL A   1      41.931  22.405  25.312  1.00  0.00    -0.237 OA
ATOM     77  O   UNL A   1      42.711  22.466  27.652  1.00  0.00    -0.744 OA
ENDBRANCH  70  74
ENDBRANCH  53  67
BRANCH  54  78
ATOM     78  C   UNL A   1      39.515  32.295  35.762  1.00  0.00     0.023 A 
ATOM     79  C   UNL A   1      38.681  31.723  36.735  1.00  0.00     0.031 A 
ATOM     80  C   UNL A   1      39.954  33.615  35.962  1.00  0.00     0.131 A 
ATOM     81  C   UNL A   1      38.276  32.481  37.843  1.00  0.00     0.055 A 
ATOM     82  C   UNL A   1      39.585  34.351  37.089  1.00  0.00     0.041 A 
ATOM     83  F   UNL A   1      40.760  34.207  35.065  1.00  0.00    -0.206 F 
ATOM     84  C   UNL A   1      38.731  33.788  38.033  1.00  0.00     0.022 A 
BRANCH  81  85
ATOM     85  S   UNL A   1      37.081  31.759  39.000  1.00  0.00     0.124 S 
ATOM     86  O   UNL A   1      35.940  32.655  38.846  1.00  0.00    -0.237 OA
ATOM     87  O   UNL A   1      36.916  30.412  38.462  1.00  0.00    -0.237 OA
ATOM     88  O   UNL A   1      37.765  31.835  40.288  1.00  0.00    -0.744 OA
ENDBRANCH  81  85
ENDBRANCH  54  78
BRANCH  66  89
ATOM     89  C   UNL A   1      44.598  27.746  34.316  1.00  0.00     0.023 A 
ATOM     90  C   UNL A   1      44.533  26.590  35.111  1.00  0.00     0.031 A 
ATOM     91  C   UNL A   1      45.812  28.454  34.263  1.00  0.00     0.131 A 
ATOM     92  C   UNL A   1      45.657  26.193  35.853  1.00  0.00     0.055 A 
ATOM     93  C   UNL A   1      46.939  28.029  34.966  1.00  0.00     0.041 A 
ATOM     94  F   UNL A   1      45.923  29.564  33.518  1.00  0.00    -0.206 F 
ATOM     95  C   UNL A   1      46.863  26.897  35.774  1.00  0.00     0.022 A 
BRANCH  92  96
ATOM     96  S   UNL A   1      45.510  24.769  36.966  1.00  0.00     0.124 S 
ATOM     97  O   UNL A   1      46.865  24.656  37.495  1.00  0.00    -0.237 OA
ATOM     98  O   UNL A   1      44.493  25.214  37.913  1.00  0.00    -0.237 OA
ATOM     99  O   UNL A   1      45.095  23.682  36.081  1.00  0.00    -0.744 OA
ENDBRANCH  92  96
ENDBRANCH  66  89
ENDBRANCH  40  41
ENDBRANCH  32  35
ENDBRANCH  30  31
ENDBRANCH  29  30
ENDBRANCH   1  29
TORSDOF 19
ENDMDL
MODEL 2
REMARK VINA RESULT:     -11.8      1.726      2.071
REMARK SMILES CN1C(=O)[C@H](CC(=O)NCCCCNC(=O)c2ccc(-c3c4nc(c(-c5cc(S(=O)(=O)[O-])ccc5F)c5ccc([nH]5)c(-c5cc(S(=O)(=O)[O-])ccc5F)c5nc(c(-c6cc(S(=O)(=O)[O-])ccc6F)c6ccc3[nH]6)C=C5)C=C4)cc2)S/C1=[NH+]\N=C\c1ccc(O)cc1O
REMARK SMILES IDX 11 1 10 2 9 3 7 4 8 5 6 7 5 8 1 9 2 10 3 11 81 12 4 13 80 14
REMARK SMILES IDX 82 15 83 17 84 18 85 19 86 20 91 21 87 22 90 23 88 24 92 25
REMARK SMILES IDX 89 27 12 29 13 30 14 31 15 32 16 34 17 35 18 36 79 37 19 38
REMARK SMILES IDX 78 39 20 40 21 41 22 42 72 43 23 44 77 45 71 46 73 47 24 48
REMARK SMILES IDX 76 49 70 50 69 51 25 53 57 54 37 55 56 56 38 57 41 58 55 59
REMARK SMILES IDX 74 60 39 61 40 62 54 64 75 65 42 66 26 67 27 68 35 69 28 70
REMARK SMILES IDX 34 71 36 72 33 73 29 74 30 75 31 76 32 77 58 78 59 79 67 80
REMARK SMILES IDX 60 81 66 82 68 83 65 84 61 85 62 86 63 87 64 88 43 89 44 90
REMARK SMILES IDX 52 91 45 92 51 93 53 94 50 95 46 96 47 97 48 98 49 99
REMARK H PARENT 9 6 82 16 92 26 89 28 14 33 73 52 41 63
REMARK Flexibility Score: inf
ROOT
ATOM      1  C   UNL A   1      32.007  29.225  27.436  1.00  0.00     0.023 C 
ENDROOT
BRANCH   1   2
ATOM      2  C   UNL A   1      32.269  27.913  26.693  1.00  0.00     0.116 C 
BRANCH   2   3
ATOM      3  N   UNL A   1      31.038  27.187  26.444  1.00  0.00    -0.356 N 
ATOM      4  C   UNL A   1      30.840  25.861  26.208  1.00  0.00     0.221 C 
ATOM      5  O   UNL A   1      29.697  25.460  25.988  1.00  0.00    -0.275 OA
ATOM      6  H   UNL A   1      30.221  27.736  26.446  1.00  0.00     0.163 HD
BRANCH   4   7
ATOM      7  C   UNL A   1      31.999  24.895  26.265  1.00  0.00     0.127 C 
BRANCH   7   8
ATOM      8  C   UNL A   1      32.130  24.057  24.997  1.00  0.00     0.183 C 
ATOM      9  C   UNL A   1      35.722  23.968  23.902  1.00  0.00     0.301 C 
ATOM     10  N   UNL A   1      34.401  23.609  24.373  1.00  0.00    -0.191 N 
ATOM     11  C   UNL A   1      33.365  24.503  24.247  1.00  0.00     0.324 C 
ATOM     12  C   UNL A   1      34.090  22.375  24.865  1.00  0.00     0.339 C 
ATOM     13  O   UNL A   1      33.434  25.566  23.637  1.00  0.00    -0.245 OA
ATOM     14  S   UNL A   1      32.406  22.297  25.331  1.00  0.00    -0.020 SA
ATOM     15  N   UNL A   1      34.952  21.410  24.953  1.00  0.00    -0.142 N 
ATOM     16  H   UNL A   1      35.911  21.522  24.759  1.00  0.00     0.343 HD
BRANCH  15  17
ATOM     17  N   UNL A   1      34.391  20.204  25.346  1.00  0.00    -0.093 NA
ATOM     18  C   UNL A   1      34.733  19.216  24.587  1.00  0.00     0.170 C 
BRANCH  18  19
ATOM     19  C   UNL A   1      34.208  17.866  24.861  1.00  0.00     0.039 A 
ATOM     20  C   UNL A   1      35.028  16.767  24.585  1.00  0.00     0.017 A 
ATOM     21  C   UNL A   1      32.925  17.664  25.393  1.00  0.00     0.128 A 
ATOM     22  C   UNL A   1      34.566  15.477  24.856  1.00  0.00     0.047 A 
ATOM     23  C   UNL A   1      32.463  16.377  25.654  1.00  0.00     0.093 A 
ATOM     24  C   UNL A   1      33.293  15.293  25.389  1.00  0.00     0.119 A 
BRANCH  21  25
ATOM     25  O   UNL A   1      32.058  18.684  25.683  1.00  0.00    -0.507 OA
ATOM     26  H   UNL A   1      32.389  19.539  25.873  1.00  0.00     0.293 HD
ENDBRANCH  21  25
BRANCH  24  27
ATOM     27  O   UNL A   1      32.890  14.016  25.648  1.00  0.00    -0.508 OA
ATOM     28  H   UNL A   1      33.513  13.379  25.938  1.00  0.00     0.293 HD
ENDBRANCH  24  27
ENDBRANCH  18  19
ENDBRANCH  15  17
ENDBRANCH   7   8
ENDBRANCH   4   7
ENDBRANCH   2   3
ENDBRANCH   1   2
BRANCH   1  29
ATOM     29  C   UNL A   1      32.310  30.481  26.620  1.00  0.00     0.023 C 
BRANCH  29  30
ATOM     30  C   UNL A   1      33.320  31.423  27.261  1.00  0.00     0.116 C 
BRANCH  30  31
ATOM     31  N   UNL A   1      32.838  32.793  27.356  1.00  0.00    -0.352 N 
ATOM     32  C   UNL A   1      33.278  33.780  28.208  1.00  0.00     0.251 C 
ATOM     33  H   UNL A   1      32.114  33.043  26.738  1.00  0.00     0.163 HD
ATOM     34  O   UNL A   1      32.702  34.861  28.264  1.00  0.00    -0.269 OA
BRANCH  32  35
ATOM     35  C   UNL A   1      34.429  33.487  29.084  1.00  0.00     0.039 A 
ATOM     36  C   UNL A   1      34.262  32.605  30.155  1.00  0.00     0.014 A 
ATOM     37  C   UNL A   1      35.687  34.016  28.785  1.00  0.00     0.014 A 
ATOM     38  C   UNL A   1      35.380  32.190  30.882  1.00  0.00     0.010 A 
ATOM     39  C   UNL A   1      36.804  33.552  29.469  1.00  0.00     0.010 A 
ATOM     40  C   UNL A   1      36.662  32.628  30.517  1.00  0.00    -0.014 A 
BRANCH  40  41
ATOM     41  C   UNL A   1      37.884  32.149  31.212  1.00  0.00     0.031 A 
ATOM     42  C   UNL A   1      38.699  31.048  30.594  1.00  0.00     0.074 A 
ATOM     43  C   UNL A   1      38.193  32.622  32.435  1.00  0.00     0.049 A 
ATOM     44  N   UNL A   1      39.678  30.352  31.107  1.00  0.00    -0.248 NA
ATOM     45  C   UNL A   1      38.329  30.657  29.225  1.00  0.00     0.031 C 
ATOM     46  C   UNL A   1      37.461  33.671  33.149  1.00  0.00     0.029 A 
ATOM     47  N   UNL A   1      39.191  32.264  33.307  1.00  0.00    -0.354 N 
ATOM     48  C   UNL A   1      40.025  29.417  30.137  1.00  0.00     0.074 A 
ATOM     49  C   UNL A   1      39.115  29.609  29.027  1.00  0.00     0.031 C 
ATOM     50  C   UNL A   1      38.037  33.873  34.345  1.00  0.00     0.029 A 
ATOM     51  C   UNL A   1      39.145  32.937  34.506  1.00  0.00     0.049 A 
ATOM     52  H   UNL A   1      39.874  31.589  33.094  1.00  0.00     0.167 HD
ATOM     53  C   UNL A   1      41.018  28.496  30.166  1.00  0.00     0.034 A 
ATOM     54  C   UNL A   1      39.894  32.795  35.618  1.00  0.00     0.034 A 
ATOM     55  C   UNL A   1      41.930  28.338  31.272  1.00  0.00     0.049 A 
ATOM     56  C   UNL A   1      40.987  31.756  35.634  1.00  0.00     0.074 A 
ATOM     57  C   UNL A   1      43.006  27.475  31.387  1.00  0.00     0.029 A 
ATOM     58  N   UNL A   1      41.870  29.058  32.457  1.00  0.00    -0.354 N 
ATOM     59  N   UNL A   1      41.319  30.895  34.699  1.00  0.00    -0.248 NA
ATOM     60  C   UNL A   1      41.806  31.671  36.850  1.00  0.00     0.031 C 
ATOM     61  C   UNL A   1      43.564  27.639  32.660  1.00  0.00     0.029 A 
ATOM     62  C   UNL A   1      42.876  28.647  33.317  1.00  0.00     0.049 A 
ATOM     63  H   UNL A   1      41.208  29.760  32.659  1.00  0.00     0.167 HD
ATOM     64  C   UNL A   1      42.408  30.191  35.204  1.00  0.00     0.074 A 
ATOM     65  C   UNL A   1      42.676  30.726  36.523  1.00  0.00     0.031 C 
ATOM     66  C   UNL A   1      43.128  29.195  34.627  1.00  0.00     0.034 A 
BRANCH  53  67
ATOM     67  C   UNL A   1      41.143  27.577  28.976  1.00  0.00     0.023 A 
ATOM     68  C   UNL A   1      42.135  27.768  27.998  1.00  0.00     0.031 A 
ATOM     69  C   UNL A   1      40.232  26.523  28.792  1.00  0.00     0.131 A 
ATOM     70  C   UNL A   1      42.140  26.974  26.842  1.00  0.00     0.055 A 
ATOM     71  C   UNL A   1      40.294  25.682  27.679  1.00  0.00     0.041 A 
ATOM     72  F   UNL A   1      39.250  26.305  29.681  1.00  0.00    -0.206 F 
ATOM     73  C   UNL A   1      41.242  25.915  26.687  1.00  0.00     0.022 A 
BRANCH  70  74
ATOM     74  S   UNL A   1      43.240  27.442  25.479  1.00  0.00     0.124 S 
ATOM     75  O   UNL A   1      42.323  28.158  24.594  1.00  0.00    -0.237 OA
ATOM     76  O   UNL A   1      44.246  28.256  26.150  1.00  0.00    -0.237 OA
ATOM     77  O   UNL A   1      43.715  26.158  24.966  1.00  0.00    -0.744 OA
ENDBRANCH  70  74
ENDBRANCH  53  67
BRANCH  54  78
ATOM     78  C   UNL A   1      39.631  33.638  36.818  1.00  0.00     0.023 A 
ATOM     79  C   UNL A   1      39.022  33.097  37.960  1.00  0.00     0.031 A 
ATOM     80  C   UNL A   1      39.951  35.007  36.826  1.00  0.00     0.131 A 
ATOM     81  C   UNL A   1      38.711  33.926  39.048  1.00  0.00     0.055 A 
ATOM     82  C   UNL A   1      39.682  35.820  37.928  1.00  0.00     0.041 A 
ATOM     83  F   UNL A   1      40.542  35.573  35.761  1.00  0.00    -0.206 F 
ATOM     84  C   UNL A   1      39.047  35.283  39.044  1.00  0.00     0.022 A 
BRANCH  81  85
ATOM     85  S   UNL A   1      37.792  33.222  40.443  1.00  0.00     0.124 S 
ATOM     86  O   UNL A   1      37.470  34.415  41.220  1.00  0.00    -0.237 OA
ATOM     87  O   UNL A   1      36.671  32.574  39.770  1.00  0.00    -0.237 OA
ATOM     88  O   UNL A   1      38.755  32.315  41.062  1.00  0.00    -0.744 OA
ENDBRANCH  81  85
ENDBRANCH  54  78
BRANCH  66  89
ATOM     89  C   UNL A   1      44.311  28.669  35.396  1.00  0.00     0.023 A 
ATOM     90  C   UNL A   1      44.175  27.668  36.372  1.00  0.00     0.031 A 
ATOM     91  C   UNL A   1      45.596  29.175  35.132  1.00  0.00     0.131 A 
ATOM     92  C   UNL A   1      45.306  27.227  37.077  1.00  0.00     0.055 A 
ATOM     93  C   UNL A   1      46.722  28.700  35.803  1.00  0.00     0.041 A 
ATOM     94  F   UNL A   1      45.777  30.132  34.209  1.00  0.00    -0.206 F 
ATOM     95  C   UNL A   1      46.580  27.726  36.788  1.00  0.00     0.022 A 
BRANCH  92  96
ATOM     96  S   UNL A   1      45.086  26.024  38.416  1.00  0.00     0.124 S 
ATOM     97  O   UNL A   1      46.432  25.938  38.971  1.00  0.00    -0.237 OA
ATOM     98  O   UNL A   1      44.089  26.673  39.261  1.00  0.00    -0.237 OA
ATOM     99  O   UNL A   1      44.621  24.822  37.725  1.00  0.00    -0.744 OA
ENDBRANCH  92  96
ENDBRANCH  66  89
ENDBRANCH  40  41
ENDBRANCH  32  35
ENDBRANCH  30  31
ENDBRANCH  29  30
ENDBRANCH   1  29
TORSDOF 19
ENDMDL
MODEL 3
REMARK VINA RESULT:     -11.7      6.613     15.188
REMARK SMILES CN1C(=O)[C@H](CC(=O)NCCCCNC(=O)c2ccc(-c3c4nc(c(-c5cc(S(=O)(=O)[O-])ccc5F)c5ccc([nH]5)c(-c5cc(S(=O)(=O)[O-])ccc5F)c5nc(c(-c6cc(S(=O)(=O)[O-])ccc6F)c6ccc3[nH]6)C=C5)C=C4)cc2)S/C1=[NH+]\N=C\c1ccc(O)cc1O
REMARK SMILES IDX 11 1 10 2 9 3 7 4 8 5 6 7 5 8 1 9 2 10 3 11 81 12 4 13 80 14
REMARK SMILES IDX 82 15 83 17 84 18 85 19 86 20 91 21 87 22 90 23 88 24 92 25
REMARK SMILES IDX 89 27 12 29 13 30 14 31 15 32 16 34 17 35 18 36 79 37 19 38
REMARK SMILES IDX 78 39 20 40 21 41 22 42 72 43 23 44 77 45 71 46 73 47 24 48
REMARK SMILES IDX 76 49 70 50 69 51 25 53 57 54 37 55 56 56 38 57 41 58 55 59
REMARK SMILES IDX 74 60 39 61 40 62 54 64 75 65 42 66 26 67 27 68 35 69 28 70
REMARK SMILES IDX 34 71 36 72 33 73 29 74 30 75 31 76 32 77 58 78 59 79 67 80
REMARK SMILES IDX 60 81 66 82 68 83 65 84 61 85 62 86 63 87 64 88 43 89 44 90
REMARK SMILES IDX 52 91 45 92 51 93 53 94 50 95 46 96 47 97 48 98 49 99
REMARK H PARENT 9 6 82 16 92 26 89 28 14 33 73 52 41 63
REMARK Flexibility Score: inf
ROOT
ATOM      1  C   UNL A   1      45.998  22.039  36.300  1.00  0.00     0.023 C 
ENDROOT
BRANCH   1   2
ATOM      2  C   UNL A   1      45.899  20.573  36.730  1.00  0.00     0.116 C 
BRANCH   2   3
ATOM      3  N   UNL A   1      47.122  20.121  37.366  1.00  0.00    -0.356 N 
ATOM      4  C   UNL A   1      47.304  19.204  38.356  1.00  0.00     0.221 C 
ATOM      5  O   UNL A   1      48.443  18.996  38.772  1.00  0.00    -0.275 OA
ATOM      6  H   UNL A   1      47.947  20.541  37.030  1.00  0.00     0.163 HD
BRANCH   4   7
ATOM      7  C   UNL A   1      46.129  18.423  38.896  1.00  0.00     0.127 C 
BRANCH   7   8
ATOM      8  C   UNL A   1      46.367  17.908  40.312  1.00  0.00     0.183 C 
ATOM      9  C   UNL A   1      44.233  19.827  42.734  1.00  0.00     0.301 C 
ATOM     10  N   UNL A   1      44.824  18.784  41.924  1.00  0.00    -0.191 N 
ATOM     11  C   UNL A   1      46.024  19.008  41.292  1.00  0.00     0.324 C 
ATOM     12  C   UNL A   1      44.298  17.529  41.816  1.00  0.00     0.339 C 
ATOM     13  O   UNL A   1      46.723  20.002  41.460  1.00  0.00    -0.245 OA
ATOM     14  S   UNL A   1      45.277  16.533  40.762  1.00  0.00    -0.020 SA
ATOM     15  N   UNL A   1      43.220  17.158  42.434  1.00  0.00    -0.142 N 
ATOM     16  H   UNL A   1      42.653  17.775  42.950  1.00  0.00     0.343 HD
BRANCH  15  17
ATOM     17  N   UNL A   1      42.945  15.805  42.298  1.00  0.00    -0.093 NA
ATOM     18  C   UNL A   1      42.937  15.174  43.426  1.00  0.00     0.170 C 
BRANCH  18  19
ATOM     19  C   UNL A   1      42.676  13.724  43.452  1.00  0.00     0.039 A 
ATOM     20  C   UNL A   1      43.409  12.935  44.343  1.00  0.00     0.017 A 
ATOM     21  C   UNL A   1      41.716  13.129  42.619  1.00  0.00     0.128 A 
ATOM     22  C   UNL A   1      43.167  11.560  44.406  1.00  0.00     0.047 A 
ATOM     23  C   UNL A   1      41.483  11.759  42.676  1.00  0.00     0.093 A 
ATOM     24  C   UNL A   1      42.208  10.985  43.577  1.00  0.00     0.119 A 
BRANCH  21  25
ATOM     25  O   UNL A   1      40.963  13.829  41.714  1.00  0.00    -0.507 OA
ATOM     26  H   UNL A   1      41.118  13.725  40.796  1.00  0.00     0.293 HD
ENDBRANCH  21  25
BRANCH  24  27
ATOM     27  O   UNL A   1      41.998   9.642  43.682  1.00  0.00    -0.508 OA
ATOM     28  H   UNL A   1      41.787   9.265  44.514  1.00  0.00     0.293 HD
ENDBRANCH  24  27
ENDBRANCH  18  19
ENDBRANCH  15  17
ENDBRANCH   7   8
ENDBRANCH   4   7
ENDBRANCH   2   3
ENDBRANCH   1   2
BRANCH   1  29
ATOM     29  C   UNL A   1      47.429  22.541  36.107  1.00  0.00     0.023 C 
BRANCH  29  30
ATOM     30  C   UNL A   1      47.534  23.996  35.672  1.00  0.00     0.116 C 
BRANCH  30  31
ATOM     31  N   UNL A   1      47.657  24.917  36.793  1.00  0.00    -0.352 N 
ATOM     32  C   UNL A   1      47.030  26.131  36.954  1.00  0.00     0.251 C 
ATOM     33  H   UNL A   1      48.258  24.638  37.521  1.00  0.00     0.163 HD
ATOM     34  O   UNL A   1      47.316  26.862  37.896  1.00  0.00    -0.269 OA
BRANCH  32  35
ATOM     35  C   UNL A   1      46.043  26.549  35.940  1.00  0.00     0.039 A 
ATOM     36  C   UNL A   1      44.780  25.954  35.934  1.00  0.00     0.014 A 
ATOM     37  C   UNL A   1      46.344  27.594  35.062  1.00  0.00     0.014 A 
ATOM     38  C   UNL A   1      43.786  26.461  35.094  1.00  0.00     0.010 A 
ATOM     39  C   UNL A   1      45.336  28.138  34.276  1.00  0.00     0.010 A 
ATOM     40  C   UNL A   1      44.045  27.583  34.291  1.00  0.00    -0.014 A 
BRANCH  40  41
ATOM     41  C   UNL A   1      42.995  28.204  33.444  1.00  0.00     0.031 A 
ATOM     42  C   UNL A   1      42.009  29.149  34.070  1.00  0.00     0.074 A 
ATOM     43  C   UNL A   1      42.865  27.836  32.155  1.00  0.00     0.049 A 
ATOM     44  N   UNL A   1      40.909  29.649  33.573  1.00  0.00    -0.248 NA
ATOM     45  C   UNL A   1      42.284  29.550  35.458  1.00  0.00     0.031 C 
ATOM     46  C   UNL A   1      43.745  26.905  31.444  1.00  0.00     0.029 A 
ATOM     47  N   UNL A   1      41.923  28.181  31.217  1.00  0.00    -0.354 N 
ATOM     48  C   UNL A   1      40.342  30.402  34.596  1.00  0.00     0.074 A 
ATOM     49  C   UNL A   1      41.198  30.248  35.753  1.00  0.00     0.031 C 
ATOM     50  C   UNL A   1      43.305  26.758  30.184  1.00  0.00     0.029 A 
ATOM     51  C   UNL A   1      42.085  27.541  30.010  1.00  0.00     0.049 A 
ATOM     52  H   UNL A   1      41.201  28.825  31.393  1.00  0.00     0.167 HD
ATOM     53  C   UNL A   1      39.218  31.160  34.566  1.00  0.00     0.034 A 
ATOM     54  C   UNL A   1      41.321  27.562  28.900  1.00  0.00     0.034 A 
ATOM     55  C   UNL A   1      38.393  31.320  33.394  1.00  0.00     0.049 A 
ATOM     56  C   UNL A   1      40.070  28.404  28.891  1.00  0.00     0.074 A 
ATOM     57  C   UNL A   1      37.264  32.106  33.234  1.00  0.00     0.029 A 
ATOM     58  N   UNL A   1      38.606  30.679  32.181  1.00  0.00    -0.354 N 
ATOM     59  N   UNL A   1      39.558  29.130  29.858  1.00  0.00    -0.248 NA
ATOM     60  C   UNL A   1      39.295  28.431  27.643  1.00  0.00     0.031 C 
ATOM     61  C   UNL A   1      36.767  31.900  31.942  1.00  0.00     0.029 A 
ATOM     62  C   UNL A   1      37.620  31.034  31.275  1.00  0.00     0.049 A 
ATOM     63  H   UNL A   1      39.349  30.060  31.992  1.00  0.00     0.167 HD
ATOM     64  C   UNL A   1      38.421  29.725  29.322  1.00  0.00     0.074 A 
ATOM     65  C   UNL A   1      38.321  29.276  27.949  1.00  0.00     0.031 C 
ATOM     66  C   UNL A   1      37.540  30.576  29.909  1.00  0.00     0.034 A 
BRANCH  53  67
ATOM     67  C   UNL A   1      38.814  31.846  35.847  1.00  0.00     0.023 A 
ATOM     68  C   UNL A   1      38.160  31.152  36.880  1.00  0.00     0.031 A 
ATOM     69  C   UNL A   1      39.045  33.221  36.021  1.00  0.00     0.131 A 
ATOM     70  C   UNL A   1      37.685  31.849  38.001  1.00  0.00     0.055 A 
ATOM     71  C   UNL A   1      38.644  33.894  37.177  1.00  0.00     0.041 A 
ATOM     72  F   UNL A   1      39.646  33.941  35.061  1.00  0.00    -0.206 F 
ATOM     73  C   UNL A   1      37.945  33.211  38.169  1.00  0.00     0.022 A 
BRANCH  70  74
ATOM     74  S   UNL A   1      36.595  30.980  39.160  1.00  0.00     0.124 S 
ATOM     75  O   UNL A   1      35.475  31.914  39.266  1.00  0.00    -0.237 OA
ATOM     76  O   UNL A   1      36.321  29.731  38.459  1.00  0.00    -0.237 OA
ATOM     77  O   UNL A   1      37.409  30.855  40.367  1.00  0.00    -0.744 OA
ENDBRANCH  70  74
ENDBRANCH  53  67
BRANCH  54  78
ATOM     78  C   UNL A   1      41.698  26.750  27.708  1.00  0.00     0.023 A 
ATOM     79  C   UNL A   1      41.392  25.382  27.642  1.00  0.00     0.031 A 
ATOM     80  C   UNL A   1      42.403  27.322  26.635  1.00  0.00     0.131 A 
ATOM     81  C   UNL A   1      41.827  24.620  26.547  1.00  0.00     0.055 A 
ATOM     82  C   UNL A   1      42.794  26.570  25.526  1.00  0.00     0.041 A 
ATOM     83  F   UNL A   1      42.714  28.629  26.646  1.00  0.00    -0.206 F 
ATOM     84  C   UNL A   1      42.516  25.207  25.483  1.00  0.00     0.022 A 
BRANCH  81  85
ATOM     85  S   UNL A   1      41.542  22.829  26.568  1.00  0.00     0.124 S 
ATOM     86  O   UNL A   1      42.155  22.446  27.835  1.00  0.00    -0.237 OA
ATOM     87  O   UNL A   1      40.086  22.754  26.510  1.00  0.00    -0.237 OA
ATOM     88  O   UNL A   1      42.237  22.361  25.371  1.00  0.00    -0.744 OA
ENDBRANCH  81  85
ENDBRANCH  54  78
BRANCH  66  89
ATOM     89  C   UNL A   1      36.433  31.121  29.046  1.00  0.00     0.023 A 
ATOM     90  C   UNL A   1      35.409  30.300  28.548  1.00  0.00     0.031 A 
ATOM     91  C   UNL A   1      36.403  32.492  28.732  1.00  0.00     0.131 A 
ATOM     92  C   UNL A   1      34.411  30.852  27.729  1.00  0.00     0.055 A 
ATOM     93  C   UNL A   1      35.384  33.043  27.956  1.00  0.00     0.041 A 
ATOM     94  F   UNL A   1      37.359  33.317  29.185  1.00  0.00    -0.206 F 
ATOM     95  C   UNL A   1      34.384  32.221  27.443  1.00  0.00     0.022 A 
BRANCH  92  96
ATOM     96  S   UNL A   1      33.171  29.749  26.998  1.00  0.00     0.124 S 
ATOM     97  O   UNL A   1      31.948  30.531  27.140  1.00  0.00    -0.237 OA
ATOM     98  O   UNL A   1      33.665  29.580  25.636  1.00  0.00    -0.237 OA
ATOM     99  O   UNL A   1      33.242  28.551  27.833  1.00  0.00    -0.744 OA
ENDBRANCH  92  96
ENDBRANCH  66  89
ENDBRANCH  40  41
ENDBRANCH  32  35
ENDBRANCH  30  31
ENDBRANCH  29  30
ENDBRANCH   1  29
TORSDOF 19
ENDMDL
