MODEL 1
REMARK VINA RESULT:     -12.1      0.000      0.000
REMARK SMILES CC1(C)CCSC[C@@]1(Nc1ccccc1Br)C(=O)NCCCCNC(=O)c1ccc(-c2c3nc(c(-c4cc(S(=O)(=O)[O-])ccc4F)c4ccc([nH]4)c(-c4cc(S(=O)(=O)[O-])ccc4F)c4nc(c(-c5cc(S(=O)(=O)[O-])ccc5F)c5ccc2[nH]5)C=C4)C=C3)cc1
REMARK SMILES IDX 22 1 21 2 20 3 19 4 17 5 18 6 8 8 1 9 2 10 3 11 4 12 5 13
REMARK SMILES IDX 7 14 6 15 9 16 10 18 11 19 15 20 12 21 14 22 16 23 13 24
REMARK SMILES IDX 23 25 24 26 25 27 26 29 27 30 28 31 89 32 29 33 88 34 30 35
REMARK SMILES IDX 31 36 32 37 82 38 33 39 87 40 81 41 83 42 34 43 86 44 80 45
REMARK SMILES IDX 79 46 35 48 67 49 47 50 66 51 48 52 51 53 65 54 84 55 49 56
REMARK SMILES IDX 50 57 64 59 85 60 52 61 36 62 37 63 45 64 38 65 44 66 46 67
REMARK SMILES IDX 43 68 39 69 40 70 41 71 42 72 68 73 69 74 77 75 70 76 76 77
REMARK SMILES IDX 78 78 75 79 71 80 72 81 73 82 74 83 53 84 54 85 62 86 55 87
REMARK SMILES IDX 61 88 63 89 60 90 56 91 57 92 58 93 59 94
REMARK H PARENT 19 7 9 17 24 28 83 47 51 58
REMARK Flexibility Score: inf
ROOT
ATOM      1  C   UNL A   1      36.075  21.611  24.350  1.00  0.00     0.023 C 
ENDROOT
BRANCH   1   2
ATOM      2  C   UNL A   1      36.316  22.936  23.625  1.00  0.00     0.023 C 
BRANCH   2   3
ATOM      3  C   UNL A   1      35.101  23.843  23.473  1.00  0.00     0.116 C 
BRANCH   3   4
ATOM      4  N   UNL A   1      34.916  24.800  24.543  1.00  0.00    -0.354 N 
ATOM      5  C   UNL A   1      33.794  25.419  25.022  1.00  0.00     0.247 C 
ATOM      6  O   UNL A   1      33.942  25.871  26.165  1.00  0.00    -0.272 OA
ATOM      7  H   UNL A   1      35.746  25.052  25.008  1.00  0.00     0.163 HD
BRANCH   5   8
ATOM      8  C   UNL A   1      32.424  25.603  24.219  1.00  0.00     0.131 C 
ATOM      9  C   UNL A   1      32.412  28.193  24.850  1.00  0.00     0.014 C 
ATOM     10  C   UNL A   1      31.588  26.874  24.818  1.00  0.00    -0.002 C 
ATOM     11  C   UNL A   1      31.077  26.648  26.272  1.00  0.00     0.014 C 
ATOM     12  C   UNL A   1      30.307  27.134  23.965  1.00  0.00     0.020 C 
ATOM     13  C   UNL A   1      30.558  27.572  22.531  1.00  0.00     0.070 C 
ATOM     14  C   UNL A   1      32.778  25.903  22.737  1.00  0.00     0.108 C 
ATOM     15  S   UNL A   1      31.421  26.313  21.576  1.00  0.00    -0.159 SA
BRANCH   8  16
ATOM     16  N   UNL A   1      31.530  24.409  24.430  1.00  0.00    -0.369 N 
ATOM     17  H   UNL A   1      30.630  24.617  24.770  1.00  0.00     0.161 HD
BRANCH  16  18
ATOM     18  C   UNL A   1      31.781  23.062  24.216  1.00  0.00     0.049 A 
ATOM     19  C   UNL A   1      31.798  22.490  22.941  1.00  0.00     0.027 A 
ATOM     20  C   UNL A   1      32.078  22.209  25.306  1.00  0.00     0.041 A 
ATOM     21  C   UNL A   1      32.152  21.149  22.746  1.00  0.00     0.002 A 
ATOM     22  C   UNL A   1      32.446  20.872  25.118  1.00  0.00     0.018 A 
ATOM     23  Br  UNL A   1      32.083  22.880  27.090  1.00  0.00    -0.049 Br
ATOM     24  C   UNL A   1      32.495  20.346  23.831  1.00  0.00     0.001 A 
ENDBRANCH  16  18
ENDBRANCH   8  16
ENDBRANCH   5   8
ENDBRANCH   3   4
ENDBRANCH   2   3
ENDBRANCH   1   2
BRANCH   1  25
ATOM     25  C   UNL A   1      36.803  21.403  25.679  1.00  0.00     0.116 C 
BRANCH  25  26
ATOM     26  N   UNL A   1      37.951  20.510  25.605  1.00  0.00    -0.352 N 
ATOM     27  C   UNL A   1      39.252  20.717  26.010  1.00  0.00     0.251 C 
ATOM     28  H   UNL A   1      37.771  19.627  25.209  1.00  0.00     0.163 HD
ATOM     29  O   UNL A   1      40.087  19.831  25.844  1.00  0.00    -0.269 OA
BRANCH  27  30
ATOM     30  C   UNL A   1      39.652  22.020  26.590  1.00  0.00     0.039 A 
ATOM     31  C   UNL A   1      40.667  22.042  27.552  1.00  0.00     0.014 A 
ATOM     32  C   UNL A   1      39.079  23.217  26.153  1.00  0.00     0.014 A 
ATOM     33  C   UNL A   1      41.186  23.266  27.985  1.00  0.00     0.010 A 
ATOM     34  C   UNL A   1      39.644  24.435  26.534  1.00  0.00     0.010 A 
ATOM     35  C   UNL A   1      40.724  24.471  27.430  1.00  0.00    -0.014 A 
BRANCH  35  36
ATOM     36  C   UNL A   1      41.403  25.763  27.721  1.00  0.00     0.031 A 
ATOM     37  C   UNL A   1      40.699  26.845  28.492  1.00  0.00     0.074 A 
ATOM     38  C   UNL A   1      42.636  25.989  27.222  1.00  0.00     0.049 A 
ATOM     39  N   UNL A   1      41.100  28.061  28.764  1.00  0.00    -0.248 NA
ATOM     40  C   UNL A   1      39.358  26.524  29.000  1.00  0.00     0.031 C 
ATOM     41  C   UNL A   1      43.407  25.038  26.414  1.00  0.00     0.029 A 
ATOM     42  N   UNL A   1      43.456  27.087  27.307  1.00  0.00    -0.354 N 
ATOM     43  C   UNL A   1      40.060  28.656  29.470  1.00  0.00     0.074 A 
ATOM     44  C   UNL A   1      38.991  27.680  29.535  1.00  0.00     0.031 C 
ATOM     45  C   UNL A   1      44.590  25.587  26.099  1.00  0.00     0.029 A 
ATOM     46  C   UNL A   1      44.651  26.940  26.641  1.00  0.00     0.049 A 
ATOM     47  H   UNL A   1      43.211  27.905  27.798  1.00  0.00     0.167 HD
ATOM     48  C   UNL A   1      40.009  29.891  30.028  1.00  0.00     0.034 A 
ATOM     49  C   UNL A   1      45.678  27.797  26.475  1.00  0.00     0.034 A 
ATOM     50  C   UNL A   1      41.081  30.855  29.958  1.00  0.00     0.049 A 
ATOM     51  C   UNL A   1      45.599  29.164  27.102  1.00  0.00     0.074 A 
ATOM     52  C   UNL A   1      41.137  32.124  30.509  1.00  0.00     0.029 A 
ATOM     53  N   UNL A   1      42.285  30.660  29.292  1.00  0.00    -0.354 N 
ATOM     54  N   UNL A   1      44.615  29.702  27.784  1.00  0.00    -0.248 NA
ATOM     55  C   UNL A   1      46.772  30.034  26.946  1.00  0.00     0.031 C 
ATOM     56  C   UNL A   1      42.351  32.714  30.135  1.00  0.00     0.029 A 
ATOM     57  C   UNL A   1      43.081  31.790  29.406  1.00  0.00     0.049 A 
ATOM     58  H   UNL A   1      42.536  29.839  28.810  1.00  0.00     0.167 HD
ATOM     59  C   UNL A   1      45.060  30.966  28.157  1.00  0.00     0.074 A 
ATOM     60  C   UNL A   1      46.405  31.104  27.637  1.00  0.00     0.031 C 
ATOM     61  C   UNL A   1      44.415  31.924  28.870  1.00  0.00     0.034 A 
BRANCH  48  62
ATOM     62  C   UNL A   1      38.736  30.271  30.747  1.00  0.00     0.023 A 
ATOM     63  C   UNL A   1      37.695  30.947  30.087  1.00  0.00     0.031 A 
ATOM     64  C   UNL A   1      38.568  29.972  32.110  1.00  0.00     0.131 A 
ATOM     65  C   UNL A   1      36.564  31.363  30.806  1.00  0.00     0.055 A 
ATOM     66  C   UNL A   1      37.407  30.321  32.802  1.00  0.00     0.041 A 
ATOM     67  F   UNL A   1      39.536  29.343  32.797  1.00  0.00    -0.206 F 
ATOM     68  C   UNL A   1      36.403  31.034  32.153  1.00  0.00     0.022 A 
BRANCH  65  69
ATOM     69  S   UNL A   1      35.367  32.448  29.984  1.00  0.00     0.124 S 
ATOM     70  O   UNL A   1      34.925  31.609  28.872  1.00  0.00    -0.237 OA
ATOM     71  O   UNL A   1      34.382  32.687  31.033  1.00  0.00    -0.237 OA
ATOM     72  O   UNL A   1      36.164  33.610  29.599  1.00  0.00    -0.744 OA
ENDBRANCH  65  69
ENDBRANCH  48  62
BRANCH  49  73
ATOM     73  C   UNL A   1      46.866  27.395  25.670  1.00  0.00     0.023 A 
ATOM     74  C   UNL A   1      47.001  27.792  24.330  1.00  0.00     0.031 A 
ATOM     75  C   UNL A   1      47.877  26.594  26.228  1.00  0.00     0.131 A 
ATOM     76  C   UNL A   1      48.108  27.360  23.583  1.00  0.00     0.055 A 
ATOM     77  C   UNL A   1      48.996  26.201  25.494  1.00  0.00     0.041 A 
ATOM     78  F   UNL A   1      47.797  26.198  27.509  1.00  0.00    -0.206 F 
ATOM     79  C   UNL A   1      49.110  26.577  24.158  1.00  0.00     0.022 A 
BRANCH  76  80
ATOM     80  S   UNL A   1      48.193  27.795  21.824  1.00  0.00     0.124 S 
ATOM     81  O   UNL A   1      48.374  26.490  21.202  1.00  0.00    -0.237 OA
ATOM     82  O   UNL A   1      46.900  28.437  21.607  1.00  0.00    -0.237 OA
ATOM     83  O   UNL A   1      49.348  28.689  21.752  1.00  0.00    -0.744 OA
ENDBRANCH  76  80
ENDBRANCH  49  73
BRANCH  61  84
ATOM     84  C   UNL A   1      45.177  33.194  29.157  1.00  0.00     0.023 A 
ATOM     85  C   UNL A   1      45.110  34.307  28.302  1.00  0.00     0.031 A 
ATOM     86  C   UNL A   1      45.986  33.285  30.303  1.00  0.00     0.131 A 
ATOM     87  C   UNL A   1      45.877  35.448  28.581  1.00  0.00     0.055 A 
ATOM     88  C   UNL A   1      46.706  34.443  30.603  1.00  0.00     0.041 A 
ATOM     89  F   UNL A   1      46.087  32.251  31.153  1.00  0.00    -0.206 F 
ATOM     90  C   UNL A   1      46.663  35.529  29.733  1.00  0.00     0.022 A 
BRANCH  87  91
ATOM     91  S   UNL A   1      45.896  36.802  27.374  1.00  0.00     0.124 S 
ATOM     92  O   UNL A   1      46.762  36.264  26.328  1.00  0.00    -0.237 OA
ATOM     93  O   UNL A   1      44.485  36.934  27.028  1.00  0.00    -0.237 OA
ATOM     94  O   UNL A   1      46.457  37.923  28.124  1.00  0.00    -0.744 OA
ENDBRANCH  87  91
ENDBRANCH  61  84
ENDBRANCH  35  36
ENDBRANCH  27  30
ENDBRANCH  25  26
ENDBRANCH   1  25
TORSDOF 16
ENDMDL
MODEL 2
REMARK VINA RESULT:     -11.9      5.015      7.783
REMARK SMILES CC1(C)CCSC[C@@]1(Nc1ccccc1Br)C(=O)NCCCCNC(=O)c1ccc(-c2c3nc(c(-c4cc(S(=O)(=O)[O-])ccc4F)c4ccc([nH]4)c(-c4cc(S(=O)(=O)[O-])ccc4F)c4nc(c(-c5cc(S(=O)(=O)[O-])ccc5F)c5ccc2[nH]5)C=C4)C=C3)cc1
REMARK SMILES IDX 22 1 21 2 20 3 19 4 17 5 18 6 8 8 1 9 2 10 3 11 4 12 5 13
REMARK SMILES IDX 7 14 6 15 9 16 10 18 11 19 15 20 12 21 14 22 16 23 13 24
REMARK SMILES IDX 23 25 24 26 25 27 26 29 27 30 28 31 89 32 29 33 88 34 30 35
REMARK SMILES IDX 31 36 32 37 82 38 33 39 87 40 81 41 83 42 34 43 86 44 80 45
REMARK SMILES IDX 79 46 35 48 67 49 47 50 66 51 48 52 51 53 65 54 84 55 49 56
REMARK SMILES IDX 50 57 64 59 85 60 52 61 36 62 37 63 45 64 38 65 44 66 46 67
REMARK SMILES IDX 43 68 39 69 40 70 41 71 42 72 68 73 69 74 77 75 70 76 76 77
REMARK SMILES IDX 78 78 75 79 71 80 72 81 73 82 74 83 53 84 54 85 62 86 55 87
REMARK SMILES IDX 61 88 63 89 60 90 56 91 57 92 58 93 59 94
REMARK H PARENT 19 7 9 17 24 28 83 47 51 58
REMARK Flexibility Score: inf
ROOT
ATOM      1  C   UNL A   1      31.481  29.848  26.710  1.00  0.00     0.023 C 
ENDROOT
BRANCH   1   2
ATOM      2  C   UNL A   1      31.811  28.611  27.547  1.00  0.00     0.023 C 
BRANCH   2   3
ATOM      3  C   UNL A   1      32.219  27.368  26.766  1.00  0.00     0.116 C 
BRANCH   3   4
ATOM      4  N   UNL A   1      31.396  26.201  27.001  1.00  0.00    -0.354 N 
ATOM      5  C   UNL A   1      31.420  24.949  26.451  1.00  0.00     0.247 C 
ATOM      6  O   UNL A   1      30.836  24.105  27.143  1.00  0.00    -0.272 OA
ATOM      7  H   UNL A   1      30.693  26.332  27.677  1.00  0.00     0.163 HD
BRANCH   5   8
ATOM      8  C   UNL A   1      32.081  24.568  25.047  1.00  0.00     0.131 C 
ATOM      9  C   UNL A   1      33.997  23.222  26.324  1.00  0.00     0.014 C 
ATOM     10  C   UNL A   1      33.682  24.289  25.236  1.00  0.00    -0.002 C 
ATOM     11  C   UNL A   1      34.488  25.562  25.633  1.00  0.00     0.014 C 
ATOM     12  C   UNL A   1      34.312  23.801  23.894  1.00  0.00     0.020 C 
ATOM     13  C   UNL A   1      33.816  22.453  23.395  1.00  0.00     0.070 C 
ATOM     14  C   UNL A   1      31.412  23.259  24.546  1.00  0.00     0.108 C 
ATOM     15  S   UNL A   1      32.055  22.472  23.021  1.00  0.00    -0.159 SA
BRANCH   8  16
ATOM     16  N   UNL A   1      31.995  25.731  24.094  1.00  0.00    -0.369 N 
ATOM     17  H   UNL A   1      32.836  25.959  23.637  1.00  0.00     0.161 HD
BRANCH  16  18
ATOM     18  C   UNL A   1      30.910  26.529  23.762  1.00  0.00     0.049 A 
ATOM     19  C   UNL A   1      29.588  26.091  23.875  1.00  0.00     0.027 A 
ATOM     20  C   UNL A   1      31.110  27.862  23.330  1.00  0.00     0.041 A 
ATOM     21  C   UNL A   1      28.510  26.951  23.628  1.00  0.00     0.002 A 
ATOM     22  C   UNL A   1      30.038  28.731  23.095  1.00  0.00     0.018 A 
ATOM     23  Br  UNL A   1      32.870  28.567  23.140  1.00  0.00    -0.049 Br
ATOM     24  C   UNL A   1      28.734  28.274  23.258  1.00  0.00     0.001 A 
ENDBRANCH  16  18
ENDBRANCH   8  16
ENDBRANCH   5   8
ENDBRANCH   3   4
ENDBRANCH   2   3
ENDBRANCH   1   2
BRANCH   1  25
ATOM     25  C   UNL A   1      32.650  30.748  26.307  1.00  0.00     0.116 C 
BRANCH  25  26
ATOM     26  N   UNL A   1      32.608  32.085  26.880  1.00  0.00    -0.352 N 
ATOM     27  C   UNL A   1      33.550  32.744  27.640  1.00  0.00     0.251 C 
ATOM     28  H   UNL A   1      31.786  32.595  26.697  1.00  0.00     0.163 HD
ATOM     29  O   UNL A   1      33.315  33.879  28.047  1.00  0.00    -0.269 OA
BRANCH  27  30
ATOM     30  C   UNL A   1      34.814  32.066  28.011  1.00  0.00     0.039 A 
ATOM     31  C   UNL A   1      35.975  32.836  28.140  1.00  0.00     0.014 A 
ATOM     32  C   UNL A   1      34.851  30.697  28.287  1.00  0.00     0.014 A 
ATOM     33  C   UNL A   1      37.137  32.257  28.659  1.00  0.00     0.010 A 
ATOM     34  C   UNL A   1      35.990  30.138  28.868  1.00  0.00     0.010 A 
ATOM     35  C   UNL A   1      37.134  30.919  29.089  1.00  0.00    -0.014 A 
BRANCH  35  36
ATOM     36  C   UNL A   1      38.291  30.348  29.832  1.00  0.00     0.031 A 
ATOM     37  C   UNL A   1      38.597  30.789  31.236  1.00  0.00     0.074 A 
ATOM     38  C   UNL A   1      39.115  29.481  29.206  1.00  0.00     0.049 A 
ATOM     39  N   UNL A   1      39.608  30.466  32.002  1.00  0.00    -0.248 NA
ATOM     40  C   UNL A   1      37.656  31.738  31.847  1.00  0.00     0.031 C 
ATOM     41  C   UNL A   1      38.956  29.012  27.826  1.00  0.00     0.029 A 
ATOM     42  N   UNL A   1      40.253  28.847  29.640  1.00  0.00    -0.354 N 
ATOM     43  C   UNL A   1      39.430  31.176  33.185  1.00  0.00     0.074 A 
ATOM     44  C   UNL A   1      38.242  31.986  33.010  1.00  0.00     0.031 C 
ATOM     45  C   UNL A   1      39.945  28.152  27.537  1.00  0.00     0.029 A 
ATOM     46  C   UNL A   1      40.833  28.038  28.689  1.00  0.00     0.049 A 
ATOM     47  H   UNL A   1      40.621  28.962  30.546  1.00  0.00     0.167 HD
ATOM     48  C   UNL A   1      40.176  31.140  34.317  1.00  0.00     0.034 A 
ATOM     49  C   UNL A   1      41.956  27.294  28.733  1.00  0.00     0.034 A 
ATOM     50  C   UNL A   1      41.359  30.329  34.481  1.00  0.00     0.049 A 
ATOM     51  C   UNL A   1      42.770  27.271  29.999  1.00  0.00     0.074 A 
ATOM     52  C   UNL A   1      42.171  30.204  35.596  1.00  0.00     0.029 A 
ATOM     53  N   UNL A   1      41.902  29.505  33.503  1.00  0.00    -0.354 N 
ATOM     54  N   UNL A   1      42.575  27.932  31.116  1.00  0.00    -0.248 NA
ATOM     55  C   UNL A   1      43.947  26.393  30.015  1.00  0.00     0.031 C 
ATOM     56  C   UNL A   1      43.232  29.347  35.275  1.00  0.00     0.029 A 
ATOM     57  C   UNL A   1      43.046  28.884  33.983  1.00  0.00     0.049 A 
ATOM     58  H   UNL A   1      41.529  29.381  32.600  1.00  0.00     0.167 HD
ATOM     59  C   UNL A   1      43.594  27.533  31.975  1.00  0.00     0.074 A 
ATOM     60  C   UNL A   1      44.391  26.564  31.252  1.00  0.00     0.031 C 
ATOM     61  C   UNL A   1      43.844  27.931  33.249  1.00  0.00     0.034 A 
BRANCH  48  62
ATOM     62  C   UNL A   1      39.739  32.026  35.459  1.00  0.00     0.023 A 
ATOM     63  C   UNL A   1      38.946  31.530  36.510  1.00  0.00     0.031 A 
ATOM     64  C   UNL A   1      40.102  33.384  35.492  1.00  0.00     0.131 A 
ATOM     65  C   UNL A   1      38.484  32.400  37.508  1.00  0.00     0.055 A 
ATOM     66  C   UNL A   1      39.702  34.227  36.530  1.00  0.00     0.041 A 
ATOM     67  F   UNL A   1      40.843  33.917  34.507  1.00  0.00    -0.206 F 
ATOM     68  C   UNL A   1      38.876  33.740  37.539  1.00  0.00     0.022 A 
BRANCH  65  69
ATOM     69  S   UNL A   1      37.262  31.783  38.697  1.00  0.00     0.124 S 
ATOM     70  O   UNL A   1      36.149  32.704  38.479  1.00  0.00    -0.237 OA
ATOM     71  O   UNL A   1      37.052  30.410  38.251  1.00  0.00    -0.237 OA
ATOM     72  O   UNL A   1      37.936  31.925  39.986  1.00  0.00    -0.744 OA
ENDBRANCH  65  69
ENDBRANCH  48  62
BRANCH  49  73
ATOM     73  C   UNL A   1      42.386  26.519  27.535  1.00  0.00     0.023 A 
ATOM     74  C   UNL A   1      42.054  25.162  27.392  1.00  0.00     0.031 A 
ATOM     75  C   UNL A   1      43.150  27.123  26.521  1.00  0.00     0.131 A 
ATOM     76  C   UNL A   1      42.513  24.445  26.277  1.00  0.00     0.055 A 
ATOM     77  C   UNL A   1      43.568  26.417  25.393  1.00  0.00     0.041 A 
ATOM     78  F   UNL A   1      43.483  28.421  26.607  1.00  0.00    -0.206 F 
ATOM     79  C   UNL A   1      43.257  25.066  25.271  1.00  0.00     0.022 A 
BRANCH  76  80
ATOM     80  S   UNL A   1      42.164  22.668  26.181  1.00  0.00     0.124 S 
ATOM     81  O   UNL A   1      40.707  22.648  26.226  1.00  0.00    -0.237 OA
ATOM     82  O   UNL A   1      42.773  22.307  24.905  1.00  0.00    -0.237 OA
ATOM     83  O   UNL A   1      42.834  22.126  27.363  1.00  0.00    -0.744 OA
ENDBRANCH  76  80
ENDBRANCH  49  73
BRANCH  61  84
ATOM     84  C   UNL A   1      45.011  27.285  33.951  1.00  0.00     0.023 A 
ATOM     85  C   UNL A   1      44.876  26.074  34.652  1.00  0.00     0.031 A 
ATOM     86  C   UNL A   1      46.278  27.896  33.919  1.00  0.00     0.131 A 
ATOM     87  C   UNL A   1      45.978  25.536  35.334  1.00  0.00     0.055 A 
ATOM     88  C   UNL A   1      47.383  27.328  34.556  1.00  0.00     0.041 A 
ATOM     89  F   UNL A   1      46.462  29.053  33.265  1.00  0.00    -0.206 F 
ATOM     90  C   UNL A   1      47.234  26.148  35.279  1.00  0.00     0.022 A 
BRANCH  87  91
ATOM     91  S   UNL A   1      45.732  24.064  36.364  1.00  0.00     0.124 S 
ATOM     92  O   UNL A   1      45.734  24.631  37.710  1.00  0.00    -0.237 OA
ATOM     93  O   UNL A   1      44.449  23.559  35.887  1.00  0.00    -0.237 OA
ATOM     94  O   UNL A   1      46.885  23.224  36.045  1.00  0.00    -0.744 OA
ENDBRANCH  87  91
ENDBRANCH  61  84
ENDBRANCH  35  36
ENDBRANCH  27  30
ENDBRANCH  25  26
ENDBRANCH   1  25
TORSDOF 16
ENDMDL
MODEL 3
REMARK VINA RESULT:     -11.8      5.106     10.029
REMARK SMILES CC1(C)CCSC[C@@]1(Nc1ccccc1Br)C(=O)NCCCCNC(=O)c1ccc(-c2c3nc(c(-c4cc(S(=O)(=O)[O-])ccc4F)c4ccc([nH]4)c(-c4cc(S(=O)(=O)[O-])ccc4F)c4nc(c(-c5cc(S(=O)(=O)[O-])ccc5F)c5ccc2[nH]5)C=C4)C=C3)cc1
REMARK SMILES IDX 22 1 21 2 20 3 19 4 17 5 18 6 8 8 1 9 2 10 3 11 4 12 5 13
REMARK SMILES IDX 7 14 6 15 9 16 10 18 11 19 15 20 12 21 14 22 16 23 13 24
REMARK SMILES IDX 23 25 24 26 25 27 26 29 27 30 28 31 89 32 29 33 88 34 30 35
REMARK SMILES IDX 31 36 32 37 82 38 33 39 87 40 81 41 83 42 34 43 86 44 80 45
REMARK SMILES IDX 79 46 35 48 67 49 47 50 66 51 48 52 51 53 65 54 84 55 49 56
REMARK SMILES IDX 50 57 64 59 85 60 52 61 36 62 37 63 45 64 38 65 44 66 46 67
REMARK SMILES IDX 43 68 39 69 40 70 41 71 42 72 68 73 69 74 77 75 70 76 76 77
REMARK SMILES IDX 78 78 75 79 71 80 72 81 73 82 74 83 53 84 54 85 62 86 55 87
REMARK SMILES IDX 61 88 63 89 60 90 56 91 57 92 58 93 59 94
REMARK H PARENT 19 7 9 17 24 28 83 47 51 58
REMARK Flexibility Score: inf
ROOT
ATOM      1  C   UNL A   1      31.364  29.784  26.684  1.00  0.00     0.023 C 
ENDROOT
BRANCH   1   2
ATOM      2  C   UNL A   1      31.832  28.573  27.492  1.00  0.00     0.023 C 
BRANCH   2   3
ATOM      3  C   UNL A   1      32.188  27.331  26.685  1.00  0.00     0.116 C 
BRANCH   3   4
ATOM      4  N   UNL A   1      31.368  26.169  26.956  1.00  0.00    -0.354 N 
ATOM      5  C   UNL A   1      31.396  24.901  26.444  1.00  0.00     0.247 C 
ATOM      6  O   UNL A   1      30.815  24.077  27.163  1.00  0.00    -0.272 OA
ATOM      7  H   UNL A   1      30.666  26.319  27.629  1.00  0.00     0.163 HD
BRANCH   5   8
ATOM      8  C   UNL A   1      32.056  24.479  25.052  1.00  0.00     0.131 C 
ATOM      9  C   UNL A   1      34.033  23.266  26.367  1.00  0.00     0.014 C 
ATOM     10  C   UNL A   1      33.668  24.268  25.235  1.00  0.00    -0.002 C 
ATOM     11  C   UNL A   1      34.430  25.587  25.563  1.00  0.00     0.014 C 
ATOM     12  C   UNL A   1      34.302  23.741  23.910  1.00  0.00     0.020 C 
ATOM     13  C   UNL A   1      33.852  22.354  23.480  1.00  0.00     0.070 C 
ATOM     14  C   UNL A   1      31.431  23.125  24.620  1.00  0.00     0.108 C 
ATOM     15  S   UNL A   1      32.088  22.291  23.126  1.00  0.00    -0.159 SA
BRANCH   8  16
ATOM     16  N   UNL A   1      31.917  25.593  24.048  1.00  0.00    -0.369 N 
ATOM     17  H   UNL A   1      32.730  25.791  23.529  1.00  0.00     0.161 HD
BRANCH  16  18
ATOM     18  C   UNL A   1      30.817  26.381  23.741  1.00  0.00     0.049 A 
ATOM     19  C   UNL A   1      29.503  25.937  23.902  1.00  0.00     0.027 A 
ATOM     20  C   UNL A   1      30.996  27.709  23.284  1.00  0.00     0.041 A 
ATOM     21  C   UNL A   1      28.412  26.788  23.679  1.00  0.00     0.002 A 
ATOM     22  C   UNL A   1      29.912  28.568  23.073  1.00  0.00     0.018 A 
ATOM     23  Br  UNL A   1      32.745  28.420  23.027  1.00  0.00    -0.049 Br
ATOM     24  C   UNL A   1      28.616  28.107  23.285  1.00  0.00     0.001 A 
ENDBRANCH  16  18
ENDBRANCH   8  16
ENDBRANCH   5   8
ENDBRANCH   3   4
ENDBRANCH   2   3
ENDBRANCH   1   2
BRANCH   1  25
ATOM     25  C   UNL A   1      32.432  30.791  26.256  1.00  0.00     0.116 C 
BRANCH  25  26
ATOM     26  N   UNL A   1      32.278  32.118  26.834  1.00  0.00    -0.352 N 
ATOM     27  C   UNL A   1      33.158  32.849  27.601  1.00  0.00     0.251 C 
ATOM     28  H   UNL A   1      31.417  32.558  26.649  1.00  0.00     0.163 HD
ATOM     29  O   UNL A   1      32.828  33.959  28.011  1.00  0.00    -0.269 OA
BRANCH  27  30
ATOM     30  C   UNL A   1      34.472  32.276  27.976  1.00  0.00     0.039 A 
ATOM     31  C   UNL A   1      35.590  33.116  27.991  1.00  0.00     0.014 A 
ATOM     32  C   UNL A   1      34.599  30.941  28.366  1.00  0.00     0.014 A 
ATOM     33  C   UNL A   1      36.802  32.650  28.509  1.00  0.00     0.010 A 
ATOM     34  C   UNL A   1      35.788  30.498  28.945  1.00  0.00     0.010 A 
ATOM     35  C   UNL A   1      36.893  31.357  29.051  1.00  0.00    -0.014 A 
BRANCH  35  36
ATOM     36  C   UNL A   1      38.107  30.917  29.791  1.00  0.00     0.031 A 
ATOM     37  C   UNL A   1      39.065  29.933  29.180  1.00  0.00     0.074 A 
ATOM     38  C   UNL A   1      38.306  31.352  31.053  1.00  0.00     0.049 A 
ATOM     39  N   UNL A   1      40.123  29.372  29.708  1.00  0.00    -0.248 NA
ATOM     40  C   UNL A   1      38.779  29.503  27.804  1.00  0.00     0.031 C 
ATOM     41  C   UNL A   1      37.422  32.270  31.778  1.00  0.00     0.029 A 
ATOM     42  N   UNL A   1      39.304  31.075  31.954  1.00  0.00    -0.354 N 
ATOM     43  C   UNL A   1      40.629  28.519  28.733  1.00  0.00     0.074 A 
ATOM     44  C   UNL A   1      39.726  28.599  27.603  1.00  0.00     0.031 C 
ATOM     45  C   UNL A   1      37.929  32.495  33.000  1.00  0.00     0.029 A 
ATOM     46  C   UNL A   1      39.147  31.709  33.166  1.00  0.00     0.049 A 
ATOM     47  H   UNL A   1      40.061  30.479  31.753  1.00  0.00     0.167 HD
ATOM     48  C   UNL A   1      41.749  27.755  28.770  1.00  0.00     0.034 A 
ATOM     49  C   UNL A   1      39.891  31.658  34.289  1.00  0.00     0.034 A 
ATOM     50  C   UNL A   1      42.642  27.684  29.902  1.00  0.00     0.049 A 
ATOM     51  C   UNL A   1      41.130  30.803  34.308  1.00  0.00     0.074 A 
ATOM     52  C   UNL A   1      43.815  26.960  30.030  1.00  0.00     0.029 A 
ATOM     53  N   UNL A   1      42.461  28.357  31.103  1.00  0.00    -0.354 N 
ATOM     54  N   UNL A   1      41.604  30.018  33.369  1.00  0.00    -0.248 NA
ATOM     55  C   UNL A   1      41.940  30.836  35.532  1.00  0.00     0.031 C 
ATOM     56  C   UNL A   1      44.315  27.154  31.324  1.00  0.00     0.029 A 
ATOM     57  C   UNL A   1      43.490  28.053  31.981  1.00  0.00     0.049 A 
ATOM     58  H   UNL A   1      41.710  28.963  31.302  1.00  0.00     0.167 HD
ATOM     59  C   UNL A   1      42.780  29.481  33.882  1.00  0.00     0.074 A 
ATOM     60  C   UNL A   1      42.950  30.042  35.207  1.00  0.00     0.031 C 
ATOM     61  C   UNL A   1      43.643  28.605  33.307  1.00  0.00     0.034 A 
BRANCH  48  62
ATOM     62  C   UNL A   1      42.055  26.921  27.549  1.00  0.00     0.023 A 
ATOM     63  C   UNL A   1      41.722  25.556  27.491  1.00  0.00     0.031 A 
ATOM     64  C   UNL A   1      42.704  27.489  26.439  1.00  0.00     0.131 A 
ATOM     65  C   UNL A   1      42.100  24.790  26.378  1.00  0.00     0.055 A 
ATOM     66  C   UNL A   1      43.010  26.738  25.302  1.00  0.00     0.041 A 
ATOM     67  F   UNL A   1      43.063  28.783  26.445  1.00  0.00    -0.206 F 
ATOM     68  C   UNL A   1      42.721  25.377  25.273  1.00  0.00     0.022 A 
BRANCH  65  69
ATOM     69  S   UNL A   1      41.880  22.992  26.450  1.00  0.00     0.124 S 
ATOM     70  O   UNL A   1      40.431  22.879  26.598  1.00  0.00    -0.237 OA
ATOM     71  O   UNL A   1      42.428  22.554  25.171  1.00  0.00    -0.237 OA
ATOM     72  O   UNL A   1      42.652  22.599  27.627  1.00  0.00    -0.744 OA
ENDBRANCH  65  69
ENDBRANCH  48  62
BRANCH  49  73
ATOM     73  C   UNL A   1      39.479  32.431  35.495  1.00  0.00     0.023 A 
ATOM     74  C   UNL A   1      39.872  33.768  35.668  1.00  0.00     0.031 A 
ATOM     75  C   UNL A   1      38.697  31.836  36.500  1.00  0.00     0.131 A 
ATOM     76  C   UNL A   1      39.508  34.456  36.836  1.00  0.00     0.055 A 
ATOM     77  C   UNL A   1      38.302  32.537  37.640  1.00  0.00     0.041 A 
ATOM     78  F   UNL A   1      38.287  30.563  36.374  1.00  0.00    -0.206 F 
ATOM     79  C   UNL A   1      38.717  33.853  37.816  1.00  0.00     0.022 A 
BRANCH  76  80
ATOM     80  S   UNL A   1      40.128  36.143  37.080  1.00  0.00     0.124 S 
ATOM     81  O   UNL A   1      39.332  36.592  38.216  1.00  0.00    -0.237 OA
ATOM     82  O   UNL A   1      41.545  35.911  37.339  1.00  0.00    -0.237 OA
ATOM     83  O   UNL A   1      39.831  36.801  35.809  1.00  0.00    -0.744 OA
ENDBRANCH  76  80
ENDBRANCH  49  73
BRANCH  61  84
ATOM     84  C   UNL A   1      44.869  28.230  34.101  1.00  0.00     0.023 A 
ATOM     85  C   UNL A   1      44.884  27.116  34.957  1.00  0.00     0.031 A 
ATOM     86  C   UNL A   1      46.037  29.006  34.000  1.00  0.00     0.131 A 
ATOM     87  C   UNL A   1      46.030  26.835  35.716  1.00  0.00     0.055 A 
ATOM     88  C   UNL A   1      47.192  28.691  34.719  1.00  0.00     0.041 A 
ATOM     89  F   UNL A   1      46.076  30.082  33.198  1.00  0.00    -0.206 F 
ATOM     90  C   UNL A   1      47.189  27.607  35.592  1.00  0.00     0.022 A 
BRANCH  87  91
ATOM     91  S   UNL A   1      45.963  25.491  36.933  1.00  0.00     0.124 S 
ATOM     92  O   UNL A   1      47.012  25.879  37.872  1.00  0.00    -0.237 OA
ATOM     93  O   UNL A   1      44.595  25.587  37.430  1.00  0.00    -0.237 OA
ATOM     94  O   UNL A   1      46.252  24.297  36.141  1.00  0.00    -0.744 OA
ENDBRANCH  87  91
ENDBRANCH  61  84
ENDBRANCH  35  36
ENDBRANCH  27  30
ENDBRANCH  25  26
ENDBRANCH   1  25
TORSDOF 16
ENDMDL
