MODEL 1
REMARK VINA RESULT:     -11.0      0.000      0.000
REMARK SMILES CC(C)(C)OC(=O)N1C[C@@H](Oc2cccnc2)C[C@H]1C(=O)NCCCCNC(=O)c1ccc(-c2c3nc(c(-c4cc(S(=O)(=O)[O-])ccc4F)c4ccc([nH]4)c(-c4cc(S(=O)(=O)[O-])ccc4F)c4nc(c(-c5cc(S(=O)(=O)[O-])ccc5F)c5ccc2[nH]5)C=C4)C=C3)cc1
REMARK SMILES IDX 24 1 23 2 22 3 20 4 21 5 19 7 8 8 9 9 10 10 18 11 6 12 7 13
REMARK SMILES IDX 5 14 2 15 1 16 3 17 4 18 11 19 12 20 13 21 17 22 14 23 16 24
REMARK SMILES IDX 15 25 25 26 26 27 27 28 28 29 29 31 30 32 31 33 92 34 32 35
REMARK SMILES IDX 91 36 33 37 34 38 35 39 85 40 36 41 90 42 84 43 86 44 37 45
REMARK SMILES IDX 89 46 83 47 82 48 38 50 70 51 50 52 69 53 51 54 54 55 68 56
REMARK SMILES IDX 87 57 52 58 53 59 67 61 88 62 55 63 39 64 40 65 48 66 41 67
REMARK SMILES IDX 47 68 49 69 46 70 42 71 43 72 44 73 45 74 71 75 72 76 80 77
REMARK SMILES IDX 73 78 79 79 81 80 78 81 74 82 75 83 76 84 77 85 56 86 57 87
REMARK SMILES IDX 65 88 58 89 64 90 66 91 63 92 59 93 60 94 61 95 62 96
REMARK H PARENT 22 6 27 30 86 49 54 60
REMARK Flexibility Score: inf
ROOT
ATOM      1  C   UNL A   1      37.399  20.193  24.997  1.00  0.00     0.023 C 
ENDROOT
BRANCH   1   2
ATOM      2  C   UNL A   1      37.406  21.717  25.105  1.00  0.00     0.116 C 
BRANCH   2   3
ATOM      3  N   UNL A   1      36.612  22.321  24.057  1.00  0.00    -0.354 N 
ATOM      4  C   UNL A   1      35.294  22.629  23.959  1.00  0.00     0.243 C 
ATOM      5  O   UNL A   1      34.918  23.000  22.838  1.00  0.00    -0.273 OA
ATOM      6  H   UNL A   1      37.132  22.553  23.253  1.00  0.00     0.163 HD
BRANCH   4   7
ATOM      7  C   UNL A   1      34.257  22.523  25.111  1.00  0.00     0.181 C 
ATOM      8  N   UNL A   1      32.917  23.065  24.937  1.00  0.00    -0.292 N 
ATOM      9  C   UNL A   1      31.993  22.043  24.487  1.00  0.00     0.169 C 
ATOM     10  C   UNL A   1      32.526  20.786  25.162  1.00  0.00     0.195 C 
ATOM     11  C   UNL A   1      34.021  21.026  25.419  1.00  0.00     0.082 C 
BRANCH   8  12
ATOM     12  C   UNL A   1      32.614  24.367  25.261  1.00  0.00     0.411 C 
ATOM     13  O   UNL A   1      32.313  24.702  26.394  1.00  0.00    -0.224 OA
BRANCH  12  14
ATOM     14  O   UNL A   1      32.762  25.202  24.202  1.00  0.00    -0.444 OA
BRANCH  14  15
ATOM     15  C   UNL A   1      31.650  25.866  23.528  1.00  0.00     0.106 C 
ATOM     16  C   UNL A   1      32.029  25.911  22.043  1.00  0.00     0.056 C 
ATOM     17  C   UNL A   1      31.596  27.301  24.065  1.00  0.00     0.056 C 
ATOM     18  C   UNL A   1      30.274  25.202  23.660  1.00  0.00     0.056 C 
ENDBRANCH  14  15
ENDBRANCH  12  14
ENDBRANCH   8  12
BRANCH  10  19
ATOM     19  O   UNL A   1      32.145  19.542  24.590  1.00  0.00    -0.487 OA
BRANCH  19  20
ATOM     20  C   UNL A   1      32.873  18.400  24.682  1.00  0.00     0.138 A 
ATOM     21  C   UNL A   1      33.989  18.033  23.946  1.00  0.00     0.050 A 
ATOM     22  C   UNL A   1      32.434  17.493  25.646  1.00  0.00     0.157 A 
ATOM     23  C   UNL A   1      34.625  16.816  24.208  1.00  0.00     0.024 A 
ATOM     24  N   UNL A   1      33.019  16.301  25.923  1.00  0.00    -0.261 NA
ATOM     25  C   UNL A   1      34.110  15.993  25.195  1.00  0.00     0.111 A 
ENDBRANCH  19  20
ENDBRANCH  10  19
ENDBRANCH   4   7
ENDBRANCH   2   3
ENDBRANCH   1   2
BRANCH   1  26
ATOM     26  C   UNL A   1      38.790  19.559  24.992  1.00  0.00     0.023 C 
BRANCH  26  27
ATOM     27  C   UNL A   1      39.709  19.993  26.131  1.00  0.00     0.116 C 
BRANCH  27  28
ATOM     28  N   UNL A   1      41.056  19.448  26.046  1.00  0.00    -0.352 N 
ATOM     29  C   UNL A   1      42.248  20.111  26.241  1.00  0.00     0.251 C 
ATOM     30  H   UNL A   1      41.124  18.492  25.824  1.00  0.00     0.163 HD
ATOM     31  O   UNL A   1      43.315  19.540  26.048  1.00  0.00    -0.269 OA
BRANCH  29  32
ATOM     32  C   UNL A   1      42.206  21.535  26.633  1.00  0.00     0.039 A 
ATOM     33  C   UNL A   1      42.312  21.870  27.983  1.00  0.00     0.014 A 
ATOM     34  C   UNL A   1      42.167  22.532  25.654  1.00  0.00     0.014 A 
ATOM     35  C   UNL A   1      42.464  23.208  28.347  1.00  0.00     0.010 A 
ATOM     36  C   UNL A   1      42.403  23.854  26.013  1.00  0.00     0.010 A 
ATOM     37  C   UNL A   1      42.560  24.207  27.363  1.00  0.00    -0.014 A 
BRANCH  37  38
ATOM     38  C   UNL A   1      42.832  25.624  27.723  1.00  0.00     0.031 A 
ATOM     39  C   UNL A   1      44.228  26.171  27.606  1.00  0.00     0.074 A 
ATOM     40  C   UNL A   1      41.840  26.393  28.214  1.00  0.00     0.049 A 
ATOM     41  N   UNL A   1      44.685  27.352  27.936  1.00  0.00    -0.248 NA
ATOM     42  C   UNL A   1      45.253  25.259  27.077  1.00  0.00     0.031 C 
ATOM     43  C   UNL A   1      40.454  25.960  28.415  1.00  0.00     0.029 A 
ATOM     44  N   UNL A   1      41.840  27.698  28.641  1.00  0.00    -0.354 N 
ATOM     45  C   UNL A   1      46.049  27.319  27.667  1.00  0.00     0.074 A 
ATOM     46  C   UNL A   1      46.354  25.980  27.214  1.00  0.00     0.031 C 
ATOM     47  C   UNL A   1      39.735  26.989  28.891  1.00  0.00     0.029 A 
ATOM     48  C   UNL A   1      40.613  28.139  29.081  1.00  0.00     0.049 A 
ATOM     49  H   UNL A   1      42.645  28.265  28.633  1.00  0.00     0.167 HD
ATOM     50  C   UNL A   1      46.956  28.322  27.765  1.00  0.00     0.034 A 
ATOM     51  C   UNL A   1      40.239  29.331  29.589  1.00  0.00     0.034 A 
ATOM     52  C   UNL A   1      46.630  29.656  28.208  1.00  0.00     0.049 A 
ATOM     53  C   UNL A   1      41.275  30.420  29.722  1.00  0.00     0.074 A 
ATOM     54  C   UNL A   1      47.458  30.762  28.289  1.00  0.00     0.029 A 
ATOM     55  N   UNL A   1      45.379  30.063  28.654  1.00  0.00    -0.354 N 
ATOM     56  N   UNL A   1      42.551  30.389  29.409  1.00  0.00    -0.248 NA
ATOM     57  C   UNL A   1      40.820  31.705  30.266  1.00  0.00     0.031 C 
ATOM     58  C   UNL A   1      46.730  31.812  28.858  1.00  0.00     0.029 A 
ATOM     59  C   UNL A   1      45.423  31.391  29.049  1.00  0.00     0.049 A 
ATOM     60  H   UNL A   1      44.578  29.491  28.687  1.00  0.00     0.167 HD
ATOM     61  C   UNL A   1      43.040  31.664  29.687  1.00  0.00     0.074 A 
ATOM     62  C   UNL A   1      41.918  32.440  30.176  1.00  0.00     0.031 C 
ATOM     63  C   UNL A   1      44.299  32.151  29.545  1.00  0.00     0.034 A 
BRANCH  50  64
ATOM     64  C   UNL A   1      48.390  28.000  27.411  1.00  0.00     0.023 A 
ATOM     65  C   UNL A   1      48.902  28.224  26.121  1.00  0.00     0.031 A 
ATOM     66  C   UNL A   1      49.251  27.436  28.370  1.00  0.00     0.131 A 
ATOM     67  C   UNL A   1      50.204  27.813  25.802  1.00  0.00     0.055 A 
ATOM     68  C   UNL A   1      50.575  27.112  28.070  1.00  0.00     0.041 A 
ATOM     69  F   UNL A   1      48.814  27.176  29.612  1.00  0.00    -0.206 F 
ATOM     70  C   UNL A   1      51.055  27.284  26.776  1.00  0.00     0.022 A 
BRANCH  67  71
ATOM     71  S   UNL A   1      50.717  27.835  24.062  1.00  0.00     0.124 S 
ATOM     72  O   UNL A   1      51.587  26.663  23.996  1.00  0.00    -0.237 OA
ATOM     73  O   UNL A   1      49.445  27.727  23.357  1.00  0.00    -0.237 OA
ATOM     74  O   UNL A   1      51.402  29.119  23.923  1.00  0.00    -0.744 OA
ENDBRANCH  67  71
ENDBRANCH  50  64
BRANCH  51  75
ATOM     75  C   UNL A   1      38.829  29.567  30.020  1.00  0.00     0.023 A 
ATOM     76  C   UNL A   1      37.913  30.209  29.174  1.00  0.00     0.031 A 
ATOM     77  C   UNL A   1      38.391  29.200  31.306  1.00  0.00     0.131 A 
ATOM     78  C   UNL A   1      36.623  30.514  29.638  1.00  0.00     0.055 A 
ATOM     79  C   UNL A   1      37.089  29.450  31.742  1.00  0.00     0.041 A 
ATOM     80  F   UNL A   1      39.225  28.581  32.157  1.00  0.00    -0.206 F 
ATOM     81  C   UNL A   1      36.200  30.124  30.911  1.00  0.00     0.022 A 
BRANCH  78  82
ATOM     82  S   UNL A   1      35.536  31.514  28.587  1.00  0.00     0.124 S 
ATOM     83  O   UNL A   1      34.582  32.035  29.559  1.00  0.00    -0.237 OA
ATOM     84  O   UNL A   1      36.469  32.483  28.020  1.00  0.00    -0.237 OA
ATOM     85  O   UNL A   1      34.994  30.545  27.637  1.00  0.00    -0.744 OA
ENDBRANCH  78  82
ENDBRANCH  51  75
BRANCH  63  86
ATOM     86  C   UNL A   1      44.516  33.607  29.878  1.00  0.00     0.023 A 
ATOM     87  C   UNL A   1      44.407  34.617  28.906  1.00  0.00     0.031 A 
ATOM     88  C   UNL A   1      44.845  33.990  31.191  1.00  0.00     0.131 A 
ATOM     89  C   UNL A   1      44.681  35.949  29.248  1.00  0.00     0.055 A 
ATOM     90  C   UNL A   1      45.049  35.325  31.540  1.00  0.00     0.041 A 
ATOM     91  F   UNL A   1      44.967  33.068  32.161  1.00  0.00    -0.206 F 
ATOM     92  C   UNL A   1      44.981  36.312  30.563  1.00  0.00     0.022 A 
BRANCH  89  93
ATOM     93  S   UNL A   1      44.736  37.194  27.929  1.00  0.00     0.124 S 
ATOM     94  O   UNL A   1      45.102  36.388  26.768  1.00  0.00    -0.237 OA
ATOM     95  O   UNL A   1      43.375  37.719  27.937  1.00  0.00    -0.237 OA
ATOM     96  O   UNL A   1      45.763  38.129  28.382  1.00  0.00    -0.744 OA
ENDBRANCH  89  93
ENDBRANCH  63  86
ENDBRANCH  37  38
ENDBRANCH  29  32
ENDBRANCH  27  28
ENDBRANCH  26  27
ENDBRANCH   1  26
TORSDOF 19
ENDMDL
MODEL 2
REMARK VINA RESULT:     -10.9      1.968      8.311
REMARK SMILES CC(C)(C)OC(=O)N1C[C@@H](Oc2cccnc2)C[C@H]1C(=O)NCCCCNC(=O)c1ccc(-c2c3nc(c(-c4cc(S(=O)(=O)[O-])ccc4F)c4ccc([nH]4)c(-c4cc(S(=O)(=O)[O-])ccc4F)c4nc(c(-c5cc(S(=O)(=O)[O-])ccc5F)c5ccc2[nH]5)C=C4)C=C3)cc1
REMARK SMILES IDX 24 1 23 2 22 3 20 4 21 5 19 7 8 8 9 9 10 10 18 11 6 12 7 13
REMARK SMILES IDX 5 14 2 15 1 16 3 17 4 18 11 19 12 20 13 21 17 22 14 23 16 24
REMARK SMILES IDX 15 25 25 26 26 27 27 28 28 29 29 31 30 32 31 33 92 34 32 35
REMARK SMILES IDX 91 36 33 37 34 38 35 39 85 40 36 41 90 42 84 43 86 44 37 45
REMARK SMILES IDX 89 46 83 47 82 48 38 50 70 51 50 52 69 53 51 54 54 55 68 56
REMARK SMILES IDX 87 57 52 58 53 59 67 61 88 62 55 63 39 64 40 65 48 66 41 67
REMARK SMILES IDX 47 68 49 69 46 70 42 71 43 72 44 73 45 74 71 75 72 76 80 77
REMARK SMILES IDX 73 78 79 79 81 80 78 81 74 82 75 83 76 84 77 85 56 86 57 87
REMARK SMILES IDX 65 88 58 89 64 90 66 91 63 92 59 93 60 94 61 95 62 96
REMARK H PARENT 22 6 27 30 86 49 54 60
REMARK Flexibility Score: inf
ROOT
ATOM      1  C   UNL A   1      37.237  20.844  24.764  1.00  0.00     0.023 C 
ENDROOT
BRANCH   1   2
ATOM      2  C   UNL A   1      37.652  22.189  25.361  1.00  0.00     0.116 C 
BRANCH   2   3
ATOM      3  N   UNL A   1      36.517  22.882  25.930  1.00  0.00    -0.354 N 
ATOM      4  C   UNL A   1      35.202  22.930  25.595  1.00  0.00     0.243 C 
ATOM      5  O   UNL A   1      34.527  23.763  26.216  1.00  0.00    -0.273 OA
ATOM      6  H   UNL A   1      36.743  23.430  26.716  1.00  0.00     0.163 HD
BRANCH   4   7
ATOM      7  C   UNL A   1      34.519  22.061  24.504  1.00  0.00     0.181 C 
ATOM      8  N   UNL A   1      33.218  21.461  24.759  1.00  0.00    -0.292 N 
ATOM      9  C   UNL A   1      32.147  22.300  24.260  1.00  0.00     0.169 C 
ATOM     10  C   UNL A   1      32.770  22.944  23.028  1.00  0.00     0.195 C 
ATOM     11  C   UNL A   1      34.289  22.941  23.252  1.00  0.00     0.082 C 
BRANCH   8  12
ATOM     12  C   UNL A   1      33.093  20.213  25.326  1.00  0.00     0.411 C 
ATOM     13  O   UNL A   1      33.373  19.999  26.493  1.00  0.00    -0.224 OA
BRANCH  12  14
ATOM     14  O   UNL A   1      32.567  19.312  24.459  1.00  0.00    -0.444 OA
BRANCH  14  15
ATOM     15  C   UNL A   1      33.196  18.035  24.133  1.00  0.00     0.106 C 
ATOM     16  C   UNL A   1      32.809  17.738  22.679  1.00  0.00     0.056 C 
ATOM     17  C   UNL A   1      32.553  16.978  25.038  1.00  0.00     0.056 C 
ATOM     18  C   UNL A   1      34.724  17.973  24.253  1.00  0.00     0.056 C 
ENDBRANCH  14  15
ENDBRANCH  12  14
ENDBRANCH   8  12
BRANCH  10  19
ATOM     19  O   UNL A   1      32.173  24.148  22.564  1.00  0.00    -0.487 OA
BRANCH  19  20
ATOM     20  C   UNL A   1      32.632  25.392  22.852  1.00  0.00     0.138 A 
ATOM     21  C   UNL A   1      33.277  26.284  22.008  1.00  0.00     0.050 A 
ATOM     22  C   UNL A   1      32.419  25.815  24.163  1.00  0.00     0.157 A 
ATOM     23  C   UNL A   1      33.653  27.544  22.484  1.00  0.00     0.024 A 
ATOM     24  N   UNL A   1      32.777  27.023  24.663  1.00  0.00    -0.261 NA
ATOM     25  C   UNL A   1      33.384  27.865  23.804  1.00  0.00     0.111 A 
ENDBRANCH  19  20
ENDBRANCH  10  19
ENDBRANCH   4   7
ENDBRANCH   2   3
ENDBRANCH   1   2
BRANCH   1  26
ATOM     26  C   UNL A   1      38.248  19.719  24.992  1.00  0.00     0.023 C 
BRANCH  26  27
ATOM     27  C   UNL A   1      39.242  19.956  26.125  1.00  0.00     0.116 C 
BRANCH  27  28
ATOM     28  N   UNL A   1      40.459  19.164  26.022  1.00  0.00    -0.352 N 
ATOM     29  C   UNL A   1      41.761  19.596  26.146  1.00  0.00     0.251 C 
ATOM     30  H   UNL A   1      40.337  18.204  25.841  1.00  0.00     0.163 HD
ATOM     31  O   UNL A   1      42.693  18.827  25.945  1.00  0.00    -0.269 OA
BRANCH  29  32
ATOM     32  C   UNL A   1      42.003  21.017  26.474  1.00  0.00     0.039 A 
ATOM     33  C   UNL A   1      42.310  21.366  27.789  1.00  0.00     0.014 A 
ATOM     34  C   UNL A   1      42.026  21.977  25.458  1.00  0.00     0.014 A 
ATOM     35  C   UNL A   1      42.725  22.668  28.072  1.00  0.00     0.010 A 
ATOM     36  C   UNL A   1      42.520  23.248  25.729  1.00  0.00     0.010 A 
ATOM     37  C   UNL A   1      42.880  23.607  27.037  1.00  0.00    -0.014 A 
BRANCH  37  38
ATOM     38  C   UNL A   1      43.425  24.965  27.301  1.00  0.00     0.031 A 
ATOM     39  C   UNL A   1      42.521  26.044  27.832  1.00  0.00     0.074 A 
ATOM     40  C   UNL A   1      44.710  25.242  27.002  1.00  0.00     0.049 A 
ATOM     41  N   UNL A   1      42.782  27.306  28.060  1.00  0.00    -0.248 NA
ATOM     42  C   UNL A   1      41.130  25.660  28.114  1.00  0.00     0.031 C 
ATOM     43  C   UNL A   1      45.671  24.289  26.441  1.00  0.00     0.029 A 
ATOM     44  N   UNL A   1      45.431  26.404  27.121  1.00  0.00    -0.354 N 
ATOM     45  C   UNL A   1      41.588  27.867  28.498  1.00  0.00     0.074 A 
ATOM     46  C   UNL A   1      40.588  26.824  28.437  1.00  0.00     0.031 C 
ATOM     47  C   UNL A   1      46.861  24.896  26.299  1.00  0.00     0.029 A 
ATOM     48  C   UNL A   1      46.738  26.292  26.706  1.00  0.00     0.049 A 
ATOM     49  H   UNL A   1      45.048  27.241  27.470  1.00  0.00     0.167 HD
ATOM     50  C   UNL A   1      41.355  29.129  28.936  1.00  0.00     0.034 A 
ATOM     51  C   UNL A   1      47.723  27.211  26.650  1.00  0.00     0.034 A 
ATOM     52  C   UNL A   1      42.369  30.153  29.002  1.00  0.00     0.049 A 
ATOM     53  C   UNL A   1      47.430  28.618  27.109  1.00  0.00     0.074 A 
ATOM     54  C   UNL A   1      42.257  31.446  29.483  1.00  0.00     0.029 A 
ATOM     55  N   UNL A   1      43.679  30.005  28.564  1.00  0.00    -0.354 N 
ATOM     56  N   UNL A   1      46.308  29.118  27.575  1.00  0.00    -0.248 NA
ATOM     57  C   UNL A   1      48.536  29.580  27.044  1.00  0.00     0.031 C 
ATOM     58  C   UNL A   1      43.472  32.102  29.263  1.00  0.00     0.029 A 
ATOM     59  C   UNL A   1      44.373  31.195  28.728  1.00  0.00     0.049 A 
ATOM     60  H   UNL A   1      44.060  29.177  28.191  1.00  0.00     0.167 HD
ATOM     61  C   UNL A   1      46.587  30.446  27.892  1.00  0.00     0.074 A 
ATOM     62  C   UNL A   1      47.985  30.660  27.577  1.00  0.00     0.031 C 
ATOM     63  C   UNL A   1      45.766  31.399  28.401  1.00  0.00     0.034 A 
BRANCH  50  64
ATOM     64  C   UNL A   1      39.942  29.472  29.351  1.00  0.00     0.023 A 
ATOM     65  C   UNL A   1      39.567  29.551  30.703  1.00  0.00     0.031 A 
ATOM     66  C   UNL A   1      38.950  29.697  28.380  1.00  0.00     0.131 A 
ATOM     67  C   UNL A   1      38.224  29.766  31.047  1.00  0.00     0.055 A 
ATOM     68  C   UNL A   1      37.633  30.001  28.730  1.00  0.00     0.041 A 
ATOM     69  F   UNL A   1      39.241  29.614  27.073  1.00  0.00    -0.206 F 
ATOM     70  C   UNL A   1      37.259  30.019  30.070  1.00  0.00     0.022 A 
BRANCH  67  71
ATOM     71  S   UNL A   1      37.730  29.553  32.780  1.00  0.00     0.124 S 
ATOM     72  O   UNL A   1      37.632  28.098  32.881  1.00  0.00    -0.237 OA
ATOM     73  O   UNL A   1      38.836  30.171  33.501  1.00  0.00    -0.237 OA
ATOM     74  O   UNL A   1      36.455  30.263  32.862  1.00  0.00    -0.744 OA
ENDBRANCH  67  71
ENDBRANCH  50  64
BRANCH  51  75
ATOM     75  C   UNL A   1      49.077  26.846  26.135  1.00  0.00     0.023 A 
ATOM     76  C   UNL A   1      49.534  27.331  24.900  1.00  0.00     0.031 A 
ATOM     77  C   UNL A   1      49.912  25.965  26.845  1.00  0.00     0.131 A 
ATOM     78  C   UNL A   1      50.766  26.894  24.386  1.00  0.00     0.055 A 
ATOM     79  C   UNL A   1      51.163  25.580  26.359  1.00  0.00     0.041 A 
ATOM     80  F   UNL A   1      49.526  25.471  28.032  1.00  0.00    -0.206 F 
ATOM     81  C   UNL A   1      51.591  26.034  25.115  1.00  0.00     0.022 A 
BRANCH  78  82
ATOM     82  S   UNL A   1      51.231  27.389  22.706  1.00  0.00     0.124 S 
ATOM     83  O   UNL A   1      50.219  26.710  21.905  1.00  0.00    -0.237 OA
ATOM     84  O   UNL A   1      51.124  28.843  22.777  1.00  0.00    -0.237 OA
ATOM     85  O   UNL A   1      52.591  26.873  22.563  1.00  0.00    -0.744 OA
ENDBRANCH  78  82
ENDBRANCH  51  75
BRANCH  63  86
ATOM     86  C   UNL A   1      46.375  32.748  28.696  1.00  0.00     0.023 A 
ATOM     87  C   UNL A   1      46.397  33.780  27.741  1.00  0.00     0.031 A 
ATOM     88  C   UNL A   1      46.950  33.003  29.955  1.00  0.00     0.131 A 
ATOM     89  C   UNL A   1      47.031  34.994  28.039  1.00  0.00     0.055 A 
ATOM     90  C   UNL A   1      47.519  34.237  30.268  1.00  0.00     0.041 A 
ATOM     91  F   UNL A   1      46.963  32.053  30.905  1.00  0.00    -0.206 F 
ATOM     92  C   UNL A   1      47.574  35.237  29.303  1.00  0.00     0.022 A 
BRANCH  89  93
ATOM     93  S   UNL A   1      47.225  36.222  26.718  1.00  0.00     0.124 S 
ATOM     94  O   UNL A   1      46.257  35.759  25.730  1.00  0.00    -0.237 OA
ATOM     95  O   UNL A   1      46.894  37.469  27.399  1.00  0.00    -0.237 OA
ATOM     96  O   UNL A   1      48.626  36.085  26.325  1.00  0.00    -0.744 OA
ENDBRANCH  89  93
ENDBRANCH  63  86
ENDBRANCH  37  38
ENDBRANCH  29  32
ENDBRANCH  27  28
ENDBRANCH  26  27
ENDBRANCH   1  26
TORSDOF 19
ENDMDL
MODEL 3
REMARK VINA RESULT:     -10.9      2.052      7.786
REMARK SMILES CC(C)(C)OC(=O)N1C[C@@H](Oc2cccnc2)C[C@H]1C(=O)NCCCCNC(=O)c1ccc(-c2c3nc(c(-c4cc(S(=O)(=O)[O-])ccc4F)c4ccc([nH]4)c(-c4cc(S(=O)(=O)[O-])ccc4F)c4nc(c(-c5cc(S(=O)(=O)[O-])ccc5F)c5ccc2[nH]5)C=C4)C=C3)cc1
REMARK SMILES IDX 24 1 23 2 22 3 20 4 21 5 19 7 8 8 9 9 10 10 18 11 6 12 7 13
REMARK SMILES IDX 5 14 2 15 1 16 3 17 4 18 11 19 12 20 13 21 17 22 14 23 16 24
REMARK SMILES IDX 15 25 25 26 26 27 27 28 28 29 29 31 30 32 31 33 92 34 32 35
REMARK SMILES IDX 91 36 33 37 34 38 35 39 85 40 36 41 90 42 84 43 86 44 37 45
REMARK SMILES IDX 89 46 83 47 82 48 38 50 70 51 50 52 69 53 51 54 54 55 68 56
REMARK SMILES IDX 87 57 52 58 53 59 67 61 88 62 55 63 39 64 40 65 48 66 41 67
REMARK SMILES IDX 47 68 49 69 46 70 42 71 43 72 44 73 45 74 71 75 72 76 80 77
REMARK SMILES IDX 73 78 79 79 81 80 78 81 74 82 75 83 76 84 77 85 56 86 57 87
REMARK SMILES IDX 65 88 58 89 64 90 66 91 63 92 59 93 60 94 61 95 62 96
REMARK H PARENT 22 6 27 30 86 49 54 60
REMARK Flexibility Score: inf
ROOT
ATOM      1  C   UNL A   1      35.986  20.154  24.981  1.00  0.00     0.023 C 
ENDROOT
BRANCH   1   2
ATOM      2  C   UNL A   1      36.013  21.452  25.789  1.00  0.00     0.116 C 
BRANCH   2   3
ATOM      3  N   UNL A   1      34.991  21.452  26.814  1.00  0.00    -0.354 N 
ATOM      4  C   UNL A   1      33.760  22.018  26.890  1.00  0.00     0.243 C 
ATOM      5  O   UNL A   1      33.209  21.944  27.997  1.00  0.00    -0.273 OA
ATOM      6  H   UNL A   1      35.240  20.940  27.617  1.00  0.00     0.163 HD
BRANCH   4   7
ATOM      7  C   UNL A   1      33.035  22.753  25.729  1.00  0.00     0.181 C 
ATOM      8  N   UNL A   1      33.787  23.193  24.563  1.00  0.00    -0.292 N 
ATOM      9  C   UNL A   1      33.732  22.208  23.501  1.00  0.00     0.169 C 
ATOM     10  C   UNL A   1      32.344  21.603  23.675  1.00  0.00     0.195 C 
ATOM     11  C   UNL A   1      31.959  21.806  25.148  1.00  0.00     0.082 C 
BRANCH   8  12
ATOM     12  C   UNL A   1      34.378  24.435  24.506  1.00  0.00     0.411 C 
ATOM     13  O   UNL A   1      35.158  24.823  25.358  1.00  0.00    -0.224 OA
BRANCH  12  14
ATOM     14  O   UNL A   1      34.039  25.107  23.378  1.00  0.00    -0.444 OA
BRANCH  14  15
ATOM     15  C   UNL A   1      32.949  26.076  23.305  1.00  0.00     0.106 C 
ATOM     16  C   UNL A   1      31.704  25.276  22.901  1.00  0.00     0.056 C 
ATOM     17  C   UNL A   1      33.294  27.052  22.174  1.00  0.00     0.056 C 
ATOM     18  C   UNL A   1      32.633  26.850  24.591  1.00  0.00     0.056 C 
ENDBRANCH  14  15
ENDBRANCH  12  14
ENDBRANCH   8  12
BRANCH  10  19
ATOM     19  O   UNL A   1      32.131  20.317  23.108  1.00  0.00    -0.487 OA
BRANCH  19  20
ATOM     20  C   UNL A   1      32.512  19.150  23.687  1.00  0.00     0.138 A 
ATOM     21  C   UNL A   1      32.574  18.844  25.038  1.00  0.00     0.050 A 
ATOM     22  C   UNL A   1      32.881  18.141  22.799  1.00  0.00     0.157 A 
ATOM     23  C   UNL A   1      32.969  17.566  25.444  1.00  0.00     0.024 A 
ATOM     24  N   UNL A   1      33.277  16.893  23.155  1.00  0.00    -0.261 NA
ATOM     25  C   UNL A   1      33.306  16.634  24.477  1.00  0.00     0.111 A 
ENDBRANCH  19  20
ENDBRANCH  10  19
ENDBRANCH   4   7
ENDBRANCH   2   3
ENDBRANCH   1   2
BRANCH   1  26
ATOM     26  C   UNL A   1      37.360  19.515  24.779  1.00  0.00     0.023 C 
BRANCH  26  27
ATOM     27  C   UNL A   1      38.475  20.074  25.658  1.00  0.00     0.116 C 
BRANCH  27  28
ATOM     28  N   UNL A   1      39.641  19.207  25.760  1.00  0.00    -0.352 N 
ATOM     29  C   UNL A   1      40.917  19.551  26.148  1.00  0.00     0.251 C 
ATOM     30  H   UNL A   1      39.500  18.262  25.522  1.00  0.00     0.163 HD
ATOM     31  O   UNL A   1      41.824  18.728  26.101  1.00  0.00    -0.269 OA
BRANCH  29  32
ATOM     32  C   UNL A   1      41.174  20.943  26.570  1.00  0.00     0.039 A 
ATOM     33  C   UNL A   1      41.949  21.175  27.708  1.00  0.00     0.014 A 
ATOM     34  C   UNL A   1      40.733  22.009  25.781  1.00  0.00     0.014 A 
ATOM     35  C   UNL A   1      42.354  22.476  28.006  1.00  0.00     0.010 A 
ATOM     36  C   UNL A   1      41.208  23.291  26.033  1.00  0.00     0.010 A 
ATOM     37  C   UNL A   1      42.028  23.539  27.145  1.00  0.00    -0.014 A 
BRANCH  37  38
ATOM     38  C   UNL A   1      42.542  24.913  27.385  1.00  0.00     0.031 A 
ATOM     39  C   UNL A   1      41.672  25.927  28.078  1.00  0.00     0.074 A 
ATOM     40  C   UNL A   1      43.759  25.265  26.924  1.00  0.00     0.049 A 
ATOM     41  N   UNL A   1      41.905  27.192  28.317  1.00  0.00    -0.248 NA
ATOM     42  C   UNL A   1      40.353  25.464  28.533  1.00  0.00     0.031 C 
ATOM     43  C   UNL A   1      44.675  24.381  26.198  1.00  0.00     0.029 A 
ATOM     44  N   UNL A   1      44.436  26.457  26.988  1.00  0.00    -0.354 N 
ATOM     45  C   UNL A   1      40.759  27.677  28.938  1.00  0.00     0.074 A 
ATOM     46  C   UNL A   1      39.809  26.587  28.973  1.00  0.00     0.031 C 
ATOM     47  C   UNL A   1      45.804  25.052  25.918  1.00  0.00     0.029 A 
ATOM     48  C   UNL A   1      45.676  26.425  26.394  1.00  0.00     0.049 A 
ATOM     49  H   UNL A   1      44.067  27.262  27.420  1.00  0.00     0.167 HD
ATOM     50  C   UNL A   1      40.532  28.910  29.454  1.00  0.00     0.034 A 
ATOM     51  C   UNL A   1      46.601  27.395  26.239  1.00  0.00     0.034 A 
ATOM     52  C   UNL A   1      41.497  29.982  29.420  1.00  0.00     0.049 A 
ATOM     53  C   UNL A   1      46.310  28.769  26.790  1.00  0.00     0.074 A 
ATOM     54  C   UNL A   1      41.394  31.251  29.963  1.00  0.00     0.029 A 
ATOM     55  N   UNL A   1      42.739  29.916  28.801  1.00  0.00    -0.354 N 
ATOM     56  N   UNL A   1      45.243  29.195  27.425  1.00  0.00    -0.248 NA
ATOM     57  C   UNL A   1      47.351  29.788  26.612  1.00  0.00     0.031 C 
ATOM     58  C   UNL A   1      42.536  31.974  29.604  1.00  0.00     0.029 A 
ATOM     59  C   UNL A   1      43.394  31.132  28.914  1.00  0.00     0.049 A 
ATOM     60  H   UNL A   1      43.102  29.120  28.346  1.00  0.00     0.167 HD
ATOM     61  C   UNL A   1      45.502  30.525  27.753  1.00  0.00     0.074 A 
ATOM     62  C   UNL A   1      46.831  30.820  27.258  1.00  0.00     0.031 C 
ATOM     63  C   UNL A   1      44.717  31.417  28.408  1.00  0.00     0.034 A 
BRANCH  50  64
ATOM     64  C   UNL A   1      39.177  29.167  30.072  1.00  0.00     0.023 A 
ATOM     65  C   UNL A   1      38.168  29.862  29.382  1.00  0.00     0.031 A 
ATOM     66  C   UNL A   1      38.898  28.734  31.381  1.00  0.00     0.131 A 
ATOM     67  C   UNL A   1      36.963  30.173  30.028  1.00  0.00     0.055 A 
ATOM     68  C   UNL A   1      37.662  28.970  31.987  1.00  0.00     0.041 A 
ATOM     69  F   UNL A   1      39.828  28.087  32.100  1.00  0.00    -0.206 F 
ATOM     70  C   UNL A   1      36.692  29.708  31.317  1.00  0.00     0.022 A 
BRANCH  67  71
ATOM     71  S   UNL A   1      35.821  31.329  29.220  1.00  0.00     0.124 S 
ATOM     72  O   UNL A   1      36.748  32.232  28.542  1.00  0.00    -0.237 OA
ATOM     73  O   UNL A   1      35.041  30.449  28.358  1.00  0.00    -0.237 OA
ATOM     74  O   UNL A   1      35.088  31.923  30.336  1.00  0.00    -0.744 OA
ENDBRANCH  67  71
ENDBRANCH  50  64
BRANCH  51  75
ATOM     75  C   UNL A   1      47.884  27.116  25.529  1.00  0.00     0.023 A 
ATOM     76  C   UNL A   1      49.001  26.624  26.221  1.00  0.00     0.031 A 
ATOM     77  C   UNL A   1      48.030  27.389  24.157  1.00  0.00     0.131 A 
ATOM     78  C   UNL A   1      50.228  26.467  25.556  1.00  0.00     0.055 A 
ATOM     79  C   UNL A   1      49.235  27.175  23.484  1.00  0.00     0.041 A 
ATOM     80  F   UNL A   1      46.995  27.861  23.444  1.00  0.00    -0.206 F 
ATOM     81  C   UNL A   1      50.348  26.725  24.188  1.00  0.00     0.022 A 
BRANCH  78  82
ATOM     82  S   UNL A   1      51.691  26.015  26.526  1.00  0.00     0.124 S 
ATOM     83  O   UNL A   1      51.226  24.823  27.226  1.00  0.00    -0.237 OA
ATOM     84  O   UNL A   1      52.691  25.799  25.485  1.00  0.00    -0.237 OA
ATOM     85  O   UNL A   1      51.915  27.188  27.370  1.00  0.00    -0.744 OA
ENDBRANCH  78  82
ENDBRANCH  51  75
BRANCH  63  86
ATOM     86  C   UNL A   1      45.299  32.785  28.670  1.00  0.00     0.023 A 
ATOM     87  C   UNL A   1      46.061  33.062  29.819  1.00  0.00     0.031 A 
ATOM     88  C   UNL A   1      45.081  33.833  27.756  1.00  0.00     0.131 A 
ATOM     89  C   UNL A   1      46.527  34.364  30.052  1.00  0.00     0.055 A 
ATOM     90  C   UNL A   1      45.605  35.109  27.960  1.00  0.00     0.041 A 
ATOM     91  F   UNL A   1      44.357  33.629  26.643  1.00  0.00    -0.206 F 
ATOM     92  C   UNL A   1      46.322  35.384  29.120  1.00  0.00     0.022 A 
BRANCH  89  93
ATOM     93  S   UNL A   1      47.324  34.733  31.639  1.00  0.00     0.124 S 
ATOM     94  O   UNL A   1      46.899  33.604  32.460  1.00  0.00    -0.237 OA
ATOM     95  O   UNL A   1      48.738  34.762  31.280  1.00  0.00    -0.237 OA
ATOM     96  O   UNL A   1      46.755  36.024  32.017  1.00  0.00    -0.744 OA
ENDBRANCH  89  93
ENDBRANCH  63  86
ENDBRANCH  37  38
ENDBRANCH  29  32
ENDBRANCH  27  28
ENDBRANCH  26  27
ENDBRANCH   1  26
TORSDOF 19
ENDMDL
