MODEL 1
REMARK VINA RESULT:     -12.6      0.000      0.000
REMARK SMILES COC(=O)c1cc(F)cc(-c2ccccc2C(=O)NCCCCNC(=O)c2ccc(-c3c4nc(c(-c5cc(S(=O)(=O)[O-])ccc5F)c5ccc([nH]5)c(-c5cc(S(=O)(=O)[O-])ccc5F)c5nc(c(-c6cc(S(=O)(=O)[O-])ccc6F)c6ccc3[nH]6)C=C5)C=C4)cc2)c1
REMARK SMILES IDX 21 1 20 2 19 3 17 4 18 5 16 7 11 8 12 9 13 10 15 11 14 12
REMARK SMILES IDX 10 13 5 14 6 15 90 16 7 17 8 18 9 19 3 20 4 21 2 22 1 23
REMARK SMILES IDX 22 24 23 25 24 26 25 27 26 29 27 30 28 31 89 32 29 33 88 34
REMARK SMILES IDX 30 35 31 36 32 37 82 38 33 39 87 40 81 41 83 42 34 43 86 44
REMARK SMILES IDX 80 45 79 46 35 48 67 49 47 50 66 51 48 52 51 53 65 54 84 55
REMARK SMILES IDX 49 56 50 57 64 59 85 60 52 61 36 62 37 63 45 64 38 65 44 66
REMARK SMILES IDX 46 67 43 68 39 69 40 70 41 71 42 72 68 73 69 74 77 75 70 76
REMARK SMILES IDX 76 77 78 78 75 79 71 80 72 81 73 82 74 83 53 84 54 85 62 86
REMARK SMILES IDX 55 87 61 88 63 89 60 90 56 91 57 92 58 93 59 94
REMARK H PARENT 19 6 24 28 83 47 51 58
REMARK Flexibility Score: inf
ROOT
ATOM      1  C   UNL A   1      33.401  28.772  24.560  1.00  0.00     0.023 C 
ENDROOT
BRANCH   1   2
ATOM      2  C   UNL A   1      33.674  28.953  23.073  1.00  0.00     0.116 C 
BRANCH   2   3
ATOM      3  N   UNL A   1      33.827  27.746  22.298  1.00  0.00    -0.352 N 
ATOM      4  C   UNL A   1      32.928  26.737  22.034  1.00  0.00     0.251 C 
ATOM      5  O   UNL A   1      33.278  25.855  21.247  1.00  0.00    -0.269 OA
ATOM      6  H   UNL A   1      34.716  27.624  21.893  1.00  0.00     0.163 HD
BRANCH   4   7
ATOM      7  C   UNL A   1      31.592  26.585  22.700  1.00  0.00     0.047 A 
ATOM      8  C   UNL A   1      31.211  25.610  23.653  1.00  0.00    -0.005 A 
ATOM      9  C   UNL A   1      29.914  25.696  24.214  1.00  0.00     0.009 A 
ATOM     10  C   UNL A   1      29.028  26.719  23.876  1.00  0.00     0.001 A 
ATOM     11  C   UNL A   1      30.684  27.621  22.385  1.00  0.00     0.014 A 
ATOM     12  C   UNL A   1      29.416  27.688  22.965  1.00  0.00     0.001 A 
BRANCH   8  13
ATOM     13  C   UNL A   1      32.077  24.527  24.139  1.00  0.00    -0.014 A 
ATOM     14  C   UNL A   1      32.641  22.174  24.299  1.00  0.00     0.063 A 
ATOM     15  C   UNL A   1      33.594  22.431  25.285  1.00  0.00     0.055 A 
ATOM     16  C   UNL A   1      31.899  23.207  23.713  1.00  0.00     0.024 A 
ATOM     17  C   UNL A   1      33.817  23.749  25.655  1.00  0.00     0.124 A 
ATOM     18  F   UNL A   1      34.708  24.030  26.612  1.00  0.00    -0.207 F 
ATOM     19  C   UNL A   1      33.083  24.790  25.089  1.00  0.00     0.048 A 
BRANCH  14  20
ATOM     20  C   UNL A   1      32.336  20.802  23.882  1.00  0.00     0.337 C 
ATOM     21  O   UNL A   1      32.153  20.479  22.721  1.00  0.00    -0.246 OA
BRANCH  20  22
ATOM     22  O   UNL A   1      32.153  20.065  25.000  1.00  0.00    -0.465 OA
ATOM     23  C   UNL A   1      32.638  18.724  24.916  1.00  0.00     0.282 C 
ENDBRANCH  20  22
ENDBRANCH  14  20
ENDBRANCH   8  13
ENDBRANCH   4   7
ENDBRANCH   2   3
ENDBRANCH   1   2
BRANCH   1  24
ATOM     24  C   UNL A   1      32.161  29.453  25.142  1.00  0.00     0.023 C 
BRANCH  24  25
ATOM     25  C   UNL A   1      32.164  29.851  26.618  1.00  0.00     0.116 C 
BRANCH  25  26
ATOM     26  N   UNL A   1      32.180  31.279  26.888  1.00  0.00    -0.352 N 
ATOM     27  C   UNL A   1      33.209  32.085  27.333  1.00  0.00     0.251 C 
ATOM     28  H   UNL A   1      31.326  31.743  26.730  1.00  0.00     0.163 HD
ATOM     29  O   UNL A   1      33.017  33.298  27.416  1.00  0.00    -0.269 OA
BRANCH  27  30
ATOM     30  C   UNL A   1      34.509  31.514  27.775  1.00  0.00     0.039 A 
ATOM     31  C   UNL A   1      35.576  32.389  28.011  1.00  0.00     0.014 A 
ATOM     32  C   UNL A   1      34.690  30.147  27.987  1.00  0.00     0.014 A 
ATOM     33  C   UNL A   1      36.767  31.911  28.572  1.00  0.00     0.010 A 
ATOM     34  C   UNL A   1      35.853  29.676  28.600  1.00  0.00     0.010 A 
ATOM     35  C   UNL A   1      36.889  30.559  28.932  1.00  0.00    -0.014 A 
BRANCH  35  36
ATOM     36  C   UNL A   1      38.036  30.078  29.749  1.00  0.00     0.031 A 
ATOM     37  C   UNL A   1      38.250  30.565  31.155  1.00  0.00     0.074 A 
ATOM     38  C   UNL A   1      38.937  29.251  29.177  1.00  0.00     0.049 A 
ATOM     39  N   UNL A   1      39.231  30.295  31.978  1.00  0.00    -0.248 NA
ATOM     40  C   UNL A   1      37.247  31.494  31.698  1.00  0.00     0.031 C 
ATOM     41  C   UNL A   1      38.871  28.753  27.800  1.00  0.00     0.029 A 
ATOM     42  N   UNL A   1      40.084  28.681  29.675  1.00  0.00    -0.354 N 
ATOM     43  C   UNL A   1      38.967  31.017  33.137  1.00  0.00     0.074 A 
ATOM     44  C   UNL A   1      37.757  31.775  32.891  1.00  0.00     0.031 C 
ATOM     45  C   UNL A   1      39.902  27.925  27.578  1.00  0.00     0.029 A 
ATOM     46  C   UNL A   1      40.727  27.857  28.780  1.00  0.00     0.049 A 
ATOM     47  H   UNL A   1      40.415  28.847  30.587  1.00  0.00     0.167 HD
ATOM     48  C   UNL A   1      39.657  31.028  34.304  1.00  0.00     0.034 A 
ATOM     49  C   UNL A   1      41.851  27.126  28.909  1.00  0.00     0.034 A 
ATOM     50  C   UNL A   1      40.848  30.254  34.547  1.00  0.00     0.049 A 
ATOM     51  C   UNL A   1      42.594  27.153  30.217  1.00  0.00     0.074 A 
ATOM     52  C   UNL A   1      41.594  30.167  35.711  1.00  0.00     0.029 A 
ATOM     53  N   UNL A   1      41.463  29.429  33.618  1.00  0.00    -0.354 N 
ATOM     54  N   UNL A   1      42.314  27.829  31.305  1.00  0.00    -0.248 NA
ATOM     55  C   UNL A   1      43.799  26.317  30.317  1.00  0.00     0.031 C 
ATOM     56  C   UNL A   1      42.681  29.318  35.474  1.00  0.00     0.029 A 
ATOM     57  C   UNL A   1      42.584  28.838  34.178  1.00  0.00     0.049 A 
ATOM     58  H   UNL A   1      41.149  29.285  32.696  1.00  0.00     0.167 HD
ATOM     59  C   UNL A   1      43.293  27.480  32.229  1.00  0.00     0.074 A 
ATOM     60  C   UNL A   1      44.171  26.532  31.572  1.00  0.00     0.031 C 
ATOM     61  C   UNL A   1      43.447  27.900  33.508  1.00  0.00     0.034 A 
BRANCH  48  62
ATOM     62  C   UNL A   1      39.138  31.897  35.417  1.00  0.00     0.023 A 
ATOM     63  C   UNL A   1      38.465  31.341  36.518  1.00  0.00     0.031 A 
ATOM     64  C   UNL A   1      39.361  33.284  35.407  1.00  0.00     0.131 A 
ATOM     65  C   UNL A   1      38.006  32.173  37.548  1.00  0.00     0.055 A 
ATOM     66  C   UNL A   1      38.953  34.101  36.462  1.00  0.00     0.041 A 
ATOM     67  F   UNL A   1      39.990  33.867  34.373  1.00  0.00    -0.206 F 
ATOM     68  C   UNL A   1      38.266  33.547  37.540  1.00  0.00     0.022 A 
BRANCH  65  69
ATOM     69  S   UNL A   1      37.022  31.445  38.885  1.00  0.00     0.124 S 
ATOM     70  O   UNL A   1      36.837  30.080  38.399  1.00  0.00    -0.237 OA
ATOM     71  O   UNL A   1      37.892  31.596  40.044  1.00  0.00    -0.237 OA
ATOM     72  O   UNL A   1      35.812  32.265  38.904  1.00  0.00    -0.744 OA
ENDBRANCH  65  69
ENDBRANCH  48  62
BRANCH  49  73
ATOM     73  C   UNL A   1      42.330  26.284  27.780  1.00  0.00     0.023 A 
ATOM     74  C   UNL A   1      41.911  24.950  27.656  1.00  0.00     0.031 A 
ATOM     75  C   UNL A   1      43.214  26.793  26.813  1.00  0.00     0.131 A 
ATOM     76  C   UNL A   1      42.398  24.160  26.604  1.00  0.00     0.055 A 
ATOM     77  C   UNL A   1      43.667  26.014  25.747  1.00  0.00     0.041 A 
ATOM     78  F   UNL A   1      43.633  28.067  26.883  1.00  0.00    -0.206 F 
ATOM     79  C   UNL A   1      43.264  24.686  25.643  1.00  0.00     0.022 A 
BRANCH  76  80
ATOM     80  S   UNL A   1      41.911  22.414  26.533  1.00  0.00     0.124 S 
ATOM     81  O   UNL A   1      42.534  21.882  27.742  1.00  0.00    -0.237 OA
ATOM     82  O   UNL A   1      40.455  22.503  26.548  1.00  0.00    -0.237 OA
ATOM     83  O   UNL A   1      42.493  21.950  25.275  1.00  0.00    -0.744 OA
ENDBRANCH  76  80
ENDBRANCH  49  73
BRANCH  61  84
ATOM     84  C   UNL A   1      44.584  27.311  34.294  1.00  0.00     0.023 A 
ATOM     85  C   UNL A   1      44.424  26.130  35.036  1.00  0.00     0.031 A 
ATOM     86  C   UNL A   1      45.852  27.916  34.260  1.00  0.00     0.131 A 
ATOM     87  C   UNL A   1      45.514  25.600  35.741  1.00  0.00     0.055 A 
ATOM     88  C   UNL A   1      46.942  27.364  34.931  1.00  0.00     0.041 A 
ATOM     89  F   UNL A   1      46.051  29.044  33.559  1.00  0.00    -0.206 F 
ATOM     90  C   UNL A   1      46.776  26.201  35.679  1.00  0.00     0.022 A 
BRANCH  87  91
ATOM     91  S   UNL A   1      45.266  24.114  36.747  1.00  0.00     0.124 S 
ATOM     92  O   UNL A   1      44.492  23.266  35.846  1.00  0.00    -0.237 OA
ATOM     93  O   UNL A   1      46.633  23.676  37.014  1.00  0.00    -0.237 OA
ATOM     94  O   UNL A   1      44.538  24.608  37.914  1.00  0.00    -0.744 OA
ENDBRANCH  87  91
ENDBRANCH  61  84
ENDBRANCH  35  36
ENDBRANCH  27  30
ENDBRANCH  25  26
ENDBRANCH  24  25
ENDBRANCH   1  24
TORSDOF 17
ENDMDL
MODEL 2
REMARK VINA RESULT:     -12.4      1.751      3.382
REMARK SMILES COC(=O)c1cc(F)cc(-c2ccccc2C(=O)NCCCCNC(=O)c2ccc(-c3c4nc(c(-c5cc(S(=O)(=O)[O-])ccc5F)c5ccc([nH]5)c(-c5cc(S(=O)(=O)[O-])ccc5F)c5nc(c(-c6cc(S(=O)(=O)[O-])ccc6F)c6ccc3[nH]6)C=C5)C=C4)cc2)c1
REMARK SMILES IDX 21 1 20 2 19 3 17 4 18 5 16 7 11 8 12 9 13 10 15 11 14 12
REMARK SMILES IDX 10 13 5 14 6 15 90 16 7 17 8 18 9 19 3 20 4 21 2 22 1 23
REMARK SMILES IDX 22 24 23 25 24 26 25 27 26 29 27 30 28 31 89 32 29 33 88 34
REMARK SMILES IDX 30 35 31 36 32 37 82 38 33 39 87 40 81 41 83 42 34 43 86 44
REMARK SMILES IDX 80 45 79 46 35 48 67 49 47 50 66 51 48 52 51 53 65 54 84 55
REMARK SMILES IDX 49 56 50 57 64 59 85 60 52 61 36 62 37 63 45 64 38 65 44 66
REMARK SMILES IDX 46 67 43 68 39 69 40 70 41 71 42 72 68 73 69 74 77 75 70 76
REMARK SMILES IDX 76 77 78 78 75 79 71 80 72 81 73 82 74 83 53 84 54 85 62 86
REMARK SMILES IDX 55 87 61 88 63 89 60 90 56 91 57 92 58 93 59 94
REMARK H PARENT 19 6 24 28 83 47 51 58
REMARK Flexibility Score: inf
ROOT
ATOM      1  C   UNL A   1      33.400  28.561  24.991  1.00  0.00     0.023 C 
ENDROOT
BRANCH   1   2
ATOM      2  C   UNL A   1      33.682  27.580  26.121  1.00  0.00     0.116 C 
BRANCH   2   3
ATOM      3  N   UNL A   1      32.584  26.736  26.526  1.00  0.00    -0.352 N 
ATOM      4  C   UNL A   1      32.011  25.657  25.891  1.00  0.00     0.251 C 
ATOM      5  O   UNL A   1      31.142  25.033  26.505  1.00  0.00    -0.269 OA
ATOM      6  H   UNL A   1      32.182  26.968  27.393  1.00  0.00     0.163 HD
BRANCH   4   7
ATOM      7  C   UNL A   1      32.300  25.241  24.479  1.00  0.00     0.047 A 
ATOM      8  C   UNL A   1      31.589  25.605  23.311  1.00  0.00    -0.005 A 
ATOM      9  C   UNL A   1      32.082  25.158  22.062  1.00  0.00     0.009 A 
ATOM     10  C   UNL A   1      33.249  24.402  21.955  1.00  0.00     0.001 A 
ATOM     11  C   UNL A   1      33.489  24.488  24.346  1.00  0.00     0.014 A 
ATOM     12  C   UNL A   1      33.959  24.073  23.099  1.00  0.00     0.001 A 
BRANCH   8  13
ATOM     13  C   UNL A   1      30.387  26.451  23.289  1.00  0.00    -0.014 A 
ATOM     14  C   UNL A   1      29.315  28.602  22.964  1.00  0.00     0.063 A 
ATOM     15  C   UNL A   1      28.116  28.127  23.497  1.00  0.00     0.055 A 
ATOM     16  C   UNL A   1      30.438  27.775  22.840  1.00  0.00     0.024 A 
ATOM     17  C   UNL A   1      28.049  26.794  23.877  1.00  0.00     0.124 A 
ATOM     18  F   UNL A   1      26.922  26.311  24.411  1.00  0.00    -0.207 F 
ATOM     19  C   UNL A   1      29.158  25.957  23.768  1.00  0.00     0.048 A 
BRANCH  14  20
ATOM     20  C   UNL A   1      29.462  30.006  22.569  1.00  0.00     0.337 C 
ATOM     21  O   UNL A   1      29.585  30.919  23.367  1.00  0.00    -0.246 OA
BRANCH  20  22
ATOM     22  O   UNL A   1      29.277  30.076  21.232  1.00  0.00    -0.465 OA
ATOM     23  C   UNL A   1      28.139  30.837  20.827  1.00  0.00     0.282 C 
ENDBRANCH  20  22
ENDBRANCH  14  20
ENDBRANCH   8  13
ENDBRANCH   4   7
ENDBRANCH   2   3
ENDBRANCH   1   2
BRANCH   1  24
ATOM     24  C   UNL A   1      32.411  29.696  25.266  1.00  0.00     0.023 C 
BRANCH  24  25
ATOM     25  C   UNL A   1      32.109  30.074  26.717  1.00  0.00     0.116 C 
BRANCH  25  26
ATOM     26  N   UNL A   1      32.125  31.496  27.016  1.00  0.00    -0.352 N 
ATOM     27  C   UNL A   1      33.158  32.296  27.462  1.00  0.00     0.251 C 
ATOM     28  H   UNL A   1      31.267  31.959  26.881  1.00  0.00     0.163 HD
ATOM     29  O   UNL A   1      32.964  33.506  27.573  1.00  0.00    -0.269 OA
BRANCH  27  30
ATOM     30  C   UNL A   1      34.466  31.720  27.871  1.00  0.00     0.039 A 
ATOM     31  C   UNL A   1      35.551  32.588  28.049  1.00  0.00     0.014 A 
ATOM     32  C   UNL A   1      34.640  30.356  28.109  1.00  0.00     0.014 A 
ATOM     33  C   UNL A   1      36.756  32.109  28.579  1.00  0.00     0.010 A 
ATOM     34  C   UNL A   1      35.819  29.885  28.691  1.00  0.00     0.010 A 
ATOM     35  C   UNL A   1      36.875  30.764  28.966  1.00  0.00    -0.014 A 
BRANCH  35  36
ATOM     36  C   UNL A   1      38.046  30.289  29.753  1.00  0.00     0.031 A 
ATOM     37  C   UNL A   1      38.271  30.747  31.167  1.00  0.00     0.074 A 
ATOM     38  C   UNL A   1      38.955  29.495  29.148  1.00  0.00     0.049 A 
ATOM     39  N   UNL A   1      39.271  30.479  31.968  1.00  0.00    -0.248 NA
ATOM     40  C   UNL A   1      37.258  31.641  31.748  1.00  0.00     0.031 C 
ATOM     41  C   UNL A   1      38.876  29.029  27.761  1.00  0.00     0.029 A 
ATOM     42  N   UNL A   1      40.121  28.939  29.614  1.00  0.00    -0.354 N 
ATOM     43  C   UNL A   1      39.010  31.167  33.148  1.00  0.00     0.074 A 
ATOM     44  C   UNL A   1      37.781  31.905  32.939  1.00  0.00     0.031 C 
ATOM     45  C   UNL A   1      39.922  28.228  27.502  1.00  0.00     0.029 A 
ATOM     46  C   UNL A   1      40.767  28.150  28.689  1.00  0.00     0.049 A 
ATOM     47  H   UNL A   1      40.463  29.090  30.525  1.00  0.00     0.167 HD
ATOM     48  C   UNL A   1      39.719  31.166  34.304  1.00  0.00     0.034 A 
ATOM     49  C   UNL A   1      41.908  27.440  28.783  1.00  0.00     0.034 A 
ATOM     50  C   UNL A   1      40.930  30.412  34.510  1.00  0.00     0.049 A 
ATOM     51  C   UNL A   1      42.671  27.452  30.080  1.00  0.00     0.074 A 
ATOM     52  C   UNL A   1      41.695  30.313  35.660  1.00  0.00     0.029 A 
ATOM     53  N   UNL A   1      41.547  29.623  33.552  1.00  0.00    -0.354 N 
ATOM     54  N   UNL A   1      42.395  28.097  31.188  1.00  0.00    -0.248 NA
ATOM     55  C   UNL A   1      43.895  26.640  30.142  1.00  0.00     0.031 C 
ATOM     56  C   UNL A   1      42.796  29.494  35.385  1.00  0.00     0.029 A 
ATOM     57  C   UNL A   1      42.689  29.042  34.080  1.00  0.00     0.049 A 
ATOM     58  H   UNL A   1      41.221  29.494  32.632  1.00  0.00     0.167 HD
ATOM     59  C   UNL A   1      43.396  27.747  32.088  1.00  0.00     0.074 A 
ATOM     60  C   UNL A   1      44.282  26.834  31.395  1.00  0.00     0.031 C 
ATOM     61  C   UNL A   1      43.561  28.140  33.374  1.00  0.00     0.034 A 
BRANCH  48  62
ATOM     62  C   UNL A   1      39.199  31.997  35.446  1.00  0.00     0.023 A 
ATOM     63  C   UNL A   1      38.505  31.407  36.515  1.00  0.00     0.031 A 
ATOM     64  C   UNL A   1      39.443  33.380  35.494  1.00  0.00     0.131 A 
ATOM     65  C   UNL A   1      38.046  32.204  37.573  1.00  0.00     0.055 A 
ATOM     66  C   UNL A   1      39.034  34.159  36.578  1.00  0.00     0.041 A 
ATOM     67  F   UNL A   1      40.093  33.994  34.492  1.00  0.00    -0.206 F 
ATOM     68  C   UNL A   1      38.327  33.572  37.624  1.00  0.00     0.022 A 
BRANCH  65  69
ATOM     69  S   UNL A   1      37.035  31.437  38.868  1.00  0.00     0.124 S 
ATOM     70  O   UNL A   1      36.877  30.081  38.348  1.00  0.00    -0.237 OA
ATOM     71  O   UNL A   1      37.874  31.572  40.052  1.00  0.00    -0.237 OA
ATOM     72  O   UNL A   1      35.817  32.245  38.872  1.00  0.00    -0.744 OA
ENDBRANCH  65  69
ENDBRANCH  48  62
BRANCH  49  73
ATOM     73  C   UNL A   1      42.387  26.636  27.627  1.00  0.00     0.023 A 
ATOM     74  C   UNL A   1      42.033  25.283  27.503  1.00  0.00     0.031 A 
ATOM     75  C   UNL A   1      43.206  27.200  26.634  1.00  0.00     0.131 A 
ATOM     76  C   UNL A   1      42.520  24.530  26.425  1.00  0.00     0.055 A 
ATOM     77  C   UNL A   1      43.657  26.457  25.543  1.00  0.00     0.041 A 
ATOM     78  F   UNL A   1      43.560  28.493  26.703  1.00  0.00    -0.206 F 
ATOM     79  C   UNL A   1      43.320  25.110  25.438  1.00  0.00     0.022 A 
BRANCH  76  80
ATOM     80  S   UNL A   1      42.122  22.762  26.352  1.00  0.00     0.124 S 
ATOM     81  O   UNL A   1      40.667  22.780  26.459  1.00  0.00    -0.237 OA
ATOM     82  O   UNL A   1      42.666  22.381  25.053  1.00  0.00    -0.237 OA
ATOM     83  O   UNL A   1      42.826  22.207  27.506  1.00  0.00    -0.744 OA
ENDBRANCH  76  80
ENDBRANCH  49  73
BRANCH  61  84
ATOM     84  C   UNL A   1      44.722  27.557  34.129  1.00  0.00     0.023 A 
ATOM     85  C   UNL A   1      44.591  26.372  34.870  1.00  0.00     0.031 A 
ATOM     86  C   UNL A   1      45.984  28.173  34.065  1.00  0.00     0.131 A 
ATOM     87  C   UNL A   1      45.703  25.848  35.543  1.00  0.00     0.055 A 
ATOM     88  C   UNL A   1      47.096  27.627  34.705  1.00  0.00     0.041 A 
ATOM     89  F   UNL A   1      46.155  29.305  33.364  1.00  0.00    -0.206 F 
ATOM     90  C   UNL A   1      46.959  26.460  35.452  1.00  0.00     0.022 A 
BRANCH  87  91
ATOM     91  S   UNL A   1      45.493  24.355  36.549  1.00  0.00     0.124 S 
ATOM     92  O   UNL A   1      46.532  24.525  37.560  1.00  0.00    -0.237 OA
ATOM     93  O   UNL A   1      44.118  24.480  37.023  1.00  0.00    -0.237 OA
ATOM     94  O   UNL A   1      45.722  23.267  35.600  1.00  0.00    -0.744 OA
ENDBRANCH  87  91
ENDBRANCH  61  84
ENDBRANCH  35  36
ENDBRANCH  27  30
ENDBRANCH  25  26
ENDBRANCH  24  25
ENDBRANCH   1  24
TORSDOF 17
ENDMDL
MODEL 3
REMARK VINA RESULT:     -12.3      1.855      8.171
REMARK SMILES COC(=O)c1cc(F)cc(-c2ccccc2C(=O)NCCCCNC(=O)c2ccc(-c3c4nc(c(-c5cc(S(=O)(=O)[O-])ccc5F)c5ccc([nH]5)c(-c5cc(S(=O)(=O)[O-])ccc5F)c5nc(c(-c6cc(S(=O)(=O)[O-])ccc6F)c6ccc3[nH]6)C=C5)C=C4)cc2)c1
REMARK SMILES IDX 21 1 20 2 19 3 17 4 18 5 16 7 11 8 12 9 13 10 15 11 14 12
REMARK SMILES IDX 10 13 5 14 6 15 90 16 7 17 8 18 9 19 3 20 4 21 2 22 1 23
REMARK SMILES IDX 22 24 23 25 24 26 25 27 26 29 27 30 28 31 89 32 29 33 88 34
REMARK SMILES IDX 30 35 31 36 32 37 82 38 33 39 87 40 81 41 83 42 34 43 86 44
REMARK SMILES IDX 80 45 79 46 35 48 67 49 47 50 66 51 48 52 51 53 65 54 84 55
REMARK SMILES IDX 49 56 50 57 64 59 85 60 52 61 36 62 37 63 45 64 38 65 44 66
REMARK SMILES IDX 46 67 43 68 39 69 40 70 41 71 42 72 68 73 69 74 77 75 70 76
REMARK SMILES IDX 76 77 78 78 75 79 71 80 72 81 73 82 74 83 53 84 54 85 62 86
REMARK SMILES IDX 55 87 61 88 63 89 60 90 56 91 57 92 58 93 59 94
REMARK H PARENT 19 6 24 28 83 47 51 58
REMARK Flexibility Score: inf
ROOT
ATOM      1  C   UNL A   1      31.672  28.633  26.116  1.00  0.00     0.023 C 
ENDROOT
BRANCH   1   2
ATOM      2  C   UNL A   1      32.277  27.464  26.880  1.00  0.00     0.116 C 
BRANCH   2   3
ATOM      3  N   UNL A   1      31.476  26.267  26.960  1.00  0.00    -0.352 N 
ATOM      4  C   UNL A   1      31.416  25.179  26.119  1.00  0.00     0.251 C 
ATOM      5  O   UNL A   1      30.716  24.226  26.472  1.00  0.00    -0.269 OA
ATOM      6  H   UNL A   1      30.877  26.221  27.740  1.00  0.00     0.163 HD
BRANCH   4   7
ATOM      7  C   UNL A   1      32.064  25.103  24.769  1.00  0.00     0.047 A 
ATOM      8  C   UNL A   1      31.622  25.704  23.566  1.00  0.00    -0.005 A 
ATOM      9  C   UNL A   1      32.432  25.567  22.413  1.00  0.00     0.009 A 
ATOM     10  C   UNL A   1      33.650  24.887  22.442  1.00  0.00     0.001 A 
ATOM     11  C   UNL A   1      33.309  24.434  24.778  1.00  0.00     0.014 A 
ATOM     12  C   UNL A   1      34.093  24.326  23.629  1.00  0.00     0.001 A 
BRANCH   8  13
ATOM     13  C   UNL A   1      30.395  26.500  23.427  1.00  0.00    -0.014 A 
ATOM     14  C   UNL A   1      29.265  28.582  22.905  1.00  0.00     0.063 A 
ATOM     15  C   UNL A   1      28.058  28.096  23.408  1.00  0.00     0.055 A 
ATOM     16  C   UNL A   1      30.422  27.793  22.893  1.00  0.00     0.024 A 
ATOM     17  C   UNL A   1      28.018  26.790  23.873  1.00  0.00     0.124 A 
ATOM     18  F   UNL A   1      26.882  26.300  24.382  1.00  0.00    -0.207 F 
ATOM     19  C   UNL A   1      29.160  25.992  23.877  1.00  0.00     0.048 A 
BRANCH  14  20
ATOM     20  C   UNL A   1      29.384  29.962  22.423  1.00  0.00     0.337 C 
ATOM     21  O   UNL A   1      29.530  30.253  21.249  1.00  0.00    -0.246 OA
BRANCH  20  22
ATOM     22  O   UNL A   1      29.458  30.767  23.506  1.00  0.00    -0.465 OA
ATOM     23  C   UNL A   1      28.785  32.020  23.364  1.00  0.00     0.282 C 
ENDBRANCH  20  22
ENDBRANCH  14  20
ENDBRANCH   8  13
ENDBRANCH   4   7
ENDBRANCH   2   3
ENDBRANCH   1   2
BRANCH   1  24
ATOM     24  C   UNL A   1      31.616  29.990  26.821  1.00  0.00     0.023 C 
BRANCH  24  25
ATOM     25  C   UNL A   1      32.247  31.203  26.136  1.00  0.00     0.116 C 
BRANCH  25  26
ATOM     26  N   UNL A   1      32.145  32.460  26.858  1.00  0.00    -0.352 N 
ATOM     27  C   UNL A   1      33.062  33.090  27.675  1.00  0.00     0.251 C 
ATOM     28  H   UNL A   1      31.289  32.935  26.747  1.00  0.00     0.163 HD
ATOM     29  O   UNL A   1      32.789  34.203  28.123  1.00  0.00    -0.269 OA
BRANCH  27  30
ATOM     30  C   UNL A   1      34.331  32.428  28.074  1.00  0.00     0.039 A 
ATOM     31  C   UNL A   1      35.485  33.213  28.196  1.00  0.00     0.014 A 
ATOM     32  C   UNL A   1      34.404  31.063  28.358  1.00  0.00     0.014 A 
ATOM     33  C   UNL A   1      36.662  32.659  28.715  1.00  0.00     0.010 A 
ATOM     34  C   UNL A   1      35.558  30.521  28.930  1.00  0.00     0.010 A 
ATOM     35  C   UNL A   1      36.686  31.323  29.148  1.00  0.00    -0.014 A 
BRANCH  35  36
ATOM     36  C   UNL A   1      37.835  30.784  29.925  1.00  0.00     0.031 A 
ATOM     37  C   UNL A   1      38.818  29.830  29.303  1.00  0.00     0.074 A 
ATOM     38  C   UNL A   1      37.941  31.104  31.232  1.00  0.00     0.049 A 
ATOM     39  N   UNL A   1      39.835  29.221  29.857  1.00  0.00    -0.248 NA
ATOM     40  C   UNL A   1      38.618  29.498  27.884  1.00  0.00     0.031 C 
ATOM     41  C   UNL A   1      37.017  31.974  31.964  1.00  0.00     0.029 A 
ATOM     42  N   UNL A   1      38.865  30.738  32.180  1.00  0.00    -0.354 N 
ATOM     43  C   UNL A   1      40.399  28.435  28.859  1.00  0.00     0.074 A 
ATOM     44  C   UNL A   1      39.579  28.608  27.676  1.00  0.00     0.031 C 
ATOM     45  C   UNL A   1      37.442  32.107  33.230  1.00  0.00     0.029 A 
ATOM     46  C   UNL A   1      38.647  31.305  33.415  1.00  0.00     0.049 A 
ATOM     47  H   UNL A   1      39.614  30.127  31.993  1.00  0.00     0.167 HD
ATOM     48  C   UNL A   1      41.509  27.659  28.917  1.00  0.00     0.034 A 
ATOM     49  C   UNL A   1      39.338  31.197  34.566  1.00  0.00     0.034 A 
ATOM     50  C   UNL A   1      42.330  27.508  30.092  1.00  0.00     0.049 A 
ATOM     51  C   UNL A   1      40.569  30.333  34.601  1.00  0.00     0.074 A 
ATOM     52  C   UNL A   1      43.498  26.778  30.237  1.00  0.00     0.029 A 
ATOM     53  N   UNL A   1      42.078  28.103  31.319  1.00  0.00    -0.354 N 
ATOM     54  N   UNL A   1      41.094  29.614  33.639  1.00  0.00    -0.248 NA
ATOM     55  C   UNL A   1      41.304  30.270  35.873  1.00  0.00     0.031 C 
ATOM     56  C   UNL A   1      43.931  26.901  31.561  1.00  0.00     0.029 A 
ATOM     57  C   UNL A   1      43.061  27.748  32.228  1.00  0.00     0.049 A 
ATOM     58  H   UNL A   1      41.313  28.691  31.515  1.00  0.00     0.167 HD
ATOM     59  C   UNL A   1      42.235  29.033  34.181  1.00  0.00     0.074 A 
ATOM     60  C   UNL A   1      42.324  29.486  35.554  1.00  0.00     0.031 C 
ATOM     61  C   UNL A   1      43.132  28.205  33.592  1.00  0.00     0.034 A 
BRANCH  48  62
ATOM     62  C   UNL A   1      41.913  26.917  27.672  1.00  0.00     0.023 A 
ATOM     63  C   UNL A   1      41.733  25.528  27.565  1.00  0.00     0.031 A 
ATOM     64  C   UNL A   1      42.431  27.607  26.563  1.00  0.00     0.131 A 
ATOM     65  C   UNL A   1      42.104  24.866  26.386  1.00  0.00     0.055 A 
ATOM     66  C   UNL A   1      42.745  26.951  25.372  1.00  0.00     0.041 A 
ATOM     67  F   UNL A   1      42.633  28.934  26.618  1.00  0.00    -0.206 F 
ATOM     68  C   UNL A   1      42.586  25.570  25.280  1.00  0.00     0.022 A 
BRANCH  65  69
ATOM     69  S   UNL A   1      41.990  23.057  26.329  1.00  0.00     0.124 S 
ATOM     70  O   UNL A   1      42.719  22.682  27.538  1.00  0.00    -0.237 OA
ATOM     71  O   UNL A   1      40.551  22.825  26.356  1.00  0.00    -0.237 OA
ATOM     72  O   UNL A   1      42.653  22.713  25.074  1.00  0.00    -0.744 OA
ENDBRANCH  65  69
ENDBRANCH  48  62
BRANCH  49  73
ATOM     73  C   UNL A   1      38.900  31.946  35.775  1.00  0.00     0.023 A 
ATOM     74  C   UNL A   1      38.169  31.304  36.786  1.00  0.00     0.031 A 
ATOM     75  C   UNL A   1      39.198  33.310  35.937  1.00  0.00     0.131 A 
ATOM     76  C   UNL A   1      37.735  32.032  37.904  1.00  0.00     0.055 A 
ATOM     77  C   UNL A   1      38.797  34.021  37.069  1.00  0.00     0.041 A 
ATOM     78  F   UNL A   1      39.906  33.964  35.003  1.00  0.00    -0.206 F 
ATOM     79  C   UNL A   1      38.053  33.383  38.058  1.00  0.00     0.022 A 
BRANCH  76  80
ATOM     80  S   UNL A   1      36.709  31.191  39.142  1.00  0.00     0.124 S 
ATOM     81  O   UNL A   1      36.473  29.899  38.505  1.00  0.00    -0.237 OA
ATOM     82  O   UNL A   1      37.585  31.182  40.308  1.00  0.00    -0.237 OA
ATOM     83  O   UNL A   1      35.536  32.055  39.254  1.00  0.00    -0.744 OA
ENDBRANCH  76  80
ENDBRANCH  49  73
BRANCH  61  84
ATOM     84  C   UNL A   1      44.308  27.765  34.417  1.00  0.00     0.023 A 
ATOM     85  C   UNL A   1      44.301  26.540  35.103  1.00  0.00     0.031 A 
ATOM     86  C   UNL A   1      45.464  28.561  34.476  1.00  0.00     0.131 A 
ATOM     87  C   UNL A   1      45.426  26.155  35.846  1.00  0.00     0.055 A 
ATOM     88  C   UNL A   1      46.595  28.156  35.184  1.00  0.00     0.041 A 
ATOM     89  F   UNL A   1      45.516  29.738  33.830  1.00  0.00    -0.206 F 
ATOM     90  C   UNL A   1      46.579  26.948  35.876  1.00  0.00     0.022 A 
BRANCH  87  91
ATOM     91  S   UNL A   1      45.368  24.603  36.780  1.00  0.00     0.124 S 
ATOM     92  O   UNL A   1      44.781  23.688  35.806  1.00  0.00    -0.237 OA
ATOM     93  O   UNL A   1      46.772  24.372  37.104  1.00  0.00    -0.237 OA
ATOM     94  O   UNL A   1      44.515  24.923  37.923  1.00  0.00    -0.744 OA
ENDBRANCH  87  91
ENDBRANCH  61  84
ENDBRANCH  35  36
ENDBRANCH  27  30
ENDBRANCH  25  26
ENDBRANCH  24  25
ENDBRANCH   1  24
TORSDOF 17
ENDMDL
