MODEL 1
REMARK VINA RESULT:     -12.3      0.000      0.000
REMARK SMILES Cc1ccc(S(=O)(=O)N[C@@H](C)C(=O)Oc2csc(C(=O)NCCCCNC(=O)c3ccc(-c4c5nc(c(-c6cc(S(=O)(=O)[O-])ccc6F)c6ccc([nH]6)c(-c6cc(S(=O)(=O)[O-])ccc6F)c6nc(c(-c7cc(S(=O)(=O)[O-])ccc7F)c7ccc4[nH]7)C=C6)C=C5)cc3)c2C)cc1
REMARK SMILES IDX 22 1 21 2 19 3 20 4 18 6 15 7 16 8 92 9 17 10 93 11 14 12
REMARK SMILES IDX 12 13 13 14 10 15 11 16 9 17 6 19 7 20 8 21 5 22 1 23 2 24
REMARK SMILES IDX 3 25 95 26 4 27 94 28 23 29 24 30 25 31 26 32 27 33 28 35
REMARK SMILES IDX 29 36 30 37 91 38 31 39 90 40 32 41 33 42 34 43 84 44 35 45
REMARK SMILES IDX 89 46 83 47 85 48 36 49 88 50 82 51 81 52 37 54 69 55 49 56
REMARK SMILES IDX 68 57 50 58 53 59 67 60 86 61 51 62 52 63 66 65 87 66 54 67
REMARK SMILES IDX 38 68 39 69 47 70 40 71 46 72 48 73 45 74 41 75 42 76 43 77
REMARK SMILES IDX 44 78 70 79 71 80 79 81 72 82 78 83 80 84 77 85 73 86 74 87
REMARK SMILES IDX 75 88 76 89 55 90 56 91 64 92 57 93 63 94 65 95 62 96 58 97
REMARK SMILES IDX 59 98 60 99 61 100
REMARK H PARENT 21 5 9 18 26 34 85 53 53 64
REMARK Flexibility Score: inf
ROOT
ATOM      1  C   UNL A   1      35.367  23.028  26.230  1.00  0.00     0.116 C 
ENDROOT
BRANCH   1   2
ATOM      2  N   UNL A   1      34.375  22.545  27.170  1.00  0.00    -0.351 N 
ATOM      3  C   UNL A   1      33.060  22.849  27.425  1.00  0.00     0.261 C 
ATOM      4  O   UNL A   1      32.583  22.143  28.326  1.00  0.00    -0.268 OA
ATOM      5  H   UNL A   1      34.723  21.839  27.760  1.00  0.00     0.163 HD
BRANCH   3   6
ATOM      6  C   UNL A   1      32.259  23.870  26.729  1.00  0.00     0.099 A 
ATOM      7  C   UNL A   1      31.281  25.666  25.572  1.00  0.00     0.145 A 
ATOM      8  C   UNL A   1      30.153  24.968  25.893  1.00  0.00     0.113 A 
ATOM      9  C   UNL A   1      32.490  25.102  26.114  1.00  0.00     0.015 A 
ATOM     10  S   UNL A   1      30.539  23.535  26.719  1.00  0.00    -0.134 S 
ATOM     11  C   UNL A   1      33.752  25.879  26.006  1.00  0.00     0.050 C 
BRANCH   7  12
ATOM     12  O   UNL A   1      31.229  26.852  24.919  1.00  0.00    -0.424 OA
BRANCH  12  13
ATOM     13  C   UNL A   1      30.435  26.878  23.799  1.00  0.00     0.329 C 
ATOM     14  O   UNL A   1      29.271  26.485  23.761  1.00  0.00    -0.250 OA
BRANCH  13  15
ATOM     15  C   UNL A   1      31.085  27.675  22.660  1.00  0.00     0.177 C 
ATOM     16  C   UNL A   1      30.222  28.812  22.138  1.00  0.00     0.038 C 
BRANCH  15  17
ATOM     17  N   UNL A   1      31.387  26.676  21.613  1.00  0.00    -0.197 NA
ATOM     18  H   UNL A   1      30.746  25.900  21.779  1.00  0.00     0.142 HD
BRANCH  17  19
ATOM     19  S   UNL A   1      32.881  25.986  21.392  1.00  0.00     0.241 S 
ATOM     20  O   UNL A   1      33.870  26.862  21.994  1.00  0.00    -0.207 OA
ATOM     21  O   UNL A   1      32.948  25.654  19.991  1.00  0.00    -0.207 OA
BRANCH  19  22
ATOM     22  C   UNL A   1      32.902  24.457  22.285  1.00  0.00     0.082 A 
ATOM     23  C   UNL A   1      32.745  20.670  24.317  1.00  0.00     0.044 C 
ATOM     24  C   UNL A   1      32.806  21.997  23.619  1.00  0.00    -0.051 A 
ATOM     25  C   UNL A   1      31.622  22.649  23.258  1.00  0.00     0.005 A 
ATOM     26  C   UNL A   1      34.037  22.604  23.335  1.00  0.00     0.005 A 
ATOM     27  C   UNL A   1      31.668  23.869  22.582  1.00  0.00     0.022 A 
ATOM     28  C   UNL A   1      34.089  23.840  22.683  1.00  0.00     0.022 A 
ENDBRANCH  19  22
ENDBRANCH  17  19
ENDBRANCH  15  17
ENDBRANCH  13  15
ENDBRANCH  12  13
ENDBRANCH   7  12
ENDBRANCH   3   6
ENDBRANCH   1   2
BRANCH   1  29
ATOM     29  C   UNL A   1      36.428  21.953  25.937  1.00  0.00     0.023 C 
BRANCH  29  30
ATOM     30  C   UNL A   1      37.640  22.420  25.143  1.00  0.00     0.023 C 
BRANCH  30  31
ATOM     31  C   UNL A   1      38.313  23.635  25.754  1.00  0.00     0.116 C 
BRANCH  31  32
ATOM     32  N   UNL A   1      39.565  23.383  26.456  1.00  0.00    -0.352 N 
ATOM     33  C   UNL A   1      40.337  24.283  27.176  1.00  0.00     0.251 C 
ATOM     34  H   UNL A   1      39.904  22.461  26.413  1.00  0.00     0.163 HD
ATOM     35  O   UNL A   1      41.447  23.978  27.605  1.00  0.00    -0.269 OA
BRANCH  33  36
ATOM     36  C   UNL A   1      39.734  25.583  27.570  1.00  0.00     0.039 A 
ATOM     37  C   UNL A   1      40.052  26.692  26.777  1.00  0.00     0.014 A 
ATOM     38  C   UNL A   1      39.185  25.759  28.834  1.00  0.00     0.014 A 
ATOM     39  C   UNL A   1      40.094  27.954  27.360  1.00  0.00     0.010 A 
ATOM     40  C   UNL A   1      39.362  26.976  29.454  1.00  0.00     0.010 A 
ATOM     41  C   UNL A   1      39.882  28.056  28.732  1.00  0.00    -0.014 A 
BRANCH  41  42
ATOM     42  C   UNL A   1      40.257  29.221  29.520  1.00  0.00     0.031 A 
ATOM     43  C   UNL A   1      39.258  30.268  29.789  1.00  0.00     0.074 A 
ATOM     44  C   UNL A   1      41.486  29.286  30.075  1.00  0.00     0.049 A 
ATOM     45  N   UNL A   1      39.535  31.478  30.126  1.00  0.00    -0.248 NA
ATOM     46  C   UNL A   1      37.830  30.030  29.631  1.00  0.00     0.031 C 
ATOM     47  C   UNL A   1      41.964  30.226  31.085  1.00  0.00     0.029 A 
ATOM     48  N   UNL A   1      42.637  28.640  29.629  1.00  0.00    -0.354 N 
ATOM     49  C   UNL A   1      38.364  32.078  30.532  1.00  0.00     0.074 A 
ATOM     50  C   UNL A   1      37.327  31.173  30.104  1.00  0.00     0.031 C 
ATOM     51  C   UNL A   1      43.301  30.311  30.996  1.00  0.00     0.029 A 
ATOM     52  C   UNL A   1      43.704  29.534  29.837  1.00  0.00     0.049 A 
ATOM     53  H   UNL A   1      42.693  27.735  29.245  1.00  0.00     0.167 HD
ATOM     54  C   UNL A   1      38.438  33.192  31.316  1.00  0.00     0.034 A 
ATOM     55  C   UNL A   1      44.409  30.019  28.772  1.00  0.00     0.034 A 
ATOM     56  C   UNL A   1      39.821  33.687  31.388  1.00  0.00     0.049 A 
ATOM     57  C   UNL A   1      44.286  31.521  28.609  1.00  0.00     0.074 A 
ATOM     58  C   UNL A   1      40.806  33.631  32.361  1.00  0.00     0.029 A 
ATOM     59  N   UNL A   1      40.460  34.085  30.214  1.00  0.00    -0.354 N 
ATOM     60  N   UNL A   1      43.381  32.257  29.199  1.00  0.00    -0.248 NA
ATOM     61  C   UNL A   1      45.185  32.310  27.776  1.00  0.00     0.031 C 
ATOM     62  C   UNL A   1      42.055  33.910  31.738  1.00  0.00     0.029 A 
ATOM     63  C   UNL A   1      41.827  34.176  30.397  1.00  0.00     0.049 A 
ATOM     64  H   UNL A   1      39.998  34.276  29.365  1.00  0.00     0.167 HD
ATOM     65  C   UNL A   1      43.543  33.574  28.843  1.00  0.00     0.074 A 
ATOM     66  C   UNL A   1      44.708  33.553  27.970  1.00  0.00     0.031 C 
ATOM     67  C   UNL A   1      42.704  34.561  29.293  1.00  0.00     0.034 A 
BRANCH  54  68
ATOM     68  C   UNL A   1      37.333  33.642  32.263  1.00  0.00     0.023 A 
ATOM     69  C   UNL A   1      36.174  34.246  31.725  1.00  0.00     0.031 A 
ATOM     70  C   UNL A   1      37.370  33.598  33.672  1.00  0.00     0.131 A 
ATOM     71  C   UNL A   1      35.201  34.848  32.550  1.00  0.00     0.055 A 
ATOM     72  C   UNL A   1      36.429  34.236  34.492  1.00  0.00     0.041 A 
ATOM     73  F   UNL A   1      38.281  32.887  34.342  1.00  0.00    -0.206 F 
ATOM     74  C   UNL A   1      35.342  34.879  33.932  1.00  0.00     0.022 A 
BRANCH  71  75
ATOM     75  S   UNL A   1      33.737  35.602  31.791  1.00  0.00     0.124 S 
ATOM     76  O   UNL A   1      33.844  36.991  32.226  1.00  0.00    -0.237 OA
ATOM     77  O   UNL A   1      33.959  35.348  30.372  1.00  0.00    -0.237 OA
ATOM     78  O   UNL A   1      32.626  34.855  32.382  1.00  0.00    -0.744 OA
ENDBRANCH  71  75
ENDBRANCH  54  68
BRANCH  55  79
ATOM     79  C   UNL A   1      44.558  29.006  27.681  1.00  0.00     0.023 A 
ATOM     80  C   UNL A   1      45.399  27.899  27.955  1.00  0.00     0.031 A 
ATOM     81  C   UNL A   1      43.624  28.877  26.647  1.00  0.00     0.131 A 
ATOM     82  C   UNL A   1      45.159  26.659  27.349  1.00  0.00     0.055 A 
ATOM     83  C   UNL A   1      43.443  27.655  25.982  1.00  0.00     0.041 A 
ATOM     84  F   UNL A   1      42.781  29.880  26.357  1.00  0.00    -0.206 F 
ATOM     85  C   UNL A   1      44.172  26.527  26.369  1.00  0.00     0.022 A 
BRANCH  82  86
ATOM     86  S   UNL A   1      45.946  25.160  28.021  1.00  0.00     0.124 S 
ATOM     87  O   UNL A   1      47.235  25.151  27.342  1.00  0.00    -0.237 OA
ATOM     88  O   UNL A   1      46.009  25.406  29.461  1.00  0.00    -0.237 OA
ATOM     89  O   UNL A   1      45.017  24.098  27.640  1.00  0.00    -0.744 OA
ENDBRANCH  82  86
ENDBRANCH  55  79
BRANCH  67  90
ATOM     90  C   UNL A   1      42.670  36.002  28.804  1.00  0.00     0.023 A 
ATOM     91  C   UNL A   1      43.211  37.082  29.515  1.00  0.00     0.031 A 
ATOM     92  C   UNL A   1      42.127  36.334  27.535  1.00  0.00     0.131 A 
ATOM     93  C   UNL A   1      43.125  38.403  29.031  1.00  0.00     0.055 A 
ATOM     94  C   UNL A   1      42.120  37.634  27.015  1.00  0.00     0.041 A 
ATOM     95  F   UNL A   1      41.585  35.408  26.729  1.00  0.00    -0.206 F 
ATOM     96  C   UNL A   1      42.604  38.685  27.773  1.00  0.00     0.022 A 
BRANCH  93  97
ATOM     97  S   UNL A   1      43.646  39.750  30.125  1.00  0.00     0.124 S 
ATOM     98  O   UNL A   1      42.487  40.636  30.083  1.00  0.00    -0.237 OA
ATOM     99  O   UNL A   1      43.868  39.058  31.391  1.00  0.00    -0.237 OA
ATOM    100  O   UNL A   1      44.851  40.271  29.482  1.00  0.00    -0.744 OA
ENDBRANCH  93  97
ENDBRANCH  67  90
ENDBRANCH  41  42
ENDBRANCH  33  36
ENDBRANCH  31  32
ENDBRANCH  30  31
ENDBRANCH  29  30
ENDBRANCH   1  29
TORSDOF 20
ENDMDL
MODEL 2
REMARK VINA RESULT:     -11.7      2.795      4.606
REMARK SMILES Cc1ccc(S(=O)(=O)N[C@@H](C)C(=O)Oc2csc(C(=O)NCCCCNC(=O)c3ccc(-c4c5nc(c(-c6cc(S(=O)(=O)[O-])ccc6F)c6ccc([nH]6)c(-c6cc(S(=O)(=O)[O-])ccc6F)c6nc(c(-c7cc(S(=O)(=O)[O-])ccc7F)c7ccc4[nH]7)C=C6)C=C5)cc3)c2C)cc1
REMARK SMILES IDX 22 1 21 2 19 3 20 4 18 6 15 7 16 8 92 9 17 10 93 11 14 12
REMARK SMILES IDX 12 13 13 14 10 15 11 16 9 17 6 19 7 20 8 21 5 22 1 23 2 24
REMARK SMILES IDX 3 25 95 26 4 27 94 28 23 29 24 30 25 31 26 32 27 33 28 35
REMARK SMILES IDX 29 36 30 37 91 38 31 39 90 40 32 41 33 42 34 43 84 44 35 45
REMARK SMILES IDX 89 46 83 47 85 48 36 49 88 50 82 51 81 52 37 54 69 55 49 56
REMARK SMILES IDX 68 57 50 58 53 59 67 60 86 61 51 62 52 63 66 65 87 66 54 67
REMARK SMILES IDX 38 68 39 69 47 70 40 71 46 72 48 73 45 74 41 75 42 76 43 77
REMARK SMILES IDX 44 78 70 79 71 80 79 81 72 82 78 83 80 84 77 85 73 86 74 87
REMARK SMILES IDX 75 88 76 89 55 90 56 91 64 92 57 93 63 94 65 95 62 96 58 97
REMARK SMILES IDX 59 98 60 99 61 100
REMARK H PARENT 21 5 9 18 26 34 85 53 53 64
REMARK Flexibility Score: inf
ROOT
ATOM      1  C   UNL A   1      37.056  23.227  24.565  1.00  0.00     0.116 C 
ENDROOT
BRANCH   1   2
ATOM      2  N   UNL A   1      36.763  21.812  24.689  1.00  0.00    -0.351 N 
ATOM      3  C   UNL A   1      35.657  21.085  25.057  1.00  0.00     0.261 C 
ATOM      4  O   UNL A   1      35.855  19.864  24.986  1.00  0.00    -0.268 OA
ATOM      5  H   UNL A   1      37.531  21.243  24.457  1.00  0.00     0.163 HD
BRANCH   3   6
ATOM      6  C   UNL A   1      34.358  21.641  25.476  1.00  0.00     0.099 A 
ATOM      7  C   UNL A   1      32.214  22.543  25.805  1.00  0.00     0.145 A 
ATOM      8  C   UNL A   1      32.645  22.517  27.100  1.00  0.00     0.113 A 
ATOM      9  C   UNL A   1      33.208  22.128  24.850  1.00  0.00     0.015 A 
ATOM     10  S   UNL A   1      34.200  21.843  27.209  1.00  0.00    -0.134 S 
ATOM     11  C   UNL A   1      32.929  22.308  23.402  1.00  0.00     0.050 C 
BRANCH   7  12
ATOM     12  O   UNL A   1      31.005  23.049  25.462  1.00  0.00    -0.424 OA
BRANCH  12  13
ATOM     13  C   UNL A   1      30.813  24.377  25.756  1.00  0.00     0.329 C 
ATOM     14  O   UNL A   1      30.824  24.848  26.891  1.00  0.00    -0.250 OA
BRANCH  13  15
ATOM     15  C   UNL A   1      30.822  25.246  24.491  1.00  0.00     0.177 C 
ATOM     16  C   UNL A   1      30.287  24.536  23.257  1.00  0.00     0.038 C 
BRANCH  15  17
ATOM     17  N   UNL A   1      32.227  25.673  24.326  1.00  0.00    -0.197 NA
ATOM     18  H   UNL A   1      32.556  25.906  25.262  1.00  0.00     0.142 HD
BRANCH  17  19
ATOM     19  S   UNL A   1      32.706  26.931  23.354  1.00  0.00     0.241 S 
ATOM     20  O   UNL A   1      32.812  26.429  21.995  1.00  0.00    -0.207 OA
ATOM     21  O   UNL A   1      33.847  27.515  24.014  1.00  0.00    -0.207 OA
BRANCH  19  22
ATOM     22  C   UNL A   1      31.419  28.147  23.379  1.00  0.00     0.082 A 
ATOM     23  C   UNL A   1      28.470  31.274  23.526  1.00  0.00     0.044 C 
ATOM     24  C   UNL A   1      29.489  30.174  23.476  1.00  0.00    -0.051 A 
ATOM     25  C   UNL A   1      30.489  30.106  24.452  1.00  0.00     0.005 A 
ATOM     26  C   UNL A   1      29.445  29.198  22.471  1.00  0.00     0.005 A 
ATOM     27  C   UNL A   1      31.460  29.105  24.398  1.00  0.00     0.022 A 
ATOM     28  C   UNL A   1      30.398  28.175  22.428  1.00  0.00     0.022 A 
ENDBRANCH  19  22
ENDBRANCH  17  19
ENDBRANCH  15  17
ENDBRANCH  13  15
ENDBRANCH  12  13
ENDBRANCH   7  12
ENDBRANCH   3   6
ENDBRANCH   1   2
BRANCH   1  29
ATOM     29  C   UNL A   1      37.504  23.823  25.910  1.00  0.00     0.023 C 
BRANCH  29  30
ATOM     30  C   UNL A   1      38.538  23.014  26.681  1.00  0.00     0.023 C 
BRANCH  30  31
ATOM     31  C   UNL A   1      39.898  23.003  26.008  1.00  0.00     0.116 C 
BRANCH  31  32
ATOM     32  N   UNL A   1      40.503  21.692  25.819  1.00  0.00    -0.352 N 
ATOM     33  C   UNL A   1      41.810  21.306  26.080  1.00  0.00     0.251 C 
ATOM     34  H   UNL A   1      39.911  20.992  25.461  1.00  0.00     0.163 HD
ATOM     35  O   UNL A   1      42.234  20.204  25.746  1.00  0.00    -0.269 OA
BRANCH  33  36
ATOM     36  C   UNL A   1      42.656  22.190  26.925  1.00  0.00     0.039 A 
ATOM     37  C   UNL A   1      42.439  22.137  28.308  1.00  0.00     0.014 A 
ATOM     38  C   UNL A   1      43.358  23.250  26.366  1.00  0.00     0.014 A 
ATOM     39  C   UNL A   1      42.665  23.275  29.074  1.00  0.00     0.010 A 
ATOM     40  C   UNL A   1      43.448  24.420  27.087  1.00  0.00     0.010 A 
ATOM     41  C   UNL A   1      43.037  24.448  28.423  1.00  0.00    -0.014 A 
BRANCH  41  42
ATOM     42  C   UNL A   1      42.943  25.769  29.029  1.00  0.00     0.031 A 
ATOM     43  C   UNL A   1      41.745  26.592  28.794  1.00  0.00     0.074 A 
ATOM     44  C   UNL A   1      43.909  26.187  29.874  1.00  0.00     0.049 A 
ATOM     45  N   UNL A   1      41.692  27.869  28.941  1.00  0.00    -0.248 NA
ATOM     46  C   UNL A   1      40.499  26.019  28.303  1.00  0.00     0.031 C 
ATOM     47  C   UNL A   1      43.882  27.346  30.763  1.00  0.00     0.029 A 
ATOM     48  N   UNL A   1      45.235  25.760  29.902  1.00  0.00    -0.354 N 
ATOM     49  C   UNL A   1      40.368  28.242  28.879  1.00  0.00     0.074 A 
ATOM     50  C   UNL A   1      39.687  27.074  28.377  1.00  0.00     0.031 C 
ATOM     51  C   UNL A   1      45.145  27.716  31.028  1.00  0.00     0.029 A 
ATOM     52  C   UNL A   1      46.014  26.891  30.207  1.00  0.00     0.049 A 
ATOM     53  H   UNL A   1      45.562  24.845  29.741  1.00  0.00     0.167 HD
ATOM     54  C   UNL A   1      40.002  29.445  29.410  1.00  0.00     0.034 A 
ATOM     55  C   UNL A   1      46.920  27.364  29.300  1.00  0.00     0.034 A 
ATOM     56  C   UNL A   1      41.188  30.243  29.755  1.00  0.00     0.049 A 
ATOM     57  C   UNL A   1      46.597  28.761  28.808  1.00  0.00     0.074 A 
ATOM     58  C   UNL A   1      41.818  30.550  30.950  1.00  0.00     0.029 A 
ATOM     59  N   UNL A   1      42.081  30.602  28.745  1.00  0.00    -0.354 N 
ATOM     60  N   UNL A   1      45.441  29.351  28.964  1.00  0.00    -0.248 NA
ATOM     61  C   UNL A   1      47.560  29.604  28.110  1.00  0.00     0.031 C 
ATOM     62  C   UNL A   1      43.131  31.010  30.651  1.00  0.00     0.029 A 
ATOM     63  C   UNL A   1      43.287  31.023  29.274  1.00  0.00     0.049 A 
ATOM     64  H   UNL A   1      41.879  30.560  27.782  1.00  0.00     0.167 HD
ATOM     65  C   UNL A   1      45.477  30.606  28.406  1.00  0.00     0.074 A 
ATOM     66  C   UNL A   1      46.840  30.723  27.909  1.00  0.00     0.031 C 
ATOM     67  C   UNL A   1      44.383  31.433  28.397  1.00  0.00     0.034 A 
BRANCH  54  68
ATOM     68  C   UNL A   1      38.598  29.765  29.905  1.00  0.00     0.023 A 
ATOM     69  C   UNL A   1      37.912  30.870  29.353  1.00  0.00     0.031 A 
ATOM     70  C   UNL A   1      37.910  29.111  30.948  1.00  0.00     0.131 A 
ATOM     71  C   UNL A   1      36.693  31.332  29.891  1.00  0.00     0.055 A 
ATOM     72  C   UNL A   1      36.723  29.595  31.515  1.00  0.00     0.041 A 
ATOM     73  F   UNL A   1      38.309  27.937  31.442  1.00  0.00    -0.206 F 
ATOM     74  C   UNL A   1      36.113  30.720  30.996  1.00  0.00     0.022 A 
BRANCH  71  75
ATOM     75  S   UNL A   1      35.867  32.754  29.129  1.00  0.00     0.124 S 
ATOM     76  O   UNL A   1      36.881  33.797  29.241  1.00  0.00    -0.237 OA
ATOM     77  O   UNL A   1      35.587  32.264  27.784  1.00  0.00    -0.237 OA
ATOM     78  O   UNL A   1      34.685  32.949  29.969  1.00  0.00    -0.744 OA
ENDBRANCH  71  75
ENDBRANCH  54  68
BRANCH  55  79
ATOM     79  C   UNL A   1      47.571  26.265  28.523  1.00  0.00     0.023 A 
ATOM     80  C   UNL A   1      47.218  26.161  27.154  1.00  0.00     0.031 A 
ATOM     81  C   UNL A   1      48.765  25.661  28.937  1.00  0.00     0.131 A 
ATOM     82  C   UNL A   1      48.131  25.650  26.222  1.00  0.00     0.055 A 
ATOM     83  C   UNL A   1      49.640  25.075  28.011  1.00  0.00     0.041 A 
ATOM     84  F   UNL A   1      49.169  25.748  30.213  1.00  0.00    -0.206 F 
ATOM     85  C   UNL A   1      49.350  25.117  26.643  1.00  0.00     0.022 A 
BRANCH  82  86
ATOM     86  S   UNL A   1      47.849  25.921  24.444  1.00  0.00     0.124 S 
ATOM     87  O   UNL A   1      49.127  26.467  24.003  1.00  0.00    -0.237 OA
ATOM     88  O   UNL A   1      47.534  24.591  23.925  1.00  0.00    -0.237 OA
ATOM     89  O   UNL A   1      46.719  26.848  24.424  1.00  0.00    -0.744 OA
ENDBRANCH  82  86
ENDBRANCH  55  79
BRANCH  67  90
ATOM     90  C   UNL A   1      44.254  32.744  27.635  1.00  0.00     0.023 A 
ATOM     91  C   UNL A   1      43.877  33.958  28.225  1.00  0.00     0.031 A 
ATOM     92  C   UNL A   1      44.579  32.825  26.255  1.00  0.00     0.131 A 
ATOM     93  C   UNL A   1      43.743  35.138  27.466  1.00  0.00     0.055 A 
ATOM     94  C   UNL A   1      44.531  34.016  25.520  1.00  0.00     0.041 A 
ATOM     95  F   UNL A   1      44.971  31.752  25.552  1.00  0.00    -0.206 F 
ATOM     96  C   UNL A   1      44.091  35.182  26.121  1.00  0.00     0.022 A 
BRANCH  93  97
ATOM     97  S   UNL A   1      43.031  36.596  28.272  1.00  0.00     0.124 S 
ATOM     98  O   UNL A   1      42.069  35.992  29.189  1.00  0.00    -0.237 OA
ATOM     99  O   UNL A   1      44.198  37.211  28.897  1.00  0.00    -0.237 OA
ATOM    100  O   UNL A   1      42.446  37.352  27.167  1.00  0.00    -0.744 OA
ENDBRANCH  93  97
ENDBRANCH  67  90
ENDBRANCH  41  42
ENDBRANCH  33  36
ENDBRANCH  31  32
ENDBRANCH  30  31
ENDBRANCH  29  30
ENDBRANCH   1  29
TORSDOF 20
ENDMDL
MODEL 3
REMARK VINA RESULT:     -11.2      3.107      5.214
REMARK SMILES Cc1ccc(S(=O)(=O)N[C@@H](C)C(=O)Oc2csc(C(=O)NCCCCNC(=O)c3ccc(-c4c5nc(c(-c6cc(S(=O)(=O)[O-])ccc6F)c6ccc([nH]6)c(-c6cc(S(=O)(=O)[O-])ccc6F)c6nc(c(-c7cc(S(=O)(=O)[O-])ccc7F)c7ccc4[nH]7)C=C6)C=C5)cc3)c2C)cc1
REMARK SMILES IDX 22 1 21 2 19 3 20 4 18 6 15 7 16 8 92 9 17 10 93 11 14 12
REMARK SMILES IDX 12 13 13 14 10 15 11 16 9 17 6 19 7 20 8 21 5 22 1 23 2 24
REMARK SMILES IDX 3 25 95 26 4 27 94 28 23 29 24 30 25 31 26 32 27 33 28 35
REMARK SMILES IDX 29 36 30 37 91 38 31 39 90 40 32 41 33 42 34 43 84 44 35 45
REMARK SMILES IDX 89 46 83 47 85 48 36 49 88 50 82 51 81 52 37 54 69 55 49 56
REMARK SMILES IDX 68 57 50 58 53 59 67 60 86 61 51 62 52 63 66 65 87 66 54 67
REMARK SMILES IDX 38 68 39 69 47 70 40 71 46 72 48 73 45 74 41 75 42 76 43 77
REMARK SMILES IDX 44 78 70 79 71 80 79 81 72 82 78 83 80 84 77 85 73 86 74 87
REMARK SMILES IDX 75 88 76 89 55 90 56 91 64 92 57 93 63 94 65 95 62 96 58 97
REMARK SMILES IDX 59 98 60 99 61 100
REMARK H PARENT 21 5 9 18 26 34 85 53 53 64
REMARK Flexibility Score: inf
ROOT
ATOM      1  C   UNL A   1      38.857  23.112  26.437  1.00  0.00     0.116 C 
ENDROOT
BRANCH   1   2
ATOM      2  N   UNL A   1      38.421  21.809  25.973  1.00  0.00    -0.351 N 
ATOM      3  C   UNL A   1      37.309  21.341  25.318  1.00  0.00     0.261 C 
ATOM      4  O   UNL A   1      37.377  20.124  25.090  1.00  0.00    -0.268 OA
ATOM      5  H   UNL A   1      39.072  21.098  26.173  1.00  0.00     0.163 HD
BRANCH   3   6
ATOM      6  C   UNL A   1      36.151  22.149  24.896  1.00  0.00     0.099 A 
ATOM      7  C   UNL A   1      34.152  23.323  24.513  1.00  0.00     0.145 A 
ATOM      8  C   UNL A   1      34.816  23.631  23.360  1.00  0.00     0.113 A 
ATOM      9  C   UNL A   1      34.862  22.406  25.367  1.00  0.00     0.015 A 
ATOM     10  S   UNL A   1      36.371  22.950  23.354  1.00  0.00    -0.134 S 
ATOM     11  C   UNL A   1      34.160  21.838  26.547  1.00  0.00     0.050 C 
BRANCH   7  12
ATOM     12  O   UNL A   1      32.885  23.743  24.746  1.00  0.00    -0.424 OA
BRANCH  12  13
ATOM     13  C   UNL A   1      32.770  24.922  25.440  1.00  0.00     0.329 C 
ATOM     14  O   UNL A   1      33.665  25.422  26.118  1.00  0.00    -0.250 OA
BRANCH  13  15
ATOM     15  C   UNL A   1      31.478  25.669  25.080  1.00  0.00     0.177 C 
ATOM     16  C   UNL A   1      30.264  25.205  25.868  1.00  0.00     0.038 C 
BRANCH  15  17
ATOM     17  N   UNL A   1      31.310  25.471  23.625  1.00  0.00    -0.197 NA
ATOM     18  H   UNL A   1      31.906  24.680  23.383  1.00  0.00     0.142 HD
BRANCH  17  19
ATOM     19  S   UNL A   1      31.627  26.638  22.487  1.00  0.00     0.241 S 
ATOM     20  O   UNL A   1      31.426  26.048  21.175  1.00  0.00    -0.207 OA
ATOM     21  O   UNL A   1      32.904  27.198  22.855  1.00  0.00    -0.207 OA
BRANCH  19  22
ATOM     22  C   UNL A   1      30.425  27.923  22.688  1.00  0.00     0.082 A 
ATOM     23  C   UNL A   1      27.610  31.162  22.970  1.00  0.00     0.044 C 
ATOM     24  C   UNL A   1      28.590  30.029  22.885  1.00  0.00    -0.051 A 
ATOM     25  C   UNL A   1      29.912  30.280  22.500  1.00  0.00     0.005 A 
ATOM     26  C   UNL A   1      28.205  28.719  23.201  1.00  0.00     0.005 A 
ATOM     27  C   UNL A   1      30.825  29.230  22.389  1.00  0.00     0.022 A 
ATOM     28  C   UNL A   1      29.122  27.667  23.120  1.00  0.00     0.022 A 
ENDBRANCH  19  22
ENDBRANCH  17  19
ENDBRANCH  15  17
ENDBRANCH  13  15
ENDBRANCH  12  13
ENDBRANCH   7  12
ENDBRANCH   3   6
ENDBRANCH   1   2
BRANCH   1  29
ATOM     29  C   UNL A   1      40.014  22.988  27.442  1.00  0.00     0.023 C 
BRANCH  29  30
ATOM     30  C   UNL A   1      41.190  22.133  26.993  1.00  0.00     0.023 C 
BRANCH  30  31
ATOM     31  C   UNL A   1      41.868  22.670  25.747  1.00  0.00     0.116 C 
BRANCH  31  32
ATOM     32  N   UNL A   1      42.788  21.757  25.080  1.00  0.00    -0.352 N 
ATOM     33  C   UNL A   1      44.149  21.918  24.867  1.00  0.00     0.251 C 
ATOM     34  H   UNL A   1      42.394  20.923  24.738  1.00  0.00     0.163 HD
ATOM     35  O   UNL A   1      44.787  21.137  24.167  1.00  0.00    -0.269 OA
BRANCH  33  36
ATOM     36  C   UNL A   1      44.870  22.966  25.637  1.00  0.00     0.039 A 
ATOM     37  C   UNL A   1      44.966  22.778  27.021  1.00  0.00     0.014 A 
ATOM     38  C   UNL A   1      45.117  24.215  25.080  1.00  0.00     0.014 A 
ATOM     39  C   UNL A   1      45.019  23.889  27.855  1.00  0.00     0.010 A 
ATOM     40  C   UNL A   1      45.024  25.319  25.897  1.00  0.00     0.010 A 
ATOM     41  C   UNL A   1      44.906  25.153  27.281  1.00  0.00    -0.014 A 
BRANCH  41  42
ATOM     42  C   UNL A   1      44.574  26.352  28.036  1.00  0.00     0.031 A 
ATOM     43  C   UNL A   1      43.209  26.899  27.968  1.00  0.00     0.074 A 
ATOM     44  C   UNL A   1      45.491  26.897  28.864  1.00  0.00     0.049 A 
ATOM     45  N   UNL A   1      42.888  28.110  28.261  1.00  0.00    -0.248 NA
ATOM     46  C   UNL A   1      42.084  26.107  27.491  1.00  0.00     0.031 C 
ATOM     47  C   UNL A   1      45.284  27.928  29.877  1.00  0.00     0.029 A 
ATOM     48  N   UNL A   1      46.876  26.783  28.764  1.00  0.00    -0.354 N 
ATOM     49  C   UNL A   1      41.514  28.175  28.321  1.00  0.00     0.074 A 
ATOM     50  C   UNL A   1      41.067  26.937  27.732  1.00  0.00     0.031 C 
ATOM     51  C   UNL A   1      46.452  28.549  30.106  1.00  0.00     0.029 A 
ATOM     52  C   UNL A   1      47.410  28.028  29.147  1.00  0.00     0.049 A 
ATOM     53  H   UNL A   1      47.383  25.987  28.481  1.00  0.00     0.167 HD
ATOM     54  C   UNL A   1      40.937  29.206  29.004  1.00  0.00     0.034 A 
ATOM     55  C   UNL A   1      48.109  28.780  28.246  1.00  0.00     0.034 A 
ATOM     56  C   UNL A   1      41.942  30.217  29.365  1.00  0.00     0.049 A 
ATOM     57  C   UNL A   1      47.446  30.107  27.935  1.00  0.00     0.074 A 
ATOM     58  C   UNL A   1      42.587  30.543  30.548  1.00  0.00     0.029 A 
ATOM     59  N   UNL A   1      42.647  30.866  28.351  1.00  0.00    -0.354 N 
ATOM     60  N   UNL A   1      46.206  30.400  28.225  1.00  0.00    -0.248 NA
ATOM     61  C   UNL A   1      48.137  31.211  27.280  1.00  0.00     0.031 C 
ATOM     62  C   UNL A   1      43.736  31.317  30.224  1.00  0.00     0.029 A 
ATOM     63  C   UNL A   1      43.770  31.498  28.850  1.00  0.00     0.049 A 
ATOM     64  H   UNL A   1      42.378  30.872  27.403  1.00  0.00     0.167 HD
ATOM     65  C   UNL A   1      45.917  31.677  27.811  1.00  0.00     0.074 A 
ATOM     66  C   UNL A   1      47.174  32.149  27.249  1.00  0.00     0.031 C 
ATOM     67  C   UNL A   1      44.671  32.230  27.961  1.00  0.00     0.034 A 
BRANCH  54  68
ATOM     68  C   UNL A   1      39.544  29.149  29.616  1.00  0.00     0.023 A 
ATOM     69  C   UNL A   1      38.528  29.976  29.086  1.00  0.00     0.031 A 
ATOM     70  C   UNL A   1      39.157  28.398  30.745  1.00  0.00     0.131 A 
ATOM     71  C   UNL A   1      37.274  30.108  29.717  1.00  0.00     0.055 A 
ATOM     72  C   UNL A   1      37.929  28.562  31.401  1.00  0.00     0.041 A 
ATOM     73  F   UNL A   1      39.914  27.419  31.248  1.00  0.00    -0.206 F 
ATOM     74  C   UNL A   1      36.982  29.431  30.896  1.00  0.00     0.022 A 
BRANCH  71  75
ATOM     75  S   UNL A   1      36.016  31.185  28.978  1.00  0.00     0.124 S 
ATOM     76  O   UNL A   1      36.826  32.246  28.390  1.00  0.00    -0.237 OA
ATOM     77  O   UNL A   1      35.349  30.285  28.044  1.00  0.00    -0.237 OA
ATOM     78  O   UNL A   1      35.203  31.592  30.124  1.00  0.00    -0.744 OA
ENDBRANCH  71  75
ENDBRANCH  54  68
BRANCH  55  79
ATOM     79  C   UNL A   1      48.920  27.939  27.312  1.00  0.00     0.023 A 
ATOM     80  C   UNL A   1      48.288  27.538  26.109  1.00  0.00     0.031 A 
ATOM     81  C   UNL A   1      50.319  27.906  27.357  1.00  0.00     0.131 A 
ATOM     82  C   UNL A   1      49.043  27.317  24.950  1.00  0.00     0.055 A 
ATOM     83  C   UNL A   1      51.074  27.602  26.215  1.00  0.00     0.041 A 
ATOM     84  F   UNL A   1      50.978  28.300  28.458  1.00  0.00    -0.206 F 
ATOM     85  C   UNL A   1      50.438  27.360  24.993  1.00  0.00     0.022 A 
BRANCH  82  86
ATOM     86  S   UNL A   1      48.209  27.238  23.333  1.00  0.00     0.124 S 
ATOM     87  O   UNL A   1      48.982  28.181  22.534  1.00  0.00    -0.237 OA
ATOM     88  O   UNL A   1      48.340  25.838  22.932  1.00  0.00    -0.237 OA
ATOM     89  O   UNL A   1      46.839  27.640  23.645  1.00  0.00    -0.744 OA
ENDBRANCH  82  86
ENDBRANCH  55  79
BRANCH  67  90
ATOM     90  C   UNL A   1      44.193  33.544  27.360  1.00  0.00     0.023 A 
ATOM     91  C   UNL A   1      44.156  34.757  28.062  1.00  0.00     0.031 A 
ATOM     92  C   UNL A   1      43.804  33.630  25.997  1.00  0.00     0.131 A 
ATOM     93  C   UNL A   1      43.675  35.940  27.467  1.00  0.00     0.055 A 
ATOM     94  C   UNL A   1      43.410  34.823  25.382  1.00  0.00     0.041 A 
ATOM     95  F   UNL A   1      43.800  32.558  25.191  1.00  0.00    -0.206 F 
ATOM     96  C   UNL A   1      43.323  35.989  26.123  1.00  0.00     0.022 A 
BRANCH  93  97
ATOM     97  S   UNL A   1      43.452  37.397  28.521  1.00  0.00     0.124 S 
ATOM     98  O   UNL A   1      44.674  38.151  28.253  1.00  0.00    -0.237 OA
ATOM     99  O   UNL A   1      42.222  37.980  27.994  1.00  0.00    -0.237 OA
ATOM    100  O   UNL A   1      43.348  36.838  29.867  1.00  0.00    -0.744 OA
ENDBRANCH  93  97
ENDBRANCH  67  90
ENDBRANCH  41  42
ENDBRANCH  33  36
ENDBRANCH  31  32
ENDBRANCH  30  31
ENDBRANCH  29  30
ENDBRANCH   1  29
TORSDOF 20
ENDMDL
