MODEL 1
REMARK VINA RESULT:     -12.2      0.000      0.000
REMARK SMILES CC1(C)C(NC(=O)N[C@]2(C(=O)NCCCCNC(=O)c3ccc(-c4c5nc(c(-c6cc(S(=O)(=O)[O-])ccc6F)c6ccc([nH]6)c(-c6cc(S(=O)(=O)[O-])ccc6F)c6nc(c(-c7cc(S(=O)(=O)[O-])ccc7F)c7ccc4[nH]7)C=C6)C=C5)cc3)CC[C@@H](C)CC2)C1(C)C
REMARK SMILES IDX 15 1 14 2 13 3 12 4 10 5 11 6 9 8 86 9 85 10 87 11 84 12
REMARK SMILES IDX 88 13 83 14 8 15 6 16 7 18 5 19 4 21 2 22 89 23 1 24 3 25
REMARK SMILES IDX 90 26 91 27 16 28 17 29 18 30 19 32 20 33 21 34 82 35 22 36
REMARK SMILES IDX 81 37 23 38 24 39 25 40 75 41 26 42 80 43 74 44 76 45 27 46
REMARK SMILES IDX 79 47 73 48 72 49 28 51 60 52 40 53 59 54 41 55 44 56 58 57
REMARK SMILES IDX 77 58 42 59 43 60 57 62 78 63 45 64 29 65 30 66 38 67 31 68
REMARK SMILES IDX 37 69 39 70 36 71 32 72 33 73 34 74 35 75 61 76 62 77 70 78
REMARK SMILES IDX 63 79 69 80 71 81 68 82 64 83 65 84 66 85 67 86 46 87 47 88
REMARK SMILES IDX 55 89 48 90 54 91 56 92 53 93 49 94 50 95 51 96 52 97
REMARK H PARENT 12 7 8 17 5 20 17 31 76 50 44 61
REMARK Flexibility Score: inf
ROOT
ATOM      1  C   UNL A   1      33.351  28.259  27.127  1.00  0.00     0.023 C 
ENDROOT
BRANCH   1   2
ATOM      2  C   UNL A   1      31.860  28.386  27.447  1.00  0.00     0.023 C 
BRANCH   2   3
ATOM      3  C   UNL A   1      31.062  27.138  27.085  1.00  0.00     0.116 C 
BRANCH   3   4
ATOM      4  N   UNL A   1      30.557  27.243  25.730  1.00  0.00    -0.354 N 
ATOM      5  C   UNL A   1      30.447  26.313  24.743  1.00  0.00     0.245 C 
ATOM      6  O   UNL A   1      30.058  26.729  23.647  1.00  0.00    -0.272 OA
ATOM      7  H   UNL A   1      30.239  28.141  25.482  1.00  0.00     0.163 HD
BRANCH   5   8
ATOM      8  C   UNL A   1      30.986  24.869  24.929  1.00  0.00     0.120 C 
ATOM      9  C   UNL A   1      33.197  26.262  21.614  1.00  0.00     0.007 C 
ATOM     10  C   UNL A   1      32.987  25.200  22.703  1.00  0.00    -0.014 C 
ATOM     11  C   UNL A   1      31.635  24.501  22.462  1.00  0.00     0.006 C 
ATOM     12  C   UNL A   1      33.191  25.826  24.093  1.00  0.00     0.006 C 
ATOM     13  C   UNL A   1      30.942  23.941  23.700  1.00  0.00     0.039 C 
ATOM     14  C   UNL A   1      32.503  25.054  25.225  1.00  0.00     0.039 C 
BRANCH   8  15
ATOM     15  N   UNL A   1      30.292  24.208  26.051  1.00  0.00    -0.324 N 
ATOM     16  C   UNL A   1      30.396  23.010  26.652  1.00  0.00     0.315 C 
ATOM     17  H   UNL A   1      29.593  24.774  26.451  1.00  0.00     0.166 HD
ATOM     18  O   UNL A   1      29.742  22.860  27.691  1.00  0.00    -0.249 OA
ATOM     19  N   UNL A   1      31.097  21.949  26.196  1.00  0.00    -0.334 N 
ATOM     20  H   UNL A   1      30.956  21.142  26.742  1.00  0.00     0.165 HD
BRANCH  19  21
ATOM     21  C   UNL A   1      31.995  21.721  25.105  1.00  0.00     0.096 C 
ATOM     22  C   UNL A   1      33.494  21.515  25.295  1.00  0.00    -0.007 C 
ATOM     23  C   UNL A   1      32.626  20.356  24.800  1.00  0.00    -0.007 C 
ATOM     24  C   UNL A   1      34.390  22.243  24.309  1.00  0.00     0.014 C 
ATOM     25  C   UNL A   1      34.136  21.397  26.657  1.00  0.00     0.014 C 
ATOM     26  C   UNL A   1      32.389  19.174  25.713  1.00  0.00     0.014 C 
ATOM     27  C   UNL A   1      32.804  19.898  23.364  1.00  0.00     0.014 C 
ENDBRANCH  19  21
ENDBRANCH   8  15
ENDBRANCH   5   8
ENDBRANCH   3   4
ENDBRANCH   2   3
ENDBRANCH   1   2
BRANCH   1  28
ATOM     28  C   UNL A   1      33.864  29.325  26.164  1.00  0.00     0.116 C 
BRANCH  28  29
ATOM     29  N   UNL A   1      33.708  30.659  26.709  1.00  0.00    -0.352 N 
ATOM     30  C   UNL A   1      34.414  31.255  27.720  1.00  0.00     0.251 C 
ATOM     31  H   UNL A   1      33.001  31.209  26.299  1.00  0.00     0.163 HD
ATOM     32  O   UNL A   1      33.998  32.301  28.219  1.00  0.00    -0.269 OA
BRANCH  30  33
ATOM     33  C   UNL A   1      35.654  30.627  28.220  1.00  0.00     0.039 A 
ATOM     34  C   UNL A   1      36.855  30.901  27.566  1.00  0.00     0.014 A 
ATOM     35  C   UNL A   1      35.633  29.767  29.324  1.00  0.00     0.014 A 
ATOM     36  C   UNL A   1      38.043  30.342  28.041  1.00  0.00     0.010 A 
ATOM     37  C   UNL A   1      36.829  29.269  29.839  1.00  0.00     0.010 A 
ATOM     38  C   UNL A   1      38.046  29.541  29.196  1.00  0.00    -0.014 A 
BRANCH  38  39
ATOM     39  C   UNL A   1      39.315  28.967  29.715  1.00  0.00     0.031 A 
ATOM     40  C   UNL A   1      39.974  29.566  30.929  1.00  0.00     0.074 A 
ATOM     41  C   UNL A   1      39.882  27.919  29.086  1.00  0.00     0.049 A 
ATOM     42  N   UNL A   1      41.088  29.217  31.522  1.00  0.00    -0.248 NA
ATOM     43  C   UNL A   1      39.304  30.721  31.544  1.00  0.00     0.031 C 
ATOM     44  C   UNL A   1      39.351  27.269  27.886  1.00  0.00     0.029 A 
ATOM     45  N   UNL A   1      41.025  27.212  29.367  1.00  0.00    -0.354 N 
ATOM     46  C   UNL A   1      41.253  30.110  32.576  1.00  0.00     0.074 A 
ATOM     47  C   UNL A   1      40.159  31.054  32.498  1.00  0.00     0.031 C 
ATOM     48  C   UNL A   1      40.149  26.242  27.554  1.00  0.00     0.029 A 
ATOM     49  C   UNL A   1      41.275  26.188  28.483  1.00  0.00     0.049 A 
ATOM     50  H   UNL A   1      41.612  27.420  30.129  1.00  0.00     0.167 HD
ATOM     51  C   UNL A   1      42.213  30.125  33.533  1.00  0.00     0.034 A 
ATOM     52  C   UNL A   1      42.298  25.312  28.419  1.00  0.00     0.034 A 
ATOM     53  C   UNL A   1      43.298  29.174  33.597  1.00  0.00     0.049 A 
ATOM     54  C   UNL A   1      43.381  25.382  29.466  1.00  0.00     0.074 A 
ATOM     55  C   UNL A   1      44.298  29.073  34.549  1.00  0.00     0.029 A 
ATOM     56  N   UNL A   1      43.533  28.168  32.670  1.00  0.00    -0.354 N 
ATOM     57  N   UNL A   1      43.497  26.202  30.484  1.00  0.00    -0.248 NA
ATOM     58  C   UNL A   1      44.467  24.398  29.360  1.00  0.00     0.031 C 
ATOM     59  C   UNL A   1      45.180  28.062  34.154  1.00  0.00     0.029 A 
ATOM     60  C   UNL A   1      44.683  27.468  33.004  1.00  0.00     0.049 A 
ATOM     61  H   UNL A   1      42.966  27.979  31.887  1.00  0.00     0.167 HD
ATOM     62  C   UNL A   1      44.650  25.810  31.159  1.00  0.00     0.074 A 
ATOM     63  C   UNL A   1      45.184  24.671  30.440  1.00  0.00     0.031 C 
ATOM     64  C   UNL A   1      45.215  26.341  32.274  1.00  0.00     0.034 A 
BRANCH  51  65
ATOM     65  C   UNL A   1      42.150  31.225  34.568  1.00  0.00     0.023 A 
ATOM     66  C   UNL A   1      41.143  31.261  35.550  1.00  0.00     0.031 A 
ATOM     67  C   UNL A   1      43.098  32.265  34.562  1.00  0.00     0.131 A 
ATOM     68  C   UNL A   1      41.063  32.349  36.432  1.00  0.00     0.055 A 
ATOM     69  C   UNL A   1      43.062  33.299  35.499  1.00  0.00     0.041 A 
ATOM     70  F   UNL A   1      44.068  32.300  33.637  1.00  0.00    -0.206 F 
ATOM     71  C   UNL A   1      42.031  33.354  36.432  1.00  0.00     0.022 A 
BRANCH  68  72
ATOM     72  S   UNL A   1      39.590  32.507  37.480  1.00  0.00     0.124 S 
ATOM     73  O   UNL A   1      40.174  32.458  38.818  1.00  0.00    -0.237 OA
ATOM     74  O   UNL A   1      39.047  33.796  37.067  1.00  0.00    -0.237 OA
ATOM     75  O   UNL A   1      38.784  31.343  37.117  1.00  0.00    -0.744 OA
ENDBRANCH  68  72
ENDBRANCH  51  65
BRANCH  52  76
ATOM     76  C   UNL A   1      42.364  24.306  27.320  1.00  0.00     0.023 A 
ATOM     77  C   UNL A   1      41.573  23.145  27.349  1.00  0.00     0.031 A 
ATOM     78  C   UNL A   1      43.259  24.464  26.246  1.00  0.00     0.131 A 
ATOM     79  C   UNL A   1      41.729  22.167  26.355  1.00  0.00     0.055 A 
ATOM     80  C   UNL A   1      43.367  23.516  25.228  1.00  0.00     0.041 A 
ATOM     81  F   UNL A   1      44.040  25.554  26.168  1.00  0.00    -0.206 F 
ATOM     82  C   UNL A   1      42.610  22.351  25.286  1.00  0.00     0.022 A 
BRANCH  79  83
ATOM     83  S   UNL A   1      40.835  20.598  26.532  1.00  0.00     0.124 S 
ATOM     84  O   UNL A   1      39.506  20.960  26.053  1.00  0.00    -0.237 OA
ATOM     85  O   UNL A   1      41.608  19.711  25.671  1.00  0.00    -0.237 OA
ATOM     86  O   UNL A   1      40.928  20.314  27.962  1.00  0.00    -0.744 OA
ENDBRANCH  79  83
ENDBRANCH  52  76
BRANCH  64  87
ATOM     87  C   UNL A   1      46.451  25.659  32.812  1.00  0.00     0.023 A 
ATOM     88  C   UNL A   1      47.713  25.831  32.219  1.00  0.00     0.031 A 
ATOM     89  C   UNL A   1      46.359  24.813  33.933  1.00  0.00     0.131 A 
ATOM     90  C   UNL A   1      48.821  25.123  32.712  1.00  0.00     0.055 A 
ATOM     91  C   UNL A   1      47.477  24.165  34.460  1.00  0.00     0.041 A 
ATOM     92  F   UNL A   1      45.179  24.607  34.539  1.00  0.00    -0.206 F 
ATOM     93  C   UNL A   1      48.715  24.307  33.841  1.00  0.00     0.022 A 
BRANCH  90  94
ATOM     94  S   UNL A   1      50.385  25.203  31.795  1.00  0.00     0.124 S 
ATOM     95  O   UNL A   1      49.939  25.613  30.468  1.00  0.00    -0.237 OA
ATOM     96  O   UNL A   1      51.139  26.200  32.551  1.00  0.00    -0.237 OA
ATOM     97  O   UNL A   1      50.903  23.839  31.882  1.00  0.00    -0.744 OA
ENDBRANCH  90  94
ENDBRANCH  64  87
ENDBRANCH  38  39
ENDBRANCH  30  33
ENDBRANCH  28  29
ENDBRANCH   1  28
TORSDOF 16
ENDMDL
MODEL 2
REMARK VINA RESULT:     -12.1      1.261      1.575
REMARK SMILES CC1(C)C(NC(=O)N[C@]2(C(=O)NCCCCNC(=O)c3ccc(-c4c5nc(c(-c6cc(S(=O)(=O)[O-])ccc6F)c6ccc([nH]6)c(-c6cc(S(=O)(=O)[O-])ccc6F)c6nc(c(-c7cc(S(=O)(=O)[O-])ccc7F)c7ccc4[nH]7)C=C6)C=C5)cc3)CC[C@@H](C)CC2)C1(C)C
REMARK SMILES IDX 15 1 14 2 13 3 12 4 10 5 11 6 9 8 86 9 85 10 87 11 84 12
REMARK SMILES IDX 88 13 83 14 8 15 6 16 7 18 5 19 4 21 2 22 89 23 1 24 3 25
REMARK SMILES IDX 90 26 91 27 16 28 17 29 18 30 19 32 20 33 21 34 82 35 22 36
REMARK SMILES IDX 81 37 23 38 24 39 25 40 75 41 26 42 80 43 74 44 76 45 27 46
REMARK SMILES IDX 79 47 73 48 72 49 28 51 60 52 40 53 59 54 41 55 44 56 58 57
REMARK SMILES IDX 77 58 42 59 43 60 57 62 78 63 45 64 29 65 30 66 38 67 31 68
REMARK SMILES IDX 37 69 39 70 36 71 32 72 33 73 34 74 35 75 61 76 62 77 70 78
REMARK SMILES IDX 63 79 69 80 71 81 68 82 64 83 65 84 66 85 67 86 46 87 47 88
REMARK SMILES IDX 55 89 48 90 54 91 56 92 53 93 49 94 50 95 51 96 52 97
REMARK H PARENT 12 7 8 17 5 20 17 31 76 50 44 61
REMARK Flexibility Score: inf
ROOT
ATOM      1  C   UNL A   1      33.390  28.487  27.250  1.00  0.00     0.023 C 
ENDROOT
BRANCH   1   2
ATOM      2  C   UNL A   1      31.867  28.522  27.394  1.00  0.00     0.023 C 
BRANCH   2   3
ATOM      3  C   UNL A   1      31.201  27.196  27.046  1.00  0.00     0.116 C 
BRANCH   3   4
ATOM      4  N   UNL A   1      30.593  27.271  25.731  1.00  0.00    -0.354 N 
ATOM      5  C   UNL A   1      30.418  26.323  24.772  1.00  0.00     0.245 C 
ATOM      6  O   UNL A   1      29.942  26.715  23.702  1.00  0.00    -0.272 OA
ATOM      7  H   UNL A   1      30.248  28.162  25.493  1.00  0.00     0.163 HD
BRANCH   5   8
ATOM      8  C   UNL A   1      30.983  24.888  24.941  1.00  0.00     0.120 C 
ATOM      9  C   UNL A   1      33.111  26.332  21.593  1.00  0.00     0.007 C 
ATOM     10  C   UNL A   1      32.939  25.262  22.681  1.00  0.00    -0.014 C 
ATOM     11  C   UNL A   1      31.594  24.541  22.461  1.00  0.00     0.006 C 
ATOM     12  C   UNL A   1      33.157  25.885  24.070  1.00  0.00     0.006 C 
ATOM     13  C   UNL A   1      30.933  23.965  23.709  1.00  0.00     0.039 C 
ATOM     14  C   UNL A   1      32.503  25.096  25.211  1.00  0.00     0.039 C 
BRANCH   8  15
ATOM     15  N   UNL A   1      30.321  24.210  26.072  1.00  0.00    -0.324 N 
ATOM     16  C   UNL A   1      30.438  23.001  26.650  1.00  0.00     0.315 C 
ATOM     17  H   UNL A   1      29.636  24.772  26.502  1.00  0.00     0.166 HD
ATOM     18  O   UNL A   1      29.815  22.837  27.705  1.00  0.00    -0.249 OA
ATOM     19  N   UNL A   1      31.121  21.946  26.154  1.00  0.00    -0.334 N 
ATOM     20  H   UNL A   1      30.993  21.130  26.692  1.00  0.00     0.165 HD
BRANCH  19  21
ATOM     21  C   UNL A   1      31.985  21.733  25.034  1.00  0.00     0.096 C 
ATOM     22  C   UNL A   1      33.492  21.546  25.173  1.00  0.00    -0.007 C 
ATOM     23  C   UNL A   1      32.623  20.377  24.702  1.00  0.00    -0.007 C 
ATOM     24  C   UNL A   1      34.344  22.290  24.159  1.00  0.00     0.014 C 
ATOM     25  C   UNL A   1      34.181  21.433  26.511  1.00  0.00     0.014 C 
ATOM     26  C   UNL A   1      32.432  19.190  25.619  1.00  0.00     0.014 C 
ATOM     27  C   UNL A   1      32.759  19.927  23.260  1.00  0.00     0.014 C 
ENDBRANCH  19  21
ENDBRANCH   8  15
ENDBRANCH   5   8
ENDBRANCH   3   4
ENDBRANCH   2   3
ENDBRANCH   1   2
BRANCH   1  28
ATOM     28  C   UNL A   1      33.950  29.615  26.390  1.00  0.00     0.116 C 
BRANCH  28  29
ATOM     29  N   UNL A   1      33.765  30.909  27.017  1.00  0.00    -0.352 N 
ATOM     30  C   UNL A   1      34.470  31.463  28.053  1.00  0.00     0.251 C 
ATOM     31  H   UNL A   1      33.039  31.463  26.650  1.00  0.00     0.163 HD
ATOM     32  O   UNL A   1      34.032  32.465  28.620  1.00  0.00    -0.269 OA
BRANCH  30  33
ATOM     33  C   UNL A   1      35.733  30.841  28.499  1.00  0.00     0.039 A 
ATOM     34  C   UNL A   1      36.932  31.286  27.943  1.00  0.00     0.014 A 
ATOM     35  C   UNL A   1      35.736  29.818  29.456  1.00  0.00     0.014 A 
ATOM     36  C   UNL A   1      38.139  30.733  28.373  1.00  0.00     0.010 A 
ATOM     37  C   UNL A   1      36.947  29.320  29.935  1.00  0.00     0.010 A 
ATOM     38  C   UNL A   1      38.161  29.763  29.389  1.00  0.00    -0.014 A 
BRANCH  38  39
ATOM     39  C   UNL A   1      39.449  29.193  29.864  1.00  0.00     0.031 A 
ATOM     40  C   UNL A   1      40.156  29.802  31.046  1.00  0.00     0.074 A 
ATOM     41  C   UNL A   1      39.991  28.139  29.223  1.00  0.00     0.049 A 
ATOM     42  N   UNL A   1      41.291  29.458  31.599  1.00  0.00    -0.248 NA
ATOM     43  C   UNL A   1      39.510  30.963  31.676  1.00  0.00     0.031 C 
ATOM     44  C   UNL A   1      39.414  27.478  28.051  1.00  0.00     0.029 A 
ATOM     45  N   UNL A   1      41.144  27.434  29.465  1.00  0.00    -0.354 N 
ATOM     46  C   UNL A   1      41.498  30.360  32.637  1.00  0.00     0.074 A 
ATOM     47  C   UNL A   1      40.402  31.304  32.593  1.00  0.00     0.031 C 
ATOM     48  C   UNL A   1      40.198  26.448  27.697  1.00  0.00     0.029 A 
ATOM     49  C   UNL A   1      41.359  26.402  28.581  1.00  0.00     0.049 A 
ATOM     50  H   UNL A   1      41.760  27.648  30.203  1.00  0.00     0.167 HD
ATOM     51  C   UNL A   1      42.495  30.384  33.556  1.00  0.00     0.034 A 
ATOM     52  C   UNL A   1      42.378  25.524  28.485  1.00  0.00     0.034 A 
ATOM     53  C   UNL A   1      43.581  29.433  33.586  1.00  0.00     0.049 A 
ATOM     54  C   UNL A   1      43.502  25.603  29.489  1.00  0.00     0.074 A 
ATOM     55  C   UNL A   1      44.617  29.339  34.499  1.00  0.00     0.029 A 
ATOM     56  N   UNL A   1      43.780  28.418  32.659  1.00  0.00    -0.354 N 
ATOM     57  N   UNL A   1      43.657  26.433  30.494  1.00  0.00    -0.248 NA
ATOM     58  C   UNL A   1      44.583  24.617  29.350  1.00  0.00     0.031 C 
ATOM     59  C   UNL A   1      45.483  28.325  34.079  1.00  0.00     0.029 A 
ATOM     60  C   UNL A   1      44.941  27.720  32.955  1.00  0.00     0.049 A 
ATOM     61  H   UNL A   1      43.182  28.222  31.901  1.00  0.00     0.167 HD
ATOM     62  C   UNL A   1      44.836  26.046  31.128  1.00  0.00     0.074 A 
ATOM     63  C   UNL A   1      45.341  24.900  30.399  1.00  0.00     0.031 C 
ATOM     64  C   UNL A   1      45.444  26.586  32.215  1.00  0.00     0.034 A 
BRANCH  51  65
ATOM     65  C   UNL A   1      42.472  31.493  34.583  1.00  0.00     0.023 A 
ATOM     66  C   UNL A   1      41.550  31.500  35.644  1.00  0.00     0.031 A 
ATOM     67  C   UNL A   1      43.372  32.570  34.487  1.00  0.00     0.131 A 
ATOM     68  C   UNL A   1      41.498  32.595  36.520  1.00  0.00     0.055 A 
ATOM     69  C   UNL A   1      43.372  33.614  35.415  1.00  0.00     0.041 A 
ATOM     70  F   UNL A   1      44.260  32.633  33.484  1.00  0.00    -0.206 F 
ATOM     71  C   UNL A   1      42.421  33.638  36.430  1.00  0.00     0.022 A 
BRANCH  68  72
ATOM     72  S   UNL A   1      40.112  32.706  37.686  1.00  0.00     0.124 S 
ATOM     73  O   UNL A   1      39.670  34.084  37.486  1.00  0.00    -0.237 OA
ATOM     74  O   UNL A   1      39.209  31.669  37.202  1.00  0.00    -0.237 OA
ATOM     75  O   UNL A   1      40.731  32.441  38.983  1.00  0.00    -0.744 OA
ENDBRANCH  68  72
ENDBRANCH  51  65
BRANCH  52  76
ATOM     76  C   UNL A   1      42.401  24.508  27.394  1.00  0.00     0.023 A 
ATOM     77  C   UNL A   1      41.612  23.349  27.465  1.00  0.00     0.031 A 
ATOM     78  C   UNL A   1      43.255  24.656  26.285  1.00  0.00     0.131 A 
ATOM     79  C   UNL A   1      41.729  22.361  26.474  1.00  0.00     0.055 A 
ATOM     80  C   UNL A   1      43.322  23.699  25.272  1.00  0.00     0.041 A 
ATOM     81  F   UNL A   1      44.032  25.745  26.167  1.00  0.00    -0.206 F 
ATOM     82  C   UNL A   1      42.567  22.535  25.370  1.00  0.00     0.022 A 
BRANCH  79  83
ATOM     83  S   UNL A   1      40.841  20.795  26.699  1.00  0.00     0.124 S 
ATOM     84  O   UNL A   1      41.699  19.863  25.977  1.00  0.00    -0.237 OA
ATOM     85  O   UNL A   1      40.827  20.662  28.152  1.00  0.00    -0.237 OA
ATOM     86  O   UNL A   1      39.540  21.050  26.086  1.00  0.00    -0.744 OA
ENDBRANCH  79  83
ENDBRANCH  52  76
BRANCH  64  87
ATOM     87  C   UNL A   1      46.700  25.908  32.711  1.00  0.00     0.023 A 
ATOM     88  C   UNL A   1      46.660  24.859  33.644  1.00  0.00     0.031 A 
ATOM     89  C   UNL A   1      47.960  26.330  32.247  1.00  0.00     0.131 A 
ATOM     90  C   UNL A   1      47.856  24.305  34.128  1.00  0.00     0.055 A 
ATOM     91  C   UNL A   1      49.143  25.730  32.680  1.00  0.00     0.041 A 
ATOM     92  F   UNL A   1      48.061  27.331  31.358  1.00  0.00    -0.206 F 
ATOM     93  C   UNL A   1      49.096  24.721  33.637  1.00  0.00     0.022 A 
BRANCH  90  94
ATOM     94  S   UNL A   1      47.774  23.103  35.485  1.00  0.00     0.124 S 
ATOM     95  O   UNL A   1      46.766  23.697  36.356  1.00  0.00    -0.237 OA
ATOM     96  O   UNL A   1      47.381  21.879  34.794  1.00  0.00    -0.237 OA
ATOM     97  O   UNL A   1      49.134  23.101  36.022  1.00  0.00    -0.744 OA
ENDBRANCH  90  94
ENDBRANCH  64  87
ENDBRANCH  38  39
ENDBRANCH  30  33
ENDBRANCH  28  29
ENDBRANCH   1  28
TORSDOF 16
ENDMDL
MODEL 3
REMARK VINA RESULT:     -12.0      1.819      2.117
REMARK SMILES CC1(C)C(NC(=O)N[C@]2(C(=O)NCCCCNC(=O)c3ccc(-c4c5nc(c(-c6cc(S(=O)(=O)[O-])ccc6F)c6ccc([nH]6)c(-c6cc(S(=O)(=O)[O-])ccc6F)c6nc(c(-c7cc(S(=O)(=O)[O-])ccc7F)c7ccc4[nH]7)C=C6)C=C5)cc3)CC[C@@H](C)CC2)C1(C)C
REMARK SMILES IDX 15 1 14 2 13 3 12 4 10 5 11 6 9 8 86 9 85 10 87 11 84 12
REMARK SMILES IDX 88 13 83 14 8 15 6 16 7 18 5 19 4 21 2 22 89 23 1 24 3 25
REMARK SMILES IDX 90 26 91 27 16 28 17 29 18 30 19 32 20 33 21 34 82 35 22 36
REMARK SMILES IDX 81 37 23 38 24 39 25 40 75 41 26 42 80 43 74 44 76 45 27 46
REMARK SMILES IDX 79 47 73 48 72 49 28 51 60 52 40 53 59 54 41 55 44 56 58 57
REMARK SMILES IDX 77 58 42 59 43 60 57 62 78 63 45 64 29 65 30 66 38 67 31 68
REMARK SMILES IDX 37 69 39 70 36 71 32 72 33 73 34 74 35 75 61 76 62 77 70 78
REMARK SMILES IDX 63 79 69 80 71 81 68 82 64 83 65 84 66 85 67 86 46 87 47 88
REMARK SMILES IDX 55 89 48 90 54 91 56 92 53 93 49 94 50 95 51 96 52 97
REMARK H PARENT 12 7 8 17 5 20 17 31 76 50 44 61
REMARK Flexibility Score: inf
ROOT
ATOM      1  C   UNL A   1      33.481  28.288  27.242  1.00  0.00     0.023 C 
ENDROOT
BRANCH   1   2
ATOM      2  C   UNL A   1      31.967  28.428  27.413  1.00  0.00     0.023 C 
BRANCH   2   3
ATOM      3  C   UNL A   1      31.206  27.150  27.079  1.00  0.00     0.116 C 
BRANCH   3   4
ATOM      4  N   UNL A   1      30.619  27.249  25.757  1.00  0.00    -0.354 N 
ATOM      5  C   UNL A   1      30.447  26.315  24.783  1.00  0.00     0.245 C 
ATOM      6  O   UNL A   1      29.992  26.726  23.711  1.00  0.00    -0.272 OA
ATOM      7  H   UNL A   1      30.289  28.147  25.524  1.00  0.00     0.163 HD
BRANCH   5   8
ATOM      8  C   UNL A   1      30.992  24.870  24.943  1.00  0.00     0.120 C 
ATOM      9  C   UNL A   1      33.115  26.294  21.584  1.00  0.00     0.007 C 
ATOM     10  C   UNL A   1      32.935  25.223  22.669  1.00  0.00    -0.014 C 
ATOM     11  C   UNL A   1      31.579  24.524  22.457  1.00  0.00     0.006 C 
ATOM     12  C   UNL A   1      33.173  25.838  24.058  1.00  0.00     0.006 C 
ATOM     13  C   UNL A   1      30.918  23.953  23.708  1.00  0.00     0.039 C 
ATOM     14  C   UNL A   1      32.516  25.055  25.202  1.00  0.00     0.039 C 
BRANCH   8  15
ATOM     15  N   UNL A   1      30.328  24.199  26.077  1.00  0.00    -0.324 N 
ATOM     16  C   UNL A   1      30.440  22.991  26.658  1.00  0.00     0.315 C 
ATOM     17  H   UNL A   1      29.647  24.765  26.506  1.00  0.00     0.166 HD
ATOM     18  O   UNL A   1      29.818  22.832  27.714  1.00  0.00    -0.249 OA
ATOM     19  N   UNL A   1      31.118  21.931  26.164  1.00  0.00    -0.334 N 
ATOM     20  H   UNL A   1      30.987  21.118  26.703  1.00  0.00     0.165 HD
BRANCH  19  21
ATOM     21  C   UNL A   1      31.979  21.711  25.043  1.00  0.00     0.096 C 
ATOM     22  C   UNL A   1      33.487  21.528  25.179  1.00  0.00    -0.007 C 
ATOM     23  C   UNL A   1      32.619  20.355  24.720  1.00  0.00    -0.007 C 
ATOM     24  C   UNL A   1      34.335  22.265  24.158  1.00  0.00     0.014 C 
ATOM     25  C   UNL A   1      34.179  21.426  26.517  1.00  0.00     0.014 C 
ATOM     26  C   UNL A   1      32.432  19.173  25.646  1.00  0.00     0.014 C 
ATOM     27  C   UNL A   1      32.751  19.893  23.280  1.00  0.00     0.014 C 
ENDBRANCH  19  21
ENDBRANCH   8  15
ENDBRANCH   5   8
ENDBRANCH   3   4
ENDBRANCH   2   3
ENDBRANCH   1   2
BRANCH   1  28
ATOM     28  C   UNL A   1      34.102  29.378  26.375  1.00  0.00     0.116 C 
BRANCH  28  29
ATOM     29  N   UNL A   1      33.848  30.700  26.912  1.00  0.00    -0.352 N 
ATOM     30  C   UNL A   1      34.500  31.347  27.928  1.00  0.00     0.251 C 
ATOM     31  H   UNL A   1      33.111  31.199  26.491  1.00  0.00     0.163 HD
ATOM     32  O   UNL A   1      34.006  32.364  28.418  1.00  0.00    -0.269 OA
BRANCH  30  33
ATOM     33  C   UNL A   1      35.773  30.807  28.447  1.00  0.00     0.039 A 
ATOM     34  C   UNL A   1      35.733  29.876  29.485  1.00  0.00     0.014 A 
ATOM     35  C   UNL A   1      37.002  31.221  27.919  1.00  0.00     0.014 A 
ATOM     36  C   UNL A   1      36.922  29.331  29.969  1.00  0.00     0.010 A 
ATOM     37  C   UNL A   1      38.182  30.621  28.354  1.00  0.00     0.010 A 
ATOM     38  C   UNL A   1      38.157  29.679  29.393  1.00  0.00    -0.014 A 
BRANCH  38  39
ATOM     39  C   UNL A   1      39.421  29.078  29.893  1.00  0.00     0.031 A 
ATOM     40  C   UNL A   1      40.100  29.647  31.110  1.00  0.00     0.074 A 
ATOM     41  C   UNL A   1      39.966  28.031  29.242  1.00  0.00     0.049 A 
ATOM     42  N   UNL A   1      41.213  29.271  31.688  1.00  0.00    -0.248 NA
ATOM     43  C   UNL A   1      39.453  30.802  31.749  1.00  0.00     0.031 C 
ATOM     44  C   UNL A   1      39.415  27.408  28.037  1.00  0.00     0.029 A 
ATOM     45  N   UNL A   1      41.101  27.302  29.502  1.00  0.00    -0.354 N 
ATOM     46  C   UNL A   1      41.401  30.145  32.754  1.00  0.00     0.074 A 
ATOM     47  C   UNL A   1      40.321  31.107  32.701  1.00  0.00     0.031 C 
ATOM     48  C   UNL A   1      40.194  26.374  27.682  1.00  0.00     0.029 A 
ATOM     49  C   UNL A   1      41.327  26.288  28.600  1.00  0.00     0.049 A 
ATOM     50  H   UNL A   1      41.697  27.488  30.263  1.00  0.00     0.167 HD
ATOM     51  C   UNL A   1      42.369  30.130  33.703  1.00  0.00     0.034 A 
ATOM     52  C   UNL A   1      42.336  25.398  28.513  1.00  0.00     0.034 A 
ATOM     53  C   UNL A   1      43.440  29.162  33.743  1.00  0.00     0.049 A 
ATOM     54  C   UNL A   1      43.429  25.434  29.552  1.00  0.00     0.074 A 
ATOM     55  C   UNL A   1      44.446  29.029  34.684  1.00  0.00     0.029 A 
ATOM     56  N   UNL A   1      43.651  28.166  32.797  1.00  0.00    -0.354 N 
ATOM     57  N   UNL A   1      43.565  26.236  30.582  1.00  0.00    -0.248 NA
ATOM     58  C   UNL A   1      44.498  24.435  29.421  1.00  0.00     0.031 C 
ATOM     59  C   UNL A   1      45.309  28.012  34.265  1.00  0.00     0.029 A 
ATOM     60  C   UNL A   1      44.793  27.444  33.111  1.00  0.00     0.049 A 
ATOM     61  H   UNL A   1      43.075  27.999  32.017  1.00  0.00     0.167 HD
ATOM     62  C   UNL A   1      44.718  25.816  31.241  1.00  0.00     0.074 A 
ATOM     63  C   UNL A   1      45.228  24.680  30.499  1.00  0.00     0.031 C 
ATOM     64  C   UNL A   1      45.301  26.320  32.359  1.00  0.00     0.034 A 
BRANCH  51  65
ATOM     65  C   UNL A   1      42.332  31.214  34.756  1.00  0.00     0.023 A 
ATOM     66  C   UNL A   1      42.985  32.446  34.574  1.00  0.00     0.031 A 
ATOM     67  C   UNL A   1      41.648  31.006  35.968  1.00  0.00     0.131 A 
ATOM     68  C   UNL A   1      43.006  33.389  35.613  1.00  0.00     0.055 A 
ATOM     69  C   UNL A   1      41.600  31.985  36.963  1.00  0.00     0.041 A 
ATOM     70  F   UNL A   1      41.025  29.844  36.211  1.00  0.00    -0.206 F 
ATOM     71  C   UNL A   1      42.295  33.179  36.795  1.00  0.00     0.022 A 
BRANCH  68  72
ATOM     72  S   UNL A   1      44.099  34.828  35.454  1.00  0.00     0.124 S 
ATOM     73  O   UNL A   1      45.338  34.323  36.042  1.00  0.00    -0.237 OA
ATOM     74  O   UNL A   1      44.120  35.050  34.013  1.00  0.00    -0.237 OA
ATOM     75  O   UNL A   1      43.423  35.861  36.236  1.00  0.00    -0.744 OA
ENDBRANCH  68  72
ENDBRANCH  51  65
BRANCH  52  76
ATOM     76  C   UNL A   1      42.376  24.408  27.398  1.00  0.00     0.023 A 
ATOM     77  C   UNL A   1      41.609  23.232  27.442  1.00  0.00     0.031 A 
ATOM     78  C   UNL A   1      43.226  24.598  26.293  1.00  0.00     0.131 A 
ATOM     79  C   UNL A   1      41.744  22.271  26.428  1.00  0.00     0.055 A 
ATOM     80  C   UNL A   1      43.311  23.667  25.257  1.00  0.00     0.041 A 
ATOM     81  F   UNL A   1      43.982  25.703  26.199  1.00  0.00    -0.206 F 
ATOM     82  C   UNL A   1      42.578  22.486  25.328  1.00  0.00     0.022 A 
BRANCH  79  83
ATOM     83  S   UNL A   1      40.886  20.683  26.617  1.00  0.00     0.124 S 
ATOM     84  O   UNL A   1      39.597  20.968  25.999  1.00  0.00    -0.237 OA
ATOM     85  O   UNL A   1      41.764  19.777  25.885  1.00  0.00    -0.237 OA
ATOM     86  O   UNL A   1      40.855  20.485  28.064  1.00  0.00    -0.744 OA
ENDBRANCH  79  83
ENDBRANCH  52  76
BRANCH  64  87
ATOM     87  C   UNL A   1      46.530  25.611  32.875  1.00  0.00     0.023 A 
ATOM     88  C   UNL A   1      46.448  24.562  33.808  1.00  0.00     0.031 A 
ATOM     89  C   UNL A   1      47.808  26.001  32.433  1.00  0.00     0.131 A 
ATOM     90  C   UNL A   1      47.621  23.978  34.312  1.00  0.00     0.055 A 
ATOM     91  C   UNL A   1      48.968  25.370  32.887  1.00  0.00     0.041 A 
ATOM     92  F   UNL A   1      47.950  26.999  31.547  1.00  0.00    -0.206 F 
ATOM     93  C   UNL A   1      48.879  24.363  33.842  1.00  0.00     0.022 A 
BRANCH  90  94
ATOM     94  S   UNL A   1      47.487  22.779  35.666  1.00  0.00     0.124 S 
ATOM     95  O   UNL A   1      48.261  21.654  35.153  1.00  0.00    -0.237 OA
ATOM     96  O   UNL A   1      48.079  23.504  36.786  1.00  0.00    -0.237 OA
ATOM     97  O   UNL A   1      46.047  22.543  35.773  1.00  0.00    -0.744 OA
ENDBRANCH  90  94
ENDBRANCH  64  87
ENDBRANCH  38  39
ENDBRANCH  30  33
ENDBRANCH  28  29
ENDBRANCH   1  28
TORSDOF 16
ENDMDL
