MODEL 1
REMARK VINA RESULT:     -13.3      0.000      0.000
REMARK SMILES Cc1ccc(/C=C2\SC(=S)N([C@H](C(=O)NCCCCNC(=O)c3ccc(-c4c5nc(c(-c6cc(S(=O)(=O)[O-])ccc6F)c6ccc([nH]6)c(-c6cc(S(=O)(=O)[O-])ccc6F)c6nc(c(-c7cc(S(=O)(=O)[O-])ccc7F)c7ccc4[nH]7)C=C6)C=C5)cc3)C(C)C)C2=O)cc1
REMARK SMILES IDX 18 1 17 2 16 3 15 4 13 5 14 6 12 8 11 9 6 10 7 11 8 12 89 13
REMARK SMILES IDX 9 14 90 15 10 16 5 17 1 18 2 19 3 20 92 21 4 22 91 23 86 24
REMARK SMILES IDX 87 25 88 26 19 27 20 28 21 29 22 31 23 32 24 33 85 34 25 35
REMARK SMILES IDX 84 36 26 37 27 38 28 39 78 40 29 41 83 42 77 43 79 44 30 45
REMARK SMILES IDX 82 46 76 47 75 48 31 50 63 51 43 52 62 53 44 54 47 55 61 56
REMARK SMILES IDX 80 57 45 58 46 59 60 61 81 62 48 63 32 64 33 65 41 66 34 67
REMARK SMILES IDX 40 68 42 69 39 70 35 71 36 72 37 73 38 74 64 75 65 76 73 77
REMARK SMILES IDX 66 78 72 79 74 80 71 81 67 82 68 83 69 84 70 85 49 86 50 87
REMARK SMILES IDX 58 88 51 89 57 90 59 91 56 92 52 93 53 94 54 95 55 96
REMARK H PARENT 15 7 20 30 79 49 47 60
REMARK Flexibility Score: inf
ROOT
ATOM      1  C   UNL A   1      32.965  30.875  27.125  1.00  0.00     0.023 C 
ENDROOT
BRANCH   1   2
ATOM      2  C   UNL A   1      32.329  29.928  26.110  1.00  0.00     0.023 C 
BRANCH   2   3
ATOM      3  C   UNL A   1      31.942  28.536  26.635  1.00  0.00     0.116 C 
BRANCH   3   4
ATOM      4  N   UNL A   1      31.030  27.799  25.749  1.00  0.00    -0.354 N 
ATOM      5  C   UNL A   1      31.283  26.986  24.672  1.00  0.00     0.243 C 
ATOM      6  O   UNL A   1      30.340  26.366  24.171  1.00  0.00    -0.273 OA
ATOM      7  H   UNL A   1      30.075  27.906  25.965  1.00  0.00     0.163 HD
BRANCH   5   8
ATOM      8  C   UNL A   1      32.708  26.903  24.076  1.00  0.00     0.184 C 
BRANCH   8   9
ATOM      9  N   UNL A   1      33.044  25.455  23.831  1.00  0.00    -0.280 N 
ATOM     10  C   UNL A   1      33.513  22.121  25.148  1.00  0.00     0.029 C 
ATOM     11  C   UNL A   1      33.469  23.176  24.320  1.00  0.00     0.081 C 
ATOM     12  S   UNL A   1      33.396  23.178  22.617  1.00  0.00    -0.054 SA
ATOM     13  C   UNL A   1      33.402  24.569  24.837  1.00  0.00     0.266 C 
ATOM     14  C   UNL A   1      32.995  24.894  22.558  1.00  0.00     0.149 C 
ATOM     15  O   UNL A   1      33.610  24.800  26.021  1.00  0.00    -0.268 OA
ATOM     16  S   UNL A   1      32.609  25.620  21.105  1.00  0.00    -0.052 S 
BRANCH  10  17
ATOM     17  C   UNL A   1      33.612  20.717  24.746  1.00  0.00    -0.024 A 
ATOM     18  C   UNL A   1      33.853  16.596  23.499  1.00  0.00     0.044 C 
ATOM     19  C   UNL A   1      33.770  18.033  23.921  1.00  0.00    -0.051 A 
ATOM     20  C   UNL A   1      34.874  18.661  24.513  1.00  0.00     0.004 A 
ATOM     21  C   UNL A   1      32.590  18.761  23.745  1.00  0.00     0.004 A 
ATOM     22  C   UNL A   1      34.798  19.997  24.922  1.00  0.00     0.008 A 
ATOM     23  C   UNL A   1      32.512  20.093  24.153  1.00  0.00     0.008 A 
ENDBRANCH  10  17
ENDBRANCH   8   9
BRANCH   8  24
ATOM     24  C   UNL A   1      32.811  27.850  22.839  1.00  0.00     0.015 C 
ATOM     25  C   UNL A   1      31.700  28.898  22.725  1.00  0.00     0.010 C 
ATOM     26  C   UNL A   1      34.149  28.601  22.844  1.00  0.00     0.010 C 
ENDBRANCH   8  24
ENDBRANCH   5   8
ENDBRANCH   3   4
ENDBRANCH   2   3
ENDBRANCH   1   2
BRANCH   1  27
ATOM     27  C   UNL A   1      34.310  30.395  27.650  1.00  0.00     0.116 C 
BRANCH  27  28
ATOM     28  N   UNL A   1      34.987  31.315  28.551  1.00  0.00    -0.352 N 
ATOM     29  C   UNL A   1      36.138  31.106  29.303  1.00  0.00     0.251 C 
ATOM     30  H   UNL A   1      34.576  32.205  28.639  1.00  0.00     0.163 HD
ATOM     31  O   UNL A   1      36.520  31.925  30.116  1.00  0.00    -0.269 OA
BRANCH  29  32
ATOM     32  C   UNL A   1      36.975  29.913  29.003  1.00  0.00     0.039 A 
ATOM     33  C   UNL A   1      37.171  28.992  30.040  1.00  0.00     0.014 A 
ATOM     34  C   UNL A   1      37.731  29.823  27.838  1.00  0.00     0.014 A 
ATOM     35  C   UNL A   1      38.278  28.145  30.006  1.00  0.00     0.010 A 
ATOM     36  C   UNL A   1      38.883  29.064  27.848  1.00  0.00     0.010 A 
ATOM     37  C   UNL A   1      39.187  28.267  28.955  1.00  0.00    -0.014 A 
BRANCH  37  38
ATOM     38  C   UNL A   1      40.534  27.711  28.997  1.00  0.00     0.031 A 
ATOM     39  C   UNL A   1      40.808  26.333  28.557  1.00  0.00     0.074 A 
ATOM     40  C   UNL A   1      41.571  28.482  29.390  1.00  0.00     0.049 A 
ATOM     41  N   UNL A   1      41.749  25.595  29.046  1.00  0.00    -0.248 NA
ATOM     42  C   UNL A   1      40.024  25.667  27.526  1.00  0.00     0.031 C 
ATOM     43  C   UNL A   1      42.995  28.180  29.277  1.00  0.00     0.029 A 
ATOM     44  N   UNL A   1      41.518  29.605  30.209  1.00  0.00    -0.354 N 
ATOM     45  C   UNL A   1      41.904  24.525  28.199  1.00  0.00     0.074 A 
ATOM     46  C   UNL A   1      40.754  24.566  27.323  1.00  0.00     0.031 C 
ATOM     47  C   UNL A   1      43.662  28.896  30.195  1.00  0.00     0.029 A 
ATOM     48  C   UNL A   1      42.677  29.583  31.007  1.00  0.00     0.049 A 
ATOM     49  H   UNL A   1      40.806  30.285  30.227  1.00  0.00     0.167 HD
ATOM     50  C   UNL A   1      43.065  23.811  28.202  1.00  0.00     0.034 A 
ATOM     51  C   UNL A   1      42.592  29.540  32.368  1.00  0.00     0.034 A 
ATOM     52  C   UNL A   1      44.038  24.335  29.159  1.00  0.00     0.049 A 
ATOM     53  C   UNL A   1      43.264  28.329  32.979  1.00  0.00     0.074 A 
ATOM     54  C   UNL A   1      45.184  25.101  29.012  1.00  0.00     0.029 A 
ATOM     55  N   UNL A   1      43.757  24.317  30.520  1.00  0.00    -0.354 N 
ATOM     56  N   UNL A   1      43.653  27.283  32.302  1.00  0.00    -0.248 NA
ATOM     57  C   UNL A   1      43.527  28.189  34.405  1.00  0.00     0.031 C 
ATOM     58  C   UNL A   1      45.587  25.551  30.296  1.00  0.00     0.029 A 
ATOM     59  C   UNL A   1      44.696  25.046  31.227  1.00  0.00     0.049 A 
ATOM     60  H   UNL A   1      42.993  23.848  30.926  1.00  0.00     0.167 HD
ATOM     61  C   UNL A   1      44.182  26.340  33.153  1.00  0.00     0.074 A 
ATOM     62  C   UNL A   1      44.092  26.969  34.459  1.00  0.00     0.031 C 
ATOM     63  C   UNL A   1      44.631  25.131  32.683  1.00  0.00     0.034 A 
BRANCH  50  64
ATOM     64  C   UNL A   1      43.416  22.847  27.093  1.00  0.00     0.023 A 
ATOM     65  C   UNL A   1      42.858  21.552  27.084  1.00  0.00     0.031 A 
ATOM     66  C   UNL A   1      44.312  23.130  26.046  1.00  0.00     0.131 A 
ATOM     67  C   UNL A   1      43.278  20.580  26.159  1.00  0.00     0.055 A 
ATOM     68  C   UNL A   1      44.782  22.146  25.165  1.00  0.00     0.041 A 
ATOM     69  F   UNL A   1      44.745  24.380  25.818  1.00  0.00    -0.206 F 
ATOM     70  C   UNL A   1      44.278  20.856  25.230  1.00  0.00     0.022 A 
BRANCH  67  71
ATOM     71  S   UNL A   1      42.488  18.948  26.180  1.00  0.00     0.124 S 
ATOM     72  O   UNL A   1      43.296  18.196  25.225  1.00  0.00    -0.237 OA
ATOM     73  O   UNL A   1      42.619  18.561  27.581  1.00  0.00    -0.237 OA
ATOM     74  O   UNL A   1      41.120  19.227  25.744  1.00  0.00    -0.744 OA
ENDBRANCH  67  71
ENDBRANCH  50  64
BRANCH  51  75
ATOM     75  C   UNL A   1      41.379  30.240  32.891  1.00  0.00     0.023 A 
ATOM     76  C   UNL A   1      41.426  31.654  32.914  1.00  0.00     0.031 A 
ATOM     77  C   UNL A   1      40.123  29.627  32.943  1.00  0.00     0.131 A 
ATOM     78  C   UNL A   1      40.251  32.403  32.764  1.00  0.00     0.055 A 
ATOM     79  C   UNL A   1      38.945  30.385  32.900  1.00  0.00     0.041 A 
ATOM     80  F   UNL A   1      40.008  28.291  32.903  1.00  0.00    -0.206 F 
ATOM     81  C   UNL A   1      39.005  31.776  32.758  1.00  0.00     0.022 A 
BRANCH  78  82
ATOM     82  S   UNL A   1      40.408  34.145  32.257  1.00  0.00     0.124 S 
ATOM     83  O   UNL A   1      39.187  34.353  31.487  1.00  0.00    -0.237 OA
ATOM     84  O   UNL A   1      40.481  34.852  33.535  1.00  0.00    -0.237 OA
ATOM     85  O   UNL A   1      41.650  34.179  31.489  1.00  0.00    -0.744 OA
ENDBRANCH  78  82
ENDBRANCH  51  75
BRANCH  63  86
ATOM     86  C   UNL A   1      45.118  23.932  33.492  1.00  0.00     0.023 A 
ATOM     87  C   UNL A   1      46.451  23.712  33.864  1.00  0.00     0.031 A 
ATOM     88  C   UNL A   1      44.203  22.944  33.952  1.00  0.00     0.131 A 
ATOM     89  C   UNL A   1      46.835  22.577  34.611  1.00  0.00     0.055 A 
ATOM     90  C   UNL A   1      44.577  21.840  34.728  1.00  0.00     0.041 A 
ATOM     91  F   UNL A   1      42.891  23.003  33.682  1.00  0.00    -0.206 F 
ATOM     92  C   UNL A   1      45.905  21.646  35.058  1.00  0.00     0.022 A 
BRANCH  89  93
ATOM     93  S   UNL A   1      48.598  22.335  34.958  1.00  0.00     0.124 S 
ATOM     94  O   UNL A   1      48.631  22.396  36.416  1.00  0.00    -0.237 OA
ATOM     95  O   UNL A   1      48.852  21.021  34.376  1.00  0.00    -0.237 OA
ATOM     96  O   UNL A   1      49.244  23.452  34.274  1.00  0.00    -0.744 OA
ENDBRANCH  89  93
ENDBRANCH  63  86
ENDBRANCH  37  38
ENDBRANCH  29  32
ENDBRANCH  27  28
ENDBRANCH   1  27
TORSDOF 17
ENDMDL
MODEL 2
REMARK VINA RESULT:     -12.5      2.660      3.850
REMARK SMILES Cc1ccc(/C=C2\SC(=S)N([C@H](C(=O)NCCCCNC(=O)c3ccc(-c4c5nc(c(-c6cc(S(=O)(=O)[O-])ccc6F)c6ccc([nH]6)c(-c6cc(S(=O)(=O)[O-])ccc6F)c6nc(c(-c7cc(S(=O)(=O)[O-])ccc7F)c7ccc4[nH]7)C=C6)C=C5)cc3)C(C)C)C2=O)cc1
REMARK SMILES IDX 18 1 17 2 16 3 15 4 13 5 14 6 12 8 11 9 6 10 7 11 8 12 89 13
REMARK SMILES IDX 9 14 90 15 10 16 5 17 1 18 2 19 3 20 92 21 4 22 91 23 86 24
REMARK SMILES IDX 87 25 88 26 19 27 20 28 21 29 22 31 23 32 24 33 85 34 25 35
REMARK SMILES IDX 84 36 26 37 27 38 28 39 78 40 29 41 83 42 77 43 79 44 30 45
REMARK SMILES IDX 82 46 76 47 75 48 31 50 63 51 43 52 62 53 44 54 47 55 61 56
REMARK SMILES IDX 80 57 45 58 46 59 60 61 81 62 48 63 32 64 33 65 41 66 34 67
REMARK SMILES IDX 40 68 42 69 39 70 35 71 36 72 37 73 38 74 64 75 65 76 73 77
REMARK SMILES IDX 66 78 72 79 74 80 71 81 67 82 68 83 69 84 70 85 49 86 50 87
REMARK SMILES IDX 58 88 51 89 57 90 59 91 56 92 52 93 53 94 54 95 55 96
REMARK H PARENT 15 7 20 30 79 49 47 60
REMARK Flexibility Score: inf
ROOT
ATOM      1  C   UNL A   1      33.670  30.462  27.178  1.00  0.00     0.023 C 
ENDROOT
BRANCH   1   2
ATOM      2  C   UNL A   1      34.333  29.089  27.100  1.00  0.00     0.023 C 
BRANCH   2   3
ATOM      3  C   UNL A   1      33.767  28.124  26.045  1.00  0.00     0.116 C 
BRANCH   3   4
ATOM      4  N   UNL A   1      34.254  28.382  24.682  1.00  0.00    -0.354 N 
ATOM      5  C   UNL A   1      33.683  28.128  23.459  1.00  0.00     0.243 C 
ATOM      6  O   UNL A   1      34.240  28.570  22.449  1.00  0.00    -0.273 OA
ATOM      7  H   UNL A   1      35.140  28.809  24.639  1.00  0.00     0.163 HD
BRANCH   5   8
ATOM      8  C   UNL A   1      32.405  27.262  23.360  1.00  0.00     0.184 C 
BRANCH   8   9
ATOM      9  N   UNL A   1      32.810  25.813  23.289  1.00  0.00    -0.280 N 
ATOM     10  C   UNL A   1      33.342  22.663  24.981  1.00  0.00     0.029 C 
ATOM     11  C   UNL A   1      33.298  23.620  24.043  1.00  0.00     0.081 C 
ATOM     12  S   UNL A   1      33.310  23.437  22.347  1.00  0.00    -0.054 SA
ATOM     13  C   UNL A   1      33.151  25.056  24.400  1.00  0.00     0.266 C 
ATOM     14  C   UNL A   1      32.846  25.118  22.084  1.00  0.00     0.149 C 
ATOM     15  O   UNL A   1      33.291  25.422  25.561  1.00  0.00    -0.268 OA
ATOM     16  S   UNL A   1      32.505  25.667  20.545  1.00  0.00    -0.052 S 
BRANCH  10  17
ATOM     17  C   UNL A   1      33.515  21.230  24.739  1.00  0.00    -0.024 A 
ATOM     18  C   UNL A   1      34.083  17.006  24.082  1.00  0.00     0.044 C 
ATOM     19  C   UNL A   1      33.886  18.473  24.322  1.00  0.00    -0.051 A 
ATOM     20  C   UNL A   1      32.632  19.061  24.111  1.00  0.00     0.004 A 
ATOM     21  C   UNL A   1      34.949  19.275  24.745  1.00  0.00     0.004 A 
ATOM     22  C   UNL A   1      32.446  20.433  24.320  1.00  0.00     0.008 A 
ATOM     23  C   UNL A   1      34.765  20.643  24.952  1.00  0.00     0.008 A 
ENDBRANCH  10  17
ENDBRANCH   8   9
BRANCH   8  24
ATOM     24  C   UNL A   1      31.427  27.646  24.515  1.00  0.00     0.015 C 
ATOM     25  C   UNL A   1      30.891  29.080  24.469  1.00  0.00     0.010 C 
ATOM     26  C   UNL A   1      30.215  26.705  24.531  1.00  0.00     0.010 C 
ENDBRANCH   8  24
ENDBRANCH   5   8
ENDBRANCH   3   4
ENDBRANCH   2   3
ENDBRANCH   1   2
BRANCH   1  27
ATOM     27  C   UNL A   1      34.566  31.541  27.767  1.00  0.00     0.116 C 
BRANCH  27  28
ATOM     28  N   UNL A   1      33.868  32.698  28.307  1.00  0.00    -0.352 N 
ATOM     29  C   UNL A   1      34.223  33.501  29.384  1.00  0.00     0.251 C 
ATOM     30  H   UNL A   1      33.033  32.944  27.849  1.00  0.00     0.163 HD
ATOM     31  O   UNL A   1      33.474  34.360  29.807  1.00  0.00    -0.269 OA
BRANCH  29  32
ATOM     32  C   UNL A   1      35.601  33.382  29.936  1.00  0.00     0.039 A 
ATOM     33  C   UNL A   1      36.636  33.978  29.204  1.00  0.00     0.014 A 
ATOM     34  C   UNL A   1      35.895  32.522  30.988  1.00  0.00     0.014 A 
ATOM     35  C   UNL A   1      37.944  33.526  29.372  1.00  0.00     0.010 A 
ATOM     36  C   UNL A   1      37.168  31.997  31.084  1.00  0.00     0.010 A 
ATOM     37  C   UNL A   1      38.181  32.458  30.238  1.00  0.00    -0.014 A 
BRANCH  37  38
ATOM     38  C   UNL A   1      39.411  31.676  30.222  1.00  0.00     0.031 A 
ATOM     39  C   UNL A   1      39.470  30.352  29.580  1.00  0.00     0.074 A 
ATOM     40  C   UNL A   1      40.543  32.187  30.753  1.00  0.00     0.049 A 
ATOM     41  N   UNL A   1      40.248  29.398  29.970  1.00  0.00    -0.248 NA
ATOM     42  C   UNL A   1      38.635  29.994  28.442  1.00  0.00     0.031 C 
ATOM     43  C   UNL A   1      41.899  31.662  30.626  1.00  0.00     0.029 A 
ATOM     44  N   UNL A   1      40.640  33.168  31.735  1.00  0.00    -0.354 N 
ATOM     45  C   UNL A   1      40.261  28.455  28.971  1.00  0.00     0.074 A 
ATOM     46  C   UNL A   1      39.177  28.825  28.086  1.00  0.00     0.031 C 
ATOM     47  C   UNL A   1      42.632  32.107  31.658  1.00  0.00     0.029 A 
ATOM     48  C   UNL A   1      41.739  32.825  32.545  1.00  0.00     0.049 A 
ATOM     49  H   UNL A   1      40.054  33.951  31.843  1.00  0.00     0.167 HD
ATOM     50  C   UNL A   1      41.283  27.557  28.888  1.00  0.00     0.034 A 
ATOM     51  C   UNL A   1      41.582  32.595  33.881  1.00  0.00     0.034 A 
ATOM     52  C   UNL A   1      42.283  27.756  29.935  1.00  0.00     0.049 A 
ATOM     53  C   UNL A   1      42.010  31.209  34.311  1.00  0.00     0.074 A 
ATOM     54  C   UNL A   1      43.547  28.323  29.935  1.00  0.00     0.029 A 
ATOM     55  N   UNL A   1      41.938  27.584  31.271  1.00  0.00    -0.354 N 
ATOM     56  N   UNL A   1      42.249  30.224  33.489  1.00  0.00    -0.248 NA
ATOM     57  C   UNL A   1      42.177  30.815  35.704  1.00  0.00     0.031 C 
ATOM     58  C   UNL A   1      43.958  28.500  31.281  1.00  0.00     0.029 A 
ATOM     59  C   UNL A   1      42.951  28.025  32.103  1.00  0.00     0.049 A 
ATOM     60  H   UNL A   1      41.087  27.200  31.583  1.00  0.00     0.167 HD
ATOM     61  C   UNL A   1      42.570  29.087  34.194  1.00  0.00     0.074 A 
ATOM     62  C   UNL A   1      42.524  29.521  35.580  1.00  0.00     0.031 C 
ATOM     63  C   UNL A   1      42.831  27.902  33.553  1.00  0.00     0.034 A 
BRANCH  50  64
ATOM     64  C   UNL A   1      41.519  26.723  27.651  1.00  0.00     0.023 A 
ATOM     65  C   UNL A   1      41.339  25.325  27.700  1.00  0.00     0.031 A 
ATOM     66  C   UNL A   1      41.953  27.237  26.415  1.00  0.00     0.131 A 
ATOM     67  C   UNL A   1      41.697  24.502  26.618  1.00  0.00     0.055 A 
ATOM     68  C   UNL A   1      42.373  26.416  25.359  1.00  0.00     0.041 A 
ATOM     69  F   UNL A   1      41.959  28.557  26.173  1.00  0.00    -0.206 F 
ATOM     70  C   UNL A   1      42.263  25.037  25.464  1.00  0.00     0.022 A 
BRANCH  67  71
ATOM     71  S   UNL A   1      41.399  22.717  26.736  1.00  0.00     0.124 S 
ATOM     72  O   UNL A   1      39.942  22.645  26.791  1.00  0.00    -0.237 OA
ATOM     73  O   UNL A   1      42.025  22.220  25.515  1.00  0.00    -0.237 OA
ATOM     74  O   UNL A   1      42.082  22.341  27.974  1.00  0.00    -0.744 OA
ENDBRANCH  67  71
ENDBRANCH  50  64
BRANCH  51  75
ATOM     75  C   UNL A   1      40.481  33.410  34.479  1.00  0.00     0.023 A 
ATOM     76  C   UNL A   1      39.486  32.702  35.193  1.00  0.00     0.031 A 
ATOM     77  C   UNL A   1      40.613  34.781  34.728  1.00  0.00     0.131 A 
ATOM     78  C   UNL A   1      38.819  33.308  36.266  1.00  0.00     0.055 A 
ATOM     79  C   UNL A   1      39.866  35.410  35.733  1.00  0.00     0.041 A 
ATOM     80  F   UNL A   1      41.551  35.505  34.101  1.00  0.00    -0.206 F 
ATOM     81  C   UNL A   1      39.002  34.663  36.543  1.00  0.00     0.022 A 
BRANCH  78  82
ATOM     82  S   UNL A   1      37.979  32.229  37.469  1.00  0.00     0.124 S 
ATOM     83  O   UNL A   1      38.883  32.279  38.612  1.00  0.00    -0.237 OA
ATOM     84  O   UNL A   1      36.686  32.888  37.652  1.00  0.00    -0.237 OA
ATOM     85  O   UNL A   1      37.896  30.939  36.788  1.00  0.00    -0.744 OA
ENDBRANCH  78  82
ENDBRANCH  51  75
BRANCH  63  86
ATOM     86  C   UNL A   1      43.068  26.529  34.176  1.00  0.00     0.023 A 
ATOM     87  C   UNL A   1      44.285  25.835  34.130  1.00  0.00     0.031 A 
ATOM     88  C   UNL A   1      42.033  25.864  34.890  1.00  0.00     0.131 A 
ATOM     89  C   UNL A   1      44.437  24.564  34.725  1.00  0.00     0.055 A 
ATOM     90  C   UNL A   1      42.195  24.622  35.515  1.00  0.00     0.041 A 
ATOM     91  F   UNL A   1      40.808  26.390  35.027  1.00  0.00    -0.206 F 
ATOM     92  C   UNL A   1      43.404  23.958  35.430  1.00  0.00     0.022 A 
BRANCH  89  93
ATOM     93  S   UNL A   1      46.021  23.706  34.525  1.00  0.00     0.124 S 
ATOM     94  O   UNL A   1      45.600  22.407  34.010  1.00  0.00    -0.237 OA
ATOM     95  O   UNL A   1      46.723  24.565  33.575  1.00  0.00    -0.237 OA
ATOM     96  O   UNL A   1      46.579  23.688  35.875  1.00  0.00    -0.744 OA
ENDBRANCH  89  93
ENDBRANCH  63  86
ENDBRANCH  37  38
ENDBRANCH  29  32
ENDBRANCH  27  28
ENDBRANCH   1  27
TORSDOF 17
ENDMDL
MODEL 3
REMARK VINA RESULT:     -12.2      2.384      2.739
REMARK SMILES Cc1ccc(/C=C2\SC(=S)N([C@H](C(=O)NCCCCNC(=O)c3ccc(-c4c5nc(c(-c6cc(S(=O)(=O)[O-])ccc6F)c6ccc([nH]6)c(-c6cc(S(=O)(=O)[O-])ccc6F)c6nc(c(-c7cc(S(=O)(=O)[O-])ccc7F)c7ccc4[nH]7)C=C6)C=C5)cc3)C(C)C)C2=O)cc1
REMARK SMILES IDX 18 1 17 2 16 3 15 4 13 5 14 6 12 8 11 9 6 10 7 11 8 12 89 13
REMARK SMILES IDX 9 14 90 15 10 16 5 17 1 18 2 19 3 20 92 21 4 22 91 23 86 24
REMARK SMILES IDX 87 25 88 26 19 27 20 28 21 29 22 31 23 32 24 33 85 34 25 35
REMARK SMILES IDX 84 36 26 37 27 38 28 39 78 40 29 41 83 42 77 43 79 44 30 45
REMARK SMILES IDX 82 46 76 47 75 48 31 50 63 51 43 52 62 53 44 54 47 55 61 56
REMARK SMILES IDX 80 57 45 58 46 59 60 61 81 62 48 63 32 64 33 65 41 66 34 67
REMARK SMILES IDX 40 68 42 69 39 70 35 71 36 72 37 73 38 74 64 75 65 76 73 77
REMARK SMILES IDX 66 78 72 79 74 80 71 81 67 82 68 83 69 84 70 85 49 86 50 87
REMARK SMILES IDX 58 88 51 89 57 90 59 91 56 92 52 93 53 94 54 95 55 96
REMARK H PARENT 15 7 20 30 79 49 47 60
REMARK Flexibility Score: inf
ROOT
ATOM      1  C   UNL A   1      32.875  30.205  27.232  1.00  0.00     0.023 C 
ENDROOT
BRANCH   1   2
ATOM      2  C   UNL A   1      32.491  28.736  27.074  1.00  0.00     0.023 C 
BRANCH   2   3
ATOM      3  C   UNL A   1      32.254  28.251  25.634  1.00  0.00     0.116 C 
BRANCH   3   4
ATOM      4  N   UNL A   1      31.074  27.388  25.484  1.00  0.00    -0.354 N 
ATOM      5  C   UNL A   1      30.908  26.198  24.820  1.00  0.00     0.243 C 
ATOM      6  O   UNL A   1      29.840  25.593  24.959  1.00  0.00    -0.273 OA
ATOM      7  H   UNL A   1      30.265  27.720  25.937  1.00  0.00     0.163 HD
BRANCH   5   8
ATOM      8  C   UNL A   1      32.016  25.669  23.879  1.00  0.00     0.184 C 
BRANCH   8   9
ATOM      9  N   UNL A   1      32.356  24.257  24.281  1.00  0.00    -0.280 N 
ATOM     10  C   UNL A   1      31.977  20.706  23.724  1.00  0.00     0.029 C 
ATOM     11  C   UNL A   1      32.327  21.889  24.252  1.00  0.00     0.081 C 
ATOM     12  S   UNL A   1      33.602  22.227  25.332  1.00  0.00    -0.054 SA
ATOM     13  C   UNL A   1      31.633  23.148  23.871  1.00  0.00     0.266 C 
ATOM     14  C   UNL A   1      33.453  23.967  25.087  1.00  0.00     0.149 C 
ATOM     15  O   UNL A   1      30.584  23.109  23.239  1.00  0.00    -0.268 OA
ATOM     16  S   UNL A   1      34.559  25.012  25.772  1.00  0.00    -0.052 S 
BRANCH  10  17
ATOM     17  C   UNL A   1      32.571  19.409  24.054  1.00  0.00    -0.024 A 
ATOM     18  C   UNL A   1      34.266  15.580  25.084  1.00  0.00     0.044 C 
ATOM     19  C   UNL A   1      33.666  16.907  24.726  1.00  0.00    -0.051 A 
ATOM     20  C   UNL A   1      33.709  17.370  23.404  1.00  0.00     0.004 A 
ATOM     21  C   UNL A   1      33.069  17.707  25.706  1.00  0.00     0.004 A 
ATOM     22  C   UNL A   1      33.163  18.614  23.068  1.00  0.00     0.008 A 
ATOM     23  C   UNL A   1      32.525  18.948  25.372  1.00  0.00     0.008 A 
ENDBRANCH  10  17
ENDBRANCH   8   9
BRANCH   8  24
ATOM     24  C   UNL A   1      31.578  25.874  22.394  1.00  0.00     0.015 C 
ATOM     25  C   UNL A   1      31.014  27.258  22.064  1.00  0.00     0.010 C 
ATOM     26  C   UNL A   1      32.757  25.622  21.444  1.00  0.00     0.010 C 
ENDBRANCH   8  24
ENDBRANCH   5   8
ENDBRANCH   3   4
ENDBRANCH   2   3
ENDBRANCH   1   2
BRANCH   1  27
ATOM     27  C   UNL A   1      34.368  30.429  27.418  1.00  0.00     0.116 C 
BRANCH  27  28
ATOM     28  N   UNL A   1      34.733  31.248  28.565  1.00  0.00    -0.352 N 
ATOM     29  C   UNL A   1      35.789  31.078  29.453  1.00  0.00     0.251 C 
ATOM     30  H   UNL A   1      34.155  32.026  28.733  1.00  0.00     0.163 HD
ATOM     31  O   UNL A   1      35.897  31.769  30.447  1.00  0.00    -0.269 OA
BRANCH  29  32
ATOM     32  C   UNL A   1      36.867  30.115  29.098  1.00  0.00     0.039 A 
ATOM     33  C   UNL A   1      37.016  28.991  29.921  1.00  0.00     0.014 A 
ATOM     34  C   UNL A   1      37.840  30.421  28.153  1.00  0.00     0.014 A 
ATOM     35  C   UNL A   1      38.240  28.324  29.958  1.00  0.00     0.010 A 
ATOM     36  C   UNL A   1      39.085  29.834  28.263  1.00  0.00     0.010 A 
ATOM     37  C   UNL A   1      39.301  28.824  29.204  1.00  0.00    -0.014 A 
BRANCH  37  38
ATOM     38  C   UNL A   1      40.691  28.447  29.434  1.00  0.00     0.031 A 
ATOM     39  C   UNL A   1      41.288  27.277  28.769  1.00  0.00     0.074 A 
ATOM     40  C   UNL A   1      41.475  29.210  30.226  1.00  0.00     0.049 A 
ATOM     41  N   UNL A   1      42.230  26.559  29.285  1.00  0.00    -0.248 NA
ATOM     42  C   UNL A   1      40.854  26.812  27.458  1.00  0.00     0.031 C 
ATOM     43  C   UNL A   1      42.924  29.126  30.385  1.00  0.00     0.029 A 
ATOM     44  N   UNL A   1      41.062  30.065  31.242  1.00  0.00    -0.354 N 
ATOM     45  C   UNL A   1      42.737  25.775  28.277  1.00  0.00     0.074 A 
ATOM     46  C   UNL A   1      41.794  25.901  27.188  1.00  0.00     0.031 C 
ATOM     47  C   UNL A   1      43.258  29.655  31.573  1.00  0.00     0.029 A 
ATOM     48  C   UNL A   1      42.025  29.977  32.264  1.00  0.00     0.049 A 
ATOM     49  H   UNL A   1      40.251  30.623  31.247  1.00  0.00     0.167 HD
ATOM     50  C   UNL A   1      43.983  25.234  28.391  1.00  0.00     0.034 A 
ATOM     51  C   UNL A   1      41.682  29.570  33.520  1.00  0.00     0.034 A 
ATOM     52  C   UNL A   1      44.639  25.606  29.644  1.00  0.00     0.049 A 
ATOM     53  C   UNL A   1      42.426  28.334  33.980  1.00  0.00     0.074 A 
ATOM     54  C   UNL A   1      45.635  26.519  29.950  1.00  0.00     0.029 A 
ATOM     55  N   UNL A   1      44.103  25.198  30.859  1.00  0.00    -0.354 N 
ATOM     56  N   UNL A   1      43.121  27.558  33.194  1.00  0.00    -0.248 NA
ATOM     57  C   UNL A   1      42.422  27.860  35.358  1.00  0.00     0.031 C 
ATOM     58  C   UNL A   1      45.690  26.664  31.360  1.00  0.00     0.029 A 
ATOM     59  C   UNL A   1      44.737  25.827  31.914  1.00  0.00     0.049 A 
ATOM     60  H   UNL A   1      43.369  24.549  30.956  1.00  0.00     0.167 HD
ATOM     61  C   UNL A   1      43.631  26.498  33.908  1.00  0.00     0.074 A 
ATOM     62  C   UNL A   1      43.173  26.747  35.264  1.00  0.00     0.031 C 
ATOM     63  C   UNL A   1      44.372  25.519  33.295  1.00  0.00     0.034 A 
BRANCH  50  64
ATOM     64  C   UNL A   1      44.713  24.645  27.206  1.00  0.00     0.023 A 
ATOM     65  C   UNL A   1      45.654  25.424  26.503  1.00  0.00     0.031 A 
ATOM     66  C   UNL A   1      44.501  23.347  26.706  1.00  0.00     0.131 A 
ATOM     67  C   UNL A   1      46.236  24.965  25.307  1.00  0.00     0.055 A 
ATOM     68  C   UNL A   1      45.028  22.913  25.482  1.00  0.00     0.041 A 
ATOM     69  F   UNL A   1      43.798  22.439  27.400  1.00  0.00    -0.206 F 
ATOM     70  C   UNL A   1      45.887  23.732  24.765  1.00  0.00     0.022 A 
BRANCH  67  71
ATOM     71  S   UNL A   1      47.469  26.003  24.477  1.00  0.00     0.124 S 
ATOM     72  O   UNL A   1      47.976  25.115  23.435  1.00  0.00    -0.237 OA
ATOM     73  O   UNL A   1      46.666  27.134  24.027  1.00  0.00    -0.237 OA
ATOM     74  O   UNL A   1      48.425  26.312  25.541  1.00  0.00    -0.744 OA
ENDBRANCH  67  71
ENDBRANCH  50  64
BRANCH  51  75
ATOM     75  C   UNL A   1      40.285  29.953  33.888  1.00  0.00     0.023 A 
ATOM     76  C   UNL A   1      40.087  31.288  34.314  1.00  0.00     0.031 A 
ATOM     77  C   UNL A   1      39.168  29.237  33.443  1.00  0.00     0.131 A 
ATOM     78  C   UNL A   1      38.863  31.930  34.082  1.00  0.00     0.055 A 
ATOM     79  C   UNL A   1      37.917  29.855  33.312  1.00  0.00     0.041 A 
ATOM     80  F   UNL A   1      39.292  27.975  33.006  1.00  0.00    -0.206 F 
ATOM     81  C   UNL A   1      37.772  31.220  33.582  1.00  0.00     0.022 A 
BRANCH  78  82
ATOM     82  S   UNL A   1      38.830  33.750  34.137  1.00  0.00     0.124 S 
ATOM     83  O   UNL A   1      38.080  34.008  35.361  1.00  0.00    -0.237 OA
ATOM     84  O   UNL A   1      40.250  34.102  34.176  1.00  0.00    -0.237 OA
ATOM     85  O   UNL A   1      38.159  34.129  32.897  1.00  0.00    -0.744 OA
ENDBRANCH  78  82
ENDBRANCH  51  75
BRANCH  63  86
ATOM     86  C   UNL A   1      44.895  24.220  33.900  1.00  0.00     0.023 A 
ATOM     87  C   UNL A   1      46.247  23.946  34.148  1.00  0.00     0.031 A 
ATOM     88  C   UNL A   1      44.000  23.183  34.284  1.00  0.00     0.131 A 
ATOM     89  C   UNL A   1      46.665  22.720  34.708  1.00  0.00     0.055 A 
ATOM     90  C   UNL A   1      44.411  21.983  34.878  1.00  0.00     0.041 A 
ATOM     91  F   UNL A   1      42.675  23.283  34.115  1.00  0.00    -0.206 F 
ATOM     92  C   UNL A   1      45.755  21.740  35.088  1.00  0.00     0.022 A 
BRANCH  89  93
ATOM     93  S   UNL A   1      48.444  22.425  34.899  1.00  0.00     0.124 S 
ATOM     94  O   UNL A   1      48.604  21.117  34.272  1.00  0.00    -0.237 OA
ATOM     95  O   UNL A   1      49.026  23.549  34.172  1.00  0.00    -0.237 OA
ATOM     96  O   UNL A   1      48.646  22.449  36.346  1.00  0.00    -0.744 OA
ENDBRANCH  89  93
ENDBRANCH  63  86
ENDBRANCH  37  38
ENDBRANCH  29  32
ENDBRANCH  27  28
ENDBRANCH   1  27
TORSDOF 17
ENDMDL
