MODEL 1
REMARK VINA RESULT:     -11.5      0.000      0.000
REMARK SMILES COc1ccc(F)cc1[C@@H](C(=O)NCCCCNC(=O)c1ccc(-c2c3nc(c(-c4cc(S(=O)(=O)[O-])ccc4F)c4ccc([nH]4)c(-c4cc(S(=O)(=O)[O-])ccc4F)c4nc(c(-c5cc(S(=O)(=O)[O-])ccc5F)c5ccc2[nH]5)C=C4)C=C3)cc1)[N@@H+](C)CCn1ccnc1C
REMARK SMILES IDX 15 1 14 2 13 3 11 4 12 5 10 7 9 8 3 9 4 10 5 11 8 12 6 13
REMARK SMILES IDX 7 14 2 15 1 16 84 17 85 18 86 20 87 21 88 22 89 23 92 24
REMARK SMILES IDX 90 25 91 26 93 27 16 28 17 29 18 30 19 31 20 33 21 34 22 35
REMARK SMILES IDX 83 36 23 37 82 38 24 39 25 40 26 41 76 42 27 43 81 44 75 45
REMARK SMILES IDX 77 46 28 47 80 48 74 49 73 50 29 52 61 53 41 54 60 55 42 56
REMARK SMILES IDX 45 57 59 58 78 59 43 60 44 61 58 63 79 64 46 65 30 66 31 67
REMARK SMILES IDX 39 68 32 69 38 70 40 71 37 72 33 73 34 74 35 75 36 76 62 77
REMARK SMILES IDX 63 78 71 79 64 80 70 81 72 82 69 83 65 84 66 85 67 86 68 87
REMARK SMILES IDX 47 88 48 89 56 90 49 91 55 92 57 93 54 94 50 95 51 96 52 97
REMARK SMILES IDX 53 98
REMARK H PARENT 13 6 84 19 18 32 77 51 45 62
REMARK Flexibility Score: inf
ROOT
ATOM      1  C   UNL A   1      32.186  28.433  27.326  1.00  0.00     0.023 C 
ENDROOT
BRANCH   1   2
ATOM      2  C   UNL A   1      33.422  27.969  26.542  1.00  0.00     0.116 C 
BRANCH   2   3
ATOM      3  N   UNL A   1      32.997  27.281  25.328  1.00  0.00    -0.351 N 
ATOM      4  C   UNL A   1      33.148  27.784  24.057  1.00  0.00     0.283 C 
ATOM      5  O   UNL A   1      34.090  28.550  23.819  1.00  0.00    -0.268 OA
ATOM      6  H   UNL A   1      32.574  26.397  25.424  1.00  0.00     0.163 HD
BRANCH   4   7
ATOM      7  C   UNL A   1      32.161  27.342  22.904  1.00  0.00     0.309 C 
BRANCH   7   8
ATOM      8  C   UNL A   1      30.656  27.659  23.004  1.00  0.00     0.064 A 
ATOM      9  C   UNL A   1      29.780  26.821  23.729  1.00  0.00     0.128 A 
ATOM     10  C   UNL A   1      28.402  27.105  23.790  1.00  0.00     0.050 A 
ATOM     11  C   UNL A   1      27.867  28.209  23.126  1.00  0.00     0.043 A 
ATOM     12  C   UNL A   1      30.092  28.827  22.447  1.00  0.00     0.053 A 
ATOM     13  C   UNL A   1      28.721  29.069  22.471  1.00  0.00     0.124 A 
ATOM     14  F   UNL A   1      28.229  30.122  21.806  1.00  0.00    -0.207 F 
BRANCH   9  15
ATOM     15  O   UNL A   1      30.359  25.780  24.402  1.00  0.00    -0.496 OA
ATOM     16  C   UNL A   1      29.914  25.572  25.737  1.00  0.00     0.278 C 
ENDBRANCH   9  15
ENDBRANCH   7   8
BRANCH   7  17
ATOM     17  N   UNL A   1      32.495  26.028  22.312  1.00  0.00    -0.322 N 
ATOM     18  C   UNL A   1      32.153  25.951  20.891  1.00  0.00     0.333 C 
ATOM     19  H   UNL A   1      31.860  25.486  22.896  1.00  0.00     0.348 HD
BRANCH  17  20
ATOM     20  C   UNL A   1      33.617  25.182  22.740  1.00  0.00     0.285 C 
BRANCH  20  21
ATOM     21  C   UNL A   1      33.585  23.642  22.700  1.00  0.00     0.184 C 
BRANCH  21  22
ATOM     22  N   UNL A   1      33.916  22.739  23.805  1.00  0.00    -0.330 N 
ATOM     23  C   UNL A   1      32.877  22.007  24.373  1.00  0.00     0.107 A 
ATOM     24  C   UNL A   1      35.071  22.168  24.328  1.00  0.00     0.105 A 
ATOM     25  C   UNL A   1      33.443  21.009  25.113  1.00  0.00     0.131 A 
ATOM     26  N   UNL A   1      34.787  21.121  25.079  1.00  0.00    -0.242 NA
ATOM     27  C   UNL A   1      36.495  22.530  24.190  1.00  0.00     0.087 C 
ENDBRANCH  21  22
ENDBRANCH  20  21
ENDBRANCH  17  20
ENDBRANCH   7  17
ENDBRANCH   4   7
ENDBRANCH   2   3
ENDBRANCH   1   2
BRANCH   1  28
ATOM     28  C   UNL A   1      31.517  29.718  26.835  1.00  0.00     0.023 C 
BRANCH  28  29
ATOM     29  C   UNL A   1      32.477  30.750  26.255  1.00  0.00     0.116 C 
BRANCH  29  30
ATOM     30  N   UNL A   1      32.334  32.088  26.825  1.00  0.00    -0.352 N 
ATOM     31  C   UNL A   1      33.207  32.804  27.610  1.00  0.00     0.251 C 
ATOM     32  H   UNL A   1      31.488  32.545  26.615  1.00  0.00     0.163 HD
ATOM     33  O   UNL A   1      32.889  33.923  28.011  1.00  0.00    -0.269 OA
BRANCH  31  34
ATOM     34  C   UNL A   1      34.483  32.191  28.024  1.00  0.00     0.039 A 
ATOM     35  C   UNL A   1      35.619  32.999  28.118  1.00  0.00     0.014 A 
ATOM     36  C   UNL A   1      34.538  30.851  28.408  1.00  0.00     0.014 A 
ATOM     37  C   UNL A   1      36.779  32.485  28.696  1.00  0.00     0.010 A 
ATOM     38  C   UNL A   1      35.651  30.378  29.086  1.00  0.00     0.010 A 
ATOM     39  C   UNL A   1      36.785  31.187  29.236  1.00  0.00    -0.014 A 
BRANCH  39  40
ATOM     40  C   UNL A   1      37.978  30.647  29.932  1.00  0.00     0.031 A 
ATOM     41  C   UNL A   1      38.251  31.055  31.354  1.00  0.00     0.074 A 
ATOM     42  C   UNL A   1      38.826  29.830  29.273  1.00  0.00     0.049 A 
ATOM     43  N   UNL A   1      39.266  30.751  32.118  1.00  0.00    -0.248 NA
ATOM     44  C   UNL A   1      37.274  31.957  31.989  1.00  0.00     0.031 C 
ATOM     45  C   UNL A   1      38.686  29.411  27.875  1.00  0.00     0.029 A 
ATOM     46  N   UNL A   1      39.964  29.191  29.693  1.00  0.00    -0.354 N 
ATOM     47  C   UNL A   1      39.055  31.432  33.312  1.00  0.00     0.074 A 
ATOM     48  C   UNL A   1      37.860  32.227  33.144  1.00  0.00     0.031 C 
ATOM     49  C   UNL A   1      39.657  28.533  27.578  1.00  0.00     0.029 A 
ATOM     50  C   UNL A   1      40.514  28.358  28.745  1.00  0.00     0.049 A 
ATOM     51  H   UNL A   1      40.352  29.317  30.589  1.00  0.00     0.167 HD
ATOM     52  C   UNL A   1      39.767  31.366  34.460  1.00  0.00     0.034 A 
ATOM     53  C   UNL A   1      41.578  27.533  28.821  1.00  0.00     0.034 A 
ATOM     54  C   UNL A   1      40.922  30.528  34.629  1.00  0.00     0.049 A 
ATOM     55  C   UNL A   1      42.345  27.463  30.115  1.00  0.00     0.074 A 
ATOM     56  C   UNL A   1      41.706  30.358  35.755  1.00  0.00     0.029 A 
ATOM     57  N   UNL A   1      41.442  29.697  33.647  1.00  0.00    -0.354 N 
ATOM     58  N   UNL A   1      42.135  28.124  31.230  1.00  0.00    -0.248 NA
ATOM     59  C   UNL A   1      43.488  26.540  30.167  1.00  0.00     0.031 C 
ATOM     60  C   UNL A   1      42.719  29.447  35.445  1.00  0.00     0.029 A 
ATOM     61  C   UNL A   1      42.536  29.012  34.141  1.00  0.00     0.049 A 
ATOM     62  H   UNL A   1      41.085  29.608  32.734  1.00  0.00     0.167 HD
ATOM     63  C   UNL A   1      43.097  27.671  32.125  1.00  0.00     0.074 A 
ATOM     64  C   UNL A   1      43.894  26.688  31.421  1.00  0.00     0.031 C 
ATOM     65  C   UNL A   1      43.299  28.029  33.416  1.00  0.00     0.034 A 
BRANCH  52  66
ATOM     66  C   UNL A   1      39.302  32.206  35.617  1.00  0.00     0.023 A 
ATOM     67  C   UNL A   1      39.716  33.541  35.759  1.00  0.00     0.031 A 
ATOM     68  C   UNL A   1      38.438  31.670  36.588  1.00  0.00     0.131 A 
ATOM     69  C   UNL A   1      39.309  34.283  36.876  1.00  0.00     0.055 A 
ATOM     70  C   UNL A   1      37.983  32.436  37.663  1.00  0.00     0.041 A 
ATOM     71  F   UNL A   1      38.029  30.394  36.510  1.00  0.00    -0.206 F 
ATOM     72  C   UNL A   1      38.424  33.748  37.816  1.00  0.00     0.022 A 
BRANCH  69  73
ATOM     73  S   UNL A   1      40.014  35.933  37.127  1.00  0.00     0.124 S 
ATOM     74  O   UNL A   1      39.659  36.595  35.876  1.00  0.00    -0.237 OA
ATOM     75  O   UNL A   1      39.315  36.402  38.318  1.00  0.00    -0.237 OA
ATOM     76  O   UNL A   1      41.441  35.671  37.306  1.00  0.00    -0.744 OA
ENDBRANCH  69  73
ENDBRANCH  52  66
BRANCH  53  77
ATOM     77  C   UNL A   1      41.955  26.681  27.658  1.00  0.00     0.023 A 
ATOM     78  C   UNL A   1      41.603  25.322  27.622  1.00  0.00     0.031 A 
ATOM     79  C   UNL A   1      42.670  27.209  26.570  1.00  0.00     0.131 A 
ATOM     80  C   UNL A   1      41.992  24.528  26.532  1.00  0.00     0.055 A 
ATOM     81  C   UNL A   1      43.022  26.423  25.470  1.00  0.00     0.041 A 
ATOM     82  F   UNL A   1      43.021  28.505  26.551  1.00  0.00    -0.206 F 
ATOM     83  C   UNL A   1      42.689  25.072  25.451  1.00  0.00     0.022 A 
BRANCH  80  84
ATOM     84  S   UNL A   1      41.606  22.755  26.565  1.00  0.00     0.124 S 
ATOM     85  O   UNL A   1      42.196  22.346  27.834  1.00  0.00    -0.237 OA
ATOM     86  O   UNL A   1      40.148  22.760  26.505  1.00  0.00    -0.237 OA
ATOM     87  O   UNL A   1      42.274  22.240  25.371  1.00  0.00    -0.744 OA
ENDBRANCH  80  84
ENDBRANCH  53  77
BRANCH  65  88
ATOM     88  C   UNL A   1      44.389  27.325  34.171  1.00  0.00     0.023 A 
ATOM     89  C   UNL A   1      44.187  26.054  34.728  1.00  0.00     0.031 A 
ATOM     90  C   UNL A   1      45.670  27.899  34.246  1.00  0.00     0.131 A 
ATOM     91  C   UNL A   1      45.255  25.395  35.351  1.00  0.00     0.055 A 
ATOM     92  C   UNL A   1      46.736  27.225  34.836  1.00  0.00     0.041 A 
ATOM     93  F   UNL A   1      45.906  29.109  33.714  1.00  0.00    -0.206 F 
ATOM     94  C   UNL A   1      46.532  25.966  35.392  1.00  0.00     0.022 A 
BRANCH  91  95
ATOM     95  S   UNL A   1      44.963  23.769  36.097  1.00  0.00     0.124 S 
ATOM     96  O   UNL A   1      46.139  23.023  35.660  1.00  0.00    -0.237 OA
ATOM     97  O   UNL A   1      44.900  24.078  37.523  1.00  0.00    -0.237 OA
ATOM     98  O   UNL A   1      43.699  23.343  35.502  1.00  0.00    -0.744 OA
ENDBRANCH  91  95
ENDBRANCH  65  88
ENDBRANCH  39  40
ENDBRANCH  31  34
ENDBRANCH  29  30
ENDBRANCH  28  29
ENDBRANCH   1  28
TORSDOF 20
ENDMDL
MODEL 2
REMARK VINA RESULT:     -11.2      1.775      3.559
REMARK SMILES COc1ccc(F)cc1[C@@H](C(=O)NCCCCNC(=O)c1ccc(-c2c3nc(c(-c4cc(S(=O)(=O)[O-])ccc4F)c4ccc([nH]4)c(-c4cc(S(=O)(=O)[O-])ccc4F)c4nc(c(-c5cc(S(=O)(=O)[O-])ccc5F)c5ccc2[nH]5)C=C4)C=C3)cc1)[N@@H+](C)CCn1ccnc1C
REMARK SMILES IDX 15 1 14 2 13 3 11 4 12 5 10 7 9 8 3 9 4 10 5 11 8 12 6 13
REMARK SMILES IDX 7 14 2 15 1 16 84 17 85 18 86 20 87 21 88 22 89 23 92 24
REMARK SMILES IDX 90 25 91 26 93 27 16 28 17 29 18 30 19 31 20 33 21 34 22 35
REMARK SMILES IDX 83 36 23 37 82 38 24 39 25 40 26 41 76 42 27 43 81 44 75 45
REMARK SMILES IDX 77 46 28 47 80 48 74 49 73 50 29 52 61 53 41 54 60 55 42 56
REMARK SMILES IDX 45 57 59 58 78 59 43 60 44 61 58 63 79 64 46 65 30 66 31 67
REMARK SMILES IDX 39 68 32 69 38 70 40 71 37 72 33 73 34 74 35 75 36 76 62 77
REMARK SMILES IDX 63 78 71 79 64 80 70 81 72 82 69 83 65 84 66 85 67 86 68 87
REMARK SMILES IDX 47 88 48 89 56 90 49 91 55 92 57 93 54 94 50 95 51 96 52 97
REMARK SMILES IDX 53 98
REMARK H PARENT 13 6 84 19 18 32 77 51 45 62
REMARK Flexibility Score: inf
ROOT
ATOM      1  C   UNL A   1      32.000  27.216  26.215  1.00  0.00     0.023 C 
ENDROOT
BRANCH   1   2
ATOM      2  C   UNL A   1      30.784  26.281  26.284  1.00  0.00     0.116 C 
BRANCH   2   3
ATOM      3  N   UNL A   1      31.058  25.071  25.515  1.00  0.00    -0.351 N 
ATOM      4  C   UNL A   1      31.837  24.029  25.961  1.00  0.00     0.283 C 
ATOM      5  O   UNL A   1      31.905  23.802  27.175  1.00  0.00    -0.268 OA
ATOM      6  H   UNL A   1      30.658  24.994  24.619  1.00  0.00     0.163 HD
BRANCH   4   7
ATOM      7  C   UNL A   1      32.592  23.101  24.926  1.00  0.00     0.309 C 
BRANCH   7   8
ATOM      8  C   UNL A   1      34.080  22.756  25.131  1.00  0.00     0.064 A 
ATOM      9  C   UNL A   1      34.575  21.465  24.846  1.00  0.00     0.128 A 
ATOM     10  C   UNL A   1      35.931  21.153  25.063  1.00  0.00     0.050 A 
ATOM     11  C   UNL A   1      36.812  22.103  25.577  1.00  0.00     0.043 A 
ATOM     12  C   UNL A   1      35.029  23.719  25.536  1.00  0.00     0.053 A 
ATOM     13  C   UNL A   1      36.356  23.385  25.796  1.00  0.00     0.124 A 
ATOM     14  F   UNL A   1      37.176  24.309  26.311  1.00  0.00    -0.207 F 
BRANCH   9  15
ATOM     15  O   UNL A   1      33.683  20.582  24.299  1.00  0.00    -0.496 OA
ATOM     16  C   UNL A   1      33.727  19.253  24.804  1.00  0.00     0.278 C 
ENDBRANCH   9  15
ENDBRANCH   7   8
BRANCH   7  17
ATOM     17  N   UNL A   1      32.178  23.324  23.523  1.00  0.00    -0.322 N 
ATOM     18  C   UNL A   1      30.725  23.276  23.354  1.00  0.00     0.333 C 
ATOM     19  H   UNL A   1      32.642  22.499  23.146  1.00  0.00     0.348 HD
BRANCH  17  20
ATOM     20  C   UNL A   1      32.899  24.174  22.566  1.00  0.00     0.285 C 
BRANCH  20  21
ATOM     21  C   UNL A   1      33.375  25.604  22.889  1.00  0.00     0.184 C 
BRANCH  21  22
ATOM     22  N   UNL A   1      32.653  26.844  22.595  1.00  0.00    -0.330 N 
ATOM     23  C   UNL A   1      31.283  26.755  22.371  1.00  0.00     0.107 A 
ATOM     24  C   UNL A   1      32.897  28.207  22.726  1.00  0.00     0.105 A 
ATOM     25  C   UNL A   1      30.774  28.019  22.466  1.00  0.00     0.131 A 
ATOM     26  N   UNL A   1      31.774  28.898  22.680  1.00  0.00    -0.242 NA
ATOM     27  C   UNL A   1      34.149  28.970  22.893  1.00  0.00     0.087 C 
ENDBRANCH  21  22
ENDBRANCH  20  21
ENDBRANCH  17  20
ENDBRANCH   7  17
ENDBRANCH   4   7
ENDBRANCH   2   3
ENDBRANCH   1   2
BRANCH   1  28
ATOM     28  C   UNL A   1      31.778  28.650  26.697  1.00  0.00     0.023 C 
BRANCH  28  29
ATOM     29  C   UNL A   1      32.802  29.656  26.187  1.00  0.00     0.116 C 
BRANCH  29  30
ATOM     30  N   UNL A   1      32.589  31.022  26.660  1.00  0.00    -0.352 N 
ATOM     31  C   UNL A   1      33.434  31.846  27.365  1.00  0.00     0.251 C 
ATOM     32  H   UNL A   1      31.712  31.409  26.441  1.00  0.00     0.163 HD
ATOM     33  O   UNL A   1      33.056  32.971  27.692  1.00  0.00    -0.269 OA
BRANCH  31  34
ATOM     34  C   UNL A   1      34.755  31.344  27.786  1.00  0.00     0.039 A 
ATOM     35  C   UNL A   1      35.800  32.257  27.954  1.00  0.00     0.014 A 
ATOM     36  C   UNL A   1      34.938  29.999  28.106  1.00  0.00     0.014 A 
ATOM     37  C   UNL A   1      36.993  31.834  28.540  1.00  0.00     0.010 A 
ATOM     38  C   UNL A   1      36.077  29.607  28.793  1.00  0.00     0.010 A 
ATOM     39  C   UNL A   1      37.118  30.518  29.016  1.00  0.00    -0.014 A 
BRANCH  39  40
ATOM     40  C   UNL A   1      38.343  30.065  29.719  1.00  0.00     0.031 A 
ATOM     41  C   UNL A   1      38.622  30.567  31.110  1.00  0.00     0.074 A 
ATOM     42  C   UNL A   1      39.211  29.245  29.093  1.00  0.00     0.049 A 
ATOM     43  N   UNL A   1      39.661  30.348  31.871  1.00  0.00    -0.248 NA
ATOM     44  C   UNL A   1      37.621  31.467  31.710  1.00  0.00     0.031 C 
ATOM     45  C   UNL A   1      39.064  28.739  27.725  1.00  0.00     0.029 A 
ATOM     46  N   UNL A   1      40.380  28.675  29.529  1.00  0.00    -0.354 N 
ATOM     47  C   UNL A   1      39.443  31.089  33.027  1.00  0.00     0.074 A 
ATOM     48  C   UNL A   1      38.215  31.826  32.836  1.00  0.00     0.031 C 
ATOM     49  C   UNL A   1      40.065  27.882  27.462  1.00  0.00     0.029 A 
ATOM     50  C   UNL A   1      40.947  27.809  28.621  1.00  0.00     0.049 A 
ATOM     51  H   UNL A   1      40.778  28.869  30.408  1.00  0.00     0.167 HD
ATOM     52  C   UNL A   1      40.176  31.119  34.164  1.00  0.00     0.034 A 
ATOM     53  C   UNL A   1      42.043  27.032  28.724  1.00  0.00     0.034 A 
ATOM     54  C   UNL A   1      41.366  30.337  34.360  1.00  0.00     0.049 A 
ATOM     55  C   UNL A   1      42.834  27.068  30.006  1.00  0.00     0.074 A 
ATOM     56  C   UNL A   1      42.175  30.264  35.479  1.00  0.00     0.029 A 
ATOM     57  N   UNL A   1      41.901  29.470  33.418  1.00  0.00    -0.354 N 
ATOM     58  N   UNL A   1      42.616  27.785  31.085  1.00  0.00    -0.248 NA
ATOM     59  C   UNL A   1      44.013  26.194  30.091  1.00  0.00     0.031 C 
ATOM     60  C   UNL A   1      43.217  29.376  35.204  1.00  0.00     0.029 A 
ATOM     61  C   UNL A   1      43.030  28.858  33.931  1.00  0.00     0.049 A 
ATOM     62  H   UNL A   1      41.533  29.314  32.518  1.00  0.00     0.167 HD
ATOM     63  C   UNL A   1      43.610  27.423  31.986  1.00  0.00     0.074 A 
ATOM     64  C   UNL A   1      44.434  26.431  31.326  1.00  0.00     0.031 C 
ATOM     65  C   UNL A   1      43.819  27.864  33.250  1.00  0.00     0.034 A 
BRANCH  52  66
ATOM     66  C   UNL A   1      39.697  32.006  35.279  1.00  0.00     0.023 A 
ATOM     67  C   UNL A   1      40.165  33.325  35.409  1.00  0.00     0.031 A 
ATOM     68  C   UNL A   1      38.767  31.534  36.220  1.00  0.00     0.131 A 
ATOM     69  C   UNL A   1      39.742  34.112  36.489  1.00  0.00     0.055 A 
ATOM     70  C   UNL A   1      38.299  32.345  37.255  1.00  0.00     0.041 A 
ATOM     71  F   UNL A   1      38.305  30.276  36.153  1.00  0.00    -0.206 F 
ATOM     72  C   UNL A   1      38.792  33.641  37.398  1.00  0.00     0.022 A 
BRANCH  69  73
ATOM     73  S   UNL A   1      40.508  35.735  36.734  1.00  0.00     0.124 S 
ATOM     74  O   UNL A   1      41.862  35.496  36.242  1.00  0.00    -0.237 OA
ATOM     75  O   UNL A   1      39.677  36.610  35.915  1.00  0.00    -0.237 OA
ATOM     76  O   UNL A   1      40.402  35.948  38.176  1.00  0.00    -0.744 OA
ENDBRANCH  69  73
ENDBRANCH  52  66
BRANCH  53  77
ATOM     77  C   UNL A   1      42.434  26.128  27.607  1.00  0.00     0.023 A 
ATOM     78  C   UNL A   1      41.956  24.809  27.551  1.00  0.00     0.031 A 
ATOM     79  C   UNL A   1      43.289  26.565  26.581  1.00  0.00     0.131 A 
ATOM     80  C   UNL A   1      42.358  23.962  26.507  1.00  0.00     0.055 A 
ATOM     81  C   UNL A   1      43.657  25.730  25.524  1.00  0.00     0.041 A 
ATOM     82  F   UNL A   1      43.766  27.821  26.583  1.00  0.00    -0.206 F 
ATOM     83  C   UNL A   1      43.196  24.418  25.486  1.00  0.00     0.022 A 
BRANCH  80  84
ATOM     84  S   UNL A   1      41.799  22.236  26.520  1.00  0.00     0.124 S 
ATOM     85  O   UNL A   1      40.365  22.386  26.308  1.00  0.00    -0.237 OA
ATOM     86  O   UNL A   1      42.558  21.662  25.414  1.00  0.00    -0.237 OA
ATOM     87  O   UNL A   1      42.187  21.764  27.848  1.00  0.00    -0.744 OA
ENDBRANCH  80  84
ENDBRANCH  53  77
BRANCH  65  88
ATOM     88  C   UNL A   1      44.948  27.248  34.024  1.00  0.00     0.023 A 
ATOM     89  C   UNL A   1      44.771  26.064  34.755  1.00  0.00     0.031 A 
ATOM     90  C   UNL A   1      46.236  27.807  33.945  1.00  0.00     0.131 A 
ATOM     91  C   UNL A   1      45.871  25.476  35.394  1.00  0.00     0.055 A 
ATOM     92  C   UNL A   1      47.331  27.200  34.554  1.00  0.00     0.041 A 
ATOM     93  F   UNL A   1      46.448  28.933  33.246  1.00  0.00    -0.206 F 
ATOM     94  C   UNL A   1      47.152  26.027  35.283  1.00  0.00     0.022 A 
BRANCH  91  95
ATOM     95  S   UNL A   1      45.614  23.966  36.363  1.00  0.00     0.124 S 
ATOM     96  O   UNL A   1      46.771  23.163  35.981  1.00  0.00    -0.237 OA
ATOM     97  O   UNL A   1      45.611  24.464  37.737  1.00  0.00    -0.237 OA
ATOM     98  O   UNL A   1      44.325  23.469  35.886  1.00  0.00    -0.744 OA
ENDBRANCH  91  95
ENDBRANCH  65  88
ENDBRANCH  39  40
ENDBRANCH  31  34
ENDBRANCH  29  30
ENDBRANCH  28  29
ENDBRANCH   1  28
TORSDOF 20
ENDMDL
MODEL 3
REMARK VINA RESULT:     -11.1      2.402      3.727
REMARK SMILES COc1ccc(F)cc1[C@@H](C(=O)NCCCCNC(=O)c1ccc(-c2c3nc(c(-c4cc(S(=O)(=O)[O-])ccc4F)c4ccc([nH]4)c(-c4cc(S(=O)(=O)[O-])ccc4F)c4nc(c(-c5cc(S(=O)(=O)[O-])ccc5F)c5ccc2[nH]5)C=C4)C=C3)cc1)[N@@H+](C)CCn1ccnc1C
REMARK SMILES IDX 15 1 14 2 13 3 11 4 12 5 10 7 9 8 3 9 4 10 5 11 8 12 6 13
REMARK SMILES IDX 7 14 2 15 1 16 84 17 85 18 86 20 87 21 88 22 89 23 92 24
REMARK SMILES IDX 90 25 91 26 93 27 16 28 17 29 18 30 19 31 20 33 21 34 22 35
REMARK SMILES IDX 83 36 23 37 82 38 24 39 25 40 26 41 76 42 27 43 81 44 75 45
REMARK SMILES IDX 77 46 28 47 80 48 74 49 73 50 29 52 61 53 41 54 60 55 42 56
REMARK SMILES IDX 45 57 59 58 78 59 43 60 44 61 58 63 79 64 46 65 30 66 31 67
REMARK SMILES IDX 39 68 32 69 38 70 40 71 37 72 33 73 34 74 35 75 36 76 62 77
REMARK SMILES IDX 63 78 71 79 64 80 70 81 72 82 69 83 65 84 66 85 67 86 68 87
REMARK SMILES IDX 47 88 48 89 56 90 49 91 55 92 57 93 54 94 50 95 51 96 52 97
REMARK SMILES IDX 53 98
REMARK H PARENT 13 6 84 19 18 32 77 51 45 62
REMARK Flexibility Score: inf
ROOT
ATOM      1  C   UNL A   1      31.451  27.410  25.427  1.00  0.00     0.023 C 
ENDROOT
BRANCH   1   2
ATOM      2  C   UNL A   1      32.278  26.677  26.493  1.00  0.00     0.116 C 
BRANCH   2   3
ATOM      3  N   UNL A   1      32.687  25.375  25.979  1.00  0.00    -0.351 N 
ATOM      4  C   UNL A   1      32.449  24.179  26.616  1.00  0.00     0.283 C 
ATOM      5  O   UNL A   1      31.454  24.070  27.343  1.00  0.00    -0.268 OA
ATOM      6  H   UNL A   1      33.165  25.349  25.118  1.00  0.00     0.163 HD
BRANCH   4   7
ATOM      7  C   UNL A   1      33.408  22.945  26.375  1.00  0.00     0.309 C 
BRANCH   7   8
ATOM      8  C   UNL A   1      34.690  23.108  25.534  1.00  0.00     0.064 A 
ATOM      9  C   UNL A   1      34.637  23.159  24.124  1.00  0.00     0.128 A 
ATOM     10  C   UNL A   1      35.817  23.280  23.366  1.00  0.00     0.050 A 
ATOM     11  C   UNL A   1      37.065  23.336  23.985  1.00  0.00     0.043 A 
ATOM     12  C   UNL A   1      35.960  23.287  26.123  1.00  0.00     0.053 A 
ATOM     13  C   UNL A   1      37.125  23.353  25.362  1.00  0.00     0.124 A 
ATOM     14  F   UNL A   1      38.312  23.383  25.980  1.00  0.00    -0.207 F 
BRANCH   9  15
ATOM     15  O   UNL A   1      33.387  23.149  23.566  1.00  0.00    -0.496 OA
ATOM     16  C   UNL A   1      33.336  23.125  22.145  1.00  0.00     0.278 C 
ENDBRANCH   9  15
ENDBRANCH   7   8
BRANCH   7  17
ATOM     17  N   UNL A   1      32.689  21.665  26.195  1.00  0.00    -0.322 N 
ATOM     18  C   UNL A   1      31.367  21.846  25.594  1.00  0.00     0.333 C 
ATOM     19  H   UNL A   1      32.638  21.434  27.186  1.00  0.00     0.348 HD
BRANCH  17  20
ATOM     20  C   UNL A   1      33.337  20.375  25.923  1.00  0.00     0.285 C 
BRANCH  20  21
ATOM     21  C   UNL A   1      32.560  19.088  25.584  1.00  0.00     0.184 C 
BRANCH  21  22
ATOM     22  N   UNL A   1      32.748  18.250  24.397  1.00  0.00    -0.330 N 
ATOM     23  C   UNL A   1      32.090  18.628  23.231  1.00  0.00     0.107 A 
ATOM     24  C   UNL A   1      33.640  17.264  23.990  1.00  0.00     0.105 A 
ATOM     25  C   UNL A   1      32.664  17.938  22.201  1.00  0.00     0.131 A 
ATOM     26  N   UNL A   1      33.610  17.105  22.681  1.00  0.00    -0.242 NA
ATOM     27  C   UNL A   1      34.568  16.404  24.750  1.00  0.00     0.087 C 
ENDBRANCH  21  22
ENDBRANCH  20  21
ENDBRANCH  17  20
ENDBRANCH   7  17
ENDBRANCH   4   7
ENDBRANCH   2   3
ENDBRANCH   1   2
BRANCH   1  28
ATOM     28  C   UNL A   1      31.514  28.938  25.455  1.00  0.00     0.023 C 
BRANCH  28  29
ATOM     29  C   UNL A   1      32.606  29.511  26.349  1.00  0.00     0.116 C 
BRANCH  29  30
ATOM     30  N   UNL A   1      32.415  30.915  26.705  1.00  0.00    -0.352 N 
ATOM     31  C   UNL A   1      33.279  31.786  27.324  1.00  0.00     0.251 C 
ATOM     32  H   UNL A   1      31.538  31.292  26.466  1.00  0.00     0.163 HD
ATOM     33  O   UNL A   1      32.918  32.940  27.557  1.00  0.00    -0.269 OA
BRANCH  31  34
ATOM     34  C   UNL A   1      34.601  31.308  27.769  1.00  0.00     0.039 A 
ATOM     35  C   UNL A   1      35.638  32.233  27.918  1.00  0.00     0.014 A 
ATOM     36  C   UNL A   1      34.792  29.973  28.127  1.00  0.00     0.014 A 
ATOM     37  C   UNL A   1      36.829  31.836  28.524  1.00  0.00     0.010 A 
ATOM     38  C   UNL A   1      35.929  29.610  28.833  1.00  0.00     0.010 A 
ATOM     39  C   UNL A   1      36.961  30.535  29.037  1.00  0.00    -0.014 A 
BRANCH  39  40
ATOM     40  C   UNL A   1      38.184  30.112  29.762  1.00  0.00     0.031 A 
ATOM     41  C   UNL A   1      38.427  30.618  31.158  1.00  0.00     0.074 A 
ATOM     42  C   UNL A   1      39.083  29.314  29.150  1.00  0.00     0.049 A 
ATOM     43  N   UNL A   1      39.458  30.424  31.937  1.00  0.00    -0.248 NA
ATOM     44  C   UNL A   1      37.394  31.493  31.740  1.00  0.00     0.031 C 
ATOM     45  C   UNL A   1      38.974  28.806  27.780  1.00  0.00     0.029 A 
ATOM     46  N   UNL A   1      40.259  28.773  29.606  1.00  0.00    -0.354 N 
ATOM     47  C   UNL A   1      39.202  31.159  33.089  1.00  0.00     0.074 A 
ATOM     48  C   UNL A   1      37.959  31.865  32.877  1.00  0.00     0.031 C 
ATOM     49  C   UNL A   1      39.999  27.975  27.533  1.00  0.00     0.029 A 
ATOM     50  C   UNL A   1      40.862  27.922  28.708  1.00  0.00     0.049 A 
ATOM     51  H   UNL A   1      40.636  28.975  30.492  1.00  0.00     0.167 HD
ATOM     52  C   UNL A   1      39.914  31.205  34.238  1.00  0.00     0.034 A 
ATOM     53  C   UNL A   1      41.976  27.172  28.829  1.00  0.00     0.034 A 
ATOM     54  C   UNL A   1      41.118  30.452  34.454  1.00  0.00     0.049 A 
ATOM     55  C   UNL A   1      42.743  27.226  30.124  1.00  0.00     0.074 A 
ATOM     56  C   UNL A   1      41.909  30.398  35.587  1.00  0.00     0.029 A 
ATOM     57  N   UNL A   1      41.692  29.600  33.521  1.00  0.00    -0.354 N 
ATOM     58  N   UNL A   1      42.488  27.936  31.200  1.00  0.00    -0.248 NA
ATOM     59  C   UNL A   1      43.941  26.382  30.229  1.00  0.00     0.031 C 
ATOM     60  C   UNL A   1      42.979  29.537  35.330  1.00  0.00     0.029 A 
ATOM     61  C   UNL A   1      42.826  29.016  34.054  1.00  0.00     0.049 A 
ATOM     62  H   UNL A   1      41.344  29.436  32.615  1.00  0.00     0.167 HD
ATOM     63  C   UNL A   1      43.475  27.598  32.118  1.00  0.00     0.074 A 
ATOM     64  C   UNL A   1      44.335  26.627  31.472  1.00  0.00     0.031 C 
ATOM     65  C   UNL A   1      43.652  28.042  33.386  1.00  0.00     0.034 A 
BRANCH  52  66
ATOM     66  C   UNL A   1      39.393  32.079  35.345  1.00  0.00     0.023 A 
ATOM     67  C   UNL A   1      38.713  31.530  36.445  1.00  0.00     0.031 A 
ATOM     68  C   UNL A   1      39.576  33.472  35.304  1.00  0.00     0.131 A 
ATOM     69  C   UNL A   1      38.192  32.373  37.436  1.00  0.00     0.055 A 
ATOM     70  C   UNL A   1      39.113  34.300  36.328  1.00  0.00     0.041 A 
ATOM     71  F   UNL A   1      40.201  34.049  34.266  1.00  0.00    -0.206 F 
ATOM     72  C   UNL A   1      38.410  33.752  37.398  1.00  0.00     0.022 A 
BRANCH  69  73
ATOM     73  S   UNL A   1      37.157  31.651  38.736  1.00  0.00     0.124 S 
ATOM     74  O   UNL A   1      35.994  32.533  38.706  1.00  0.00    -0.237 OA
ATOM     75  O   UNL A   1      36.939  30.292  38.254  1.00  0.00    -0.237 OA
ATOM     76  O   UNL A   1      37.988  31.761  39.933  1.00  0.00    -0.744 OA
ENDBRANCH  69  73
ENDBRANCH  52  66
BRANCH  53  77
ATOM     77  C   UNL A   1      42.408  26.279  27.718  1.00  0.00     0.023 A 
ATOM     78  C   UNL A   1      42.121  24.905  27.749  1.00  0.00     0.031 A 
ATOM     79  C   UNL A   1      43.114  26.782  26.612  1.00  0.00     0.131 A 
ATOM     80  C   UNL A   1      42.562  24.074  26.708  1.00  0.00     0.055 A 
ATOM     81  C   UNL A   1      43.518  25.958  25.560  1.00  0.00     0.041 A 
ATOM     82  F   UNL A   1      43.404  28.091  26.529  1.00  0.00    -0.206 F 
ATOM     83  C   UNL A   1      43.249  24.593  25.607  1.00  0.00     0.022 A 
BRANCH  80  84
ATOM     84  S   UNL A   1      42.259  22.289  26.830  1.00  0.00     0.124 S 
ATOM     85  O   UNL A   1      41.894  22.145  28.233  1.00  0.00    -0.237 OA
ATOM     86  O   UNL A   1      41.183  22.097  25.862  1.00  0.00    -0.237 OA
ATOM     87  O   UNL A   1      43.543  21.700  26.454  1.00  0.00    -0.744 OA
ENDBRANCH  80  84
ENDBRANCH  53  77
BRANCH  65  88
ATOM     88  C   UNL A   1      44.782  27.453  34.179  1.00  0.00     0.023 A 
ATOM     89  C   UNL A   1      44.613  26.281  34.930  1.00  0.00     0.031 A 
ATOM     90  C   UNL A   1      46.063  28.025  34.099  1.00  0.00     0.131 A 
ATOM     91  C   UNL A   1      45.715  25.718  35.588  1.00  0.00     0.055 A 
ATOM     92  C   UNL A   1      47.161  27.442  34.726  1.00  0.00     0.041 A 
ATOM     93  F   UNL A   1      46.268  29.141  33.381  1.00  0.00    -0.206 F 
ATOM     94  C   UNL A   1      46.990  26.281  35.475  1.00  0.00     0.022 A 
BRANCH  91  95
ATOM     95  S   UNL A   1      45.467  24.223  36.583  1.00  0.00     0.124 S 
ATOM     96  O   UNL A   1      44.989  24.778  37.845  1.00  0.00    -0.237 OA
ATOM     97  O   UNL A   1      44.483  23.478  35.802  1.00  0.00    -0.237 OA
ATOM     98  O   UNL A   1      46.798  23.621  36.632  1.00  0.00    -0.744 OA
ENDBRANCH  91  95
ENDBRANCH  65  88
ENDBRANCH  39  40
ENDBRANCH  31  34
ENDBRANCH  29  30
ENDBRANCH  28  29
ENDBRANCH   1  28
TORSDOF 20
ENDMDL
