MODEL 1
REMARK VINA RESULT:     -11.0      0.000      0.000
REMARK SMILES CC[C@H]1CC[C@](CC(C)(C)O)(C(=O)NCCCCNC(=O)c2ccc(-c3c4nc(c(-c5cc(S(=O)(=O)[O-])ccc5F)c5ccc([nH]5)c(-c5cc(S(=O)(=O)[O-])ccc5F)c5nc(c(-c6cc(S(=O)(=O)[O-])ccc6F)c6ccc3[nH]6)C=C5)C=C4)cc2)C1
REMARK SMILES IDX 16 1 15 2 14 3 12 4 13 5 6 7 3 8 4 9 85 10 5 11 2 12 1 13
REMARK SMILES IDX 7 14 8 15 9 16 10 17 11 18 17 20 18 21 19 22 20 23 21 25
REMARK SMILES IDX 22 26 23 27 84 28 24 29 83 30 25 31 26 32 27 33 77 34 28 35
REMARK SMILES IDX 82 36 76 37 78 38 29 39 81 40 75 41 74 42 30 44 62 45 42 46
REMARK SMILES IDX 61 47 43 48 46 49 60 50 79 51 44 52 45 53 59 55 80 56 47 57
REMARK SMILES IDX 31 58 32 59 40 60 33 61 39 62 41 63 38 64 34 65 35 66 36 67
REMARK SMILES IDX 37 68 63 69 64 70 72 71 65 72 71 73 73 74 70 75 66 76 67 77
REMARK SMILES IDX 68 78 69 79 48 80 49 81 57 82 50 83 56 84 58 85 55 86 51 87
REMARK SMILES IDX 52 88 53 89 54 90
REMARK H PARENT 14 6 11 19 19 24 78 43 46 54
REMARK Flexibility Score: inf
ROOT
ATOM      1  C   UNL A   1      31.809  27.727  26.180  1.00  0.00     0.023 C 
ENDROOT
BRANCH   1   2
ATOM      2  C   UNL A   1      31.159  26.447  25.645  1.00  0.00     0.116 C 
BRANCH   2   3
ATOM      3  N   UNL A   1      31.231  25.421  26.660  1.00  0.00    -0.356 N 
ATOM      4  C   UNL A   1      31.517  24.096  26.587  1.00  0.00     0.226 C 
ATOM      5  O   UNL A   1      31.094  23.433  27.545  1.00  0.00    -0.274 OA
ATOM      6  H   UNL A   1      31.040  25.741  27.572  1.00  0.00     0.163 HD
BRANCH   4   7
ATOM      7  C   UNL A   1      32.528  23.475  25.570  1.00  0.00     0.052 C 
ATOM      8  C   UNL A   1      34.436  24.321  24.120  1.00  0.00    -0.010 C 
ATOM      9  C   UNL A   1      33.114  24.632  23.419  1.00  0.00     0.005 C 
ATOM     10  C   UNL A   1      33.972  24.029  25.560  1.00  0.00     0.020 C 
ATOM     11  C   UNL A   1      32.018  23.852  24.145  1.00  0.00     0.017 C 
BRANCH   8  12
ATOM     12  C   UNL A   1      35.359  23.462  23.206  1.00  0.00     0.000 C 
ATOM     13  C   UNL A   1      36.694  22.867  23.623  1.00  0.00     0.004 C 
ENDBRANCH   8  12
BRANCH   7  14
ATOM     14  C   UNL A   1      32.347  21.946  25.886  1.00  0.00     0.051 C 
BRANCH  14  15
ATOM     15  C   UNL A   1      33.554  21.025  26.111  1.00  0.00     0.060 C 
ATOM     16  C   UNL A   1      34.164  20.555  24.783  1.00  0.00     0.042 C 
ATOM     17  C   UNL A   1      34.676  21.751  26.868  1.00  0.00     0.042 C 
BRANCH  15  18
ATOM     18  O   UNL A   1      33.143  19.923  26.903  1.00  0.00    -0.390 OA
ATOM     19  H   UNL A   1      33.257  19.101  26.399  1.00  0.00     0.211 HD
ENDBRANCH  15  18
ENDBRANCH  14  15
ENDBRANCH   7  14
ENDBRANCH   4   7
ENDBRANCH   2   3
ENDBRANCH   1   2
BRANCH   1  20
ATOM     20  C   UNL A   1      33.283  27.555  26.577  1.00  0.00     0.023 C 
BRANCH  20  21
ATOM     21  C   UNL A   1      34.208  28.673  26.106  1.00  0.00     0.116 C 
BRANCH  21  22
ATOM     22  N   UNL A   1      33.750  29.992  26.514  1.00  0.00    -0.352 N 
ATOM     23  C   UNL A   1      34.282  30.829  27.469  1.00  0.00     0.251 C 
ATOM     24  H   UNL A   1      32.953  30.331  26.046  1.00  0.00     0.163 HD
ATOM     25  O   UNL A   1      33.691  31.844  27.795  1.00  0.00    -0.269 OA
BRANCH  23  26
ATOM     26  C   UNL A   1      35.558  30.450  28.113  1.00  0.00     0.039 A 
ATOM     27  C   UNL A   1      35.522  29.753  29.320  1.00  0.00     0.014 A 
ATOM     28  C   UNL A   1      36.776  30.740  27.493  1.00  0.00     0.014 A 
ATOM     29  C   UNL A   1      36.714  29.283  29.875  1.00  0.00     0.010 A 
ATOM     30  C   UNL A   1      37.952  30.205  28.007  1.00  0.00     0.010 A 
ATOM     31  C   UNL A   1      37.934  29.469  29.202  1.00  0.00    -0.014 A 
BRANCH  31  32
ATOM     32  C   UNL A   1      39.200  28.903  29.733  1.00  0.00     0.031 A 
ATOM     33  C   UNL A   1      39.854  29.524  30.937  1.00  0.00     0.074 A 
ATOM     34  C   UNL A   1      39.786  27.868  29.099  1.00  0.00     0.049 A 
ATOM     35  N   UNL A   1      40.989  29.220  31.511  1.00  0.00    -0.248 NA
ATOM     36  C   UNL A   1      39.154  30.660  31.557  1.00  0.00     0.031 C 
ATOM     37  C   UNL A   1      39.265  27.206  27.899  1.00  0.00     0.029 A 
ATOM     38  N   UNL A   1      40.950  27.191  29.366  1.00  0.00    -0.354 N 
ATOM     39  C   UNL A   1      41.145  30.131  32.550  1.00  0.00     0.074 A 
ATOM     40  C   UNL A   1      40.020  31.038  32.484  1.00  0.00     0.031 C 
ATOM     41  C   UNL A   1      40.086  26.201  27.557  1.00  0.00     0.029 A 
ATOM     42  C   UNL A   1      41.219  26.176  28.476  1.00  0.00     0.049 A 
ATOM     43  H   UNL A   1      41.538  27.412  30.125  1.00  0.00     0.167 HD
ATOM     44  C   UNL A   1      42.124  30.190  33.486  1.00  0.00     0.034 A 
ATOM     45  C   UNL A   1      42.267  25.330  28.402  1.00  0.00     0.034 A 
ATOM     46  C   UNL A   1      43.231  29.267  33.543  1.00  0.00     0.049 A 
ATOM     47  C   UNL A   1      43.362  25.440  29.435  1.00  0.00     0.074 A 
ATOM     48  C   UNL A   1      44.245  29.198  34.483  1.00  0.00     0.029 A 
ATOM     49  N   UNL A   1      43.478  28.260  32.619  1.00  0.00    -0.354 N 
ATOM     50  N   UNL A   1      43.464  26.272  30.447  1.00  0.00    -0.248 NA
ATOM     51  C   UNL A   1      44.477  24.491  29.322  1.00  0.00     0.031 C 
ATOM     52  C   UNL A   1      45.145  28.206  34.083  1.00  0.00     0.029 A 
ATOM     53  C   UNL A   1      44.649  27.591  32.945  1.00  0.00     0.049 A 
ATOM     54  H   UNL A   1      42.906  28.051  31.845  1.00  0.00     0.167 HD
ATOM     55  C   UNL A   1      44.637  25.919  31.111  1.00  0.00     0.074 A 
ATOM     56  C   UNL A   1      45.195  24.791  30.394  1.00  0.00     0.031 C 
ATOM     57  C   UNL A   1      45.198  26.471  32.217  1.00  0.00     0.034 A 
BRANCH  44  58
ATOM     58  C   UNL A   1      42.054  31.305  34.503  1.00  0.00     0.023 A 
ATOM     59  C   UNL A   1      41.050  31.350  35.487  1.00  0.00     0.031 A 
ATOM     60  C   UNL A   1      42.995  32.349  34.479  1.00  0.00     0.131 A 
ATOM     61  C   UNL A   1      40.970  32.447  36.357  1.00  0.00     0.055 A 
ATOM     62  C   UNL A   1      42.960  33.395  35.402  1.00  0.00     0.041 A 
ATOM     63  F   UNL A   1      43.963  32.376  33.548  1.00  0.00    -0.206 F 
ATOM     64  C   UNL A   1      41.934  33.457  36.340  1.00  0.00     0.022 A 
BRANCH  61  65
ATOM     65  S   UNL A   1      39.504  32.610  37.413  1.00  0.00     0.124 S 
ATOM     66  O   UNL A   1      38.871  33.803  36.857  1.00  0.00    -0.237 OA
ATOM     67  O   UNL A   1      38.807  31.350  37.181  1.00  0.00    -0.237 OA
ATOM     68  O   UNL A   1      40.063  32.776  38.753  1.00  0.00    -0.744 OA
ENDBRANCH  61  65
ENDBRANCH  44  58
BRANCH  45  69
ATOM     69  C   UNL A   1      42.350  24.310  27.315  1.00  0.00     0.023 A 
ATOM     70  C   UNL A   1      41.637  23.104  27.403  1.00  0.00     0.031 A 
ATOM     71  C   UNL A   1      43.188  24.499  26.203  1.00  0.00     0.131 A 
ATOM     72  C   UNL A   1      41.820  22.109  26.429  1.00  0.00     0.055 A 
ATOM     73  C   UNL A   1      43.319  23.532  25.204  1.00  0.00     0.041 A 
ATOM     74  F   UNL A   1      43.893  25.633  26.066  1.00  0.00    -0.206 F 
ATOM     75  C   UNL A   1      42.644  22.321  25.323  1.00  0.00     0.022 A 
BRANCH  72  76
ATOM     76  S   UNL A   1      41.047  20.488  26.689  1.00  0.00     0.124 S 
ATOM     77  O   UNL A   1      39.811  20.626  25.929  1.00  0.00    -0.237 OA
ATOM     78  O   UNL A   1      42.046  19.583  26.132  1.00  0.00    -0.237 OA
ATOM     79  O   UNL A   1      40.884  20.419  28.140  1.00  0.00    -0.744 OA
ENDBRANCH  72  76
ENDBRANCH  45  69
BRANCH  57  80
ATOM     80  C   UNL A   1      46.456  25.825  32.747  1.00  0.00     0.023 A 
ATOM     81  C   UNL A   1      46.414  24.766  33.671  1.00  0.00     0.031 A 
ATOM     82  C   UNL A   1      47.717  26.284  32.325  1.00  0.00     0.131 A 
ATOM     83  C   UNL A   1      47.609  24.243  34.188  1.00  0.00     0.055 A 
ATOM     84  C   UNL A   1      48.901  25.713  32.791  1.00  0.00     0.041 A 
ATOM     85  F   UNL A   1      47.817  27.295  31.447  1.00  0.00    -0.206 F 
ATOM     86  C   UNL A   1      48.852  24.696  33.738  1.00  0.00     0.022 A 
BRANCH  83  87
ATOM     87  S   UNL A   1      47.518  23.028  35.533  1.00  0.00     0.124 S 
ATOM     88  O   UNL A   1      46.078  22.909  35.735  1.00  0.00    -0.237 OA
ATOM     89  O   UNL A   1      48.178  21.866  34.949  1.00  0.00    -0.237 OA
ATOM     90  O   UNL A   1      48.247  23.671  36.625  1.00  0.00    -0.744 OA
ENDBRANCH  83  87
ENDBRANCH  57  80
ENDBRANCH  31  32
ENDBRANCH  23  26
ENDBRANCH  21  22
ENDBRANCH  20  21
ENDBRANCH   1  20
TORSDOF 18
ENDMDL
MODEL 2
REMARK VINA RESULT:     -10.8      5.432      8.497
REMARK SMILES CC[C@H]1CC[C@](CC(C)(C)O)(C(=O)NCCCCNC(=O)c2ccc(-c3c4nc(c(-c5cc(S(=O)(=O)[O-])ccc5F)c5ccc([nH]5)c(-c5cc(S(=O)(=O)[O-])ccc5F)c5nc(c(-c6cc(S(=O)(=O)[O-])ccc6F)c6ccc3[nH]6)C=C5)C=C4)cc2)C1
REMARK SMILES IDX 16 1 15 2 14 3 12 4 13 5 6 7 3 8 4 9 85 10 5 11 2 12 1 13
REMARK SMILES IDX 7 14 8 15 9 16 10 17 11 18 17 20 18 21 19 22 20 23 21 25
REMARK SMILES IDX 22 26 23 27 84 28 24 29 83 30 25 31 26 32 27 33 77 34 28 35
REMARK SMILES IDX 82 36 76 37 78 38 29 39 81 40 75 41 74 42 30 44 62 45 42 46
REMARK SMILES IDX 61 47 43 48 46 49 60 50 79 51 44 52 45 53 59 55 80 56 47 57
REMARK SMILES IDX 31 58 32 59 40 60 33 61 39 62 41 63 38 64 34 65 35 66 36 67
REMARK SMILES IDX 37 68 63 69 64 70 72 71 65 72 71 73 73 74 70 75 66 76 67 77
REMARK SMILES IDX 68 78 69 79 48 80 49 81 57 82 50 83 56 84 58 85 55 86 51 87
REMARK SMILES IDX 52 88 53 89 54 90
REMARK H PARENT 14 6 11 19 19 24 78 43 46 54
REMARK Flexibility Score: inf
ROOT
ATOM      1  C   UNL A   1      36.524  19.856  24.997  1.00  0.00     0.023 C 
ENDROOT
BRANCH   1   2
ATOM      2  C   UNL A   1      36.323  21.279  25.527  1.00  0.00     0.116 C 
BRANCH   2   3
ATOM      3  N   UNL A   1      36.524  22.218  24.448  1.00  0.00    -0.356 N 
ATOM      4  C   UNL A   1      35.647  22.881  23.650  1.00  0.00     0.226 C 
ATOM      5  O   UNL A   1      36.131  23.272  22.580  1.00  0.00    -0.274 OA
ATOM      6  H   UNL A   1      37.469  22.416  24.256  1.00  0.00     0.163 HD
BRANCH   4   7
ATOM      7  C   UNL A   1      34.242  23.380  24.122  1.00  0.00     0.052 C 
ATOM      8  C   UNL A   1      32.722  22.982  26.118  1.00  0.00    -0.010 C 
ATOM      9  C   UNL A   1      32.561  21.817  25.142  1.00  0.00     0.005 C 
ATOM     10  C   UNL A   1      34.036  23.624  25.635  1.00  0.00     0.020 C 
ATOM     11  C   UNL A   1      33.236  22.224  23.832  1.00  0.00     0.017 C 
BRANCH   8  12
ATOM     12  C   UNL A   1      31.350  23.667  26.392  1.00  0.00     0.000 C 
ATOM     13  C   UNL A   1      30.118  22.968  26.943  1.00  0.00     0.004 C 
ENDBRANCH   8  12
BRANCH   7  14
ATOM     14  C   UNL A   1      34.040  24.606  23.161  1.00  0.00     0.051 C 
BRANCH  14  15
ATOM     15  C   UNL A   1      32.915  24.629  22.116  1.00  0.00     0.060 C 
ATOM     16  C   UNL A   1      31.535  24.457  22.763  1.00  0.00     0.042 C 
ATOM     17  C   UNL A   1      32.877  25.969  21.366  1.00  0.00     0.042 C 
BRANCH  15  18
ATOM     18  O   UNL A   1      33.163  23.608  21.161  1.00  0.00    -0.390 OA
ATOM     19  H   UNL A   1      34.060  23.260  21.285  1.00  0.00     0.211 HD
ENDBRANCH  15  18
ENDBRANCH  14  15
ENDBRANCH   7  14
ENDBRANCH   4   7
ENDBRANCH   2   3
ENDBRANCH   1   2
BRANCH   1  20
ATOM     20  C   UNL A   1      37.996  19.477  24.782  1.00  0.00     0.023 C 
BRANCH  20  21
ATOM     21  C   UNL A   1      38.969  20.086  25.788  1.00  0.00     0.116 C 
BRANCH  21  22
ATOM     22  N   UNL A   1      40.131  19.245  26.028  1.00  0.00    -0.352 N 
ATOM     23  C   UNL A   1      41.405  19.621  26.389  1.00  0.00     0.251 C 
ATOM     24  H   UNL A   1      39.987  18.277  25.917  1.00  0.00     0.163 HD
ATOM     25  O   UNL A   1      42.306  18.801  26.410  1.00  0.00    -0.269 OA
BRANCH  23  26
ATOM     26  C   UNL A   1      41.660  21.042  26.711  1.00  0.00     0.039 A 
ATOM     27  C   UNL A   1      42.079  21.376  27.999  1.00  0.00     0.014 A 
ATOM     28  C   UNL A   1      41.532  22.024  25.726  1.00  0.00     0.014 A 
ATOM     29  C   UNL A   1      42.440  22.694  28.280  1.00  0.00     0.010 A 
ATOM     30  C   UNL A   1      41.965  23.319  25.988  1.00  0.00     0.010 A 
ATOM     31  C   UNL A   1      42.425  23.668  27.267  1.00  0.00    -0.014 A 
BRANCH  31  32
ATOM     32  C   UNL A   1      42.888  25.056  27.526  1.00  0.00     0.031 A 
ATOM     33  C   UNL A   1      41.961  26.047  28.176  1.00  0.00     0.074 A 
ATOM     34  C   UNL A   1      44.118  25.436  27.126  1.00  0.00     0.049 A 
ATOM     35  N   UNL A   1      42.151  27.316  28.427  1.00  0.00    -0.248 NA
ATOM     36  C   UNL A   1      40.631  25.552  28.565  1.00  0.00     0.031 C 
ATOM     37  C   UNL A   1      45.091  24.573  26.451  1.00  0.00     0.029 A 
ATOM     38  N   UNL A   1      44.761  26.644  27.220  1.00  0.00    -0.354 N 
ATOM     39  C   UNL A   1      40.965  27.774  28.991  1.00  0.00     0.074 A 
ATOM     40  C   UNL A   1      40.042  26.660  28.985  1.00  0.00     0.031 C 
ATOM     41  C   UNL A   1      46.217  25.269  26.225  1.00  0.00     0.029 A 
ATOM     42  C   UNL A   1      46.031  26.640  26.688  1.00  0.00     0.049 A 
ATOM     43  H   UNL A   1      44.353  27.440  27.632  1.00  0.00     0.167 HD
ATOM     44  C   UNL A   1      40.682  29.002  29.490  1.00  0.00     0.034 A 
ATOM     45  C   UNL A   1      46.936  27.633  26.574  1.00  0.00     0.034 A 
ATOM     46  C   UNL A   1      41.622  30.096  29.499  1.00  0.00     0.049 A 
ATOM     47  C   UNL A   1      46.583  29.001  27.105  1.00  0.00     0.074 A 
ATOM     48  C   UNL A   1      41.461  31.363  30.033  1.00  0.00     0.029 A 
ATOM     49  N   UNL A   1      42.893  30.060  28.941  1.00  0.00    -0.354 N 
ATOM     50  N   UNL A   1      45.477  29.401  27.690  1.00  0.00    -0.248 NA
ATOM     51  C   UNL A   1      47.604  30.048  26.970  1.00  0.00     0.031 C 
ATOM     52  C   UNL A   1      42.600  32.115  29.727  1.00  0.00     0.029 A 
ATOM     53  C   UNL A   1      43.511  31.294  29.083  1.00  0.00     0.049 A 
ATOM     54  H   UNL A   1      43.297  29.273  28.507  1.00  0.00     0.167 HD
ATOM     55  C   UNL A   1      45.686  30.737  28.025  1.00  0.00     0.074 A 
ATOM     56  C   UNL A   1      47.028  31.067  27.591  1.00  0.00     0.031 C 
ATOM     57  C   UNL A   1      44.849  31.611  28.640  1.00  0.00     0.034 A 
BRANCH  44  58
ATOM     58  C   UNL A   1      39.294  29.232  30.038  1.00  0.00     0.023 A 
ATOM     59  C   UNL A   1      38.283  29.837  29.268  1.00  0.00     0.031 A 
ATOM     60  C   UNL A   1      38.978  28.856  31.355  1.00  0.00     0.131 A 
ATOM     61  C   UNL A   1      37.034  30.111  29.843  1.00  0.00     0.055 A 
ATOM     62  C   UNL A   1      37.705  29.055  31.893  1.00  0.00     0.041 A 
ATOM     63  F   UNL A   1      39.906  28.297  32.148  1.00  0.00    -0.206 F 
ATOM     64  C   UNL A   1      36.728  29.699  31.142  1.00  0.00     0.022 A 
BRANCH  61  65
ATOM     65  S   UNL A   1      35.863  31.144  28.918  1.00  0.00     0.124 S 
ATOM     66  O   UNL A   1      35.075  31.734  29.997  1.00  0.00    -0.237 OA
ATOM     67  O   UNL A   1      36.746  32.055  28.199  1.00  0.00    -0.237 OA
ATOM     68  O   UNL A   1      35.143  30.183  28.084  1.00  0.00    -0.744 OA
ENDBRANCH  61  65
ENDBRANCH  44  58
BRANCH  45  69
ATOM     69  C   UNL A   1      48.260  27.389  25.928  1.00  0.00     0.023 A 
ATOM     70  C   UNL A   1      48.430  27.566  24.546  1.00  0.00     0.031 A 
ATOM     71  C   UNL A   1      49.356  26.916  26.671  1.00  0.00     0.131 A 
ATOM     72  C   UNL A   1      49.648  27.218  23.939  1.00  0.00     0.055 A 
ATOM     73  C   UNL A   1      50.585  26.631  26.072  1.00  0.00     0.041 A 
ATOM     74  F   UNL A   1      49.250  26.729  27.995  1.00  0.00    -0.206 F 
ATOM     75  C   UNL A   1      50.730  26.766  24.695  1.00  0.00     0.022 A 
BRANCH  72  76
ATOM     76  S   UNL A   1      49.758  27.261  22.129  1.00  0.00     0.124 S 
ATOM     77  O   UNL A   1      51.169  26.960  21.912  1.00  0.00    -0.237 OA
ATOM     78  O   UNL A   1      48.813  26.221  21.743  1.00  0.00    -0.237 OA
ATOM     79  O   UNL A   1      49.352  28.625  21.797  1.00  0.00    -0.744 OA
ENDBRANCH  72  76
ENDBRANCH  45  69
BRANCH  57  80
ATOM     80  C   UNL A   1      45.386  32.993  28.928  1.00  0.00     0.023 A 
ATOM     81  C   UNL A   1      45.209  34.061  28.032  1.00  0.00     0.031 A 
ATOM     82  C   UNL A   1      46.093  33.240  30.119  1.00  0.00     0.131 A 
ATOM     83  C   UNL A   1      45.784  35.310  28.311  1.00  0.00     0.055 A 
ATOM     84  C   UNL A   1      46.602  34.503  30.423  1.00  0.00     0.041 A 
ATOM     85  F   UNL A   1      46.295  32.257  31.011  1.00  0.00    -0.206 F 
ATOM     86  C   UNL A   1      46.462  35.543  29.510  1.00  0.00     0.022 A 
BRANCH  83  87
ATOM     87  S   UNL A   1      45.720  36.602  27.038  1.00  0.00     0.124 S 
ATOM     88  O   UNL A   1      46.509  37.667  27.649  1.00  0.00    -0.237 OA
ATOM     89  O   UNL A   1      46.327  35.938  25.889  1.00  0.00    -0.237 OA
ATOM     90  O   UNL A   1      44.292  36.884  26.907  1.00  0.00    -0.744 OA
ENDBRANCH  83  87
ENDBRANCH  57  80
ENDBRANCH  31  32
ENDBRANCH  23  26
ENDBRANCH  21  22
ENDBRANCH  20  21
ENDBRANCH   1  20
TORSDOF 18
ENDMDL
MODEL 3
REMARK VINA RESULT:     -10.6      4.978      9.897
REMARK SMILES CC[C@H]1CC[C@](CC(C)(C)O)(C(=O)NCCCCNC(=O)c2ccc(-c3c4nc(c(-c5cc(S(=O)(=O)[O-])ccc5F)c5ccc([nH]5)c(-c5cc(S(=O)(=O)[O-])ccc5F)c5nc(c(-c6cc(S(=O)(=O)[O-])ccc6F)c6ccc3[nH]6)C=C5)C=C4)cc2)C1
REMARK SMILES IDX 16 1 15 2 14 3 12 4 13 5 6 7 3 8 4 9 85 10 5 11 2 12 1 13
REMARK SMILES IDX 7 14 8 15 9 16 10 17 11 18 17 20 18 21 19 22 20 23 21 25
REMARK SMILES IDX 22 26 23 27 84 28 24 29 83 30 25 31 26 32 27 33 77 34 28 35
REMARK SMILES IDX 82 36 76 37 78 38 29 39 81 40 75 41 74 42 30 44 62 45 42 46
REMARK SMILES IDX 61 47 43 48 46 49 60 50 79 51 44 52 45 53 59 55 80 56 47 57
REMARK SMILES IDX 31 58 32 59 40 60 33 61 39 62 41 63 38 64 34 65 35 66 36 67
REMARK SMILES IDX 37 68 63 69 64 70 72 71 65 72 71 73 73 74 70 75 66 76 67 77
REMARK SMILES IDX 68 78 69 79 48 80 49 81 57 82 50 83 56 84 58 85 55 86 51 87
REMARK SMILES IDX 52 88 53 89 54 90
REMARK H PARENT 14 6 11 19 19 24 78 43 46 54
REMARK Flexibility Score: inf
ROOT
ATOM      1  C   UNL A   1      35.941  23.285  23.876  1.00  0.00     0.023 C 
ENDROOT
BRANCH   1   2
ATOM      2  C   UNL A   1      35.589  24.077  25.139  1.00  0.00     0.116 C 
BRANCH   2   3
ATOM      3  N   UNL A   1      34.301  23.638  25.627  1.00  0.00    -0.356 N 
ATOM      4  C   UNL A   1      33.223  24.329  26.079  1.00  0.00     0.226 C 
ATOM      5  O   UNL A   1      32.461  23.666  26.797  1.00  0.00    -0.274 OA
ATOM      6  H   UNL A   1      34.183  22.661  25.631  1.00  0.00     0.163 HD
BRANCH   4   7
ATOM      7  C   UNL A   1      32.790  25.729  25.533  1.00  0.00     0.052 C 
ATOM      8  C   UNL A   1      32.658  28.098  26.441  1.00  0.00    -0.010 C 
ATOM      9  C   UNL A   1      31.430  27.322  26.918  1.00  0.00     0.005 C 
ATOM     10  C   UNL A   1      33.599  26.962  25.996  1.00  0.00     0.020 C 
ATOM     11  C   UNL A   1      31.375  26.020  26.120  1.00  0.00     0.017 C 
BRANCH   8  12
ATOM     12  C   UNL A   1      32.234  29.372  25.653  1.00  0.00     0.000 C 
ATOM     13  C   UNL A   1      31.453  29.374  24.348  1.00  0.00     0.004 C 
ENDBRANCH   8  12
BRANCH   7  14
ATOM     14  C   UNL A   1      32.751  25.432  23.991  1.00  0.00     0.051 C 
BRANCH  14  15
ATOM     15  C   UNL A   1      31.442  25.058  23.280  1.00  0.00     0.060 C 
ATOM     16  C   UNL A   1      30.928  23.682  23.724  1.00  0.00     0.042 C 
ATOM     17  C   UNL A   1      30.326  26.062  23.603  1.00  0.00     0.042 C 
BRANCH  15  18
ATOM     18  O   UNL A   1      31.662  25.093  21.878  1.00  0.00    -0.390 OA
ATOM     19  H   UNL A   1      31.525  24.207  21.507  1.00  0.00     0.211 HD
ENDBRANCH  15  18
ENDBRANCH  14  15
ENDBRANCH   7  14
ENDBRANCH   4   7
ENDBRANCH   2   3
ENDBRANCH   1   2
BRANCH   1  20
ATOM     20  C   UNL A   1      36.614  21.934  24.158  1.00  0.00     0.023 C 
BRANCH  20  21
ATOM     21  C   UNL A   1      37.003  21.703  25.615  1.00  0.00     0.116 C 
BRANCH  21  22
ATOM     22  N   UNL A   1      38.052  20.707  25.768  1.00  0.00    -0.352 N 
ATOM     23  C   UNL A   1      39.357  20.887  26.166  1.00  0.00     0.251 C 
ATOM     24  H   UNL A   1      37.794  19.780  25.557  1.00  0.00     0.163 HD
ATOM     25  O   UNL A   1      40.153  19.965  26.101  1.00  0.00    -0.269 OA
BRANCH  23  26
ATOM     26  C   UNL A   1      39.778  22.225  26.633  1.00  0.00     0.039 A 
ATOM     27  C   UNL A   1      40.823  22.320  27.551  1.00  0.00     0.014 A 
ATOM     28  C   UNL A   1      39.171  23.375  26.122  1.00  0.00     0.014 A 
ATOM     29  C   UNL A   1      41.310  23.580  27.906  1.00  0.00     0.010 A 
ATOM     30  C   UNL A   1      39.708  24.623  26.417  1.00  0.00     0.010 A 
ATOM     31  C   UNL A   1      40.784  24.740  27.311  1.00  0.00    -0.014 A 
BRANCH  31  32
ATOM     32  C   UNL A   1      41.346  26.081  27.611  1.00  0.00     0.031 A 
ATOM     33  C   UNL A   1      42.724  26.443  27.130  1.00  0.00     0.074 A 
ATOM     34  C   UNL A   1      40.639  26.948  28.363  1.00  0.00     0.049 A 
ATOM     35  N   UNL A   1      43.416  27.532  27.342  1.00  0.00    -0.248 NA
ATOM     36  C   UNL A   1      43.432  25.430  26.330  1.00  0.00     0.031 C 
ATOM     37  C   UNL A   1      39.306  26.695  28.919  1.00  0.00     0.029 A 
ATOM     38  N   UNL A   1      40.939  28.215  28.797  1.00  0.00    -0.354 N 
ATOM     39  C   UNL A   1      44.641  27.333  26.715  1.00  0.00     0.074 A 
ATOM     40  C   UNL A   1      44.619  25.993  26.170  1.00  0.00     0.031 C 
ATOM     41  C   UNL A   1      38.893  27.783  29.588  1.00  0.00     0.029 A 
ATOM     42  C   UNL A   1      39.946  28.792  29.557  1.00  0.00     0.049 A 
ATOM     43  H   UNL A   1      41.785  28.671  28.584  1.00  0.00     0.167 HD
ATOM     44  C   UNL A   1      45.677  28.197  26.585  1.00  0.00     0.034 A 
ATOM     45  C   UNL A   1      39.897  29.992  30.170  1.00  0.00     0.034 A 
ATOM     46  C   UNL A   1      45.674  29.536  27.124  1.00  0.00     0.049 A 
ATOM     47  C   UNL A   1      41.079  30.921  30.040  1.00  0.00     0.074 A 
ATOM     48  C   UNL A   1      46.644  30.515  27.000  1.00  0.00     0.029 A 
ATOM     49  N   UNL A   1      44.657  30.080  27.899  1.00  0.00    -0.354 N 
ATOM     50  N   UNL A   1      42.207  30.739  29.393  1.00  0.00    -0.248 NA
ATOM     51  C   UNL A   1      40.976  32.221  30.715  1.00  0.00     0.031 C 
ATOM     52  C   UNL A   1      46.252  31.618  27.764  1.00  0.00     0.029 A 
ATOM     53  C   UNL A   1      44.996  31.367  28.291  1.00  0.00     0.049 A 
ATOM     54  H   UNL A   1      43.819  29.621  28.134  1.00  0.00     0.167 HD
ATOM     55  C   UNL A   1      42.931  31.919  29.553  1.00  0.00     0.074 A 
ATOM     56  C   UNL A   1      42.104  32.807  30.344  1.00  0.00     0.031 C 
ATOM     57  C   UNL A   1      44.164  32.241  29.086  1.00  0.00     0.034 A 
BRANCH  44  58
ATOM     58  C   UNL A   1      46.908  27.710  25.857  1.00  0.00     0.023 A 
ATOM     59  C   UNL A   1      47.141  28.020  24.505  1.00  0.00     0.031 A 
ATOM     60  C   UNL A   1      47.855  26.910  26.519  1.00  0.00     0.131 A 
ATOM     61  C   UNL A   1      48.252  27.477  23.843  1.00  0.00     0.055 A 
ATOM     62  C   UNL A   1      49.002  26.442  25.877  1.00  0.00     0.041 A 
ATOM     63  F   UNL A   1      47.676  26.559  27.803  1.00  0.00    -0.206 F 
ATOM     64  C   UNL A   1      49.200  26.712  24.527  1.00  0.00     0.022 A 
BRANCH  61  65
ATOM     65  S   UNL A   1      48.363  27.662  22.042  1.00  0.00     0.124 S 
ATOM     66  O   UNL A   1      47.054  28.225  21.723  1.00  0.00    -0.237 OA
ATOM     67  O   UNL A   1      49.501  28.561  21.887  1.00  0.00    -0.237 OA
ATOM     68  O   UNL A   1      48.577  26.295  21.570  1.00  0.00    -0.744 OA
ENDBRANCH  61  65
ENDBRANCH  44  58
BRANCH  45  69
ATOM     69  C   UNL A   1      38.702  30.391  30.971  1.00  0.00     0.023 A 
ATOM     70  C   UNL A   1      37.626  31.066  30.372  1.00  0.00     0.031 A 
ATOM     71  C   UNL A   1      38.644  30.160  32.356  1.00  0.00     0.131 A 
ATOM     72  C   UNL A   1      36.566  31.538  31.164  1.00  0.00     0.055 A 
ATOM     73  C   UNL A   1      37.557  30.575  33.129  1.00  0.00     0.041 A 
ATOM     74  F   UNL A   1      39.643  29.519  32.982  1.00  0.00    -0.206 F 
ATOM     75  C   UNL A   1      36.518  31.284  32.535  1.00  0.00     0.022 A 
BRANCH  72  76
ATOM     76  S   UNL A   1      35.304  32.585  30.388  1.00  0.00     0.124 S 
ATOM     77  O   UNL A   1      34.330  32.719  31.465  1.00  0.00    -0.237 OA
ATOM     78  O   UNL A   1      36.066  33.784  30.058  1.00  0.00    -0.237 OA
ATOM     79  O   UNL A   1      34.863  31.793  29.242  1.00  0.00    -0.744 OA
ENDBRANCH  72  76
ENDBRANCH  45  69
BRANCH  57  80
ATOM     80  C   UNL A   1      44.667  33.635  29.373  1.00  0.00     0.023 A 
ATOM     81  C   UNL A   1      44.225  34.751  28.641  1.00  0.00     0.031 A 
ATOM     82  C   UNL A   1      45.613  33.847  30.393  1.00  0.00     0.131 A 
ATOM     83  C   UNL A   1      44.771  36.017  28.898  1.00  0.00     0.055 A 
ATOM     84  C   UNL A   1      46.101  35.120  30.690  1.00  0.00     0.041 A 
ATOM     85  F   UNL A   1      46.074  32.818  31.122  1.00  0.00    -0.206 F 
ATOM     86  C   UNL A   1      45.692  36.212  29.932  1.00  0.00     0.022 A 
BRANCH  83  87
ATOM     87  S   UNL A   1      44.339  37.393  27.797  1.00  0.00     0.124 S 
ATOM     88  O   UNL A   1      43.615  38.285  28.697  1.00  0.00    -0.237 OA
ATOM     89  O   UNL A   1      45.647  37.860  27.352  1.00  0.00    -0.237 OA
ATOM     90  O   UNL A   1      43.522  36.760  26.762  1.00  0.00    -0.744 OA
ENDBRANCH  83  87
ENDBRANCH  57  80
ENDBRANCH  31  32
ENDBRANCH  23  26
ENDBRANCH  21  22
ENDBRANCH  20  21
ENDBRANCH   1  20
TORSDOF 18
ENDMDL
