MODEL 1
REMARK VINA RESULT:     -12.0      0.000      0.000
REMARK SMILES CC[C@](C)(C(=O)NCCCCNC(=O)c1ccc(-c2c3nc(c(-c4cc(S(=O)(=O)[O-])ccc4F)c4ccc([nH]4)c(-c4cc(S(=O)(=O)[O-])ccc4F)c4nc(c(-c5cc(S(=O)(=O)[O-])ccc5F)c5ccc2[nH]5)C=C4)C=C3)cc1)n1nnnc1-c1ccc(C)cc1C
REMARK SMILES IDX 10 1 9 2 8 3 7 4 5 5 6 6 3 8 4 9 2 10 1 11 78 12 79 13 82 14
REMARK SMILES IDX 80 15 81 16 83 17 84 18 89 19 85 20 88 21 90 22 86 23 87 24
REMARK SMILES IDX 11 25 12 26 13 27 14 29 15 30 16 31 77 32 17 33 76 34 18 35
REMARK SMILES IDX 19 36 20 37 70 38 21 39 75 40 69 41 71 42 22 43 74 44 68 45
REMARK SMILES IDX 67 46 23 48 55 49 35 50 54 51 36 52 39 53 53 54 72 55 37 56
REMARK SMILES IDX 38 57 52 59 73 60 40 61 24 62 25 63 33 64 26 65 32 66 34 67
REMARK SMILES IDX 31 68 27 69 28 70 29 71 30 72 56 73 57 74 65 75 58 76 64 77
REMARK SMILES IDX 66 78 63 79 59 80 60 81 61 82 62 83 41 84 42 85 50 86 43 87
REMARK SMILES IDX 49 88 51 89 48 90 44 91 45 92 46 93 47 94
REMARK H PARENT 7 7 12 28 71 47 39 58
REMARK Flexibility Score: inf
ROOT
ATOM      1  C   UNL A   1      35.660  22.336  24.053  1.00  0.00     0.023 C 
ENDROOT
BRANCH   1   2
ATOM      2  C   UNL A   1      34.195  21.929  23.964  1.00  0.00     0.023 C 
BRANCH   2   3
ATOM      3  C   UNL A   1      33.222  23.083  23.738  1.00  0.00     0.116 C 
BRANCH   3   4
ATOM      4  N   UNL A   1      33.377  23.711  22.436  1.00  0.00    -0.354 N 
ATOM      5  C   UNL A   1      33.230  25.028  22.050  1.00  0.00     0.247 C 
ATOM      6  O   UNL A   1      33.278  25.223  20.835  1.00  0.00    -0.272 OA
ATOM      7  H   UNL A   1      33.629  23.095  21.710  1.00  0.00     0.163 HD
BRANCH   5   8
ATOM      8  C   UNL A   1      32.937  26.141  23.117  1.00  0.00     0.142 C 
ATOM      9  C   UNL A   1      33.997  25.877  24.219  1.00  0.00     0.048 C 
BRANCH   8  10
ATOM     10  C   UNL A   1      32.957  27.527  22.375  1.00  0.00     0.037 C 
ATOM     11  C   UNL A   1      34.029  28.547  22.745  1.00  0.00     0.007 C 
ENDBRANCH   8  10
BRANCH   8  12
ATOM     12  N   UNL A   1      31.573  26.014  23.714  1.00  0.00    -0.210 N 
ATOM     13  N   UNL A   1      30.645  25.206  23.153  1.00  0.00    -0.044 NA
ATOM     14  C   UNL A   1      30.926  26.814  24.655  1.00  0.00     0.183 A 
ATOM     15  N   UNL A   1      29.529  25.395  23.835  1.00  0.00    -0.023 NA
ATOM     16  N   UNL A   1      29.680  26.390  24.755  1.00  0.00    -0.108 NA
BRANCH  14  17
ATOM     17  C   UNL A   1      31.483  27.931  25.412  1.00  0.00     0.024 A 
ATOM     18  C   UNL A   1      32.204  27.645  26.581  1.00  0.00     0.012 A 
ATOM     19  C   UNL A   1      31.302  29.273  25.030  1.00  0.00    -0.040 A 
ATOM     20  C   UNL A   1      32.852  28.657  27.292  1.00  0.00     0.004 A 
ATOM     21  C   UNL A   1      31.971  30.283  25.751  1.00  0.00     0.007 A 
ATOM     22  C   UNL A   1      30.394  29.704  23.909  1.00  0.00     0.045 C 
ATOM     23  C   UNL A   1      32.780  29.978  26.852  1.00  0.00    -0.051 A 
ATOM     24  C   UNL A   1      33.502  31.063  27.595  1.00  0.00     0.044 C 
ENDBRANCH  14  17
ENDBRANCH   8  12
ENDBRANCH   5   8
ENDBRANCH   3   4
ENDBRANCH   2   3
ENDBRANCH   1   2
BRANCH   1  25
ATOM     25  C   UNL A   1      36.307  22.139  25.421  1.00  0.00     0.116 C 
BRANCH  25  26
ATOM     26  N   UNL A   1      37.290  21.065  25.442  1.00  0.00    -0.352 N 
ATOM     27  C   UNL A   1      38.619  21.118  25.793  1.00  0.00     0.251 C 
ATOM     28  H   UNL A   1      36.957  20.180  25.169  1.00  0.00     0.163 HD
ATOM     29  O   UNL A   1      39.332  20.132  25.628  1.00  0.00    -0.269 OA
BRANCH  27  30
ATOM     30  C   UNL A   1      39.185  22.377  26.323  1.00  0.00     0.039 A 
ATOM     31  C   UNL A   1      40.230  22.311  27.247  1.00  0.00     0.014 A 
ATOM     32  C   UNL A   1      38.721  23.616  25.873  1.00  0.00     0.014 A 
ATOM     33  C   UNL A   1      40.863  23.486  27.655  1.00  0.00     0.010 A 
ATOM     34  C   UNL A   1      39.405  24.778  26.219  1.00  0.00     0.010 A 
ATOM     35  C   UNL A   1      40.489  24.726  27.107  1.00  0.00    -0.014 A 
BRANCH  35  36
ATOM     36  C   UNL A   1      41.237  25.967  27.440  1.00  0.00     0.031 A 
ATOM     37  C   UNL A   1      40.595  27.038  28.280  1.00  0.00     0.074 A 
ATOM     38  C   UNL A   1      42.476  26.150  26.939  1.00  0.00     0.049 A 
ATOM     39  N   UNL A   1      41.069  28.205  28.635  1.00  0.00    -0.248 NA
ATOM     40  C   UNL A   1      39.231  26.773  28.761  1.00  0.00     0.031 C 
ATOM     41  C   UNL A   1      43.185  25.206  26.070  1.00  0.00     0.029 A 
ATOM     42  N   UNL A   1      43.360  27.190  27.081  1.00  0.00    -0.354 N 
ATOM     43  C   UNL A   1      40.063  28.814  29.377  1.00  0.00     0.074 A 
ATOM     44  C   UNL A   1      38.930  27.914  29.363  1.00  0.00     0.031 C 
ATOM     45  C   UNL A   1      44.401  25.697  25.783  1.00  0.00     0.029 A 
ATOM     46  C   UNL A   1      44.547  27.008  26.407  1.00  0.00     0.049 A 
ATOM     47  H   UNL A   1      43.164  27.993  27.617  1.00  0.00     0.167 HD
ATOM     48  C   UNL A   1      40.091  30.001  30.031  1.00  0.00     0.034 A 
ATOM     49  C   UNL A   1      45.625  27.809  26.296  1.00  0.00     0.034 A 
ATOM     50  C   UNL A   1      41.232  30.886  30.043  1.00  0.00     0.049 A 
ATOM     51  C   UNL A   1      45.622  29.134  27.018  1.00  0.00     0.074 A 
ATOM     52  C   UNL A   1      41.382  32.089  30.711  1.00  0.00     0.029 A 
ATOM     53  N   UNL A   1      42.417  30.667  29.352  1.00  0.00    -0.354 N 
ATOM     54  N   UNL A   1      44.681  29.667  27.764  1.00  0.00    -0.248 NA
ATOM     55  C   UNL A   1      46.832  29.956  26.895  1.00  0.00     0.031 C 
ATOM     56  C   UNL A   1      42.628  32.627  30.372  1.00  0.00     0.029 A 
ATOM     57  C   UNL A   1      43.289  31.726  29.555  1.00  0.00     0.049 A 
ATOM     58  H   UNL A   1      42.609  29.876  28.798  1.00  0.00     0.167 HD
ATOM     59  C   UNL A   1      45.202  30.875  28.222  1.00  0.00     0.074 A 
ATOM     60  C   UNL A   1      46.545  30.976  27.690  1.00  0.00     0.031 C 
ATOM     61  C   UNL A   1      44.622  31.818  29.008  1.00  0.00     0.034 A 
BRANCH  48  62
ATOM     62  C   UNL A   1      38.845  30.416  30.777  1.00  0.00     0.023 A 
ATOM     63  C   UNL A   1      37.912  31.304  30.214  1.00  0.00     0.031 A 
ATOM     64  C   UNL A   1      38.589  29.926  32.070  1.00  0.00     0.131 A 
ATOM     65  C   UNL A   1      36.801  31.722  30.962  1.00  0.00     0.055 A 
ATOM     66  C   UNL A   1      37.441  30.285  32.780  1.00  0.00     0.041 A 
ATOM     67  F   UNL A   1      39.454  29.093  32.668  1.00  0.00    -0.206 F 
ATOM     68  C   UNL A   1      36.545  31.198  32.231  1.00  0.00     0.022 A 
BRANCH  65  69
ATOM     69  S   UNL A   1      35.762  33.053  30.302  1.00  0.00     0.124 S 
ATOM     70  O   UNL A   1      36.235  34.204  31.070  1.00  0.00    -0.237 OA
ATOM     71  O   UNL A   1      36.104  33.049  28.884  1.00  0.00    -0.237 OA
ATOM     72  O   UNL A   1      34.403  32.618  30.619  1.00  0.00    -0.744 OA
ENDBRANCH  65  69
ENDBRANCH  48  62
BRANCH  49  73
ATOM     73  C   UNL A   1      46.797  27.401  25.466  1.00  0.00     0.023 A 
ATOM     74  C   UNL A   1      46.979  27.913  24.172  1.00  0.00     0.031 A 
ATOM     75  C   UNL A   1      47.714  26.441  25.928  1.00  0.00     0.131 A 
ATOM     76  C   UNL A   1      48.011  27.418  23.360  1.00  0.00     0.055 A 
ATOM     77  C   UNL A   1      48.778  25.996  25.139  1.00  0.00     0.041 A 
ATOM     78  F   UNL A   1      47.592  25.921  27.159  1.00  0.00    -0.206 F 
ATOM     79  C   UNL A   1      48.920  26.473  23.839  1.00  0.00     0.022 A 
BRANCH  76  80
ATOM     80  S   UNL A   1      48.082  27.947  21.626  1.00  0.00     0.124 S 
ATOM     81  O   UNL A   1      48.278  26.677  20.936  1.00  0.00    -0.237 OA
ATOM     82  O   UNL A   1      46.778  28.578  21.451  1.00  0.00    -0.237 OA
ATOM     83  O   UNL A   1      49.223  28.859  21.595  1.00  0.00    -0.744 OA
ENDBRANCH  76  80
ENDBRANCH  49  73
BRANCH  61  84
ATOM     84  C   UNL A   1      45.467  33.017  29.367  1.00  0.00     0.023 A 
ATOM     85  C   UNL A   1      45.477  34.178  28.573  1.00  0.00     0.031 A 
ATOM     86  C   UNL A   1      46.297  32.986  30.502  1.00  0.00     0.131 A 
ATOM     87  C   UNL A   1      46.352  35.229  28.883  1.00  0.00     0.055 A 
ATOM     88  C   UNL A   1      47.116  34.063  30.843  1.00  0.00     0.041 A 
ATOM     89  F   UNL A   1      46.330  31.903  31.296  1.00  0.00    -0.206 F 
ATOM     90  C   UNL A   1      47.160  35.186  30.021  1.00  0.00     0.022 A 
BRANCH  87  91
ATOM     91  S   UNL A   1      46.505  36.606  27.711  1.00  0.00     0.124 S 
ATOM     92  O   UNL A   1      47.202  37.609  28.511  1.00  0.00    -0.237 OA
ATOM     93  O   UNL A   1      47.275  36.009  26.627  1.00  0.00    -0.237 OA
ATOM     94  O   UNL A   1      45.118  36.931  27.382  1.00  0.00    -0.744 OA
ENDBRANCH  87  91
ENDBRANCH  61  84
ENDBRANCH  35  36
ENDBRANCH  27  30
ENDBRANCH  25  26
ENDBRANCH   1  25
TORSDOF 17
ENDMDL
MODEL 2
REMARK VINA RESULT:     -12.0      0.540      7.469
REMARK SMILES CC[C@](C)(C(=O)NCCCCNC(=O)c1ccc(-c2c3nc(c(-c4cc(S(=O)(=O)[O-])ccc4F)c4ccc([nH]4)c(-c4cc(S(=O)(=O)[O-])ccc4F)c4nc(c(-c5cc(S(=O)(=O)[O-])ccc5F)c5ccc2[nH]5)C=C4)C=C3)cc1)n1nnnc1-c1ccc(C)cc1C
REMARK SMILES IDX 10 1 9 2 8 3 7 4 5 5 6 6 3 8 4 9 2 10 1 11 78 12 79 13 82 14
REMARK SMILES IDX 80 15 81 16 83 17 84 18 89 19 85 20 88 21 90 22 86 23 87 24
REMARK SMILES IDX 11 25 12 26 13 27 14 29 15 30 16 31 77 32 17 33 76 34 18 35
REMARK SMILES IDX 19 36 20 37 70 38 21 39 75 40 69 41 71 42 22 43 74 44 68 45
REMARK SMILES IDX 67 46 23 48 55 49 35 50 54 51 36 52 39 53 53 54 72 55 37 56
REMARK SMILES IDX 38 57 52 59 73 60 40 61 24 62 25 63 33 64 26 65 32 66 34 67
REMARK SMILES IDX 31 68 27 69 28 70 29 71 30 72 56 73 57 74 65 75 58 76 64 77
REMARK SMILES IDX 66 78 63 79 59 80 60 81 61 82 62 83 41 84 42 85 50 86 43 87
REMARK SMILES IDX 49 88 51 89 48 90 44 91 45 92 46 93 47 94
REMARK H PARENT 7 7 12 28 71 47 39 58
REMARK Flexibility Score: inf
ROOT
ATOM      1  C   UNL A   1      35.451  21.647  24.663  1.00  0.00     0.023 C 
ENDROOT
BRANCH   1   2
ATOM      2  C   UNL A   1      35.316  22.786  23.658  1.00  0.00     0.023 C 
BRANCH   2   3
ATOM      3  C   UNL A   1      33.891  23.290  23.450  1.00  0.00     0.116 C 
BRANCH   3   4
ATOM      4  N   UNL A   1      33.713  23.988  22.188  1.00  0.00    -0.354 N 
ATOM      5  C   UNL A   1      33.304  25.279  21.924  1.00  0.00     0.247 C 
ATOM      6  O   UNL A   1      33.102  25.530  20.736  1.00  0.00    -0.272 OA
ATOM      7  H   UNL A   1      33.918  23.450  21.389  1.00  0.00     0.163 HD
BRANCH   5   8
ATOM      8  C   UNL A   1      33.046  26.287  23.100  1.00  0.00     0.142 C 
ATOM      9  C   UNL A   1      34.181  25.966  24.109  1.00  0.00     0.048 C 
BRANCH   8  10
ATOM     10  C   UNL A   1      32.980  27.731  22.481  1.00  0.00     0.037 C 
ATOM     11  C   UNL A   1      34.206  28.633  22.580  1.00  0.00     0.007 C 
ENDBRANCH   8  10
BRANCH   8  12
ATOM     12  N   UNL A   1      31.727  26.063  23.764  1.00  0.00    -0.210 N 
ATOM     13  N   UNL A   1      30.821  25.210  23.233  1.00  0.00    -0.044 NA
ATOM     14  C   UNL A   1      31.083  26.801  24.756  1.00  0.00     0.183 A 
ATOM     15  N   UNL A   1      29.733  25.316  23.976  1.00  0.00    -0.023 NA
ATOM     16  N   UNL A   1      29.873  26.299  24.911  1.00  0.00    -0.108 NA
BRANCH  14  17
ATOM     17  C   UNL A   1      31.610  27.935  25.509  1.00  0.00     0.024 A 
ATOM     18  C   UNL A   1      32.369  27.672  26.660  1.00  0.00     0.012 A 
ATOM     19  C   UNL A   1      31.367  29.272  25.141  1.00  0.00    -0.040 A 
ATOM     20  C   UNL A   1      32.990  28.704  27.364  1.00  0.00     0.004 A 
ATOM     21  C   UNL A   1      32.010  30.303  25.855  1.00  0.00     0.007 A 
ATOM     22  C   UNL A   1      30.417  29.672  24.043  1.00  0.00     0.045 C 
ATOM     23  C   UNL A   1      32.854  30.025  26.937  1.00  0.00    -0.051 A 
ATOM     24  C   UNL A   1      33.548  31.133  27.671  1.00  0.00     0.044 C 
ENDBRANCH  14  17
ENDBRANCH   8  12
ENDBRANCH   5   8
ENDBRANCH   3   4
ENDBRANCH   2   3
ENDBRANCH   1   2
BRANCH   1  25
ATOM     25  C   UNL A   1      36.507  21.858  25.744  1.00  0.00     0.116 C 
BRANCH  25  26
ATOM     26  N   UNL A   1      37.589  20.885  25.689  1.00  0.00    -0.352 N 
ATOM     27  C   UNL A   1      38.925  21.064  25.960  1.00  0.00     0.251 C 
ATOM     28  H   UNL A   1      37.327  19.975  25.421  1.00  0.00     0.163 HD
ATOM     29  O   UNL A   1      39.719  20.154  25.737  1.00  0.00    -0.269 OA
BRANCH  27  30
ATOM     30  C   UNL A   1      39.398  22.366  26.477  1.00  0.00     0.039 A 
ATOM     31  C   UNL A   1      40.462  22.388  27.380  1.00  0.00     0.014 A 
ATOM     32  C   UNL A   1      38.827  23.562  26.033  1.00  0.00     0.014 A 
ATOM     33  C   UNL A   1      41.007  23.612  27.773  1.00  0.00     0.010 A 
ATOM     34  C   UNL A   1      39.421  24.777  26.363  1.00  0.00     0.010 A 
ATOM     35  C   UNL A   1      40.523  24.815  27.230  1.00  0.00    -0.014 A 
BRANCH  35  36
ATOM     36  C   UNL A   1      41.176  26.114  27.546  1.00  0.00     0.031 A 
ATOM     37  C   UNL A   1      42.561  26.411  27.040  1.00  0.00     0.074 A 
ATOM     38  C   UNL A   1      40.538  27.002  28.335  1.00  0.00     0.049 A 
ATOM     39  N   UNL A   1      43.310  27.463  27.249  1.00  0.00    -0.248 NA
ATOM     40  C   UNL A   1      43.199  25.376  26.212  1.00  0.00     0.031 C 
ATOM     41  C   UNL A   1      39.212  26.807  28.929  1.00  0.00     0.029 A 
ATOM     42  N   UNL A   1      40.914  28.245  28.779  1.00  0.00    -0.354 N 
ATOM     43  C   UNL A   1      44.506  27.218  26.582  1.00  0.00     0.074 A 
ATOM     44  C   UNL A   1      44.406  25.888  26.020  1.00  0.00     0.031 C 
ATOM     45  C   UNL A   1      38.877  27.901  29.632  1.00  0.00     0.029 A 
ATOM     46  C   UNL A   1      39.976  28.858  29.579  1.00  0.00     0.049 A 
ATOM     47  H   UNL A   1      41.776  28.661  28.546  1.00  0.00     0.167 HD
ATOM     48  C   UNL A   1      45.577  28.036  26.432  1.00  0.00     0.034 A 
ATOM     49  C   UNL A   1      40.002  30.051  30.206  1.00  0.00     0.034 A 
ATOM     50  C   UNL A   1      45.659  29.363  26.992  1.00  0.00     0.049 A 
ATOM     51  C   UNL A   1      41.215  30.933  30.038  1.00  0.00     0.074 A 
ATOM     52  C   UNL A   1      46.678  30.292  26.861  1.00  0.00     0.029 A 
ATOM     53  N   UNL A   1      44.689  29.951  27.794  1.00  0.00    -0.354 N 
ATOM     54  N   UNL A   1      42.314  30.706  29.355  1.00  0.00    -0.248 NA
ATOM     55  C   UNL A   1      41.183  32.236  30.713  1.00  0.00     0.031 C 
ATOM     56  C   UNL A   1      46.355  31.411  27.635  1.00  0.00     0.029 A 
ATOM     57  C   UNL A   1      45.099  31.217  28.187  1.00  0.00     0.049 A 
ATOM     58  H   UNL A   1      43.836  29.531  28.047  1.00  0.00     0.167 HD
ATOM     59  C   UNL A   1      43.090  31.854  29.496  1.00  0.00     0.074 A 
ATOM     60  C   UNL A   1      42.321  32.777  30.304  1.00  0.00     0.031 C 
ATOM     61  C   UNL A   1      44.327  32.122  29.004  1.00  0.00     0.034 A 
BRANCH  48  62
ATOM     62  C   UNL A   1      46.750  27.509  25.639  1.00  0.00     0.023 A 
ATOM     63  C   UNL A   1      47.002  27.940  24.325  1.00  0.00     0.031 A 
ATOM     64  C   UNL A   1      47.622  26.560  26.199  1.00  0.00     0.131 A 
ATOM     65  C   UNL A   1      48.060  27.378  23.594  1.00  0.00     0.055 A 
ATOM     66  C   UNL A   1      48.720  26.062  25.494  1.00  0.00     0.041 A 
ATOM     67  F   UNL A   1      47.420  26.095  27.442  1.00  0.00    -0.206 F 
ATOM     68  C   UNL A   1      48.937  26.462  24.178  1.00  0.00     0.022 A 
BRANCH  65  69
ATOM     69  S   UNL A   1      48.198  27.771  21.829  1.00  0.00     0.124 S 
ATOM     70  O   UNL A   1      48.435  26.449  21.251  1.00  0.00    -0.237 OA
ATOM     71  O   UNL A   1      46.903  28.373  21.535  1.00  0.00    -0.237 OA
ATOM     72  O   UNL A   1      49.340  28.683  21.768  1.00  0.00    -0.744 OA
ENDBRANCH  65  69
ENDBRANCH  48  62
BRANCH  49  73
ATOM     73  C   UNL A   1      38.860  30.489  31.062  1.00  0.00     0.023 A 
ATOM     74  C   UNL A   1      37.850  31.319  30.549  1.00  0.00     0.031 A 
ATOM     75  C   UNL A   1      38.798  30.142  32.423  1.00  0.00     0.131 A 
ATOM     76  C   UNL A   1      36.859  31.827  31.403  1.00  0.00     0.055 A 
ATOM     77  C   UNL A   1      37.774  30.600  33.255  1.00  0.00     0.041 A 
ATOM     78  F   UNL A   1      39.734  29.348  32.965  1.00  0.00    -0.206 F 
ATOM     79  C   UNL A   1      36.806  31.462  32.750  1.00  0.00     0.022 A 
BRANCH  76  80
ATOM     80  S   UNL A   1      35.701  33.062  30.752  1.00  0.00     0.124 S 
ATOM     81  O   UNL A   1      34.415  32.509  31.159  1.00  0.00    -0.237 OA
ATOM     82  O   UNL A   1      36.129  34.271  31.448  1.00  0.00    -0.237 OA
ATOM     83  O   UNL A   1      35.963  33.048  29.315  1.00  0.00    -0.744 OA
ENDBRANCH  76  80
ENDBRANCH  49  73
BRANCH  61  84
ATOM     84  C   UNL A   1      44.896  33.488  29.302  1.00  0.00     0.023 A 
ATOM     85  C   UNL A   1      44.703  34.575  28.431  1.00  0.00     0.031 A 
ATOM     86  C   UNL A   1      45.671  33.697  30.457  1.00  0.00     0.131 A 
ATOM     87  C   UNL A   1      45.334  35.800  28.691  1.00  0.00     0.055 A 
ATOM     88  C   UNL A   1      46.241  34.938  30.744  1.00  0.00     0.041 A 
ATOM     89  F   UNL A   1      45.892  32.695  31.323  1.00  0.00    -0.206 F 
ATOM     90  C   UNL A   1      46.089  35.993  29.850  1.00  0.00     0.022 A 
BRANCH  87  91
ATOM     91  S   UNL A   1      45.250  37.105  27.432  1.00  0.00     0.124 S 
ATOM     92  O   UNL A   1      46.212  36.633  26.441  1.00  0.00    -0.237 OA
ATOM     93  O   UNL A   1      43.849  37.060  27.031  1.00  0.00    -0.237 OA
ATOM     94  O   UNL A   1      45.648  38.308  28.160  1.00  0.00    -0.744 OA
ENDBRANCH  87  91
ENDBRANCH  61  84
ENDBRANCH  35  36
ENDBRANCH  27  30
ENDBRANCH  25  26
ENDBRANCH   1  25
TORSDOF 17
ENDMDL
MODEL 3
REMARK VINA RESULT:     -11.8      1.900      7.798
REMARK SMILES CC[C@](C)(C(=O)NCCCCNC(=O)c1ccc(-c2c3nc(c(-c4cc(S(=O)(=O)[O-])ccc4F)c4ccc([nH]4)c(-c4cc(S(=O)(=O)[O-])ccc4F)c4nc(c(-c5cc(S(=O)(=O)[O-])ccc5F)c5ccc2[nH]5)C=C4)C=C3)cc1)n1nnnc1-c1ccc(C)cc1C
REMARK SMILES IDX 10 1 9 2 8 3 7 4 5 5 6 6 3 8 4 9 2 10 1 11 78 12 79 13 82 14
REMARK SMILES IDX 80 15 81 16 83 17 84 18 89 19 85 20 88 21 90 22 86 23 87 24
REMARK SMILES IDX 11 25 12 26 13 27 14 29 15 30 16 31 77 32 17 33 76 34 18 35
REMARK SMILES IDX 19 36 20 37 70 38 21 39 75 40 69 41 71 42 22 43 74 44 68 45
REMARK SMILES IDX 67 46 23 48 55 49 35 50 54 51 36 52 39 53 53 54 72 55 37 56
REMARK SMILES IDX 38 57 52 59 73 60 40 61 24 62 25 63 33 64 26 65 32 66 34 67
REMARK SMILES IDX 31 68 27 69 28 70 29 71 30 72 56 73 57 74 65 75 58 76 64 77
REMARK SMILES IDX 66 78 63 79 59 80 60 81 61 82 62 83 41 84 42 85 50 86 43 87
REMARK SMILES IDX 49 88 51 89 48 90 44 91 45 92 46 93 47 94
REMARK H PARENT 7 7 12 28 71 47 39 58
REMARK Flexibility Score: inf
ROOT
ATOM      1  C   UNL A   1      36.491  21.834  24.079  1.00  0.00     0.023 C 
ENDROOT
BRANCH   1   2
ATOM      2  C   UNL A   1      36.315  23.296  23.687  1.00  0.00     0.023 C 
BRANCH   2   3
ATOM      3  C   UNL A   1      35.046  23.954  24.221  1.00  0.00     0.116 C 
BRANCH   3   4
ATOM      4  N   UNL A   1      34.262  24.603  23.184  1.00  0.00    -0.354 N 
ATOM      5  C   UNL A   1      32.926  24.484  22.860  1.00  0.00     0.247 C 
ATOM      6  O   UNL A   1      32.589  25.053  21.821  1.00  0.00    -0.272 OA
ATOM      7  H   UNL A   1      34.768  25.231  22.619  1.00  0.00     0.163 HD
BRANCH   5   8
ATOM      8  C   UNL A   1      31.970  23.603  23.740  1.00  0.00     0.142 C 
ATOM      9  C   UNL A   1      30.608  23.696  23.002  1.00  0.00     0.048 C 
BRANCH   8  10
ATOM     10  C   UNL A   1      32.641  22.189  23.899  1.00  0.00     0.037 C 
ATOM     11  C   UNL A   1      32.234  21.069  22.948  1.00  0.00     0.007 C 
ENDBRANCH   8  10
BRANCH   8  12
ATOM     12  N   UNL A   1      31.812  24.141  25.124  1.00  0.00    -0.210 N 
ATOM     13  N   UNL A   1      31.884  23.322  26.198  1.00  0.00    -0.044 NA
ATOM     14  C   UNL A   1      31.312  25.368  25.560  1.00  0.00     0.183 A 
ATOM     15  N   UNL A   1      31.597  24.066  27.251  1.00  0.00    -0.023 NA
ATOM     16  N   UNL A   1      31.230  25.325  26.876  1.00  0.00    -0.108 NA
BRANCH  14  17
ATOM     17  C   UNL A   1      30.929  26.517  24.744  1.00  0.00     0.024 A 
ATOM     18  C   UNL A   1      29.640  26.537  24.191  1.00  0.00     0.012 A 
ATOM     19  C   UNL A   1      31.807  27.584  24.474  1.00  0.00    -0.040 A 
ATOM     20  C   UNL A   1      29.175  27.652  23.492  1.00  0.00     0.004 A 
ATOM     21  C   UNL A   1      31.320  28.707  23.777  1.00  0.00     0.007 A 
ATOM     22  C   UNL A   1      33.264  27.578  24.855  1.00  0.00     0.045 C 
ATOM     23  C   UNL A   1      29.997  28.766  23.322  1.00  0.00    -0.051 A 
ATOM     24  C   UNL A   1      29.488  29.978  22.601  1.00  0.00     0.044 C 
ENDBRANCH  14  17
ENDBRANCH   8  12
ENDBRANCH   5   8
ENDBRANCH   3   4
ENDBRANCH   2   3
ENDBRANCH   1   2
BRANCH   1  25
ATOM     25  C   UNL A   1      36.885  21.594  25.534  1.00  0.00     0.116 C 
BRANCH  25  26
ATOM     26  N   UNL A   1      37.943  20.605  25.686  1.00  0.00    -0.352 N 
ATOM     27  C   UNL A   1      39.234  20.783  26.126  1.00  0.00     0.251 C 
ATOM     28  H   UNL A   1      37.700  19.683  25.443  1.00  0.00     0.163 HD
ATOM     29  O   UNL A   1      40.031  19.850  26.070  1.00  0.00    -0.269 OA
BRANCH  27  30
ATOM     30  C   UNL A   1      39.662  22.109  26.621  1.00  0.00     0.039 A 
ATOM     31  C   UNL A   1      40.685  22.179  27.568  1.00  0.00     0.014 A 
ATOM     32  C   UNL A   1      39.090  23.280  26.116  1.00  0.00     0.014 A 
ATOM     33  C   UNL A   1      41.191  23.425  27.945  1.00  0.00     0.010 A 
ATOM     34  C   UNL A   1      39.648  24.515  26.432  1.00  0.00     0.010 A 
ATOM     35  C   UNL A   1      40.711  24.601  27.344  1.00  0.00    -0.014 A 
BRANCH  35  36
ATOM     36  C   UNL A   1      41.326  25.921  27.646  1.00  0.00     0.031 A 
ATOM     37  C   UNL A   1      42.731  26.223  27.201  1.00  0.00     0.074 A 
ATOM     38  C   UNL A   1      40.634  26.826  28.368  1.00  0.00     0.049 A 
ATOM     39  N   UNL A   1      43.453  27.295  27.411  1.00  0.00    -0.248 NA
ATOM     40  C   UNL A   1      43.427  25.171  26.446  1.00  0.00     0.031 C 
ATOM     41  C   UNL A   1      39.282  26.629  28.899  1.00  0.00     0.029 A 
ATOM     42  N   UNL A   1      40.969  28.090  28.785  1.00  0.00    -0.354 N 
ATOM     43  C   UNL A   1      44.685  27.047  26.816  1.00  0.00     0.074 A 
ATOM     44  C   UNL A   1      44.634  25.696  26.298  1.00  0.00     0.031 C 
ATOM     45  C   UNL A   1      38.895  27.742  29.544  1.00  0.00     0.029 A 
ATOM     46  C   UNL A   1      39.981  28.715  29.514  1.00  0.00     0.049 A 
ATOM     47  H   UNL A   1      41.835  28.512  28.583  1.00  0.00     0.167 HD
ATOM     48  C   UNL A   1      45.750  27.876  26.691  1.00  0.00     0.034 A 
ATOM     49  C   UNL A   1      39.956  29.929  30.098  1.00  0.00     0.034 A 
ATOM     50  C   UNL A   1      45.783  29.224  27.207  1.00  0.00     0.049 A 
ATOM     51  C   UNL A   1      41.163  30.825  29.960  1.00  0.00     0.074 A 
ATOM     52  C   UNL A   1      46.794  30.164  27.095  1.00  0.00     0.029 A 
ATOM     53  N   UNL A   1      44.764  29.824  27.936  1.00  0.00    -0.354 N 
ATOM     54  N   UNL A   1      42.299  30.593  29.344  1.00  0.00    -0.248 NA
ATOM     55  C   UNL A   1      41.076  32.150  30.585  1.00  0.00     0.031 C 
ATOM     56  C   UNL A   1      46.413  31.305  27.810  1.00  0.00     0.029 A 
ATOM     57  C   UNL A   1      45.134  31.109  28.304  1.00  0.00     0.049 A 
ATOM     58  H   UNL A   1      43.905  29.398  28.159  1.00  0.00     0.167 HD
ATOM     59  C   UNL A   1      43.049  31.758  29.483  1.00  0.00     0.074 A 
ATOM     60  C   UNL A   1      42.226  32.696  30.217  1.00  0.00     0.031 C 
ATOM     61  C   UNL A   1      44.306  32.029  29.047  1.00  0.00     0.034 A 
BRANCH  48  62
ATOM     62  C   UNL A   1      46.970  27.342  25.980  1.00  0.00     0.023 A 
ATOM     63  C   UNL A   1      47.991  26.670  26.674  1.00  0.00     0.031 A 
ATOM     64  C   UNL A   1      47.121  27.513  24.593  1.00  0.00     0.131 A 
ATOM     65  C   UNL A   1      49.143  26.249  25.993  1.00  0.00     0.055 A 
ATOM     66  C   UNL A   1      48.234  27.023  23.906  1.00  0.00     0.041 A 
ATOM     67  F   UNL A   1      46.190  28.166  23.879  1.00  0.00    -0.206 F 
ATOM     68  C   UNL A   1      49.259  26.396  24.609  1.00  0.00     0.022 A 
BRANCH  65  69
ATOM     69  S   UNL A   1      50.540  25.615  26.960  1.00  0.00     0.124 S 
ATOM     70  O   UNL A   1      50.844  26.758  27.820  1.00  0.00    -0.237 OA
ATOM     71  O   UNL A   1      49.964  24.453  27.625  1.00  0.00    -0.237 OA
ATOM     72  O   UNL A   1      51.552  25.319  25.949  1.00  0.00    -0.744 OA
ENDBRANCH  65  69
ENDBRANCH  48  62
BRANCH  49  73
ATOM     73  C   UNL A   1      38.765  30.378  30.876  1.00  0.00     0.023 A 
ATOM     74  C   UNL A   1      37.694  31.034  30.247  1.00  0.00     0.031 A 
ATOM     75  C   UNL A   1      38.709  30.221  32.272  1.00  0.00     0.131 A 
ATOM     76  C   UNL A   1      36.647  31.564  31.015  1.00  0.00     0.055 A 
ATOM     77  C   UNL A   1      37.634  30.696  33.027  1.00  0.00     0.041 A 
ATOM     78  F   UNL A   1      39.702  29.598  32.926  1.00  0.00    -0.206 F 
ATOM     79  C   UNL A   1      36.602  31.389  32.400  1.00  0.00     0.022 A 
BRANCH  76  80
ATOM     80  S   UNL A   1      35.397  32.588  30.190  1.00  0.00     0.124 S 
ATOM     81  O   UNL A   1      36.175  33.763  29.815  1.00  0.00    -0.237 OA
ATOM     82  O   UNL A   1      34.973  31.721  29.096  1.00  0.00    -0.237 OA
ATOM     83  O   UNL A   1      34.396  32.807  31.232  1.00  0.00    -0.744 OA
ENDBRANCH  76  80
ENDBRANCH  49  73
BRANCH  61  84
ATOM     84  C   UNL A   1      44.839  33.414  29.324  1.00  0.00     0.023 A 
ATOM     85  C   UNL A   1      44.711  34.456  28.388  1.00  0.00     0.031 A 
ATOM     86  C   UNL A   1      45.512  33.688  30.528  1.00  0.00     0.131 A 
ATOM     87  C   UNL A   1      45.310  35.700  28.639  1.00  0.00     0.055 A 
ATOM     88  C   UNL A   1      46.048  34.947  30.801  1.00  0.00     0.041 A 
ATOM     89  F   UNL A   1      45.667  32.731  31.457  1.00  0.00    -0.206 F 
ATOM     90  C   UNL A   1      45.963  35.956  29.847  1.00  0.00     0.022 A 
BRANCH  87  91
ATOM     91  S   UNL A   1      45.322  36.941  27.316  1.00  0.00     0.124 S 
ATOM     92  O   UNL A   1      46.047  38.043  27.941  1.00  0.00    -0.237 OA
ATOM     93  O   UNL A   1      46.022  36.246  26.243  1.00  0.00    -0.237 OA
ATOM     94  O   UNL A   1      43.903  37.193  27.070  1.00  0.00    -0.744 OA
ENDBRANCH  87  91
ENDBRANCH  61  84
ENDBRANCH  35  36
ENDBRANCH  27  30
ENDBRANCH  25  26
ENDBRANCH   1  25
TORSDOF 17
ENDMDL
