MODEL 1
REMARK VINA RESULT:     -11.4      0.000      0.000
REMARK SMILES COc1ccc(OCc2nc(C)no2)c(/C=C/C(=O)NCCCCNC(=O)c2ccc(-c3c4nc(c(-c5cc(S(=O)(=O)[O-])ccc5F)c5ccc([nH]5)c(-c5cc(S(=O)(=O)[O-])ccc5F)c5nc(c(-c6cc(S(=O)(=O)[O-])ccc6F)c6ccc3[nH]6)C=C5)C=C4)cc2)c1
REMARK SMILES IDX 22 1 21 2 20 3 18 4 19 5 17 7 16 8 15 9 3 10 4 11 91 12 5 13
REMARK SMILES IDX 6 14 2 15 1 16 7 17 8 18 9 19 10 20 14 21 11 22 13 23 12 24
REMARK SMILES IDX 23 25 24 26 25 27 26 28 27 30 28 31 29 32 90 33 30 34 89 35
REMARK SMILES IDX 31 36 32 37 33 38 83 39 34 40 88 41 82 42 84 43 35 44 87 45
REMARK SMILES IDX 81 46 80 47 36 49 68 50 48 51 67 52 49 53 52 54 66 55 85 56
REMARK SMILES IDX 50 57 51 58 65 60 86 61 53 62 37 63 38 64 46 65 39 66 45 67
REMARK SMILES IDX 47 68 44 69 40 70 41 71 42 72 43 73 69 74 70 75 78 76 71 77
REMARK SMILES IDX 77 78 79 79 76 80 72 81 73 82 74 83 75 84 54 85 55 86 63 87
REMARK SMILES IDX 56 88 62 89 64 90 61 91 57 92 58 93 59 94 60 95
REMARK H PARENT 20 6 25 29 84 48 52 59
REMARK Flexibility Score: inf
ROOT
ATOM      1  C   UNL A   1      31.516  30.746  26.069  1.00  0.00     0.023 C 
ENDROOT
BRANCH   1   2
ATOM      2  C   UNL A   1      31.724  29.616  27.072  1.00  0.00     0.116 C 
BRANCH   2   3
ATOM      3  N   UNL A   1      33.047  29.666  27.663  1.00  0.00    -0.353 N 
ATOM      4  C   UNL A   1      34.191  29.053  27.258  1.00  0.00     0.244 C 
ATOM      5  O   UNL A   1      35.196  29.056  27.965  1.00  0.00    -0.270 OA
ATOM      6  H   UNL A   1      33.129  30.222  28.472  1.00  0.00     0.163 HD
BRANCH   4   7
ATOM      7  C   UNL A   1      34.246  28.373  25.945  1.00  0.00     0.072 C 
ATOM      8  C   UNL A   1      33.825  27.105  25.852  1.00  0.00     0.018 C 
BRANCH   8   9
ATOM      9  C   UNL A   1      33.550  26.408  24.597  1.00  0.00     0.020 A 
ATOM     10  C   UNL A   1      33.988  24.381  23.308  1.00  0.00     0.119 A 
ATOM     11  C   UNL A   1      33.159  24.853  22.297  1.00  0.00     0.050 A 
ATOM     12  C   UNL A   1      34.213  25.173  24.433  1.00  0.00     0.058 A 
ATOM     13  C   UNL A   1      32.489  26.066  22.457  1.00  0.00     0.051 A 
ATOM     14  C   UNL A   1      32.637  26.838  23.620  1.00  0.00     0.127 A 
BRANCH  10  15
ATOM     15  O   UNL A   1      34.557  23.157  23.092  1.00  0.00    -0.497 OA
ATOM     16  C   UNL A   1      35.038  22.514  24.271  1.00  0.00     0.278 C 
ENDBRANCH  10  15
BRANCH  14  17
ATOM     17  O   UNL A   1      31.787  27.912  23.616  1.00  0.00    -0.483 OA
BRANCH  17  18
ATOM     18  C   UNL A   1      31.550  28.738  22.468  1.00  0.00     0.329 C 
BRANCH  18  19
ATOM     19  C   UNL A   1      30.211  29.387  22.484  1.00  0.00     0.264 A 
ATOM     20  N   UNL A   1      29.432  29.748  23.484  1.00  0.00    -0.193 NA
ATOM     21  O   UNL A   1      29.770  29.846  21.273  1.00  0.00    -0.336 OA
ATOM     22  C   UNL A   1      28.501  30.533  22.857  1.00  0.00     0.169 A 
ATOM     23  N   UNL A   1      28.635  30.618  21.529  1.00  0.00    -0.063 NA
ATOM     24  C   UNL A   1      27.508  31.321  23.609  1.00  0.00     0.093 C 
ENDBRANCH  18  19
ENDBRANCH  17  18
ENDBRANCH  14  17
ENDBRANCH   8   9
ENDBRANCH   4   7
ENDBRANCH   2   3
ENDBRANCH   1   2
BRANCH   1  25
ATOM     25  C   UNL A   1      31.318  32.118  26.714  1.00  0.00     0.023 C 
BRANCH  25  26
ATOM     26  C   UNL A   1      32.590  32.942  26.881  1.00  0.00     0.116 C 
BRANCH  26  27
ATOM     27  N   UNL A   1      32.386  34.183  27.615  1.00  0.00    -0.352 N 
ATOM     28  C   UNL A   1      33.122  34.679  28.665  1.00  0.00     0.251 C 
ATOM     29  H   UNL A   1      31.627  34.737  27.322  1.00  0.00     0.163 HD
ATOM     30  O   UNL A   1      32.772  35.700  29.240  1.00  0.00    -0.269 OA
BRANCH  28  31
ATOM     31  C   UNL A   1      34.310  33.923  29.108  1.00  0.00     0.039 A 
ATOM     32  C   UNL A   1      35.576  34.462  28.872  1.00  0.00     0.014 A 
ATOM     33  C   UNL A   1      34.159  32.731  29.821  1.00  0.00     0.014 A 
ATOM     34  C   UNL A   1      36.697  33.834  29.417  1.00  0.00     0.010 A 
ATOM     35  C   UNL A   1      35.270  32.146  30.418  1.00  0.00     0.010 A 
ATOM     36  C   UNL A   1      36.548  32.694  30.224  1.00  0.00    -0.014 A 
BRANCH  36  37
ATOM     37  C   UNL A   1      37.718  32.056  30.873  1.00  0.00     0.031 A 
ATOM     38  C   UNL A   1      38.496  31.002  30.140  1.00  0.00     0.074 A 
ATOM     39  C   UNL A   1      38.027  32.370  32.146  1.00  0.00     0.049 A 
ATOM     40  N   UNL A   1      39.493  30.266  30.556  1.00  0.00    -0.248 NA
ATOM     41  C   UNL A   1      38.063  30.712  28.765  1.00  0.00     0.031 C 
ATOM     42  C   UNL A   1      37.302  33.334  32.979  1.00  0.00     0.029 A 
ATOM     43  N   UNL A   1      39.018  31.901  32.970  1.00  0.00    -0.354 N 
ATOM     44  C   UNL A   1      39.803  29.418  29.498  1.00  0.00     0.074 A 
ATOM     45  C   UNL A   1      38.835  29.683  28.454  1.00  0.00     0.031 C 
ATOM     46  C   UNL A   1      37.879  33.389  34.190  1.00  0.00     0.029 A 
ATOM     47  C   UNL A   1      38.989  32.444  34.232  1.00  0.00     0.049 A 
ATOM     48  H   UNL A   1      39.686  31.237  32.684  1.00  0.00     0.167 HD
ATOM     49  C   UNL A   1      40.818  28.524  29.396  1.00  0.00     0.034 A 
ATOM     50  C   UNL A   1      39.764  32.198  35.307  1.00  0.00     0.034 A 
ATOM     51  C   UNL A   1      41.771  28.278  30.451  1.00  0.00     0.049 A 
ATOM     52  C   UNL A   1      40.887  31.203  35.178  1.00  0.00     0.074 A 
ATOM     53  C   UNL A   1      42.868  27.433  30.447  1.00  0.00     0.029 A 
ATOM     54  N   UNL A   1      41.735  28.872  31.707  1.00  0.00    -0.354 N 
ATOM     55  N   UNL A   1      41.210  30.451  34.150  1.00  0.00    -0.248 NA
ATOM     56  C   UNL A   1      41.761  31.036  36.345  1.00  0.00     0.031 C 
ATOM     57  C   UNL A   1      43.458  27.474  31.716  1.00  0.00     0.029 A 
ATOM     58  C   UNL A   1      42.773  28.396  32.493  1.00  0.00     0.049 A 
ATOM     59  H   UNL A   1      41.068  29.536  31.997  1.00  0.00     0.167 HD
ATOM     60  C   UNL A   1      42.338  29.737  34.541  1.00  0.00     0.074 A 
ATOM     61  C   UNL A   1      42.648  30.161  35.892  1.00  0.00     0.031 C 
ATOM     62  C   UNL A   1      43.055  28.817  33.846  1.00  0.00     0.034 A 
BRANCH  49  63
ATOM     63  C   UNL A   1      40.916  27.743  28.106  1.00  0.00     0.023 A 
ATOM     64  C   UNL A   1      40.390  26.442  27.995  1.00  0.00     0.031 A 
ATOM     65  C   UNL A   1      41.599  28.268  26.996  1.00  0.00     0.131 A 
ATOM     66  C   UNL A   1      40.647  25.675  26.849  1.00  0.00     0.055 A 
ATOM     67  C   UNL A   1      41.770  27.534  25.821  1.00  0.00     0.041 A 
ATOM     68  F   UNL A   1      42.140  29.496  27.045  1.00  0.00    -0.206 F 
ATOM     69  C   UNL A   1      41.313  26.221  25.750  1.00  0.00     0.022 A 
BRANCH  66  70
ATOM     70  S   UNL A   1      40.262  23.903  26.894  1.00  0.00     0.124 S 
ATOM     71  O   UNL A   1      41.380  23.339  26.142  1.00  0.00    -0.237 OA
ATOM     72  O   UNL A   1      40.245  23.620  28.324  1.00  0.00    -0.237 OA
ATOM     73  O   UNL A   1      38.965  23.818  26.223  1.00  0.00    -0.744 OA
ENDBRANCH  66  70
ENDBRANCH  49  63
BRANCH  50  74
ATOM     74  C   UNL A   1      39.499  32.896  36.595  1.00  0.00     0.023 A 
ATOM     75  C   UNL A   1      38.585  32.382  37.528  1.00  0.00     0.031 A 
ATOM     76  C   UNL A   1      40.157  34.100  36.909  1.00  0.00     0.131 A 
ATOM     77  C   UNL A   1      38.325  33.087  38.712  1.00  0.00     0.055 A 
ATOM     78  C   UNL A   1      39.926  34.775  38.107  1.00  0.00     0.041 A 
ATOM     79  F   UNL A   1      41.050  34.626  36.056  1.00  0.00    -0.206 F 
ATOM     80  C   UNL A   1      38.997  34.274  39.015  1.00  0.00     0.022 A 
BRANCH  77  81
ATOM     81  S   UNL A   1      37.050  32.456  39.838  1.00  0.00     0.124 S 
ATOM     82  O   UNL A   1      35.874  32.435  38.975  1.00  0.00    -0.237 OA
ATOM     83  O   UNL A   1      37.594  31.155  40.213  1.00  0.00    -0.237 OA
ATOM     84  O   UNL A   1      37.021  33.449  40.910  1.00  0.00    -0.744 OA
ENDBRANCH  77  81
ENDBRANCH  50  74
BRANCH  62  85
ATOM     85  C   UNL A   1      44.267  28.237  34.534  1.00  0.00     0.023 A 
ATOM     86  C   UNL A   1      44.185  27.072  35.316  1.00  0.00     0.031 A 
ATOM     87  C   UNL A   1      45.517  28.868  34.411  1.00  0.00     0.131 A 
ATOM     88  C   UNL A   1      45.324  26.603  35.989  1.00  0.00     0.055 A 
ATOM     89  C   UNL A   1      46.658  28.364  35.036  1.00  0.00     0.041 A 
ATOM     90  F   UNL A   1      45.649  29.985  33.677  1.00  0.00    -0.206 F 
ATOM     91  C   UNL A   1      46.563  27.232  35.840  1.00  0.00     0.022 A 
BRANCH  88  92
ATOM     92  S   UNL A   1      45.147  25.203  37.128  1.00  0.00     0.124 S 
ATOM     93  O   UNL A   1      46.020  25.596  38.230  1.00  0.00    -0.237 OA
ATOM     94  O   UNL A   1      43.716  25.211  37.414  1.00  0.00    -0.237 OA
ATOM     95  O   UNL A   1      45.615  24.061  36.344  1.00  0.00    -0.744 OA
ENDBRANCH  88  92
ENDBRANCH  62  85
ENDBRANCH  36  37
ENDBRANCH  28  31
ENDBRANCH  26  27
ENDBRANCH  25  26
ENDBRANCH   1  25
TORSDOF 19
ENDMDL
MODEL 2
REMARK VINA RESULT:     -11.2      2.461      4.340
REMARK SMILES COc1ccc(OCc2nc(C)no2)c(/C=C/C(=O)NCCCCNC(=O)c2ccc(-c3c4nc(c(-c5cc(S(=O)(=O)[O-])ccc5F)c5ccc([nH]5)c(-c5cc(S(=O)(=O)[O-])ccc5F)c5nc(c(-c6cc(S(=O)(=O)[O-])ccc6F)c6ccc3[nH]6)C=C5)C=C4)cc2)c1
REMARK SMILES IDX 22 1 21 2 20 3 18 4 19 5 17 7 16 8 15 9 3 10 4 11 91 12 5 13
REMARK SMILES IDX 6 14 2 15 1 16 7 17 8 18 9 19 10 20 14 21 11 22 13 23 12 24
REMARK SMILES IDX 23 25 24 26 25 27 26 28 27 30 28 31 29 32 90 33 30 34 89 35
REMARK SMILES IDX 31 36 32 37 33 38 83 39 34 40 88 41 82 42 84 43 35 44 87 45
REMARK SMILES IDX 81 46 80 47 36 49 68 50 48 51 67 52 49 53 52 54 66 55 85 56
REMARK SMILES IDX 50 57 51 58 65 60 86 61 53 62 37 63 38 64 46 65 39 66 45 67
REMARK SMILES IDX 47 68 44 69 40 70 41 71 42 72 43 73 69 74 70 75 78 76 71 77
REMARK SMILES IDX 77 78 79 79 76 80 72 81 73 82 74 83 75 84 54 85 55 86 63 87
REMARK SMILES IDX 56 88 62 89 64 90 61 91 57 92 58 93 59 94 60 95
REMARK H PARENT 20 6 25 29 84 48 52 59
REMARK Flexibility Score: inf
ROOT
ATOM      1  C   UNL A   1      32.335  29.924  26.865  1.00  0.00     0.023 C 
ENDROOT
BRANCH   1   2
ATOM      2  C   UNL A   1      33.707  29.627  26.268  1.00  0.00     0.116 C 
BRANCH   2   3
ATOM      3  N   UNL A   1      33.670  29.643  24.819  1.00  0.00    -0.353 N 
ATOM      4  C   UNL A   1      33.456  28.615  23.954  1.00  0.00     0.244 C 
ATOM      5  O   UNL A   1      33.627  28.757  22.747  1.00  0.00    -0.270 OA
ATOM      6  H   UNL A   1      33.823  30.522  24.401  1.00  0.00     0.163 HD
BRANCH   4   7
ATOM      7  C   UNL A   1      33.002  27.301  24.461  1.00  0.00     0.072 C 
ATOM      8  C   UNL A   1      33.918  26.387  24.809  1.00  0.00     0.018 C 
BRANCH   8   9
ATOM      9  C   UNL A   1      33.638  25.179  25.581  1.00  0.00     0.020 A 
ATOM     10  C   UNL A   1      31.912  23.941  26.788  1.00  0.00     0.119 A 
ATOM     11  C   UNL A   1      32.832  22.935  27.058  1.00  0.00     0.050 A 
ATOM     12  C   UNL A   1      32.325  25.074  26.087  1.00  0.00     0.058 A 
ATOM     13  C   UNL A   1      34.129  23.024  26.551  1.00  0.00     0.051 A 
ATOM     14  C   UNL A   1      34.539  24.117  25.772  1.00  0.00     0.127 A 
BRANCH  10  15
ATOM     15  O   UNL A   1      30.650  23.743  27.274  1.00  0.00    -0.497 OA
ATOM     16  C   UNL A   1      30.038  22.527  26.848  1.00  0.00     0.278 C 
ENDBRANCH  10  15
BRANCH  14  17
ATOM     17  O   UNL A   1      35.799  23.928  25.271  1.00  0.00    -0.483 OA
BRANCH  17  18
ATOM     18  C   UNL A   1      36.300  22.659  24.828  1.00  0.00     0.329 C 
BRANCH  18  19
ATOM     19  C   UNL A   1      37.540  22.243  25.535  1.00  0.00     0.264 A 
ATOM     20  N   UNL A   1      38.222  21.116  25.504  1.00  0.00    -0.193 NA
ATOM     21  O   UNL A   1      38.192  23.240  26.208  1.00  0.00    -0.336 OA
ATOM     22  C   UNL A   1      39.389  21.465  26.130  1.00  0.00     0.169 A 
ATOM     23  N   UNL A   1      39.429  22.719  26.594  1.00  0.00    -0.063 NA
ATOM     24  C   UNL A   1      40.554  20.562  26.175  1.00  0.00     0.093 C 
ENDBRANCH  18  19
ENDBRANCH  17  18
ENDBRANCH  14  17
ENDBRANCH   8   9
ENDBRANCH   4   7
ENDBRANCH   2   3
ENDBRANCH   1   2
BRANCH   1  25
ATOM     25  C   UNL A   1      32.002  31.415  26.941  1.00  0.00     0.023 C 
BRANCH  25  26
ATOM     26  C   UNL A   1      33.129  32.302  27.456  1.00  0.00     0.116 C 
BRANCH  26  27
ATOM     27  N   UNL A   1      32.723  33.681  27.688  1.00  0.00    -0.352 N 
ATOM     28  C   UNL A   1      33.235  34.575  28.599  1.00  0.00     0.251 C 
ATOM     29  H   UNL A   1      31.991  34.016  27.121  1.00  0.00     0.163 HD
ATOM     30  O   UNL A   1      32.726  35.678  28.738  1.00  0.00    -0.269 OA
BRANCH  28  31
ATOM     31  C   UNL A   1      34.376  34.151  29.433  1.00  0.00     0.039 A 
ATOM     32  C   UNL A   1      34.129  33.377  30.568  1.00  0.00     0.014 A 
ATOM     33  C   UNL A   1      35.683  34.454  29.043  1.00  0.00     0.014 A 
ATOM     34  C   UNL A   1      35.205  32.844  31.279  1.00  0.00     0.010 A 
ATOM     35  C   UNL A   1      36.750  33.868  29.713  1.00  0.00     0.010 A 
ATOM     36  C   UNL A   1      36.520  33.055  30.834  1.00  0.00    -0.014 A 
BRANCH  36  37
ATOM     37  C   UNL A   1      37.673  32.436  31.531  1.00  0.00     0.031 A 
ATOM     38  C   UNL A   1      38.418  31.305  30.883  1.00  0.00     0.074 A 
ATOM     39  C   UNL A   1      37.995  32.840  32.775  1.00  0.00     0.049 A 
ATOM     40  N   UNL A   1      39.395  30.575  31.355  1.00  0.00    -0.248 NA
ATOM     41  C   UNL A   1      37.974  30.921  29.535  1.00  0.00     0.031 C 
ATOM     42  C   UNL A   1      37.300  33.887  33.530  1.00  0.00     0.029 A 
ATOM     43  N   UNL A   1      38.974  32.408  33.633  1.00  0.00    -0.354 N 
ATOM     44  C   UNL A   1      39.676  29.638  30.366  1.00  0.00     0.074 A 
ATOM     45  C   UNL A   1      38.714  29.848  29.305  1.00  0.00     0.031 C 
ATOM     46  C   UNL A   1      37.882  34.020  34.732  1.00  0.00     0.029 A 
ATOM     47  C   UNL A   1      38.964  33.049  34.849  1.00  0.00     0.049 A 
ATOM     48  H   UNL A   1      39.621  31.704  33.400  1.00  0.00     0.167 HD
ATOM     49  C   UNL A   1      40.665  28.709  30.335  1.00  0.00     0.034 A 
ATOM     50  C   UNL A   1      39.735  32.866  35.939  1.00  0.00     0.034 A 
ATOM     51  C   UNL A   1      41.613  28.519  31.406  1.00  0.00     0.049 A 
ATOM     52  C   UNL A   1      40.828  31.831  35.888  1.00  0.00     0.074 A 
ATOM     53  C   UNL A   1      42.685  27.645  31.468  1.00  0.00     0.029 A 
ATOM     54  N   UNL A   1      41.598  29.211  32.611  1.00  0.00    -0.354 N 
ATOM     55  N   UNL A   1      41.126  30.992  34.922  1.00  0.00    -0.248 NA
ATOM     56  C   UNL A   1      41.700  31.731  37.065  1.00  0.00     0.031 C 
ATOM     57  C   UNL A   1      43.280  27.768  32.730  1.00  0.00     0.029 A 
ATOM     58  C   UNL A   1      42.624  28.768  33.432  1.00  0.00     0.049 A 
ATOM     59  H   UNL A   1      40.952  29.915  32.848  1.00  0.00     0.167 HD
ATOM     60  C   UNL A   1      42.233  30.278  35.368  1.00  0.00     0.074 A 
ATOM     61  C   UNL A   1      42.559  30.797  36.681  1.00  0.00     0.031 C 
ATOM     62  C   UNL A   1      42.922  29.285  34.747  1.00  0.00     0.034 A 
BRANCH  49  63
ATOM     63  C   UNL A   1      40.737  27.826  29.111  1.00  0.00     0.023 A 
ATOM     64  C   UNL A   1      41.666  28.072  28.083  1.00  0.00     0.031 A 
ATOM     65  C   UNL A   1      39.825  26.772  28.929  1.00  0.00     0.131 A 
ATOM     66  C   UNL A   1      41.595  27.349  26.883  1.00  0.00     0.055 A 
ATOM     67  C   UNL A   1      39.822  25.993  27.770  1.00  0.00     0.041 A 
ATOM     68  F   UNL A   1      38.901  26.498  29.864  1.00  0.00    -0.206 F 
ATOM     69  C   UNL A   1      40.695  26.293  26.729  1.00  0.00     0.022 A 
BRANCH  66  70
ATOM     70  S   UNL A   1      42.569  27.931  25.468  1.00  0.00     0.124 S 
ATOM     71  O   UNL A   1      42.581  26.747  24.612  1.00  0.00    -0.237 OA
ATOM     72  O   UNL A   1      41.782  29.060  24.987  1.00  0.00    -0.237 OA
ATOM     73  O   UNL A   1      43.861  28.276  26.059  1.00  0.00    -0.744 OA
ENDBRANCH  66  70
ENDBRANCH  49  63
BRANCH  50  74
ATOM     74  C   UNL A   1      39.494  33.671  37.169  1.00  0.00     0.023 A 
ATOM     75  C   UNL A   1      38.928  33.095  38.317  1.00  0.00     0.031 A 
ATOM     76  C   UNL A   1      39.822  35.038  37.208  1.00  0.00     0.131 A 
ATOM     77  C   UNL A   1      38.673  33.891  39.444  1.00  0.00     0.055 A 
ATOM     78  C   UNL A   1      39.606  35.816  38.346  1.00  0.00     0.041 A 
ATOM     79  F   UNL A   1      40.378  35.633  36.140  1.00  0.00    -0.206 F 
ATOM     80  C   UNL A   1      39.018  35.244  39.471  1.00  0.00     0.022 A 
BRANCH  77  81
ATOM     81  S   UNL A   1      37.831  33.142  40.865  1.00  0.00     0.124 S 
ATOM     82  O   UNL A   1      36.431  33.231  40.463  1.00  0.00    -0.237 OA
ATOM     83  O   UNL A   1      38.408  31.802  40.887  1.00  0.00    -0.237 OA
ATOM     84  O   UNL A   1      38.216  34.002  41.982  1.00  0.00    -0.744 OA
ENDBRANCH  77  81
ENDBRANCH  50  74
BRANCH  62  85
ATOM     85  C   UNL A   1      44.118  28.727  35.478  1.00  0.00     0.023 A 
ATOM     86  C   UNL A   1      43.995  27.666  36.392  1.00  0.00     0.031 A 
ATOM     87  C   UNL A   1      45.395  29.273  35.262  1.00  0.00     0.131 A 
ATOM     88  C   UNL A   1      45.124  27.217  37.096  1.00  0.00     0.055 A 
ATOM     89  C   UNL A   1      46.523  28.785  35.923  1.00  0.00     0.041 A 
ATOM     90  F   UNL A   1      45.567  30.288  34.401  1.00  0.00    -0.206 F 
ATOM     91  C   UNL A   1      46.389  27.760  36.855  1.00  0.00     0.022 A 
BRANCH  88  92
ATOM     92  S   UNL A   1      44.902  25.970  38.393  1.00  0.00     0.124 S 
ATOM     93  O   UNL A   1      44.339  26.762  39.482  1.00  0.00    -0.237 OA
ATOM     94  O   UNL A   1      43.995  25.018  37.761  1.00  0.00    -0.237 OA
ATOM     95  O   UNL A   1      46.258  25.473  38.625  1.00  0.00    -0.744 OA
ENDBRANCH  88  92
ENDBRANCH  62  85
ENDBRANCH  36  37
ENDBRANCH  28  31
ENDBRANCH  26  27
ENDBRANCH  25  26
ENDBRANCH   1  25
TORSDOF 19
ENDMDL
MODEL 3
REMARK VINA RESULT:     -11.1      2.027      3.578
REMARK SMILES COc1ccc(OCc2nc(C)no2)c(/C=C/C(=O)NCCCCNC(=O)c2ccc(-c3c4nc(c(-c5cc(S(=O)(=O)[O-])ccc5F)c5ccc([nH]5)c(-c5cc(S(=O)(=O)[O-])ccc5F)c5nc(c(-c6cc(S(=O)(=O)[O-])ccc6F)c6ccc3[nH]6)C=C5)C=C4)cc2)c1
REMARK SMILES IDX 22 1 21 2 20 3 18 4 19 5 17 7 16 8 15 9 3 10 4 11 91 12 5 13
REMARK SMILES IDX 6 14 2 15 1 16 7 17 8 18 9 19 10 20 14 21 11 22 13 23 12 24
REMARK SMILES IDX 23 25 24 26 25 27 26 28 27 30 28 31 29 32 90 33 30 34 89 35
REMARK SMILES IDX 31 36 32 37 33 38 83 39 34 40 88 41 82 42 84 43 35 44 87 45
REMARK SMILES IDX 81 46 80 47 36 49 68 50 48 51 67 52 49 53 52 54 66 55 85 56
REMARK SMILES IDX 50 57 51 58 65 60 86 61 53 62 37 63 38 64 46 65 39 66 45 67
REMARK SMILES IDX 47 68 44 69 40 70 41 71 42 72 43 73 69 74 70 75 78 76 71 77
REMARK SMILES IDX 77 78 79 79 76 80 72 81 73 82 74 83 75 84 54 85 55 86 63 87
REMARK SMILES IDX 56 88 62 89 64 90 61 91 57 92 58 93 59 94 60 95
REMARK H PARENT 20 6 25 29 84 48 52 59
REMARK Flexibility Score: inf
ROOT
ATOM      1  C   UNL A   1      32.239  27.683  24.319  1.00  0.00     0.023 C 
ENDROOT
BRANCH   1   2
ATOM      2  C   UNL A   1      33.178  27.934  23.143  1.00  0.00     0.116 C 
BRANCH   2   3
ATOM      3  N   UNL A   1      32.847  27.093  22.010  1.00  0.00    -0.353 N 
ATOM      4  C   UNL A   1      33.206  25.804  21.765  1.00  0.00     0.244 C 
ATOM      5  O   UNL A   1      32.989  25.282  20.675  1.00  0.00    -0.270 OA
ATOM      6  H   UNL A   1      32.285  27.513  21.319  1.00  0.00     0.163 HD
BRANCH   4   7
ATOM      7  C   UNL A   1      33.863  25.002  22.821  1.00  0.00     0.072 C 
ATOM      8  C   UNL A   1      33.664  23.677  22.849  1.00  0.00     0.018 C 
BRANCH   8   9
ATOM      9  C   UNL A   1      34.455  22.732  23.635  1.00  0.00     0.020 A 
ATOM     10  C   UNL A   1      36.612  22.356  24.715  1.00  0.00     0.119 A 
ATOM     11  C   UNL A   1      36.164  21.119  25.164  1.00  0.00     0.050 A 
ATOM     12  C   UNL A   1      35.775  23.140  23.922  1.00  0.00     0.058 A 
ATOM     13  C   UNL A   1      34.856  20.714  24.896  1.00  0.00     0.051 A 
ATOM     14  C   UNL A   1      33.971  21.526  24.170  1.00  0.00     0.127 A 
BRANCH  10  15
ATOM     15  O   UNL A   1      37.886  22.696  25.074  1.00  0.00    -0.497 OA
ATOM     16  C   UNL A   1      38.589  21.680  25.788  1.00  0.00     0.278 C 
ENDBRANCH  10  15
BRANCH  14  17
ATOM     17  O   UNL A   1      32.711  20.992  24.146  1.00  0.00    -0.483 OA
BRANCH  17  18
ATOM     18  C   UNL A   1      31.779  21.095  25.232  1.00  0.00     0.329 C 
BRANCH  18  19
ATOM     19  C   UNL A   1      31.542  22.497  25.666  1.00  0.00     0.264 A 
ATOM     20  N   UNL A   1      30.821  23.462  25.132  1.00  0.00    -0.193 NA
ATOM     21  O   UNL A   1      32.005  22.809  26.916  1.00  0.00    -0.336 OA
ATOM     22  C   UNL A   1      30.780  24.387  26.141  1.00  0.00     0.169 A 
ATOM     23  N   UNL A   1      31.486  24.066  27.231  1.00  0.00    -0.063 NA
ATOM     24  C   UNL A   1      29.922  25.584  26.072  1.00  0.00     0.093 C 
ENDBRANCH  18  19
ENDBRANCH  17  18
ENDBRANCH  14  17
ENDBRANCH   8   9
ENDBRANCH   4   7
ENDBRANCH   2   3
ENDBRANCH   1   2
BRANCH   1  25
ATOM     25  C   UNL A   1      31.658  28.959  24.931  1.00  0.00     0.023 C 
BRANCH  25  26
ATOM     26  C   UNL A   1      32.509  29.595  26.025  1.00  0.00     0.116 C 
BRANCH  26  27
ATOM     27  N   UNL A   1      32.136  30.970  26.325  1.00  0.00    -0.352 N 
ATOM     28  C   UNL A   1      32.817  31.886  27.092  1.00  0.00     0.251 C 
ATOM     29  H   UNL A   1      31.291  31.283  25.929  1.00  0.00     0.163 HD
ATOM     30  O   UNL A   1      32.329  32.982  27.327  1.00  0.00    -0.269 OA
BRANCH  28  31
ATOM     31  C   UNL A   1      34.121  31.494  27.660  1.00  0.00     0.039 A 
ATOM     32  C   UNL A   1      35.067  32.487  27.922  1.00  0.00     0.014 A 
ATOM     33  C   UNL A   1      34.367  30.162  28.002  1.00  0.00     0.014 A 
ATOM     34  C   UNL A   1      36.241  32.151  28.596  1.00  0.00     0.010 A 
ATOM     35  C   UNL A   1      35.506  29.842  28.732  1.00  0.00     0.010 A 
ATOM     36  C   UNL A   1      36.451  30.834  29.039  1.00  0.00    -0.014 A 
BRANCH  36  37
ATOM     37  C   UNL A   1      37.656  30.471  29.822  1.00  0.00     0.031 A 
ATOM     38  C   UNL A   1      38.681  29.547  29.230  1.00  0.00     0.074 A 
ATOM     39  C   UNL A   1      37.784  30.910  31.089  1.00  0.00     0.049 A 
ATOM     40  N   UNL A   1      39.757  29.042  29.775  1.00  0.00    -0.248 NA
ATOM     41  C   UNL A   1      38.437  29.102  27.850  1.00  0.00     0.031 C 
ATOM     42  C   UNL A   1      36.819  31.761  31.790  1.00  0.00     0.029 A 
ATOM     43  N   UNL A   1      38.767  30.688  32.019  1.00  0.00    -0.354 N 
ATOM     44  C   UNL A   1      40.314  28.211  28.808  1.00  0.00     0.074 A 
ATOM     45  C   UNL A   1      39.412  28.225  27.675  1.00  0.00     0.031 C 
ATOM     46  C   UNL A   1      37.263  31.994  33.035  1.00  0.00     0.029 A 
ATOM     47  C   UNL A   1      38.523  31.285  33.233  1.00  0.00     0.049 A 
ATOM     48  H   UNL A   1      39.571  30.150  31.835  1.00  0.00     0.167 HD
ATOM     49  C   UNL A   1      41.484  27.525  28.851  1.00  0.00     0.034 A 
ATOM     50  C   UNL A   1      39.230  31.254  34.380  1.00  0.00     0.034 A 
ATOM     51  C   UNL A   1      42.367  27.528  29.992  1.00  0.00     0.049 A 
ATOM     52  C   UNL A   1      40.527  30.489  34.411  1.00  0.00     0.074 A 
ATOM     53  C   UNL A   1      43.599  26.912  30.135  1.00  0.00     0.029 A 
ATOM     54  N   UNL A   1      42.107  28.174  31.195  1.00  0.00    -0.354 N 
ATOM     55  N   UNL A   1      41.076  29.757  33.469  1.00  0.00    -0.248 NA
ATOM     56  C   UNL A   1      41.307  30.560  35.653  1.00  0.00     0.031 C 
ATOM     57  C   UNL A   1      44.053  27.137  31.441  1.00  0.00     0.029 A 
ATOM     58  C   UNL A   1      43.141  27.952  32.093  1.00  0.00     0.049 A 
ATOM     59  H   UNL A   1      41.304  28.712  31.384  1.00  0.00     0.167 HD
ATOM     60  C   UNL A   1      42.278  29.297  33.998  1.00  0.00     0.074 A 
ATOM     61  C   UNL A   1      42.379  29.848  35.334  1.00  0.00     0.031 C 
ATOM     62  C   UNL A   1      43.215  28.495  33.429  1.00  0.00     0.034 A 
BRANCH  49  63
ATOM     63  C   UNL A   1      41.843  26.707  27.633  1.00  0.00     0.023 A 
ATOM     64  C   UNL A   1      41.735  25.303  27.634  1.00  0.00     0.031 A 
ATOM     65  C   UNL A   1      42.364  27.321  26.481  1.00  0.00     0.131 A 
ATOM     66  C   UNL A   1      42.238  24.558  26.558  1.00  0.00     0.055 A 
ATOM     67  C   UNL A   1      42.775  26.577  25.372  1.00  0.00     0.041 A 
ATOM     68  F   UNL A   1      42.510  28.654  26.423  1.00  0.00    -0.206 F 
ATOM     69  C   UNL A   1      42.735  25.186  25.415  1.00  0.00     0.022 A 
BRANCH  66  70
ATOM     70  S   UNL A   1      42.401  22.762  26.755  1.00  0.00     0.124 S 
ATOM     71  O   UNL A   1      41.437  22.494  27.821  1.00  0.00    -0.237 OA
ATOM     72  O   UNL A   1      42.045  22.266  25.431  1.00  0.00    -0.237 OA
ATOM     73  O   UNL A   1      43.802  22.585  27.135  1.00  0.00    -0.744 OA
ENDBRANCH  66  70
ENDBRANCH  49  63
BRANCH  50  74
ATOM     74  C   UNL A   1      38.723  31.960  35.590  1.00  0.00     0.023 A 
ATOM     75  C   UNL A   1      38.151  31.253  36.658  1.00  0.00     0.031 A 
ATOM     76  C   UNL A   1      38.800  33.361  35.689  1.00  0.00     0.131 A 
ATOM     77  C   UNL A   1      37.643  31.951  37.764  1.00  0.00     0.055 A 
ATOM     78  C   UNL A   1      38.331  34.047  36.809  1.00  0.00     0.041 A 
ATOM     79  F   UNL A   1      39.350  34.082  34.699  1.00  0.00    -0.206 F 
ATOM     80  C   UNL A   1      37.739  33.341  37.853  1.00  0.00     0.022 A 
BRANCH  77  81
ATOM     81  S   UNL A   1      36.802  31.016  39.072  1.00  0.00     0.124 S 
ATOM     82  O   UNL A   1      37.761  31.107  40.168  1.00  0.00    -0.237 OA
ATOM     83  O   UNL A   1      35.566  31.773  39.237  1.00  0.00    -0.237 OA
ATOM     84  O   UNL A   1      36.642  29.685  38.490  1.00  0.00    -0.744 OA
ENDBRANCH  77  81
ENDBRANCH  50  74
BRANCH  62  85
ATOM     85  C   UNL A   1      44.446  28.200  34.250  1.00  0.00     0.023 A 
ATOM     86  C   UNL A   1      44.516  27.083  35.101  1.00  0.00     0.031 A 
ATOM     87  C   UNL A   1      45.560  29.055  34.184  1.00  0.00     0.131 A 
ATOM     88  C   UNL A   1      45.657  26.880  35.893  1.00  0.00     0.055 A 
ATOM     89  C   UNL A   1      46.714  28.817  34.931  1.00  0.00     0.041 A 
ATOM     90  F   UNL A   1      45.544  30.136  33.388  1.00  0.00    -0.206 F 
ATOM     91  C   UNL A   1      46.762  27.731  35.801  1.00  0.00     0.022 A 
BRANCH  88  92
ATOM     92  S   UNL A   1      45.646  25.534  37.108  1.00  0.00     0.124 S 
ATOM     93  O   UNL A   1      44.835  26.101  38.181  1.00  0.00    -0.237 OA
ATOM     94  O   UNL A   1      45.038  24.441  36.358  1.00  0.00    -0.237 OA
ATOM     95  O   UNL A   1      47.061  25.353  37.431  1.00  0.00    -0.744 OA
ENDBRANCH  88  92
ENDBRANCH  62  85
ENDBRANCH  36  37
ENDBRANCH  28  31
ENDBRANCH  26  27
ENDBRANCH  25  26
ENDBRANCH   1  25
TORSDOF 19
ENDMDL
