MODEL 1
REMARK VINA RESULT:     -11.3      0.000      0.000
REMARK SMILES C[C@@H](C(=O)NCCCCNC(=O)c1ccc(-c2c3nc(c(-c4cc(S(=O)(=O)[O-])ccc4F)c4ccc([nH]4)c(-c4cc(S(=O)(=O)[O-])ccc4F)c4nc(c(-c5cc(S(=O)(=O)[O-])ccc5F)c5ccc2[nH]5)C=C4)C=C3)cc1)[C@@H](C)C(=O)c1cccc(Cl)c1
REMARK SMILES IDX 7 1 6 2 5 3 3 4 4 5 2 7 1 8 76 9 77 10 78 11 79 12 80 13
REMARK SMILES IDX 81 14 86 15 82 16 84 17 83 18 85 19 8 20 9 21 10 22 11 23
REMARK SMILES IDX 12 25 13 26 14 27 75 28 15 29 74 30 16 31 17 32 18 33 68 34
REMARK SMILES IDX 19 35 73 36 67 37 69 38 20 39 72 40 66 41 65 42 21 44 53 45
REMARK SMILES IDX 33 46 52 47 34 48 37 49 51 50 70 51 35 52 36 53 50 55 71 56
REMARK SMILES IDX 38 57 22 58 23 59 31 60 24 61 30 62 32 63 29 64 25 65 26 66
REMARK SMILES IDX 27 67 28 68 54 69 55 70 63 71 56 72 62 73 64 74 61 75 57 76
REMARK SMILES IDX 58 77 59 78 60 79 39 80 40 81 48 82 41 83 47 84 49 85 46 86
REMARK SMILES IDX 42 87 43 88 44 89 45 90
REMARK H PARENT 5 6 10 24 69 43 37 54
REMARK Flexibility Score: inf
ROOT
ATOM      1  C   UNL A   1      31.425  28.015  26.340  1.00  0.00     0.023 C 
ENDROOT
BRANCH   1   2
ATOM      2  C   UNL A   1      30.947  26.788  25.563  1.00  0.00     0.116 C 
BRANCH   2   3
ATOM      3  N   UNL A   1      30.516  25.733  26.460  1.00  0.00    -0.356 N 
ATOM      4  C   UNL A   1      30.656  24.382  26.361  1.00  0.00     0.223 C 
ATOM      5  O   UNL A   1      30.072  23.685  27.188  1.00  0.00    -0.275 OA
ATOM      6  H   UNL A   1      30.047  26.042  27.268  1.00  0.00     0.163 HD
BRANCH   4   7
ATOM      7  C   UNL A   1      31.528  23.782  25.259  1.00  0.00     0.086 C 
ATOM      8  C   UNL A   1      30.714  23.694  23.962  1.00  0.00     0.019 C 
BRANCH   7   9
ATOM      9  C   UNL A   1      32.072  22.395  25.673  1.00  0.00     0.070 C 
ATOM     10  C   UNL A   1      32.089  21.394  24.513  1.00  0.00     0.017 C 
BRANCH   9  11
ATOM     11  C   UNL A   1      33.451  22.356  26.357  1.00  0.00     0.166 C 
ATOM     12  O   UNL A   1      33.546  22.185  27.574  1.00  0.00    -0.294 OA
BRANCH  11  13
ATOM     13  C   UNL A   1      34.706  22.264  25.561  1.00  0.00     0.019 A 
ATOM     14  C   UNL A   1      35.041  23.374  24.769  1.00  0.00     0.012 A 
ATOM     15  C   UNL A   1      35.532  21.142  25.553  1.00  0.00     0.032 A 
ATOM     16  C   UNL A   1      36.214  23.379  24.013  1.00  0.00     0.002 A 
ATOM     17  C   UNL A   1      36.710  21.159  24.804  1.00  0.00     0.041 A 
ATOM     18  C   UNL A   1      37.058  22.271  24.041  1.00  0.00     0.020 A 
ATOM     19  Cl  UNL A   1      37.748  19.785  24.830  1.00  0.00    -0.084 Cl
ENDBRANCH  11  13
ENDBRANCH   9  11
ENDBRANCH   7   9
ENDBRANCH   4   7
ENDBRANCH   2   3
ENDBRANCH   1   2
BRANCH   1  20
ATOM     20  C   UNL A   1      31.969  29.154  25.475  1.00  0.00     0.023 C 
BRANCH  20  21
ATOM     21  C   UNL A   1      33.257  29.797  25.977  1.00  0.00     0.116 C 
BRANCH  21  22
ATOM     22  N   UNL A   1      33.035  31.106  26.566  1.00  0.00    -0.352 N 
ATOM     23  C   UNL A   1      33.743  31.760  27.542  1.00  0.00     0.251 C 
ATOM     24  H   UNL A   1      32.260  31.598  26.212  1.00  0.00     0.163 HD
ATOM     25  O   UNL A   1      33.283  32.802  28.012  1.00  0.00    -0.269 OA
BRANCH  23  26
ATOM     26  C   UNL A   1      35.020  31.211  28.051  1.00  0.00     0.039 A 
ATOM     27  C   UNL A   1      36.145  32.040  28.053  1.00  0.00     0.014 A 
ATOM     28  C   UNL A   1      35.127  29.894  28.510  1.00  0.00     0.014 A 
ATOM     29  C   UNL A   1      37.355  31.568  28.563  1.00  0.00     0.010 A 
ATOM     30  C   UNL A   1      36.314  29.451  29.094  1.00  0.00     0.010 A 
ATOM     31  C   UNL A   1      37.443  30.282  29.124  1.00  0.00    -0.014 A 
BRANCH  31  32
ATOM     32  C   UNL A   1      38.711  29.823  29.753  1.00  0.00     0.031 A 
ATOM     33  C   UNL A   1      39.139  30.351  31.097  1.00  0.00     0.074 A 
ATOM     34  C   UNL A   1      39.481  28.929  29.100  1.00  0.00     0.049 A 
ATOM     35  N   UNL A   1      40.193  30.037  31.807  1.00  0.00    -0.248 NA
ATOM     36  C   UNL A   1      38.288  31.381  31.710  1.00  0.00     0.031 C 
ATOM     37  C   UNL A   1      39.201  28.392  27.766  1.00  0.00     0.029 A 
ATOM     38  N   UNL A   1      40.648  28.308  29.466  1.00  0.00    -0.354 N 
ATOM     39  C   UNL A   1      40.126  30.820  32.955  1.00  0.00     0.074 A 
ATOM     40  C   UNL A   1      38.970  31.679  32.806  1.00  0.00     0.031 C 
ATOM     41  C   UNL A   1      40.144  27.495  27.445  1.00  0.00     0.029 A 
ATOM     42  C   UNL A   1      41.121  27.421  28.525  1.00  0.00     0.049 A 
ATOM     43  H   UNL A   1      41.104  28.479  30.321  1.00  0.00     0.167 HD
ATOM     44  C   UNL A   1      40.933  30.803  34.045  1.00  0.00     0.034 A 
ATOM     45  C   UNL A   1      42.219  26.638  28.530  1.00  0.00     0.034 A 
ATOM     46  C   UNL A   1      42.088  29.946  34.176  1.00  0.00     0.049 A 
ATOM     47  C   UNL A   1      43.109  26.649  29.747  1.00  0.00     0.074 A 
ATOM     48  C   UNL A   1      42.959  29.828  35.246  1.00  0.00     0.029 A 
ATOM     49  N   UNL A   1      42.541  29.064  33.202  1.00  0.00    -0.354 N 
ATOM     50  N   UNL A   1      42.994  27.355  30.850  1.00  0.00    -0.248 NA
ATOM     51  C   UNL A   1      44.263  25.744  29.729  1.00  0.00     0.031 C 
ATOM     52  C   UNL A   1      43.972  28.929  34.895  1.00  0.00     0.029 A 
ATOM     53  C   UNL A   1      43.691  28.420  33.638  1.00  0.00     0.049 A 
ATOM     54  H   UNL A   1      42.109  28.916  32.331  1.00  0.00     0.167 HD
ATOM     55  C   UNL A   1      44.052  26.958  31.664  1.00  0.00     0.074 A 
ATOM     56  C   UNL A   1      44.765  25.926  30.940  1.00  0.00     0.031 C 
ATOM     57  C   UNL A   1      44.408  27.409  32.895  1.00  0.00     0.034 A 
BRANCH  44  58
ATOM     58  C   UNL A   1      40.595  31.747  35.176  1.00  0.00     0.023 A 
ATOM     59  C   UNL A   1      39.558  31.465  36.085  1.00  0.00     0.031 A 
ATOM     60  C   UNL A   1      41.309  32.946  35.349  1.00  0.00     0.131 A 
ATOM     61  C   UNL A   1      39.220  32.396  37.078  1.00  0.00     0.055 A 
ATOM     62  C   UNL A   1      41.022  33.831  36.392  1.00  0.00     0.041 A 
ATOM     63  F   UNL A   1      42.296  33.282  34.504  1.00  0.00    -0.206 F 
ATOM     64  C   UNL A   1      39.963  33.565  37.256  1.00  0.00     0.022 A 
BRANCH  61  65
ATOM     65  S   UNL A   1      37.715  32.120  38.049  1.00  0.00     0.124 S 
ATOM     66  O   UNL A   1      37.401  30.731  37.719  1.00  0.00    -0.237 OA
ATOM     67  O   UNL A   1      38.168  32.366  39.413  1.00  0.00    -0.237 OA
ATOM     68  O   UNL A   1      36.777  33.107  37.516  1.00  0.00    -0.744 OA
ENDBRANCH  61  65
ENDBRANCH  44  58
BRANCH  45  69
ATOM     69  C   UNL A   1      42.551  25.789  27.348  1.00  0.00     0.023 A 
ATOM     70  C   UNL A   1      42.134  24.451  27.268  1.00  0.00     0.031 A 
ATOM     71  C   UNL A   1      43.346  26.293  26.302  1.00  0.00     0.131 A 
ATOM     72  C   UNL A   1      42.563  23.646  26.201  1.00  0.00     0.055 A 
ATOM     73  C   UNL A   1      43.715  25.507  25.210  1.00  0.00     0.041 A 
ATOM     74  F   UNL A   1      43.770  27.567  26.324  1.00  0.00    -0.206 F 
ATOM     75  C   UNL A   1      43.338  24.168  25.164  1.00  0.00     0.022 A 
BRANCH  72  76
ATOM     76  S   UNL A   1      42.185  21.872  26.244  1.00  0.00     0.124 S 
ATOM     77  O   UNL A   1      42.487  21.537  27.630  1.00  0.00    -0.237 OA
ATOM     78  O   UNL A   1      40.775  21.855  25.872  1.00  0.00    -0.237 OA
ATOM     79  O   UNL A   1      43.096  21.307  25.251  1.00  0.00    -0.744 OA
ENDBRANCH  72  76
ENDBRANCH  45  69
BRANCH  57  80
ATOM     80  C   UNL A   1      45.613  26.757  33.533  1.00  0.00     0.023 A 
ATOM     81  C   UNL A   1      45.509  25.535  34.225  1.00  0.00     0.031 A 
ATOM     82  C   UNL A   1      46.868  27.389  33.499  1.00  0.00     0.131 A 
ATOM     83  C   UNL A   1      46.614  25.034  34.927  1.00  0.00     0.055 A 
ATOM     84  C   UNL A   1      47.985  26.843  34.135  1.00  0.00     0.041 A 
ATOM     85  F   UNL A   1      47.029  28.557  32.858  1.00  0.00    -0.206 F 
ATOM     86  C   UNL A   1      47.856  25.669  34.872  1.00  0.00     0.022 A 
BRANCH  83  87
ATOM     87  S   UNL A   1      46.366  23.617  36.034  1.00  0.00     0.124 S 
ATOM     88  O   UNL A   1      47.732  23.143  36.229  1.00  0.00    -0.237 OA
ATOM     89  O   UNL A   1      45.735  24.237  37.195  1.00  0.00    -0.237 OA
ATOM     90  O   UNL A   1      45.503  22.726  35.262  1.00  0.00    -0.744 OA
ENDBRANCH  83  87
ENDBRANCH  57  80
ENDBRANCH  31  32
ENDBRANCH  23  26
ENDBRANCH  21  22
ENDBRANCH  20  21
ENDBRANCH   1  20
TORSDOF 17
ENDMDL
MODEL 2
REMARK VINA RESULT:     -11.3      3.369      8.973
REMARK SMILES C[C@@H](C(=O)NCCCCNC(=O)c1ccc(-c2c3nc(c(-c4cc(S(=O)(=O)[O-])ccc4F)c4ccc([nH]4)c(-c4cc(S(=O)(=O)[O-])ccc4F)c4nc(c(-c5cc(S(=O)(=O)[O-])ccc5F)c5ccc2[nH]5)C=C4)C=C3)cc1)[C@@H](C)C(=O)c1cccc(Cl)c1
REMARK SMILES IDX 7 1 6 2 5 3 3 4 4 5 2 7 1 8 76 9 77 10 78 11 79 12 80 13
REMARK SMILES IDX 81 14 86 15 82 16 84 17 83 18 85 19 8 20 9 21 10 22 11 23
REMARK SMILES IDX 12 25 13 26 14 27 75 28 15 29 74 30 16 31 17 32 18 33 68 34
REMARK SMILES IDX 19 35 73 36 67 37 69 38 20 39 72 40 66 41 65 42 21 44 53 45
REMARK SMILES IDX 33 46 52 47 34 48 37 49 51 50 70 51 35 52 36 53 50 55 71 56
REMARK SMILES IDX 38 57 22 58 23 59 31 60 24 61 30 62 32 63 29 64 25 65 26 66
REMARK SMILES IDX 27 67 28 68 54 69 55 70 63 71 56 72 62 73 64 74 61 75 57 76
REMARK SMILES IDX 58 77 59 78 60 79 39 80 40 81 48 82 41 83 47 84 49 85 46 86
REMARK SMILES IDX 42 87 43 88 44 89 45 90
REMARK H PARENT 5 6 10 24 69 43 37 54
REMARK Flexibility Score: inf
ROOT
ATOM      1  C   UNL A   1      31.526  30.716  25.709  1.00  0.00     0.023 C 
ENDROOT
BRANCH   1   2
ATOM      2  C   UNL A   1      32.395  29.493  26.000  1.00  0.00     0.116 C 
BRANCH   2   3
ATOM      3  N   UNL A   1      31.589  28.364  26.424  1.00  0.00    -0.356 N 
ATOM      4  C   UNL A   1      31.434  27.133  25.863  1.00  0.00     0.223 C 
ATOM      5  O   UNL A   1      30.575  26.393  26.337  1.00  0.00    -0.275 OA
ATOM      6  H   UNL A   1      31.072  28.510  27.249  1.00  0.00     0.163 HD
BRANCH   4   7
ATOM      7  C   UNL A   1      32.323  26.709  24.694  1.00  0.00     0.086 C 
ATOM      8  C   UNL A   1      33.752  26.480  25.203  1.00  0.00     0.019 C 
BRANCH   7   9
ATOM      9  C   UNL A   1      32.295  27.763  23.563  1.00  0.00     0.070 C 
ATOM     10  C   UNL A   1      33.627  27.862  22.810  1.00  0.00     0.017 C 
BRANCH   9  11
ATOM     11  C   UNL A   1      31.167  27.648  22.522  1.00  0.00     0.166 C 
ATOM     12  O   UNL A   1      31.125  26.697  21.739  1.00  0.00    -0.294 OA
BRANCH  11  13
ATOM     13  C   UNL A   1      29.962  28.522  22.589  1.00  0.00     0.019 A 
ATOM     14  C   UNL A   1      28.793  27.957  23.122  1.00  0.00     0.012 A 
ATOM     15  C   UNL A   1      29.943  29.841  22.139  1.00  0.00     0.032 A 
ATOM     16  C   UNL A   1      27.629  28.716  23.243  1.00  0.00     0.002 A 
ATOM     17  C   UNL A   1      28.778  30.598  22.275  1.00  0.00     0.041 A 
ATOM     18  C   UNL A   1      27.625  30.046  22.830  1.00  0.00     0.020 A 
ATOM     19  Cl  UNL A   1      28.771  32.240  21.754  1.00  0.00    -0.084 Cl
ENDBRANCH  11  13
ENDBRANCH   9  11
ENDBRANCH   7   9
ENDBRANCH   4   7
ENDBRANCH   2   3
ENDBRANCH   1   2
BRANCH   1  20
ATOM     20  C   UNL A   1      31.436  31.731  26.852  1.00  0.00     0.023 C 
BRANCH  20  21
ATOM     21  C   UNL A   1      32.760  32.360  27.272  1.00  0.00     0.116 C 
BRANCH  21  22
ATOM     22  N   UNL A   1      32.633  33.771  27.588  1.00  0.00    -0.352 N 
ATOM     23  C   UNL A   1      33.294  34.523  28.525  1.00  0.00     0.251 C 
ATOM     24  H   UNL A   1      31.972  34.263  27.050  1.00  0.00     0.163 HD
ATOM     25  O   UNL A   1      32.913  35.675  28.739  1.00  0.00    -0.269 OA
BRANCH  23  26
ATOM     26  C   UNL A   1      34.424  33.956  29.294  1.00  0.00     0.039 A 
ATOM     27  C   UNL A   1      34.138  33.140  30.393  1.00  0.00     0.014 A 
ATOM     28  C   UNL A   1      35.755  34.228  28.960  1.00  0.00     0.014 A 
ATOM     29  C   UNL A   1      35.179  32.557  31.115  1.00  0.00     0.010 A 
ATOM     30  C   UNL A   1      36.791  33.580  29.632  1.00  0.00     0.010 A 
ATOM     31  C   UNL A   1      36.516  32.740  30.720  1.00  0.00    -0.014 A 
BRANCH  31  32
ATOM     32  C   UNL A   1      37.613  32.036  31.437  1.00  0.00     0.031 A 
ATOM     33  C   UNL A   1      38.374  30.918  30.776  1.00  0.00     0.074 A 
ATOM     34  C   UNL A   1      37.915  32.407  32.698  1.00  0.00     0.049 A 
ATOM     35  N   UNL A   1      39.379  30.219  31.238  1.00  0.00    -0.248 NA
ATOM     36  C   UNL A   1      37.934  30.519  29.431  1.00  0.00     0.031 C 
ATOM     37  C   UNL A   1      37.208  33.435  33.466  1.00  0.00     0.029 A 
ATOM     38  N   UNL A   1      38.895  31.974  33.555  1.00  0.00    -0.354 N 
ATOM     39  C   UNL A   1      39.700  29.306  30.239  1.00  0.00     0.074 A 
ATOM     40  C   UNL A   1      38.731  29.490  29.179  1.00  0.00     0.031 C 
ATOM     41  C   UNL A   1      37.801  33.580  34.660  1.00  0.00     0.029 A 
ATOM     42  C   UNL A   1      38.903  32.630  34.765  1.00  0.00     0.049 A 
ATOM     43  H   UNL A   1      39.534  31.261  33.325  1.00  0.00     0.167 HD
ATOM     44  C   UNL A   1      40.726  28.419  30.194  1.00  0.00     0.034 A 
ATOM     45  C   UNL A   1      39.703  32.481  35.840  1.00  0.00     0.034 A 
ATOM     46  C   UNL A   1      41.681  28.241  31.263  1.00  0.00     0.049 A 
ATOM     47  C   UNL A   1      40.826  31.477  35.771  1.00  0.00     0.074 A 
ATOM     48  C   UNL A   1      42.773  27.391  31.312  1.00  0.00     0.029 A 
ATOM     49  N   UNL A   1      41.655  28.918  32.477  1.00  0.00    -0.354 N 
ATOM     50  N   UNL A   1      41.150  30.664  34.790  1.00  0.00    -0.248 NA
ATOM     51  C   UNL A   1      41.703  31.387  36.944  1.00  0.00     0.031 C 
ATOM     52  C   UNL A   1      43.365  27.504  32.575  1.00  0.00     0.029 A 
ATOM     53  C   UNL A   1      42.695  28.486  33.287  1.00  0.00     0.049 A 
ATOM     54  H   UNL A   1      40.996  29.605  32.725  1.00  0.00     0.167 HD
ATOM     55  C   UNL A   1      42.283  29.982  35.225  1.00  0.00     0.074 A 
ATOM     56  C   UNL A   1      42.606  30.510  36.535  1.00  0.00     0.031 C 
ATOM     57  C   UNL A   1      42.992  29.003  34.604  1.00  0.00     0.034 A 
BRANCH  44  58
ATOM     58  C   UNL A   1      40.859  27.570  28.951  1.00  0.00     0.023 A 
ATOM     59  C   UNL A   1      41.897  27.780  28.025  1.00  0.00     0.031 A 
ATOM     60  C   UNL A   1      39.936  26.544  28.679  1.00  0.00     0.131 A 
ATOM     61  C   UNL A   1      41.949  27.025  26.843  1.00  0.00     0.055 A 
ATOM     62  C   UNL A   1      40.042  25.740  27.541  1.00  0.00     0.041 A 
ATOM     63  F   UNL A   1      38.911  26.308  29.513  1.00  0.00    -0.206 F 
ATOM     64  C   UNL A   1      41.045  25.987  26.608  1.00  0.00     0.022 A 
BRANCH  61  65
ATOM     65  S   UNL A   1      43.135  27.506  25.559  1.00  0.00     0.124 S 
ATOM     66  O   UNL A   1      42.278  28.234  24.625  1.00  0.00    -0.237 OA
ATOM     67  O   UNL A   1      44.098  28.309  26.302  1.00  0.00    -0.237 OA
ATOM     68  O   UNL A   1      43.640  26.227  25.062  1.00  0.00    -0.744 OA
ENDBRANCH  61  65
ENDBRANCH  44  58
BRANCH  45  69
ATOM     69  C   UNL A   1      39.472  33.286  37.075  1.00  0.00     0.023 A 
ATOM     70  C   UNL A   1      38.786  32.754  38.178  1.00  0.00     0.031 A 
ATOM     71  C   UNL A   1      39.887  34.629  37.146  1.00  0.00     0.131 A 
ATOM     72  C   UNL A   1      38.481  33.573  39.276  1.00  0.00     0.055 A 
ATOM     73  C   UNL A   1      39.639  35.421  38.267  1.00  0.00     0.041 A 
ATOM     74  F   UNL A   1      40.550  35.190  36.122  1.00  0.00    -0.206 F 
ATOM     75  C   UNL A   1      38.916  34.899  39.335  1.00  0.00     0.022 A 
BRANCH  72  76
ATOM     76  S   UNL A   1      37.410  32.913  40.583  1.00  0.00     0.124 S 
ATOM     77  O   UNL A   1      38.082  31.662  40.915  1.00  0.00    -0.237 OA
ATOM     78  O   UNL A   1      37.480  33.965  41.591  1.00  0.00    -0.237 OA
ATOM     79  O   UNL A   1      36.115  32.771  39.922  1.00  0.00    -0.744 OA
ENDBRANCH  72  76
ENDBRANCH  45  69
BRANCH  57  80
ATOM     80  C   UNL A   1      44.200  28.469  35.338  1.00  0.00     0.023 A 
ATOM     81  C   UNL A   1      44.082  27.459  36.312  1.00  0.00     0.031 A 
ATOM     82  C   UNL A   1      45.475  29.012  35.105  1.00  0.00     0.131 A 
ATOM     83  C   UNL A   1      45.199  27.091  37.075  1.00  0.00     0.055 A 
ATOM     84  C   UNL A   1      46.599  28.583  35.814  1.00  0.00     0.041 A 
ATOM     85  F   UNL A   1      45.650  29.979  34.191  1.00  0.00    -0.206 F 
ATOM     86  C   UNL A   1      46.460  27.632  36.821  1.00  0.00     0.022 A 
BRANCH  83  87
ATOM     87  S   UNL A   1      44.949  26.000  38.504  1.00  0.00     0.124 S 
ATOM     88  O   UNL A   1      43.884  26.688  39.227  1.00  0.00    -0.237 OA
ATOM     89  O   UNL A   1      44.578  24.738  37.872  1.00  0.00    -0.237 OA
ATOM     90  O   UNL A   1      46.251  26.001  39.168  1.00  0.00    -0.744 OA
ENDBRANCH  83  87
ENDBRANCH  57  80
ENDBRANCH  31  32
ENDBRANCH  23  26
ENDBRANCH  21  22
ENDBRANCH  20  21
ENDBRANCH   1  20
TORSDOF 17
ENDMDL
MODEL 3
REMARK VINA RESULT:     -11.2      2.597      3.195
REMARK SMILES C[C@@H](C(=O)NCCCCNC(=O)c1ccc(-c2c3nc(c(-c4cc(S(=O)(=O)[O-])ccc4F)c4ccc([nH]4)c(-c4cc(S(=O)(=O)[O-])ccc4F)c4nc(c(-c5cc(S(=O)(=O)[O-])ccc5F)c5ccc2[nH]5)C=C4)C=C3)cc1)[C@@H](C)C(=O)c1cccc(Cl)c1
REMARK SMILES IDX 7 1 6 2 5 3 3 4 4 5 2 7 1 8 76 9 77 10 78 11 79 12 80 13
REMARK SMILES IDX 81 14 86 15 82 16 84 17 83 18 85 19 8 20 9 21 10 22 11 23
REMARK SMILES IDX 12 25 13 26 14 27 75 28 15 29 74 30 16 31 17 32 18 33 68 34
REMARK SMILES IDX 19 35 73 36 67 37 69 38 20 39 72 40 66 41 65 42 21 44 53 45
REMARK SMILES IDX 33 46 52 47 34 48 37 49 51 50 70 51 35 52 36 53 50 55 71 56
REMARK SMILES IDX 38 57 22 58 23 59 31 60 24 61 30 62 32 63 29 64 25 65 26 66
REMARK SMILES IDX 27 67 28 68 54 69 55 70 63 71 56 72 62 73 64 74 61 75 57 76
REMARK SMILES IDX 58 77 59 78 60 79 39 80 40 81 48 82 41 83 47 84 49 85 46 86
REMARK SMILES IDX 42 87 43 88 44 89 45 90
REMARK H PARENT 5 6 10 24 69 43 37 54
REMARK Flexibility Score: inf
ROOT
ATOM      1  C   UNL A   1      31.785  28.033  26.617  1.00  0.00     0.023 C 
ENDROOT
BRANCH   1   2
ATOM      2  C   UNL A   1      31.073  26.913  25.857  1.00  0.00     0.116 C 
BRANCH   2   3
ATOM      3  N   UNL A   1      30.528  27.394  24.602  1.00  0.00    -0.356 N 
ATOM      4  C   UNL A   1      31.090  27.455  23.364  1.00  0.00     0.223 C 
ATOM      5  O   UNL A   1      30.469  28.043  22.482  1.00  0.00    -0.275 OA
ATOM      6  H   UNL A   1      29.604  27.731  24.654  1.00  0.00     0.163 HD
BRANCH   4   7
ATOM      7  C   UNL A   1      32.443  26.791  23.106  1.00  0.00     0.086 C 
ATOM      8  C   UNL A   1      33.364  27.785  22.387  1.00  0.00     0.019 C 
BRANCH   7   9
ATOM      9  C   UNL A   1      32.277  25.490  22.286  1.00  0.00     0.070 C 
ATOM     10  C   UNL A   1      32.764  25.634  20.840  1.00  0.00     0.017 C 
BRANCH   9  11
ATOM     11  C   UNL A   1      32.892  24.207  22.872  1.00  0.00     0.166 C 
ATOM     12  O   UNL A   1      33.729  23.562  22.237  1.00  0.00    -0.294 OA
BRANCH  11  13
ATOM     13  C   UNL A   1      32.700  23.842  24.303  1.00  0.00     0.019 A 
ATOM     14  C   UNL A   1      33.828  23.918  25.137  1.00  0.00     0.012 A 
ATOM     15  C   UNL A   1      31.482  23.421  24.833  1.00  0.00     0.032 A 
ATOM     16  C   UNL A   1      33.727  23.619  26.496  1.00  0.00     0.002 A 
ATOM     17  C   UNL A   1      31.386  23.135  26.197  1.00  0.00     0.041 A 
ATOM     18  C   UNL A   1      32.499  23.238  27.030  1.00  0.00     0.020 A 
ATOM     19  Cl  UNL A   1      29.870  22.653  26.855  1.00  0.00    -0.084 Cl
ENDBRANCH  11  13
ENDBRANCH   9  11
ENDBRANCH   7   9
ENDBRANCH   4   7
ENDBRANCH   2   3
ENDBRANCH   1   2
BRANCH   1  20
ATOM     20  C   UNL A   1      33.304  27.880  26.718  1.00  0.00     0.023 C 
BRANCH  20  21
ATOM     21  C   UNL A   1      34.117  29.025  26.122  1.00  0.00     0.116 C 
BRANCH  21  22
ATOM     22  N   UNL A   1      33.754  30.316  26.678  1.00  0.00    -0.352 N 
ATOM     23  C   UNL A   1      34.360  31.044  27.670  1.00  0.00     0.251 C 
ATOM     24  H   UNL A   1      32.954  30.731  26.285  1.00  0.00     0.163 HD
ATOM     25  O   UNL A   1      33.790  32.047  28.103  1.00  0.00    -0.269 OA
BRANCH  23  26
ATOM     26  C   UNL A   1      35.659  30.620  28.239  1.00  0.00     0.039 A 
ATOM     27  C   UNL A   1      35.656  29.687  29.279  1.00  0.00     0.014 A 
ATOM     28  C   UNL A   1      36.872  31.139  27.775  1.00  0.00     0.014 A 
ATOM     29  C   UNL A   1      36.864  29.236  29.810  1.00  0.00     0.010 A 
ATOM     30  C   UNL A   1      38.079  30.628  28.251  1.00  0.00     0.010 A 
ATOM     31  C   UNL A   1      38.090  29.672  29.277  1.00  0.00    -0.014 A 
BRANCH  31  32
ATOM     32  C   UNL A   1      39.371  29.112  29.785  1.00  0.00     0.031 A 
ATOM     33  C   UNL A   1      40.038  29.694  31.003  1.00  0.00     0.074 A 
ATOM     34  C   UNL A   1      39.936  28.075  29.135  1.00  0.00     0.049 A 
ATOM     35  N   UNL A   1      41.136  29.311  31.604  1.00  0.00    -0.248 NA
ATOM     36  C   UNL A   1      39.403  30.872  31.611  1.00  0.00     0.031 C 
ATOM     37  C   UNL A   1      39.416  27.465  27.908  1.00  0.00     0.029 A 
ATOM     38  N   UNL A   1      41.063  27.343  29.411  1.00  0.00    -0.354 N 
ATOM     39  C   UNL A   1      41.317  30.191  32.665  1.00  0.00     0.074 A 
ATOM     40  C   UNL A   1      40.258  31.174  32.577  1.00  0.00     0.031 C 
ATOM     41  C   UNL A   1      40.197  26.431  27.563  1.00  0.00     0.029 A 
ATOM     42  C   UNL A   1      41.298  26.326  28.514  1.00  0.00     0.049 A 
ATOM     43  H   UNL A   1      41.650  27.528  30.181  1.00  0.00     0.167 HD
ATOM     44  C   UNL A   1      42.259  30.164  33.641  1.00  0.00     0.034 A 
ATOM     45  C   UNL A   1      42.289  25.414  28.459  1.00  0.00     0.034 A 
ATOM     46  C   UNL A   1      43.315  29.182  33.712  1.00  0.00     0.049 A 
ATOM     47  C   UNL A   1      43.333  25.416  29.547  1.00  0.00     0.074 A 
ATOM     48  C   UNL A   1      44.306  29.046  34.670  1.00  0.00     0.029 A 
ATOM     49  N   UNL A   1      43.526  28.169  32.783  1.00  0.00    -0.354 N 
ATOM     50  N   UNL A   1      43.452  26.222  30.579  1.00  0.00    -0.248 NA
ATOM     51  C   UNL A   1      44.362  24.373  29.476  1.00  0.00     0.031 C 
ATOM     52  C   UNL A   1      45.151  27.999  34.287  1.00  0.00     0.029 A 
ATOM     53  C   UNL A   1      44.643  27.424  33.134  1.00  0.00     0.049 A 
ATOM     54  H   UNL A   1      42.964  28.004  31.993  1.00  0.00     0.167 HD
ATOM     55  C   UNL A   1      44.559  25.765  31.289  1.00  0.00     0.074 A 
ATOM     56  C   UNL A   1      45.043  24.592  30.589  1.00  0.00     0.031 C 
ATOM     57  C   UNL A   1      45.131  26.270  32.413  1.00  0.00     0.034 A 
BRANCH  44  58
ATOM     58  C   UNL A   1      42.191  31.237  34.704  1.00  0.00     0.023 A 
ATOM     59  C   UNL A   1      42.931  32.429  34.594  1.00  0.00     0.031 A 
ATOM     60  C   UNL A   1      41.386  31.069  35.845  1.00  0.00     0.131 A 
ATOM     61  C   UNL A   1      42.905  33.372  35.633  1.00  0.00     0.055 A 
ATOM     62  C   UNL A   1      41.300  32.049  36.837  1.00  0.00     0.041 A 
ATOM     63  F   UNL A   1      40.673  29.945  36.018  1.00  0.00    -0.206 F 
ATOM     64  C   UNL A   1      42.072  33.203  36.740  1.00  0.00     0.022 A 
BRANCH  61  65
ATOM     65  S   UNL A   1      44.073  34.757  35.576  1.00  0.00     0.124 S 
ATOM     66  O   UNL A   1      44.700  34.668  36.893  1.00  0.00    -0.237 OA
ATOM     67  O   UNL A   1      44.919  34.411  34.441  1.00  0.00    -0.237 OA
ATOM     68  O   UNL A   1      43.213  35.923  35.380  1.00  0.00    -0.744 OA
ENDBRANCH  61  65
ENDBRANCH  44  58
BRANCH  45  69
ATOM     69  C   UNL A   1      42.356  24.431  27.338  1.00  0.00     0.023 A 
ATOM     70  C   UNL A   1      41.571  23.267  27.337  1.00  0.00     0.031 A 
ATOM     71  C   UNL A   1      43.256  24.617  26.272  1.00  0.00     0.131 A 
ATOM     72  C   UNL A   1      41.744  22.306  26.328  1.00  0.00     0.055 A 
ATOM     73  C   UNL A   1      43.377  23.690  25.237  1.00  0.00     0.041 A 
ATOM     74  F   UNL A   1      44.028  25.715  26.219  1.00  0.00    -0.206 F 
ATOM     75  C   UNL A   1      42.630  22.517  25.270  1.00  0.00     0.022 A 
BRANCH  72  76
ATOM     76  S   UNL A   1      40.872  20.723  26.477  1.00  0.00     0.124 S 
ATOM     77  O   UNL A   1      41.732  19.835  25.703  1.00  0.00    -0.237 OA
ATOM     78  O   UNL A   1      40.870  20.514  27.921  1.00  0.00    -0.237 OA
ATOM     79  O   UNL A   1      39.563  20.998  25.888  1.00  0.00    -0.744 OA
ENDBRANCH  72  76
ENDBRANCH  45  69
BRANCH  57  80
ATOM     80  C   UNL A   1      46.329  25.527  32.957  1.00  0.00     0.023 A 
ATOM     81  C   UNL A   1      46.185  24.462  33.866  1.00  0.00     0.031 A 
ATOM     82  C   UNL A   1      47.632  25.923  32.609  1.00  0.00     0.131 A 
ATOM     83  C   UNL A   1      47.319  23.893  34.462  1.00  0.00     0.055 A 
ATOM     84  C   UNL A   1      48.760  25.297  33.146  1.00  0.00     0.041 A 
ATOM     85  F   UNL A   1      47.834  26.934  31.749  1.00  0.00    -0.206 F 
ATOM     86  C   UNL A   1      48.606  24.290  34.094  1.00  0.00     0.022 A 
BRANCH  83  87
ATOM     87  S   UNL A   1      47.084  22.726  35.832  1.00  0.00     0.124 S 
ATOM     88  O   UNL A   1      45.875  23.242  36.463  1.00  0.00    -0.237 OA
ATOM     89  O   UNL A   1      46.945  21.452  35.134  1.00  0.00    -0.237 OA
ATOM     90  O   UNL A   1      48.306  22.871  36.619  1.00  0.00    -0.744 OA
ENDBRANCH  83  87
ENDBRANCH  57  80
ENDBRANCH  31  32
ENDBRANCH  23  26
ENDBRANCH  21  22
ENDBRANCH  20  21
ENDBRANCH   1  20
TORSDOF 17
ENDMDL
