MODEL 1
REMARK VINA RESULT:     -13.3      0.000      0.000
REMARK SMILES CC1(C)CCCC[C@H]1NC(=O)Nc1ccccc1C(=O)NCCCCNC(=O)c1ccc(-c2c3nc(c(-c4cc(S(=O)(=O)[O-])ccc4F)c4ccc([nH]4)c(-c4cc(S(=O)(=O)[O-])ccc4F)c4nc(c(-c5cc(S(=O)(=O)[O-])ccc5F)c5ccc2[nH]5)C=C4)C=C3)cc1
REMARK SMILES IDX 24 1 23 2 22 3 21 4 19 5 20 6 18 8 13 9 14 10 15 11 17 12
REMARK SMILES IDX 16 13 12 14 9 15 10 16 11 18 8 20 1 21 2 22 3 23 4 24 5 25
REMARK SMILES IDX 7 26 6 27 25 28 26 29 27 30 28 32 29 33 30 34 91 35 31 36
REMARK SMILES IDX 90 37 32 38 33 39 34 40 84 41 35 42 89 43 83 44 85 45 36 46
REMARK SMILES IDX 88 47 82 48 81 49 37 51 69 52 49 53 68 54 50 55 53 56 67 57
REMARK SMILES IDX 86 58 51 59 52 60 66 62 87 63 54 64 38 65 39 66 47 67 40 68
REMARK SMILES IDX 46 69 48 70 45 71 41 72 42 73 43 74 44 75 70 76 71 77 79 78
REMARK SMILES IDX 72 79 78 80 80 81 77 82 73 83 74 84 75 85 76 86 55 87 56 88
REMARK SMILES IDX 64 89 57 90 63 91 65 92 62 93 58 94 59 95 60 96 61 97
REMARK H PARENT 21 7 9 17 12 19 26 31 85 50 53 61
REMARK Flexibility Score: inf
ROOT
ATOM      1  C   UNL A   1      36.079  20.833  25.409  1.00  0.00     0.023 C 
ENDROOT
BRANCH   1   2
ATOM      2  C   UNL A   1      35.445  21.975  26.214  1.00  0.00     0.023 C 
BRANCH   2   3
ATOM      3  C   UNL A   1      34.138  21.632  26.924  1.00  0.00     0.116 C 
BRANCH   3   4
ATOM      4  N   UNL A   1      33.453  20.501  26.328  1.00  0.00    -0.352 N 
ATOM      5  C   UNL A   1      32.602  20.442  25.257  1.00  0.00     0.253 C 
ATOM      6  O   UNL A   1      31.969  19.399  25.087  1.00  0.00    -0.269 OA
ATOM      7  H   UNL A   1      33.630  19.636  26.763  1.00  0.00     0.163 HD
BRANCH   5   8
ATOM      8  C   UNL A   1      32.337  21.597  24.353  1.00  0.00     0.063 A 
ATOM      9  C   UNL A   1      31.286  22.528  24.453  1.00  0.00     0.055 A 
ATOM     10  C   UNL A   1      31.096  23.459  23.416  1.00  0.00     0.027 A 
ATOM     11  C   UNL A   1      32.045  23.608  22.403  1.00  0.00     0.002 A 
ATOM     12  C   UNL A   1      33.298  21.779  23.335  1.00  0.00     0.016 A 
ATOM     13  C   UNL A   1      33.170  22.796  22.388  1.00  0.00     0.001 A 
BRANCH   9  14
ATOM     14  N   UNL A   1      30.447  22.726  25.567  1.00  0.00    -0.307 N 
ATOM     15  N   UNL A   1      31.558  24.338  26.900  1.00  0.00    -0.335 N 
ATOM     16  C   UNL A   1      30.662  23.337  26.758  1.00  0.00     0.319 C 
ATOM     17  H   UNL A   1      31.905  24.471  27.812  1.00  0.00     0.165 HD
ATOM     18  O   UNL A   1      29.947  23.039  27.717  1.00  0.00    -0.248 OA
ATOM     19  H   UNL A   1      29.541  22.354  25.462  1.00  0.00     0.171 HD
BRANCH  15  20
ATOM     20  C   UNL A   1      32.084  25.249  25.891  1.00  0.00     0.089 C 
ATOM     21  C   UNL A   1      31.424  27.454  27.045  1.00  0.00     0.013 C 
ATOM     22  C   UNL A   1      31.301  26.590  25.775  1.00  0.00    -0.015 C 
ATOM     23  C   UNL A   1      29.797  26.343  25.526  1.00  0.00     0.013 C 
ATOM     24  C   UNL A   1      31.877  27.339  24.543  1.00  0.00     0.008 C 
ATOM     25  C   UNL A   1      33.400  27.505  24.570  1.00  0.00     0.001 C 
ATOM     26  C   UNL A   1      33.587  25.485  26.077  1.00  0.00     0.025 C 
ATOM     27  C   UNL A   1      34.144  26.202  24.852  1.00  0.00     0.002 C 
ENDBRANCH  15  20
ENDBRANCH   9  14
ENDBRANCH   5   8
ENDBRANCH   3   4
ENDBRANCH   2   3
ENDBRANCH   1   2
BRANCH   1  28
ATOM     28  C   UNL A   1      37.509  21.060  24.922  1.00  0.00     0.116 C 
BRANCH  28  29
ATOM     29  N   UNL A   1      38.457  20.104  25.472  1.00  0.00    -0.352 N 
ATOM     30  C   UNL A   1      39.654  20.294  26.121  1.00  0.00     0.251 C 
ATOM     31  H   UNL A   1      38.199  19.161  25.359  1.00  0.00     0.163 HD
ATOM     32  O   UNL A   1      40.387  19.333  26.333  1.00  0.00    -0.269 OA
BRANCH  30  33
ATOM     33  C   UNL A   1      40.077  21.651  26.538  1.00  0.00     0.039 A 
ATOM     34  C   UNL A   1      41.247  21.796  27.286  1.00  0.00     0.014 A 
ATOM     35  C   UNL A   1      39.318  22.779  26.212  1.00  0.00     0.014 A 
ATOM     36  C   UNL A   1      41.700  23.073  27.625  1.00  0.00     0.010 A 
ATOM     37  C   UNL A   1      39.818  24.054  26.470  1.00  0.00     0.010 A 
ATOM     38  C   UNL A   1      41.019  24.217  27.175  1.00  0.00    -0.014 A 
BRANCH  38  39
ATOM     39  C   UNL A   1      41.583  25.577  27.409  1.00  0.00     0.031 A 
ATOM     40  C   UNL A   1      40.828  26.602  28.212  1.00  0.00     0.074 A 
ATOM     41  C   UNL A   1      42.770  25.899  26.860  1.00  0.00     0.049 A 
ATOM     42  N   UNL A   1      41.180  27.822  28.537  1.00  0.00    -0.248 NA
ATOM     43  C   UNL A   1      39.493  26.216  28.685  1.00  0.00     0.031 C 
ATOM     44  C   UNL A   1      43.574  25.014  26.012  1.00  0.00     0.029 A 
ATOM     45  N   UNL A   1      43.518  27.047  26.940  1.00  0.00    -0.354 N 
ATOM     46  C   UNL A   1      40.109  28.349  29.252  1.00  0.00     0.074 A 
ATOM     47  C   UNL A   1      39.068  27.343  29.236  1.00  0.00     0.031 C 
ATOM     48  C   UNL A   1      44.725  25.629  25.702  1.00  0.00     0.029 A 
ATOM     49  C   UNL A   1      44.724  26.966  26.285  1.00  0.00     0.049 A 
ATOM     50  H   UNL A   1      43.218  27.853  27.420  1.00  0.00     0.167 HD
ATOM     51  C   UNL A   1      40.014  29.545  29.888  1.00  0.00     0.034 A 
ATOM     52  C   UNL A   1      45.722  27.863  26.169  1.00  0.00     0.034 A 
ATOM     53  C   UNL A   1      41.058  30.545  29.878  1.00  0.00     0.049 A 
ATOM     54  C   UNL A   1      45.581  29.201  26.846  1.00  0.00     0.074 A 
ATOM     55  C   UNL A   1      41.089  31.769  30.523  1.00  0.00     0.029 A 
ATOM     56  N   UNL A   1      42.251  30.446  29.170  1.00  0.00    -0.354 N 
ATOM     57  N   UNL A   1      44.592  29.659  27.578  1.00  0.00    -0.248 NA
ATOM     58  C   UNL A   1      46.700  30.136  26.687  1.00  0.00     0.031 C 
ATOM     59  C   UNL A   1      42.255  32.443  30.138  1.00  0.00     0.029 A 
ATOM     60  C   UNL A   1      43.002  31.604  29.326  1.00  0.00     0.049 A 
ATOM     61  H   UNL A   1      42.524  29.667  28.633  1.00  0.00     0.167 HD
ATOM     62  C   UNL A   1      44.983  30.931  27.989  1.00  0.00     0.074 A 
ATOM     63  C   UNL A   1      46.310  31.149  27.446  1.00  0.00     0.031 C 
ATOM     64  C   UNL A   1      44.310  31.834  28.750  1.00  0.00     0.034 A 
BRANCH  51  65
ATOM     65  C   UNL A   1      38.718  29.836  30.615  1.00  0.00     0.023 A 
ATOM     66  C   UNL A   1      37.687  30.584  30.014  1.00  0.00     0.031 A 
ATOM     67  C   UNL A   1      38.528  29.420  31.945  1.00  0.00     0.131 A 
ATOM     68  C   UNL A   1      36.576  30.987  30.770  1.00  0.00     0.055 A 
ATOM     69  C   UNL A   1      37.370  29.737  32.659  1.00  0.00     0.041 A 
ATOM     70  F   UNL A   1      39.477  28.719  32.585  1.00  0.00    -0.206 F 
ATOM     71  C   UNL A   1      36.396  30.546  32.082  1.00  0.00     0.022 A 
BRANCH  68  72
ATOM     72  S   UNL A   1      35.479  32.259  30.082  1.00  0.00     0.124 S 
ATOM     73  O   UNL A   1      35.014  31.615  28.855  1.00  0.00    -0.237 OA
ATOM     74  O   UNL A   1      34.485  32.421  31.135  1.00  0.00    -0.237 OA
ATOM     75  O   UNL A   1      36.366  33.402  29.876  1.00  0.00    -0.744 OA
ENDBRANCH  68  72
ENDBRANCH  51  65
BRANCH  52  76
ATOM     76  C   UNL A   1      46.953  27.522  25.399  1.00  0.00     0.023 A 
ATOM     77  C   UNL A   1      47.074  27.867  24.042  1.00  0.00     0.031 A 
ATOM     78  C   UNL A   1      48.019  26.832  26.002  1.00  0.00     0.131 A 
ATOM     79  C   UNL A   1      48.220  27.492  23.325  1.00  0.00     0.055 A 
ATOM     80  C   UNL A   1      49.180  26.508  25.298  1.00  0.00     0.041 A 
ATOM     81  F   UNL A   1      47.956  26.483  27.297  1.00  0.00    -0.206 F 
ATOM     82  C   UNL A   1      49.280  26.830  23.948  1.00  0.00     0.022 A 
BRANCH  79  83
ATOM     83  S   UNL A   1      48.280  27.828  21.544  1.00  0.00     0.124 S 
ATOM     84  O   UNL A   1      48.593  26.512  21.001  1.00  0.00    -0.237 OA
ATOM     85  O   UNL A   1      46.934  28.327  21.283  1.00  0.00    -0.237 OA
ATOM     86  O   UNL A   1      49.344  28.824  21.422  1.00  0.00    -0.744 OA
ENDBRANCH  79  83
ENDBRANCH  52  76
BRANCH  64  87
ATOM     87  C   UNL A   1      45.021  33.135  29.050  1.00  0.00     0.023 A 
ATOM     88  C   UNL A   1      44.925  34.244  28.190  1.00  0.00     0.031 A 
ATOM     89  C   UNL A   1      45.852  33.250  30.179  1.00  0.00     0.131 A 
ATOM     90  C   UNL A   1      45.715  35.381  28.421  1.00  0.00     0.055 A 
ATOM     91  C   UNL A   1      46.571  34.415  30.449  1.00  0.00     0.041 A 
ATOM     92  F   UNL A   1      45.991  32.224  31.034  1.00  0.00    -0.206 F 
ATOM     93  C   UNL A   1      46.522  35.482  29.556  1.00  0.00     0.022 A 
BRANCH  90  94
ATOM     94  S   UNL A   1      45.788  36.663  27.138  1.00  0.00     0.124 S 
ATOM     95  O   UNL A   1      46.641  37.668  27.764  1.00  0.00    -0.237 OA
ATOM     96  O   UNL A   1      46.372  35.943  26.011  1.00  0.00    -0.237 OA
ATOM     97  O   UNL A   1      44.391  37.055  26.966  1.00  0.00    -0.744 OA
ENDBRANCH  90  94
ENDBRANCH  64  87
ENDBRANCH  38  39
ENDBRANCH  30  33
ENDBRANCH  28  29
ENDBRANCH   1  28
TORSDOF 16
ENDMDL
MODEL 2
REMARK VINA RESULT:     -13.2      1.076      7.455
REMARK SMILES CC1(C)CCCC[C@H]1NC(=O)Nc1ccccc1C(=O)NCCCCNC(=O)c1ccc(-c2c3nc(c(-c4cc(S(=O)(=O)[O-])ccc4F)c4ccc([nH]4)c(-c4cc(S(=O)(=O)[O-])ccc4F)c4nc(c(-c5cc(S(=O)(=O)[O-])ccc5F)c5ccc2[nH]5)C=C4)C=C3)cc1
REMARK SMILES IDX 24 1 23 2 22 3 21 4 19 5 20 6 18 8 13 9 14 10 15 11 17 12
REMARK SMILES IDX 16 13 12 14 9 15 10 16 11 18 8 20 1 21 2 22 3 23 4 24 5 25
REMARK SMILES IDX 7 26 6 27 25 28 26 29 27 30 28 32 29 33 30 34 91 35 31 36
REMARK SMILES IDX 90 37 32 38 33 39 34 40 84 41 35 42 89 43 83 44 85 45 36 46
REMARK SMILES IDX 88 47 82 48 81 49 37 51 69 52 49 53 68 54 50 55 53 56 67 57
REMARK SMILES IDX 86 58 51 59 52 60 66 62 87 63 54 64 38 65 39 66 47 67 40 68
REMARK SMILES IDX 46 69 48 70 45 71 41 72 42 73 43 74 44 75 70 76 71 77 79 78
REMARK SMILES IDX 72 79 78 80 80 81 77 82 73 83 74 84 75 85 76 86 55 87 56 88
REMARK SMILES IDX 64 89 57 90 63 91 65 92 62 93 58 94 59 95 60 96 61 97
REMARK H PARENT 21 7 9 17 12 19 26 31 85 50 53 61
REMARK Flexibility Score: inf
ROOT
ATOM      1  C   UNL A   1      36.041  21.362  25.741  1.00  0.00     0.023 C 
ENDROOT
BRANCH   1   2
ATOM      2  C   UNL A   1      35.070  22.341  26.414  1.00  0.00     0.023 C 
BRANCH   2   3
ATOM      3  C   UNL A   1      33.912  21.700  27.174  1.00  0.00     0.116 C 
BRANCH   3   4
ATOM      4  N   UNL A   1      33.368  20.540  26.497  1.00  0.00    -0.352 N 
ATOM      5  C   UNL A   1      32.647  20.445  25.337  1.00  0.00     0.253 C 
ATOM      6  O   UNL A   1      32.101  19.369  25.089  1.00  0.00    -0.269 OA
ATOM      7  H   UNL A   1      33.545  19.681  26.944  1.00  0.00     0.163 HD
BRANCH   5   8
ATOM      8  C   UNL A   1      32.418  21.594  24.416  1.00  0.00     0.063 A 
ATOM      9  C   UNL A   1      31.364  22.526  24.469  1.00  0.00     0.055 A 
ATOM     10  C   UNL A   1      31.214  23.450  23.420  1.00  0.00     0.027 A 
ATOM     11  C   UNL A   1      32.201  23.593  22.444  1.00  0.00     0.002 A 
ATOM     12  C   UNL A   1      33.418  21.770  23.435  1.00  0.00     0.016 A 
ATOM     13  C   UNL A   1      33.326  22.781  22.477  1.00  0.00     0.001 A 
BRANCH   9  14
ATOM     14  N   UNL A   1      30.482  22.731  25.548  1.00  0.00    -0.307 N 
ATOM     15  N   UNL A   1      31.500  24.415  26.867  1.00  0.00    -0.335 N 
ATOM     16  C   UNL A   1      30.639  23.383  26.727  1.00  0.00     0.319 C 
ATOM     17  H   UNL A   1      31.812  24.585  27.785  1.00  0.00     0.165 HD
ATOM     18  O   UNL A   1      29.902  23.092  27.670  1.00  0.00    -0.248 OA
ATOM     19  H   UNL A   1      29.592  22.328  25.425  1.00  0.00     0.171 HD
BRANCH  15  20
ATOM     20  C   UNL A   1      32.032  25.311  25.849  1.00  0.00     0.089 C 
ATOM     21  C   UNL A   1      31.292  27.530  26.926  1.00  0.00     0.013 C 
ATOM     22  C   UNL A   1      31.222  26.630  25.676  1.00  0.00    -0.015 C 
ATOM     23  C   UNL A   1      29.731  26.342  25.395  1.00  0.00     0.013 C 
ATOM     24  C   UNL A   1      31.814  27.361  24.441  1.00  0.00     0.008 C 
ATOM     25  C   UNL A   1      33.332  27.563  24.503  1.00  0.00     0.001 C 
ATOM     26  C   UNL A   1      33.523  25.587  26.068  1.00  0.00     0.025 C 
ATOM     27  C   UNL A   1      34.097  26.285  24.839  1.00  0.00     0.002 C 
ENDBRANCH  15  20
ENDBRANCH   9  14
ENDBRANCH   5   8
ENDBRANCH   3   4
ENDBRANCH   2   3
ENDBRANCH   1   2
BRANCH   1  28
ATOM     28  C   UNL A   1      37.429  21.906  25.407  1.00  0.00     0.116 C 
BRANCH  28  29
ATOM     29  N   UNL A   1      38.502  20.998  25.782  1.00  0.00    -0.352 N 
ATOM     30  C   UNL A   1      39.736  21.243  26.338  1.00  0.00     0.251 C 
ATOM     31  H   UNL A   1      38.314  20.048  25.608  1.00  0.00     0.163 HD
ATOM     32  O   UNL A   1      40.563  20.340  26.396  1.00  0.00    -0.269 OA
BRANCH  30  33
ATOM     33  C   UNL A   1      40.081  22.595  26.837  1.00  0.00     0.039 A 
ATOM     34  C   UNL A   1      40.988  22.715  27.892  1.00  0.00     0.014 A 
ATOM     35  C   UNL A   1      39.504  23.741  26.284  1.00  0.00     0.014 A 
ATOM     36  C   UNL A   1      41.381  23.983  28.327  1.00  0.00     0.010 A 
ATOM     37  C   UNL A   1      39.966  25.003  26.656  1.00  0.00     0.010 A 
ATOM     38  C   UNL A   1      40.915  25.140  27.678  1.00  0.00    -0.014 A 
BRANCH  38  39
ATOM     39  C   UNL A   1      41.448  26.482  28.044  1.00  0.00     0.031 A 
ATOM     40  C   UNL A   1      42.858  26.879  27.696  1.00  0.00     0.074 A 
ATOM     41  C   UNL A   1      40.664  27.336  28.730  1.00  0.00     0.049 A 
ATOM     42  N   UNL A   1      43.476  28.013  27.913  1.00  0.00    -0.248 NA
ATOM     43  C   UNL A   1      43.688  25.857  27.046  1.00  0.00     0.031 C 
ATOM     44  C   UNL A   1      39.298  27.049  29.180  1.00  0.00     0.029 A 
ATOM     45  N   UNL A   1      40.888  28.620  29.159  1.00  0.00    -0.354 N 
ATOM     46  C   UNL A   1      44.768  27.842  27.427  1.00  0.00     0.074 A 
ATOM     47  C   UNL A   1      44.862  26.466  26.984  1.00  0.00     0.031 C 
ATOM     48  C   UNL A   1      38.790  28.144  29.765  1.00  0.00     0.029 A 
ATOM     49  C   UNL A   1      39.803  29.193  29.779  1.00  0.00     0.049 A 
ATOM     50  H   UNL A   1      41.747  29.087  29.036  1.00  0.00     0.167 HD
ATOM     51  C   UNL A   1      45.772  28.752  27.329  1.00  0.00     0.034 A 
ATOM     52  C   UNL A   1      39.636  30.426  30.295  1.00  0.00     0.034 A 
ATOM     53  C   UNL A   1      45.665  30.117  27.794  1.00  0.00     0.049 A 
ATOM     54  C   UNL A   1      40.774  31.408  30.216  1.00  0.00     0.074 A 
ATOM     55  C   UNL A   1      46.598  31.136  27.706  1.00  0.00     0.029 A 
ATOM     56  N   UNL A   1      44.563  30.652  28.453  1.00  0.00    -0.354 N 
ATOM     57  N   UNL A   1      41.967  31.254  29.691  1.00  0.00    -0.248 NA
ATOM     58  C   UNL A   1      40.534  32.735  30.793  1.00  0.00     0.031 C 
ATOM     59  C   UNL A   1      46.098  32.254  28.384  1.00  0.00     0.029 A 
ATOM     60  C   UNL A   1      44.812  31.969  28.816  1.00  0.00     0.049 A 
ATOM     61  H   UNL A   1      43.727  30.165  28.638  1.00  0.00     0.167 HD
ATOM     62  C   UNL A   1      42.613  32.477  29.851  1.00  0.00     0.074 A 
ATOM     63  C   UNL A   1      41.662  33.362  30.496  1.00  0.00     0.031 C 
ATOM     64  C   UNL A   1      43.874  32.838  29.495  1.00  0.00     0.034 A 
BRANCH  51  65
ATOM     65  C   UNL A   1      47.076  28.275  26.727  1.00  0.00     0.023 A 
ATOM     66  C   UNL A   1      47.300  28.302  25.337  1.00  0.00     0.031 A 
ATOM     67  C   UNL A   1      48.086  27.726  27.537  1.00  0.00     0.131 A 
ATOM     68  C   UNL A   1      48.443  27.693  24.796  1.00  0.00     0.055 A 
ATOM     69  C   UNL A   1      49.269  27.214  26.998  1.00  0.00     0.041 A 
ATOM     70  F   UNL A   1      47.931  27.652  28.869  1.00  0.00    -0.206 F 
ATOM     71  C   UNL A   1      49.443  27.172  25.618  1.00  0.00     0.022 A 
BRANCH  68  72
ATOM     72  S   UNL A   1      48.501  27.408  23.004  1.00  0.00     0.124 S 
ATOM     73  O   UNL A   1      48.406  25.951  22.934  1.00  0.00    -0.237 OA
ATOM     74  O   UNL A   1      47.339  28.148  22.529  1.00  0.00    -0.237 OA
ATOM     75  O   UNL A   1      49.797  27.957  22.611  1.00  0.00    -0.744 OA
ENDBRANCH  68  72
ENDBRANCH  51  65
BRANCH  52  76
ATOM     76  C   UNL A   1      38.335  30.810  30.914  1.00  0.00     0.023 A 
ATOM     77  C   UNL A   1      37.350  31.477  30.167  1.00  0.00     0.031 A 
ATOM     78  C   UNL A   1      38.062  30.533  32.265  1.00  0.00     0.131 A 
ATOM     79  C   UNL A   1      36.153  31.873  30.783  1.00  0.00     0.055 A 
ATOM     80  C   UNL A   1      36.848  30.882  32.860  1.00  0.00     0.041 A 
ATOM     81  F   UNL A   1      38.968  29.894  33.024  1.00  0.00    -0.206 F 
ATOM     82  C   UNL A   1      35.889  31.565  32.119  1.00  0.00     0.022 A 
BRANCH  79  83
ATOM     83  S   UNL A   1      34.966  32.855  29.825  1.00  0.00     0.124 S 
ATOM     84  O   UNL A   1      34.427  31.859  28.907  1.00  0.00    -0.237 OA
ATOM     85  O   UNL A   1      34.057  33.331  30.862  1.00  0.00    -0.237 OA
ATOM     86  O   UNL A   1      35.798  33.887  29.209  1.00  0.00    -0.744 OA
ENDBRANCH  79  83
ENDBRANCH  52  76
BRANCH  64  87
ATOM     87  C   UNL A   1      44.280  34.267  29.784  1.00  0.00     0.023 A 
ATOM     88  C   UNL A   1      44.099  35.291  28.837  1.00  0.00     0.031 A 
ATOM     89  C   UNL A   1      44.907  34.598  30.998  1.00  0.00     0.131 A 
ATOM     90  C   UNL A   1      44.622  36.571  29.081  1.00  0.00     0.055 A 
ATOM     91  C   UNL A   1      45.350  35.894  31.269  1.00  0.00     0.041 A 
ATOM     92  F   UNL A   1      45.114  33.664  31.940  1.00  0.00    -0.206 F 
ATOM     93  C   UNL A   1      45.228  36.885  30.299  1.00  0.00     0.022 A 
BRANCH  90  94
ATOM     94  S   UNL A   1      44.632  37.777  27.724  1.00  0.00     0.124 S 
ATOM     95  O   UNL A   1      43.334  37.542  27.102  1.00  0.00    -0.237 OA
ATOM     96  O   UNL A   1      44.780  39.043  28.435  1.00  0.00    -0.237 OA
ATOM     97  O   UNL A   1      45.786  37.378  26.921  1.00  0.00    -0.744 OA
ENDBRANCH  90  94
ENDBRANCH  64  87
ENDBRANCH  38  39
ENDBRANCH  30  33
ENDBRANCH  28  29
ENDBRANCH   1  28
TORSDOF 16
ENDMDL
MODEL 3
REMARK VINA RESULT:     -13.1      5.120      8.156
REMARK SMILES CC1(C)CCCC[C@H]1NC(=O)Nc1ccccc1C(=O)NCCCCNC(=O)c1ccc(-c2c3nc(c(-c4cc(S(=O)(=O)[O-])ccc4F)c4ccc([nH]4)c(-c4cc(S(=O)(=O)[O-])ccc4F)c4nc(c(-c5cc(S(=O)(=O)[O-])ccc5F)c5ccc2[nH]5)C=C4)C=C3)cc1
REMARK SMILES IDX 24 1 23 2 22 3 21 4 19 5 20 6 18 8 13 9 14 10 15 11 17 12
REMARK SMILES IDX 16 13 12 14 9 15 10 16 11 18 8 20 1 21 2 22 3 23 4 24 5 25
REMARK SMILES IDX 7 26 6 27 25 28 26 29 27 30 28 32 29 33 30 34 91 35 31 36
REMARK SMILES IDX 90 37 32 38 33 39 34 40 84 41 35 42 89 43 83 44 85 45 36 46
REMARK SMILES IDX 88 47 82 48 81 49 37 51 69 52 49 53 68 54 50 55 53 56 67 57
REMARK SMILES IDX 86 58 51 59 52 60 66 62 87 63 54 64 38 65 39 66 47 67 40 68
REMARK SMILES IDX 46 69 48 70 45 71 41 72 42 73 43 74 44 75 70 76 71 77 79 78
REMARK SMILES IDX 72 79 78 80 80 81 77 82 73 83 74 84 75 85 76 86 55 87 56 88
REMARK SMILES IDX 64 89 57 90 63 91 65 92 62 93 58 94 59 95 60 96 61 97
REMARK H PARENT 21 7 9 17 12 19 26 31 85 50 53 61
REMARK Flexibility Score: inf
ROOT
ATOM      1  C   UNL A   1      31.825  30.217  25.390  1.00  0.00     0.023 C 
ENDROOT
BRANCH   1   2
ATOM      2  C   UNL A   1      32.956  29.274  24.961  1.00  0.00     0.023 C 
BRANCH   2   3
ATOM      3  C   UNL A   1      33.011  28.948  23.471  1.00  0.00     0.116 C 
BRANCH   3   4
ATOM      4  N   UNL A   1      31.745  29.168  22.800  1.00  0.00    -0.352 N 
ATOM      5  C   UNL A   1      30.659  28.346  22.662  1.00  0.00     0.253 C 
ATOM      6  O   UNL A   1      29.793  28.675  21.850  1.00  0.00    -0.269 OA
ATOM      7  H   UNL A   1      31.652  30.051  22.376  1.00  0.00     0.163 HD
BRANCH   5   8
ATOM      8  C   UNL A   1      30.521  27.041  23.369  1.00  0.00     0.063 A 
ATOM      9  C   UNL A   1      30.796  25.762  22.850  1.00  0.00     0.055 A 
ATOM     10  C   UNL A   1      30.452  24.628  23.607  1.00  0.00     0.027 A 
ATOM     11  C   UNL A   1      30.039  24.751  24.935  1.00  0.00     0.002 A 
ATOM     12  C   UNL A   1      30.126  27.144  24.721  1.00  0.00     0.016 A 
ATOM     13  C   UNL A   1      29.919  26.010  25.506  1.00  0.00     0.001 A 
BRANCH   9  14
ATOM     14  N   UNL A   1      31.512  25.474  21.672  1.00  0.00    -0.307 N 
ATOM     15  N   UNL A   1      33.788  25.436  22.327  1.00  0.00    -0.335 N 
ATOM     16  C   UNL A   1      32.833  25.560  21.379  1.00  0.00     0.319 C 
ATOM     17  H   UNL A   1      34.653  25.854  22.113  1.00  0.00     0.165 HD
ATOM     18  O   UNL A   1      33.175  25.653  20.199  1.00  0.00    -0.248 OA
ATOM     19  H   UNL A   1      30.953  25.152  20.928  1.00  0.00     0.171 HD
BRANCH  15  20
ATOM     20  C   UNL A   1      33.716  24.771  23.621  1.00  0.00     0.089 C 
ATOM     21  C   UNL A   1      35.683  23.145  23.280  1.00  0.00     0.013 C 
ATOM     22  C   UNL A   1      34.181  23.285  23.599  1.00  0.00    -0.015 C 
ATOM     23  C   UNL A   1      33.405  22.467  22.545  1.00  0.00     0.013 C 
ATOM     24  C   UNL A   1      33.862  22.695  25.000  1.00  0.00     0.008 C 
ATOM     25  C   UNL A   1      34.430  23.512  26.166  1.00  0.00     0.001 C 
ATOM     26  C   UNL A   1      34.439  25.576  24.706  1.00  0.00     0.025 C 
ATOM     27  C   UNL A   1      34.100  25.000  26.077  1.00  0.00     0.002 C 
ENDBRANCH  15  20
ENDBRANCH   9  14
ENDBRANCH   5   8
ENDBRANCH   3   4
ENDBRANCH   2   3
ENDBRANCH   1   2
BRANCH   1  28
ATOM     28  C   UNL A   1      31.868  30.716  26.834  1.00  0.00     0.116 C 
BRANCH  28  29
ATOM     29  N   UNL A   1      31.951  32.164  26.935  1.00  0.00    -0.352 N 
ATOM     30  C   UNL A   1      32.898  32.974  27.517  1.00  0.00     0.251 C 
ATOM     31  H   UNL A   1      31.203  32.647  26.516  1.00  0.00     0.163 HD
ATOM     32  O   UNL A   1      32.670  34.171  27.651  1.00  0.00    -0.269 OA
BRANCH  30  33
ATOM     33  C   UNL A   1      34.173  32.405  28.010  1.00  0.00     0.039 A 
ATOM     34  C   UNL A   1      35.265  33.255  28.201  1.00  0.00     0.014 A 
ATOM     35  C   UNL A   1      34.307  31.038  28.268  1.00  0.00     0.014 A 
ATOM     36  C   UNL A   1      36.453  32.750  28.734  1.00  0.00     0.010 A 
ATOM     37  C   UNL A   1      35.459  30.553  28.885  1.00  0.00     0.010 A 
ATOM     38  C   UNL A   1      36.545  31.405  29.132  1.00  0.00    -0.014 A 
BRANCH  38  39
ATOM     39  C   UNL A   1      37.758  30.903  29.836  1.00  0.00     0.031 A 
ATOM     40  C   UNL A   1      38.061  31.316  31.251  1.00  0.00     0.074 A 
ATOM     41  C   UNL A   1      38.614  30.097  29.178  1.00  0.00     0.049 A 
ATOM     42  N   UNL A   1      39.055  30.955  32.024  1.00  0.00    -0.248 NA
ATOM     43  C   UNL A   1      37.143  32.283  31.866  1.00  0.00     0.031 C 
ATOM     44  C   UNL A   1      38.465  29.670  27.784  1.00  0.00     0.029 A 
ATOM     45  N   UNL A   1      39.768  29.479  29.589  1.00  0.00    -0.354 N 
ATOM     46  C   UNL A   1      38.882  31.652  33.217  1.00  0.00     0.074 A 
ATOM     47  C   UNL A   1      37.737  32.517  33.026  1.00  0.00     0.031 C 
ATOM     48  C   UNL A   1      39.453  28.816  27.478  1.00  0.00     0.029 A 
ATOM     49  C   UNL A   1      40.333  28.670  28.632  1.00  0.00     0.049 A 
ATOM     50  H   UNL A   1      40.155  29.605  30.486  1.00  0.00     0.167 HD
ATOM     51  C   UNL A   1      39.591  31.556  34.371  1.00  0.00     0.034 A 
ATOM     52  C   UNL A   1      41.431  27.892  28.676  1.00  0.00     0.034 A 
ATOM     53  C   UNL A   1      40.744  30.700  34.537  1.00  0.00     0.049 A 
ATOM     54  C   UNL A   1      42.229  27.832  29.952  1.00  0.00     0.074 A 
ATOM     55  C   UNL A   1      41.509  30.490  35.671  1.00  0.00     0.029 A 
ATOM     56  N   UNL A   1      41.313  29.924  33.532  1.00  0.00    -0.354 N 
ATOM     57  N   UNL A   1      42.014  28.442  31.094  1.00  0.00    -0.248 NA
ATOM     58  C   UNL A   1      43.414  26.966  29.942  1.00  0.00     0.031 C 
ATOM     59  C   UNL A   1      42.585  29.659  35.332  1.00  0.00     0.029 A 
ATOM     60  C   UNL A   1      42.442  29.271  34.009  1.00  0.00     0.049 A 
ATOM     61  H   UNL A   1      40.965  29.849  32.614  1.00  0.00     0.167 HD
ATOM     62  C   UNL A   1      43.026  28.013  31.950  1.00  0.00     0.074 A 
ATOM     63  C   UNL A   1      43.829  27.070  31.195  1.00  0.00     0.031 C 
ATOM     64  C   UNL A   1      43.265  28.361  33.241  1.00  0.00     0.034 A 
BRANCH  51  65
ATOM     65  C   UNL A   1      39.148  32.433  35.524  1.00  0.00     0.023 A 
ATOM     66  C   UNL A   1      39.548  33.779  35.623  1.00  0.00     0.031 A 
ATOM     67  C   UNL A   1      38.371  31.906  36.572  1.00  0.00     0.131 A 
ATOM     68  C   UNL A   1      39.269  34.512  36.787  1.00  0.00     0.055 A 
ATOM     69  C   UNL A   1      38.010  32.675  37.681  1.00  0.00     0.041 A 
ATOM     70  F   UNL A   1      37.971  30.625  36.551  1.00  0.00    -0.206 F 
ATOM     71  C   UNL A   1      38.479  33.979  37.806  1.00  0.00     0.022 A 
BRANCH  68  72
ATOM     72  S   UNL A   1      40.127  36.093  37.036  1.00  0.00     0.124 S 
ATOM     73  O   UNL A   1      39.906  36.754  35.751  1.00  0.00    -0.237 OA
ATOM     74  O   UNL A   1      39.418  36.659  38.177  1.00  0.00    -0.237 OA
ATOM     75  O   UNL A   1      41.510  35.696  37.292  1.00  0.00    -0.744 OA
ENDBRANCH  68  72
ENDBRANCH  51  65
BRANCH  52  76
ATOM     76  C   UNL A   1      41.832  27.090  27.484  1.00  0.00     0.023 A 
ATOM     77  C   UNL A   1      41.616  25.703  27.444  1.00  0.00     0.031 A 
ATOM     78  C   UNL A   1      42.451  27.694  26.376  1.00  0.00     0.131 A 
ATOM     79  C   UNL A   1      42.045  24.960  26.333  1.00  0.00     0.055 A 
ATOM     80  C   UNL A   1      42.829  26.960  25.251  1.00  0.00     0.041 A 
ATOM     81  F   UNL A   1      42.677  29.018  26.363  1.00  0.00    -0.206 F 
ATOM     82  C   UNL A   1      42.635  25.582  25.230  1.00  0.00     0.022 A 
BRANCH  79  83
ATOM     83  S   UNL A   1      41.878  23.155  26.376  1.00  0.00     0.124 S 
ATOM     84  O   UNL A   1      42.528  22.765  25.131  1.00  0.00    -0.237 OA
ATOM     85  O   UNL A   1      42.586  22.813  27.605  1.00  0.00    -0.237 OA
ATOM     86  O   UNL A   1      40.431  22.949  26.417  1.00  0.00    -0.744 OA
ENDBRANCH  79  83
ENDBRANCH  52  76
BRANCH  64  87
ATOM     87  C   UNL A   1      44.442  27.693  33.918  1.00  0.00     0.023 A 
ATOM     88  C   UNL A   1      44.338  26.409  34.483  1.00  0.00     0.031 A 
ATOM     89  C   UNL A   1      45.667  28.371  34.051  1.00  0.00     0.131 A 
ATOM     90  C   UNL A   1      45.403  25.883  35.231  1.00  0.00     0.055 A 
ATOM     91  C   UNL A   1      46.752  27.808  34.725  1.00  0.00     0.041 A 
ATOM     92  F   UNL A   1      45.828  29.602  33.540  1.00  0.00    -0.206 F 
ATOM     93  C   UNL A   1      46.617  26.565  35.338  1.00  0.00     0.022 A 
BRANCH  90  94
ATOM     94  S   UNL A   1      45.127  24.365  36.186  1.00  0.00     0.124 S 
ATOM     95  O   UNL A   1      45.889  23.385  35.422  1.00  0.00    -0.237 OA
ATOM     96  O   UNL A   1      45.671  24.718  37.494  1.00  0.00    -0.237 OA
ATOM     97  O   UNL A   1      43.676  24.193  36.144  1.00  0.00    -0.744 OA
ENDBRANCH  90  94
ENDBRANCH  64  87
ENDBRANCH  38  39
ENDBRANCH  30  33
ENDBRANCH  28  29
ENDBRANCH   1  28
TORSDOF 16
ENDMDL
