MODEL 1
REMARK VINA RESULT:     -12.3      0.000      0.000
REMARK SMILES Cc1ccc(F)cc1NC(=O)c1nn(C)cc1C(=O)NCCCCNC(=O)c1ccc(-c2c3nc(c(-c4cc(S(=O)(=O)[O-])ccc4F)c4ccc([nH]4)c(-c4cc(S(=O)(=O)[O-])ccc4F)c4nc(c(-c5cc(S(=O)(=O)[O-])ccc5F)c5ccc2[nH]5)C=C4)C=C3)cc1
REMARK SMILES IDX 23 1 22 2 21 3 20 4 18 5 19 6 17 8 12 9 13 10 14 11 16 12
REMARK SMILES IDX 15 13 10 14 9 15 11 17 8 18 1 19 2 20 3 21 4 22 7 23 5 24
REMARK SMILES IDX 6 25 24 26 25 27 26 28 27 30 28 31 29 32 90 33 30 34 89 35
REMARK SMILES IDX 31 36 32 37 33 38 83 39 34 40 88 41 82 42 84 43 35 44 87 45
REMARK SMILES IDX 81 46 80 47 36 49 68 50 48 51 67 52 49 53 52 54 66 55 85 56
REMARK SMILES IDX 50 57 51 58 65 60 86 61 53 62 37 63 38 64 46 65 39 66 45 67
REMARK SMILES IDX 47 68 44 69 40 70 41 71 42 72 43 73 69 74 70 75 78 76 71 77
REMARK SMILES IDX 77 78 79 79 76 80 72 81 73 82 74 83 75 84 54 85 55 86 63 87
REMARK SMILES IDX 56 88 62 89 64 90 61 91 57 92 58 93 59 94 60 95
REMARK H PARENT 20 7 9 16 25 29 84 48 52 59
REMARK Flexibility Score: inf
ROOT
ATOM      1  C   UNL A   1      31.473  29.480  27.060  1.00  0.00     0.023 C 
ENDROOT
BRANCH   1   2
ATOM      2  C   UNL A   1      32.022  28.119  27.472  1.00  0.00     0.023 C 
BRANCH   2   3
ATOM      3  C   UNL A   1      31.970  27.023  26.412  1.00  0.00     0.116 C 
BRANCH   3   4
ATOM      4  N   UNL A   1      31.407  25.767  26.877  1.00  0.00    -0.352 N 
ATOM      5  C   UNL A   1      31.774  24.457  26.676  1.00  0.00     0.255 C 
ATOM      6  O   UNL A   1      31.093  23.585  27.226  1.00  0.00    -0.269 OA
ATOM      7  H   UNL A   1      30.610  25.873  27.446  1.00  0.00     0.163 HD
BRANCH   5   8
ATOM      8  C   UNL A   1      32.882  24.100  25.808  1.00  0.00     0.090 A 
ATOM      9  C   UNL A   1      32.817  23.817  24.398  1.00  0.00     0.163 A 
ATOM     10  N   UNL A   1      34.047  23.593  23.889  1.00  0.00    -0.167 NA
ATOM     11  N   UNL A   1      34.863  23.691  24.942  1.00  0.00    -0.274 N 
ATOM     12  C   UNL A   1      34.211  23.874  26.120  1.00  0.00     0.123 A 
ATOM     13  C   UNL A   1      36.291  23.644  24.744  1.00  0.00     0.173 C 
BRANCH   9  14
ATOM     14  C   UNL A   1      31.643  23.739  23.521  1.00  0.00     0.277 C 
ATOM     15  N   UNL A   1      31.100  24.858  22.922  1.00  0.00    -0.320 N 
ATOM     16  H   UNL A   1      30.250  24.677  22.462  1.00  0.00     0.170 HD
ATOM     17  O   UNL A   1      31.085  22.660  23.296  1.00  0.00    -0.267 OA
BRANCH  15  18
ATOM     18  C   UNL A   1      31.505  26.202  22.833  1.00  0.00     0.047 A 
ATOM     19  C   UNL A   1      29.167  27.005  23.608  1.00  0.00     0.046 C 
ATOM     20  C   UNL A   1      30.610  27.224  23.226  1.00  0.00    -0.027 A 
ATOM     21  C   UNL A   1      31.059  28.561  23.259  1.00  0.00     0.008 A 
ATOM     22  C   UNL A   1      32.352  28.892  22.868  1.00  0.00     0.039 A 
ATOM     23  C   UNL A   1      32.768  26.568  22.356  1.00  0.00     0.065 A 
ATOM     24  C   UNL A   1      33.183  27.895  22.391  1.00  0.00     0.125 A 
ATOM     25  F   UNL A   1      34.411  28.208  21.957  1.00  0.00    -0.207 F 
ENDBRANCH  15  18
ENDBRANCH   9  14
ENDBRANCH   5   8
ENDBRANCH   3   4
ENDBRANCH   2   3
ENDBRANCH   1   2
BRANCH   1  26
ATOM     26  C   UNL A   1      32.491  30.456  26.484  1.00  0.00     0.116 C 
BRANCH  26  27
ATOM     27  N   UNL A   1      32.245  31.846  26.846  1.00  0.00    -0.352 N 
ATOM     28  C   UNL A   1      33.058  32.700  27.560  1.00  0.00     0.251 C 
ATOM     29  H   UNL A   1      31.388  32.223  26.541  1.00  0.00     0.163 HD
ATOM     30  O   UNL A   1      32.670  33.826  27.852  1.00  0.00    -0.269 OA
BRANCH  28  31
ATOM     31  C   UNL A   1      34.382  32.218  28.004  1.00  0.00     0.039 A 
ATOM     32  C   UNL A   1      35.466  33.099  27.999  1.00  0.00     0.014 A 
ATOM     33  C   UNL A   1      34.522  30.924  28.510  1.00  0.00     0.014 A 
ATOM     34  C   UNL A   1      36.672  32.711  28.592  1.00  0.00     0.010 A 
ATOM     35  C   UNL A   1      35.696  30.570  29.165  1.00  0.00     0.010 A 
ATOM     36  C   UNL A   1      36.780  31.463  29.224  1.00  0.00    -0.014 A 
BRANCH  36  37
ATOM     37  C   UNL A   1      38.008  31.042  29.952  1.00  0.00     0.031 A 
ATOM     38  C   UNL A   1      38.923  30.030  29.315  1.00  0.00     0.074 A 
ATOM     39  C   UNL A   1      38.233  31.466  31.213  1.00  0.00     0.049 A 
ATOM     40  N   UNL A   1      39.912  29.359  29.844  1.00  0.00    -0.248 NA
ATOM     41  C   UNL A   1      38.659  29.701  27.905  1.00  0.00     0.031 C 
ATOM     42  C   UNL A   1      37.408  32.428  31.945  1.00  0.00     0.029 A 
ATOM     43  N   UNL A   1      39.210  31.119  32.115  1.00  0.00    -0.354 N 
ATOM     44  C   UNL A   1      40.359  28.497  28.848  1.00  0.00     0.074 A 
ATOM     45  C   UNL A   1      39.511  28.709  27.694  1.00  0.00     0.031 C 
ATOM     46  C   UNL A   1      37.912  32.594  33.179  1.00  0.00     0.029 A 
ATOM     47  C   UNL A   1      39.059  31.709  33.352  1.00  0.00     0.049 A 
ATOM     48  H   UNL A   1      39.949  30.505  31.899  1.00  0.00     0.167 HD
ATOM     49  C   UNL A   1      41.389  27.619  28.891  1.00  0.00     0.034 A 
ATOM     50  C   UNL A   1      39.747  31.532  34.500  1.00  0.00     0.034 A 
ATOM     51  C   UNL A   1      42.254  27.457  30.030  1.00  0.00     0.049 A 
ATOM     52  C   UNL A   1      40.893  30.546  34.517  1.00  0.00     0.074 A 
ATOM     53  C   UNL A   1      43.376  26.656  30.149  1.00  0.00     0.029 A 
ATOM     54  N   UNL A   1      42.097  28.108  31.246  1.00  0.00    -0.354 N 
ATOM     55  N   UNL A   1      41.331  29.773  33.550  1.00  0.00    -0.248 NA
ATOM     56  C   UNL A   1      41.642  30.411  35.775  1.00  0.00     0.031 C 
ATOM     57  C   UNL A   1      43.860  26.772  31.456  1.00  0.00     0.029 A 
ATOM     58  C   UNL A   1      43.088  27.706  32.127  1.00  0.00     0.049 A 
ATOM     59  H   UNL A   1      41.389  28.759  31.451  1.00  0.00     0.167 HD
ATOM     60  C   UNL A   1      42.435  29.102  34.071  1.00  0.00     0.074 A 
ATOM     61  C   UNL A   1      42.597  29.558  35.434  1.00  0.00     0.031 C 
ATOM     62  C   UNL A   1      43.248  28.195  33.474  1.00  0.00     0.034 A 
BRANCH  49  63
ATOM     63  C   UNL A   1      41.623  26.746  27.684  1.00  0.00     0.023 A 
ATOM     64  C   UNL A   1      41.233  25.396  27.656  1.00  0.00     0.031 A 
ATOM     65  C   UNL A   1      42.236  27.282  26.537  1.00  0.00     0.131 A 
ATOM     66  C   UNL A   1      41.508  24.615  26.524  1.00  0.00     0.055 A 
ATOM     67  C   UNL A   1      42.438  26.518  25.387  1.00  0.00     0.041 A 
ATOM     68  F   UNL A   1      42.648  28.559  26.517  1.00  0.00    -0.206 F 
ATOM     69  C   UNL A   1      42.083  25.173  25.379  1.00  0.00     0.022 A 
BRANCH  66  70
ATOM     70  S   UNL A   1      41.196  22.831  26.607  1.00  0.00     0.124 S 
ATOM     71  O   UNL A   1      39.742  22.780  26.471  1.00  0.00    -0.237 OA
ATOM     72  O   UNL A   1      41.961  22.322  25.476  1.00  0.00    -0.237 OA
ATOM     73  O   UNL A   1      41.706  22.455  27.925  1.00  0.00    -0.744 OA
ENDBRANCH  66  70
ENDBRANCH  49  63
BRANCH  50  74
ATOM     74  C   UNL A   1      39.369  32.267  35.745  1.00  0.00     0.023 A 
ATOM     75  C   UNL A   1      38.642  31.631  36.764  1.00  0.00     0.031 A 
ATOM     76  C   UNL A   1      39.650  33.637  35.896  1.00  0.00     0.131 A 
ATOM     77  C   UNL A   1      38.157  32.377  37.851  1.00  0.00     0.055 A 
ATOM     78  C   UNL A   1      39.222  34.360  37.012  1.00  0.00     0.041 A 
ATOM     79  F   UNL A   1      40.344  34.297  34.956  1.00  0.00    -0.206 F 
ATOM     80  C   UNL A   1      38.453  33.734  37.988  1.00  0.00     0.022 A 
BRANCH  77  81
ATOM     81  S   UNL A   1      37.015  31.575  39.011  1.00  0.00     0.124 S 
ATOM     82  O   UNL A   1      35.825  32.407  38.876  1.00  0.00    -0.237 OA
ATOM     83  O   UNL A   1      36.923  30.228  38.459  1.00  0.00    -0.237 OA
ATOM     84  O   UNL A   1      37.707  31.677  40.293  1.00  0.00    -0.744 OA
ENDBRANCH  77  81
ENDBRANCH  50  74
BRANCH  62  85
ATOM     85  C   UNL A   1      44.439  27.705  34.257  1.00  0.00     0.023 A 
ATOM     86  C   UNL A   1      44.408  26.511  34.995  1.00  0.00     0.031 A 
ATOM     87  C   UNL A   1      45.639  28.439  34.227  1.00  0.00     0.131 A 
ATOM     88  C   UNL A   1      45.549  26.101  35.703  1.00  0.00     0.055 A 
ATOM     89  C   UNL A   1      46.785  28.000  34.889  1.00  0.00     0.041 A 
ATOM     90  F   UNL A   1      45.721  29.586  33.535  1.00  0.00    -0.206 F 
ATOM     91  C   UNL A   1      46.741  26.829  35.639  1.00  0.00     0.022 A 
BRANCH  88  92
ATOM     92  S   UNL A   1      45.443  24.626  36.752  1.00  0.00     0.124 S 
ATOM     93  O   UNL A   1      45.431  25.206  38.091  1.00  0.00    -0.237 OA
ATOM     94  O   UNL A   1      44.193  24.016  36.310  1.00  0.00    -0.237 OA
ATOM     95  O   UNL A   1      46.650  23.875  36.411  1.00  0.00    -0.744 OA
ENDBRANCH  88  92
ENDBRANCH  62  85
ENDBRANCH  36  37
ENDBRANCH  28  31
ENDBRANCH  26  27
ENDBRANCH   1  26
TORSDOF 16
ENDMDL
MODEL 2
REMARK VINA RESULT:     -12.2      5.154     10.010
REMARK SMILES Cc1ccc(F)cc1NC(=O)c1nn(C)cc1C(=O)NCCCCNC(=O)c1ccc(-c2c3nc(c(-c4cc(S(=O)(=O)[O-])ccc4F)c4ccc([nH]4)c(-c4cc(S(=O)(=O)[O-])ccc4F)c4nc(c(-c5cc(S(=O)(=O)[O-])ccc5F)c5ccc2[nH]5)C=C4)C=C3)cc1
REMARK SMILES IDX 23 1 22 2 21 3 20 4 18 5 19 6 17 8 12 9 13 10 14 11 16 12
REMARK SMILES IDX 15 13 10 14 9 15 11 17 8 18 1 19 2 20 3 21 4 22 7 23 5 24
REMARK SMILES IDX 6 25 24 26 25 27 26 28 27 30 28 31 29 32 90 33 30 34 89 35
REMARK SMILES IDX 31 36 32 37 33 38 83 39 34 40 88 41 82 42 84 43 35 44 87 45
REMARK SMILES IDX 81 46 80 47 36 49 68 50 48 51 67 52 49 53 52 54 66 55 85 56
REMARK SMILES IDX 50 57 51 58 65 60 86 61 53 62 37 63 38 64 46 65 39 66 45 67
REMARK SMILES IDX 47 68 44 69 40 70 41 71 42 72 43 73 69 74 70 75 78 76 71 77
REMARK SMILES IDX 77 78 79 79 76 80 72 81 73 82 74 83 75 84 54 85 55 86 63 87
REMARK SMILES IDX 56 88 62 89 64 90 61 91 57 92 58 93 59 94 60 95
REMARK H PARENT 20 7 9 16 25 29 84 48 52 59
REMARK Flexibility Score: inf
ROOT
ATOM      1  C   UNL A   1      35.277  21.858  25.991  1.00  0.00     0.023 C 
ENDROOT
BRANCH   1   2
ATOM      2  C   UNL A   1      34.625  22.867  26.929  1.00  0.00     0.023 C 
BRANCH   2   3
ATOM      3  C   UNL A   1      33.673  23.869  26.283  1.00  0.00     0.116 C 
BRANCH   3   4
ATOM      4  N   UNL A   1      32.292  23.746  26.715  1.00  0.00    -0.352 N 
ATOM      5  C   UNL A   1      31.228  24.617  26.678  1.00  0.00     0.255 C 
ATOM      6  O   UNL A   1      30.147  24.214  27.117  1.00  0.00    -0.269 OA
ATOM      7  H   UNL A   1      32.073  22.870  27.110  1.00  0.00     0.163 HD
BRANCH   5   8
ATOM      8  C   UNL A   1      31.375  25.980  26.195  1.00  0.00     0.090 A 
ATOM      9  C   UNL A   1      30.646  26.596  25.118  1.00  0.00     0.163 A 
ATOM     10  N   UNL A   1      30.981  27.897  24.985  1.00  0.00    -0.167 NA
ATOM     11  N   UNL A   1      31.917  28.094  25.917  1.00  0.00    -0.274 N 
ATOM     12  C   UNL A   1      32.269  26.962  26.581  1.00  0.00     0.123 A 
ATOM     13  C   UNL A   1      32.414  29.426  26.157  1.00  0.00     0.173 C 
BRANCH   9  14
ATOM     14  C   UNL A   1      29.659  26.002  24.207  1.00  0.00     0.277 C 
ATOM     15  N   UNL A   1      30.003  25.031  23.288  1.00  0.00    -0.320 N 
ATOM     16  H   UNL A   1      29.274  24.812  22.665  1.00  0.00     0.170 HD
ATOM     17  O   UNL A   1      28.479  26.365  24.221  1.00  0.00    -0.267 OA
BRANCH  15  18
ATOM     18  C   UNL A   1      31.175  24.290  23.054  1.00  0.00     0.047 A 
ATOM     19  C   UNL A   1      32.262  26.305  21.843  1.00  0.00     0.046 C 
ATOM     20  C   UNL A   1      32.278  24.915  22.428  1.00  0.00    -0.027 A 
ATOM     21  C   UNL A   1      33.496  24.212  22.311  1.00  0.00     0.008 A 
ATOM     22  C   UNL A   1      33.612  22.900  22.758  1.00  0.00     0.039 A 
ATOM     23  C   UNL A   1      31.286  22.942  23.411  1.00  0.00     0.065 A 
ATOM     24  C   UNL A   1      32.496  22.269  23.276  1.00  0.00     0.125 A 
ATOM     25  F   UNL A   1      32.579  20.988  23.658  1.00  0.00    -0.207 F 
ENDBRANCH  15  18
ENDBRANCH   9  14
ENDBRANCH   5   8
ENDBRANCH   3   4
ENDBRANCH   2   3
ENDBRANCH   1   2
BRANCH   1  26
ATOM     26  C   UNL A   1      36.655  22.240  25.465  1.00  0.00     0.116 C 
BRANCH  26  27
ATOM     27  N   UNL A   1      37.604  21.134  25.442  1.00  0.00    -0.352 N 
ATOM     28  C   UNL A   1      38.906  21.115  25.894  1.00  0.00     0.251 C 
ATOM     29  H   UNL A   1      37.272  20.292  25.053  1.00  0.00     0.163 HD
ATOM     30  O   UNL A   1      39.606  20.121  25.729  1.00  0.00    -0.269 OA
BRANCH  28  31
ATOM     31  C   UNL A   1      39.455  22.327  26.537  1.00  0.00     0.039 A 
ATOM     32  C   UNL A   1      40.437  22.193  27.521  1.00  0.00     0.014 A 
ATOM     33  C   UNL A   1      39.060  23.592  26.096  1.00  0.00     0.014 A 
ATOM     34  C   UNL A   1      41.095  23.331  27.997  1.00  0.00     0.010 A 
ATOM     35  C   UNL A   1      39.767  24.713  26.515  1.00  0.00     0.010 A 
ATOM     36  C   UNL A   1      40.800  24.595  27.462  1.00  0.00    -0.014 A 
BRANCH  36  37
ATOM     37  C   UNL A   1      41.537  25.823  27.865  1.00  0.00     0.031 A 
ATOM     38  C   UNL A   1      40.802  26.903  28.613  1.00  0.00     0.074 A 
ATOM     39  C   UNL A   1      42.809  26.019  27.461  1.00  0.00     0.049 A 
ATOM     40  N   UNL A   1      41.169  28.131  28.868  1.00  0.00    -0.248 NA
ATOM     41  C   UNL A   1      39.456  26.564  29.101  1.00  0.00     0.031 C 
ATOM     42  C   UNL A   1      43.620  25.056  26.712  1.00  0.00     0.029 A 
ATOM     43  N   UNL A   1      43.636  27.108  27.595  1.00  0.00    -0.354 N 
ATOM     44  C   UNL A   1      40.085  28.725  29.505  1.00  0.00     0.074 A 
ATOM     45  C   UNL A   1      39.036  27.731  29.568  1.00  0.00     0.031 C 
ATOM     46  C   UNL A   1      44.823  25.596  26.457  1.00  0.00     0.029 A 
ATOM     47  C   UNL A   1      44.855  26.963  26.967  1.00  0.00     0.049 A 
ATOM     48  H   UNL A   1      43.382  27.918  28.095  1.00  0.00     0.167 HD
ATOM     49  C   UNL A   1      39.981  29.982  30.000  1.00  0.00     0.034 A 
ATOM     50  C   UNL A   1      45.865  27.842  26.795  1.00  0.00     0.034 A 
ATOM     51  C   UNL A   1      41.053  30.942  29.974  1.00  0.00     0.049 A 
ATOM     52  C   UNL A   1      45.722  29.236  27.361  1.00  0.00     0.074 A 
ATOM     53  C   UNL A   1      41.081  32.213  30.520  1.00  0.00     0.029 A 
ATOM     54  N   UNL A   1      42.287  30.740  29.371  1.00  0.00    -0.354 N 
ATOM     55  N   UNL A   1      44.704  29.766  28.002  1.00  0.00    -0.248 NA
ATOM     56  C   UNL A   1      46.859  30.151  27.187  1.00  0.00     0.031 C 
ATOM     57  C   UNL A   1      42.305  32.803  30.194  1.00  0.00     0.029 A 
ATOM     58  C   UNL A   1      43.072  31.872  29.511  1.00  0.00     0.049 A 
ATOM     59  H   UNL A   1      42.563  29.914  28.912  1.00  0.00     0.167 HD
ATOM     60  C   UNL A   1      45.104  31.054  28.349  1.00  0.00     0.074 A 
ATOM     61  C   UNL A   1      46.450  31.224  27.848  1.00  0.00     0.031 C 
ATOM     62  C   UNL A   1      44.423  32.010  29.028  1.00  0.00     0.034 A 
BRANCH  49  63
ATOM     63  C   UNL A   1      38.658  30.401  30.588  1.00  0.00     0.023 A 
ATOM     64  C   UNL A   1      37.650  30.989  29.807  1.00  0.00     0.031 A 
ATOM     65  C   UNL A   1      38.399  30.194  31.955  1.00  0.00     0.131 A 
ATOM     66  C   UNL A   1      36.450  31.398  30.408  1.00  0.00     0.055 A 
ATOM     67  C   UNL A   1      37.175  30.534  32.532  1.00  0.00     0.041 A 
ATOM     68  F   UNL A   1      39.335  29.656  32.753  1.00  0.00    -0.206 F 
ATOM     69  C   UNL A   1      36.195  31.150  31.759  1.00  0.00     0.022 A 
BRANCH  66  70
ATOM     70  S   UNL A   1      35.268  32.353  29.420  1.00  0.00     0.124 S 
ATOM     71  O   UNL A   1      36.126  33.396  28.862  1.00  0.00    -0.237 OA
ATOM     72  O   UNL A   1      34.771  31.362  28.474  1.00  0.00    -0.237 OA
ATOM     73  O   UNL A   1      34.293  32.817  30.406  1.00  0.00    -0.744 OA
ENDBRANCH  66  70
ENDBRANCH  49  63
BRANCH  50  74
ATOM     74  C   UNL A   1      47.093  27.463  26.032  1.00  0.00     0.023 A 
ATOM     75  C   UNL A   1      47.252  27.841  24.689  1.00  0.00     0.031 A 
ATOM     76  C   UNL A   1      48.083  26.644  26.604  1.00  0.00     0.131 A 
ATOM     77  C   UNL A   1      48.331  27.342  23.942  1.00  0.00     0.055 A 
ATOM     78  C   UNL A   1      49.191  26.204  25.876  1.00  0.00     0.041 A 
ATOM     79  F   UNL A   1      47.985  26.252  27.885  1.00  0.00    -0.206 F 
ATOM     80  C   UNL A   1      49.308  26.537  24.530  1.00  0.00     0.022 A 
BRANCH  77  81
ATOM     81  S   UNL A   1      48.363  27.650  22.154  1.00  0.00     0.124 S 
ATOM     82  O   UNL A   1      49.494  28.563  22.032  1.00  0.00    -0.237 OA
ATOM     83  O   UNL A   1      48.561  26.306  21.622  1.00  0.00    -0.237 OA
ATOM     84  O   UNL A   1      47.053  28.239  21.888  1.00  0.00    -0.744 OA
ENDBRANCH  77  81
ENDBRANCH  50  74
BRANCH  62  85
ATOM     85  C   UNL A   1      45.152  33.289  29.351  1.00  0.00     0.023 A 
ATOM     86  C   UNL A   1      45.134  34.398  28.490  1.00  0.00     0.031 A 
ATOM     87  C   UNL A   1      45.848  33.404  30.569  1.00  0.00     0.131 A 
ATOM     88  C   UNL A   1      45.828  35.566  28.844  1.00  0.00     0.055 A 
ATOM     89  C   UNL A   1      46.493  34.583  30.939  1.00  0.00     0.041 A 
ATOM     90  F   UNL A   1      45.896  32.372  31.427  1.00  0.00    -0.206 F 
ATOM     91  C   UNL A   1      46.491  35.671  30.070  1.00  0.00     0.022 A 
BRANCH  88  92
ATOM     92  S   UNL A   1      45.896  36.935  27.657  1.00  0.00     0.124 S 
ATOM     93  O   UNL A   1      44.492  37.093  27.295  1.00  0.00    -0.237 OA
ATOM     94  O   UNL A   1      46.475  38.011  28.452  1.00  0.00    -0.237 OA
ATOM     95  O   UNL A   1      46.758  36.422  26.592  1.00  0.00    -0.744 OA
ENDBRANCH  88  92
ENDBRANCH  62  85
ENDBRANCH  36  37
ENDBRANCH  28  31
ENDBRANCH  26  27
ENDBRANCH   1  26
TORSDOF 16
ENDMDL
MODEL 3
REMARK VINA RESULT:     -12.2      5.225      9.923
REMARK SMILES Cc1ccc(F)cc1NC(=O)c1nn(C)cc1C(=O)NCCCCNC(=O)c1ccc(-c2c3nc(c(-c4cc(S(=O)(=O)[O-])ccc4F)c4ccc([nH]4)c(-c4cc(S(=O)(=O)[O-])ccc4F)c4nc(c(-c5cc(S(=O)(=O)[O-])ccc5F)c5ccc2[nH]5)C=C4)C=C3)cc1
REMARK SMILES IDX 23 1 22 2 21 3 20 4 18 5 19 6 17 8 12 9 13 10 14 11 16 12
REMARK SMILES IDX 15 13 10 14 9 15 11 17 8 18 1 19 2 20 3 21 4 22 7 23 5 24
REMARK SMILES IDX 6 25 24 26 25 27 26 28 27 30 28 31 29 32 90 33 30 34 89 35
REMARK SMILES IDX 31 36 32 37 33 38 83 39 34 40 88 41 82 42 84 43 35 44 87 45
REMARK SMILES IDX 81 46 80 47 36 49 68 50 48 51 67 52 49 53 52 54 66 55 85 56
REMARK SMILES IDX 50 57 51 58 65 60 86 61 53 62 37 63 38 64 46 65 39 66 45 67
REMARK SMILES IDX 47 68 44 69 40 70 41 71 42 72 43 73 69 74 70 75 78 76 71 77
REMARK SMILES IDX 77 78 79 79 76 80 72 81 73 82 74 83 75 84 54 85 55 86 63 87
REMARK SMILES IDX 56 88 62 89 64 90 61 91 57 92 58 93 59 94 60 95
REMARK H PARENT 20 7 9 16 25 29 84 48 52 59
REMARK Flexibility Score: inf
ROOT
ATOM      1  C   UNL A   1      35.597  23.457  24.900  1.00  0.00     0.023 C 
ENDROOT
BRANCH   1   2
ATOM      2  C   UNL A   1      34.103  23.757  24.952  1.00  0.00     0.023 C 
BRANCH   2   3
ATOM      3  C   UNL A   1      33.681  24.930  25.831  1.00  0.00     0.116 C 
BRANCH   3   4
ATOM      4  N   UNL A   1      32.268  24.949  26.167  1.00  0.00    -0.352 N 
ATOM      5  C   UNL A   1      31.350  25.970  26.255  1.00  0.00     0.255 C 
ATOM      6  O   UNL A   1      30.191  25.668  26.556  1.00  0.00    -0.269 OA
ATOM      7  H   UNL A   1      31.894  24.061  26.369  1.00  0.00     0.163 HD
BRANCH   5   8
ATOM      8  C   UNL A   1      31.732  27.357  26.059  1.00  0.00     0.090 A 
ATOM      9  C   UNL A   1      31.993  28.011  24.804  1.00  0.00     0.163 A 
ATOM     10  N   UNL A   1      32.250  29.324  24.983  1.00  0.00    -0.167 NA
ATOM     11  N   UNL A   1      32.194  29.494  26.307  1.00  0.00    -0.274 N 
ATOM     12  C   UNL A   1      32.006  28.338  26.996  1.00  0.00     0.123 A 
ATOM     13  C   UNL A   1      32.286  30.823  26.859  1.00  0.00     0.173 C 
BRANCH   9  14
ATOM     14  C   UNL A   1      32.020  27.444  23.451  1.00  0.00     0.277 C 
ATOM     15  N   UNL A   1      31.017  27.687  22.534  1.00  0.00    -0.320 N 
ATOM     16  H   UNL A   1      31.103  27.150  21.714  1.00  0.00     0.170 HD
ATOM     17  O   UNL A   1      32.944  26.710  23.085  1.00  0.00    -0.267 OA
BRANCH  15  18
ATOM     18  C   UNL A   1      29.898  28.539  22.525  1.00  0.00     0.047 A 
ATOM     19  C   UNL A   1      28.460  26.738  23.709  1.00  0.00     0.046 C 
ATOM     20  C   UNL A   1      28.700  28.117  23.146  1.00  0.00    -0.027 A 
ATOM     21  C   UNL A   1      27.621  29.020  23.251  1.00  0.00     0.008 A 
ATOM     22  C   UNL A   1      27.703  30.301  22.713  1.00  0.00     0.039 A 
ATOM     23  C   UNL A   1      29.924  29.796  21.911  1.00  0.00     0.065 A 
ATOM     24  C   UNL A   1      28.843  30.663  22.022  1.00  0.00     0.125 A 
ATOM     25  F   UNL A   1      28.913  31.872  21.450  1.00  0.00    -0.207 F 
ENDBRANCH  15  18
ENDBRANCH   9  14
ENDBRANCH   5   8
ENDBRANCH   3   4
ENDBRANCH   2   3
ENDBRANCH   1   2
BRANCH   1  26
ATOM     26  C   UNL A   1      36.154  22.676  26.084  1.00  0.00     0.116 C 
BRANCH  26  27
ATOM     27  N   UNL A   1      37.116  21.648  25.711  1.00  0.00    -0.352 N 
ATOM     28  C   UNL A   1      38.485  21.660  25.870  1.00  0.00     0.251 C 
ATOM     29  H   UNL A   1      36.740  20.841  25.290  1.00  0.00     0.163 HD
ATOM     30  O   UNL A   1      39.170  20.743  25.427  1.00  0.00    -0.269 OA
BRANCH  28  31
ATOM     31  C   UNL A   1      39.114  22.817  26.541  1.00  0.00     0.039 A 
ATOM     32  C   UNL A   1      40.116  22.595  27.489  1.00  0.00     0.014 A 
ATOM     33  C   UNL A   1      38.773  24.116  26.160  1.00  0.00     0.014 A 
ATOM     34  C   UNL A   1      40.845  23.679  27.987  1.00  0.00     0.010 A 
ATOM     35  C   UNL A   1      39.549  25.183  26.600  1.00  0.00     0.010 A 
ATOM     36  C   UNL A   1      40.602  24.975  27.509  1.00  0.00    -0.014 A 
BRANCH  36  37
ATOM     37  C   UNL A   1      41.412  26.148  27.935  1.00  0.00     0.031 A 
ATOM     38  C   UNL A   1      40.736  27.276  28.669  1.00  0.00     0.074 A 
ATOM     39  C   UNL A   1      42.705  26.255  27.563  1.00  0.00     0.049 A 
ATOM     40  N   UNL A   1      41.182  28.474  28.937  1.00  0.00    -0.248 NA
ATOM     41  C   UNL A   1      39.358  27.031  29.122  1.00  0.00     0.031 C 
ATOM     42  C   UNL A   1      43.465  25.240  26.831  1.00  0.00     0.029 A 
ATOM     43  N   UNL A   1      43.602  27.284  27.723  1.00  0.00    -0.354 N 
ATOM     44  C   UNL A   1      40.126  29.142  29.550  1.00  0.00     0.074 A 
ATOM     45  C   UNL A   1      39.008  28.223  29.583  1.00  0.00     0.031 C 
ATOM     46  C   UNL A   1      44.709  25.695  26.608  1.00  0.00     0.029 A 
ATOM     47  C   UNL A   1      44.823  27.055  27.125  1.00  0.00     0.049 A 
ATOM     48  H   UNL A   1      43.393  28.108  28.219  1.00  0.00     0.167 HD
ATOM     49  C   UNL A   1      40.098  30.401  30.047  1.00  0.00     0.034 A 
ATOM     50  C   UNL A   1      45.896  27.861  26.981  1.00  0.00     0.034 A 
ATOM     51  C   UNL A   1      41.235  31.284  30.051  1.00  0.00     0.049 A 
ATOM     52  C   UNL A   1      45.837  29.261  27.548  1.00  0.00     0.074 A 
ATOM     53  C   UNL A   1      41.338  32.548  30.603  1.00  0.00     0.029 A 
ATOM     54  N   UNL A   1      42.467  30.997  29.478  1.00  0.00    -0.354 N 
ATOM     55  N   UNL A   1      44.843  29.859  28.166  1.00  0.00    -0.248 NA
ATOM     56  C   UNL A   1      47.039  30.094  27.407  1.00  0.00     0.031 C 
ATOM     57  C   UNL A   1      42.609  33.052  30.310  1.00  0.00     0.029 A 
ATOM     58  C   UNL A   1      43.325  32.071  29.643  1.00  0.00     0.049 A 
ATOM     59  H   UNL A   1      42.696  30.155  29.024  1.00  0.00     0.167 HD
ATOM     60  C   UNL A   1      45.324  31.115  28.529  1.00  0.00     0.074 A 
ATOM     61  C   UNL A   1      46.690  31.191  28.062  1.00  0.00     0.031 C 
ATOM     62  C   UNL A   1      44.695  32.115  29.194  1.00  0.00     0.034 A 
BRANCH  49  63
ATOM     63  C   UNL A   1      38.793  30.911  30.604  1.00  0.00     0.023 A 
ATOM     64  C   UNL A   1      37.815  31.501  29.786  1.00  0.00     0.031 A 
ATOM     65  C   UNL A   1      38.521  30.790  31.978  1.00  0.00     0.131 A 
ATOM     66  C   UNL A   1      36.634  31.995  30.357  1.00  0.00     0.055 A 
ATOM     67  C   UNL A   1      37.311  31.216  32.529  1.00  0.00     0.041 A 
ATOM     68  F   UNL A   1      39.428  30.254  32.810  1.00  0.00    -0.206 F 
ATOM     69  C   UNL A   1      36.363  31.832  31.718  1.00  0.00     0.022 A 
BRANCH  66  70
ATOM     70  S   UNL A   1      35.499  32.947  29.312  1.00  0.00     0.124 S 
ATOM     71  O   UNL A   1      35.475  32.140  28.094  1.00  0.00    -0.237 OA
ATOM     72  O   UNL A   1      34.272  32.951  30.099  1.00  0.00    -0.237 OA
ATOM     73  O   UNL A   1      36.160  34.244  29.180  1.00  0.00    -0.744 OA
ENDBRANCH  66  70
ENDBRANCH  49  63
BRANCH  50  74
ATOM     74  C   UNL A   1      47.113  27.399  26.247  1.00  0.00     0.023 A 
ATOM     75  C   UNL A   1      47.350  27.797  24.922  1.00  0.00     0.031 A 
ATOM     76  C   UNL A   1      48.010  26.484  26.828  1.00  0.00     0.131 A 
ATOM     77  C   UNL A   1      48.408  27.227  24.196  1.00  0.00     0.055 A 
ATOM     78  C   UNL A   1      49.102  25.970  26.122  1.00  0.00     0.041 A 
ATOM     79  F   UNL A   1      47.837  26.069  28.093  1.00  0.00    -0.206 F 
ATOM     80  C   UNL A   1      49.293  26.326  24.792  1.00  0.00     0.022 A 
BRANCH  77  81
ATOM     81  S   UNL A   1      48.527  27.576  22.419  1.00  0.00     0.124 S 
ATOM     82  O   UNL A   1      47.295  28.319  22.182  1.00  0.00    -0.237 OA
ATOM     83  O   UNL A   1      49.765  28.344  22.347  1.00  0.00    -0.237 OA
ATOM     84  O   UNL A   1      48.582  26.248  21.815  1.00  0.00    -0.744 OA
ENDBRANCH  77  81
ENDBRANCH  50  74
BRANCH  62  85
ATOM     85  C   UNL A   1      45.503  33.339  29.540  1.00  0.00     0.023 A 
ATOM     86  C   UNL A   1      45.602  34.439  28.673  1.00  0.00     0.031 A 
ATOM     87  C   UNL A   1      46.155  33.412  30.785  1.00  0.00     0.131 A 
ATOM     88  C   UNL A   1      46.366  35.555  29.049  1.00  0.00     0.055 A 
ATOM     89  C   UNL A   1      46.870  34.544  31.175  1.00  0.00     0.041 A 
ATOM     90  F   UNL A   1      46.091  32.387  31.650  1.00  0.00    -0.206 F 
ATOM     91  C   UNL A   1      46.985  35.621  30.301  1.00  0.00     0.022 A 
BRANCH  88  92
ATOM     92  S   UNL A   1      46.584  36.905  27.859  1.00  0.00     0.124 S 
ATOM     93  O   UNL A   1      46.661  38.071  28.733  1.00  0.00    -0.237 OA
ATOM     94  O   UNL A   1      47.823  36.532  27.184  1.00  0.00    -0.237 OA
ATOM     95  O   UNL A   1      45.382  36.828  27.029  1.00  0.00    -0.744 OA
ENDBRANCH  88  92
ENDBRANCH  62  85
ENDBRANCH  36  37
ENDBRANCH  28  31
ENDBRANCH  26  27
ENDBRANCH   1  26
TORSDOF 16
ENDMDL
