MODEL 1
REMARK VINA RESULT:     -12.1      0.000      0.000
REMARK SMILES CCCC(=O)N(c1cc2sc(=O)oc2c2ccccc12)S(=O)(=O)c1ccc(C(=O)NCCCCNC(=O)c2ccc(-c3c4nc(c(-c5cc(S(=O)(=O)[O-])ccc5F)c5ccc([nH]5)c(-c5cc(S(=O)(=O)[O-])ccc5F)c5nc(c(-c6cc(S(=O)(=O)[O-])ccc6F)c6ccc3[nH]6)C=C5)C=C4)cc2)cc1
REMARK SMILES IDX 31 1 30 2 28 3 29 4 27 6 24 7 25 8 102 9 26 10 101 11 21 12
REMARK SMILES IDX 22 13 23 14 6 15 4 16 5 17 3 18 2 19 1 20 7 21 8 22 20 23
REMARK SMILES IDX 9 24 15 25 19 26 10 27 14 28 16 29 18 30 11 31 13 32 17 33
REMARK SMILES IDX 12 34 32 35 33 36 34 37 35 38 36 39 37 41 38 42 39 43 100 44
REMARK SMILES IDX 40 45 99 46 41 47 42 48 43 49 93 50 44 51 98 52 92 53 94 54
REMARK SMILES IDX 45 55 97 56 91 57 90 58 46 60 78 61 58 62 77 63 59 64 62 65
REMARK SMILES IDX 76 66 95 67 60 68 61 69 75 71 96 72 63 73 47 74 48 75 56 76
REMARK SMILES IDX 49 77 55 78 57 79 54 80 50 81 51 82 52 83 53 84 79 85 80 86
REMARK SMILES IDX 88 87 81 88 87 89 89 90 86 91 82 92 83 93 84 94 85 95 64 96
REMARK SMILES IDX 65 97 73 98 66 99 72 100 74 101 71 102 67 103 68 104 69 105
REMARK SMILES IDX 70 106
REMARK H PARENT 30 5 35 40 94 59 62 70
REMARK Flexibility Score: inf
ROOT
ATOM      1  C   UNL A   1      34.737  29.687  27.119  1.00  0.00     0.116 C 
ENDROOT
BRANCH   1   2
ATOM      2  N   UNL A   1      33.706  30.047  26.165  1.00  0.00    -0.352 N 
ATOM      3  C   UNL A   1      32.631  29.341  25.692  1.00  0.00     0.251 C 
ATOM      4  O   UNL A   1      31.837  29.926  24.952  1.00  0.00    -0.269 OA
ATOM      5  H   UNL A   1      33.794  30.956  25.794  1.00  0.00     0.163 HD
BRANCH   3   6
ATOM      6  C   UNL A   1      32.416  27.890  25.972  1.00  0.00     0.039 A 
ATOM      7  C   UNL A   1      31.803  25.147  26.238  1.00  0.00     0.088 A 
ATOM      8  C   UNL A   1      30.785  26.100  26.229  1.00  0.00     0.023 A 
ATOM      9  C   UNL A   1      33.128  25.581  26.268  1.00  0.00     0.023 A 
ATOM     10  C   UNL A   1      31.087  27.451  26.032  1.00  0.00     0.015 A 
ATOM     11  C   UNL A   1      33.423  26.947  26.189  1.00  0.00     0.015 A 
BRANCH   7  12
ATOM     12  S   UNL A   1      31.471  23.392  26.403  1.00  0.00     0.270 S 
ATOM     13  O   UNL A   1      30.027  23.288  26.458  1.00  0.00    -0.201 OA
ATOM     14  O   UNL A   1      32.290  22.950  27.516  1.00  0.00    -0.201 OA
BRANCH  12  15
ATOM     15  N   UNL A   1      32.063  22.576  25.007  1.00  0.00    -0.202 N 
BRANCH  15  16
ATOM     16  C   UNL A   1      31.784  23.177  23.726  1.00  0.00     0.241 C 
ATOM     17  O   UNL A   1      30.690  23.069  23.177  1.00  0.00    -0.273 OA
BRANCH  16  18
ATOM     18  C   UNL A   1      32.877  23.979  23.024  1.00  0.00     0.101 C 
BRANCH  18  19
ATOM     19  C   UNL A   1      32.390  25.361  22.578  1.00  0.00     0.006 C 
ATOM     20  C   UNL A   1      33.534  26.314  22.260  1.00  0.00     0.004 C 
ENDBRANCH  18  19
ENDBRANCH  16  18
ENDBRANCH  15  16
BRANCH  15  21
ATOM     21  C   UNL A   1      33.325  21.889  25.108  1.00  0.00     0.070 A 
ATOM     22  C   UNL A   1      34.417  22.683  25.500  1.00  0.00     0.051 A 
ATOM     23  C   UNL A   1      33.497  20.506  24.763  1.00  0.00     0.010 A 
ATOM     24  C   UNL A   1      35.681  22.125  25.503  1.00  0.00     0.080 A 
ATOM     25  C   UNL A   1      34.801  19.947  24.829  1.00  0.00     0.028 A 
ATOM     26  C   UNL A   1      32.451  19.651  24.342  1.00  0.00     0.011 A 
ATOM     27  S   UNL A   1      37.209  22.922  25.816  1.00  0.00    -0.052 S 
ATOM     28  C   UNL A   1      35.869  20.789  25.173  1.00  0.00     0.157 A 
ATOM     29  C   UNL A   1      34.998  18.583  24.536  1.00  0.00     0.013 A 
ATOM     30  C   UNL A   1      32.663  18.304  24.049  1.00  0.00     0.001 A 
ATOM     31  C   UNL A   1      38.030  21.405  25.436  1.00  0.00     0.396 A 
ATOM     32  O   UNL A   1      37.192  20.329  25.152  1.00  0.00    -0.413 OA
ATOM     33  C   UNL A   1      33.935  17.766  24.160  1.00  0.00     0.001 A 
ATOM     34  O   UNL A   1      39.249  21.301  25.439  1.00  0.00    -0.233 OA
ENDBRANCH  15  21
ENDBRANCH  12  15
ENDBRANCH   7  12
ENDBRANCH   3   6
ENDBRANCH   1   2
BRANCH   1  35
ATOM     35  C   UNL A   1      35.321  30.850  27.910  1.00  0.00     0.023 C 
BRANCH  35  36
ATOM     36  C   UNL A   1      34.400  32.055  28.098  1.00  0.00     0.023 C 
BRANCH  36  37
ATOM     37  C   UNL A   1      34.889  33.106  29.098  1.00  0.00     0.116 C 
BRANCH  37  38
ATOM     38  N   UNL A   1      34.291  33.018  30.420  1.00  0.00    -0.352 N 
ATOM     39  C   UNL A   1      34.808  32.476  31.579  1.00  0.00     0.251 C 
ATOM     40  H   UNL A   1      33.387  33.402  30.499  1.00  0.00     0.163 HD
ATOM     41  O   UNL A   1      34.170  32.504  32.617  1.00  0.00    -0.269 OA
BRANCH  39  42
ATOM     42  C   UNL A   1      36.122  31.808  31.512  1.00  0.00     0.039 A 
ATOM     43  C   UNL A   1      36.213  30.423  31.662  1.00  0.00     0.014 A 
ATOM     44  C   UNL A   1      37.269  32.601  31.433  1.00  0.00     0.014 A 
ATOM     45  C   UNL A   1      37.449  29.848  31.913  1.00  0.00     0.010 A 
ATOM     46  C   UNL A   1      38.515  32.014  31.625  1.00  0.00     0.010 A 
ATOM     47  C   UNL A   1      38.596  30.649  31.929  1.00  0.00    -0.014 A 
BRANCH  47  48
ATOM     48  C   UNL A   1      39.855  29.965  32.256  1.00  0.00     0.031 A 
ATOM     49  C   UNL A   1      40.983  30.351  31.353  1.00  0.00     0.074 A 
ATOM     50  C   UNL A   1      40.140  29.684  33.544  1.00  0.00     0.049 A 
ATOM     51  N   UNL A   1      41.702  31.425  31.492  1.00  0.00    -0.248 NA
ATOM     52  C   UNL A   1      41.169  29.669  30.071  1.00  0.00     0.031 C 
ATOM     53  C   UNL A   1      39.958  30.611  34.667  1.00  0.00     0.029 A 
ATOM     54  N   UNL A   1      40.863  28.637  34.071  1.00  0.00    -0.354 N 
ATOM     55  C   UNL A   1      42.400  31.596  30.307  1.00  0.00     0.074 A 
ATOM     56  C   UNL A   1      42.034  30.487  29.456  1.00  0.00     0.031 C 
ATOM     57  C   UNL A   1      40.694  30.176  35.707  1.00  0.00     0.029 A 
ATOM     58  C   UNL A   1      41.305  28.894  35.367  1.00  0.00     0.049 A 
ATOM     59  H   UNL A   1      41.047  27.801  33.586  1.00  0.00     0.167 HD
ATOM     60  C   UNL A   1      43.247  32.633  30.077  1.00  0.00     0.034 A 
ATOM     61  C   UNL A   1      42.477  28.421  35.869  1.00  0.00     0.034 A 
ATOM     62  C   UNL A   1      43.463  33.505  31.190  1.00  0.00     0.049 A 
ATOM     63  C   UNL A   1      43.455  29.422  35.299  1.00  0.00     0.074 A 
ATOM     64  C   UNL A   1      43.003  34.725  31.626  1.00  0.00     0.029 A 
ATOM     65  N   UNL A   1      44.312  33.067  32.180  1.00  0.00    -0.354 N 
ATOM     66  N   UNL A   1      43.684  30.624  35.769  1.00  0.00    -0.248 NA
ATOM     67  C   UNL A   1      43.917  29.218  33.925  1.00  0.00     0.031 C 
ATOM     68  C   UNL A   1      43.277  34.760  33.029  1.00  0.00     0.029 A 
ATOM     69  C   UNL A   1      43.831  33.527  33.380  1.00  0.00     0.049 A 
ATOM     70  H   UNL A   1      45.120  32.520  32.051  1.00  0.00     0.167 HD
ATOM     71  C   UNL A   1      44.014  31.403  34.654  1.00  0.00     0.074 A 
ATOM     72  C   UNL A   1      44.187  30.466  33.564  1.00  0.00     0.031 C 
ATOM     73  C   UNL A   1      43.921  32.767  34.614  1.00  0.00     0.034 A 
BRANCH  60  74
ATOM     74  C   UNL A   1      44.065  32.776  28.851  1.00  0.00     0.023 A 
ATOM     75  C   UNL A   1      45.076  31.871  28.497  1.00  0.00     0.031 A 
ATOM     76  C   UNL A   1      43.710  33.787  27.941  1.00  0.00     0.131 A 
ATOM     77  C   UNL A   1      45.680  31.985  27.234  1.00  0.00     0.055 A 
ATOM     78  C   UNL A   1      44.305  33.889  26.687  1.00  0.00     0.041 A 
ATOM     79  F   UNL A   1      42.751  34.674  28.256  1.00  0.00    -0.206 F 
ATOM     80  C   UNL A   1      45.292  32.980  26.326  1.00  0.00     0.022 A 
BRANCH  77  81
ATOM     81  S   UNL A   1      46.983  30.842  26.694  1.00  0.00     0.124 S 
ATOM     82  O   UNL A   1      46.438  30.323  25.443  1.00  0.00    -0.237 OA
ATOM     83  O   UNL A   1      48.130  31.737  26.551  1.00  0.00    -0.237 OA
ATOM     84  O   UNL A   1      47.078  29.880  27.786  1.00  0.00    -0.744 OA
ENDBRANCH  77  81
ENDBRANCH  60  74
BRANCH  61  85
ATOM     85  C   UNL A   1      42.577  26.930  35.802  1.00  0.00     0.023 A 
ATOM     86  C   UNL A   1      43.498  26.196  35.046  1.00  0.00     0.031 A 
ATOM     87  C   UNL A   1      41.561  26.194  36.459  1.00  0.00     0.131 A 
ATOM     88  C   UNL A   1      43.301  24.819  34.836  1.00  0.00     0.055 A 
ATOM     89  C   UNL A   1      41.402  24.814  36.296  1.00  0.00     0.041 A 
ATOM     90  F   UNL A   1      40.675  26.822  37.249  1.00  0.00    -0.206 F 
ATOM     91  C   UNL A   1      42.260  24.123  35.453  1.00  0.00     0.022 A 
BRANCH  88  92
ATOM     92  S   UNL A   1      44.351  23.914  33.664  1.00  0.00     0.124 S 
ATOM     93  O   UNL A   1      45.130  24.985  33.048  1.00  0.00    -0.237 OA
ATOM     94  O   UNL A   1      45.087  23.030  34.563  1.00  0.00    -0.237 OA
ATOM     95  O   UNL A   1      43.386  23.257  32.789  1.00  0.00    -0.744 OA
ENDBRANCH  88  92
ENDBRANCH  61  85
BRANCH  73  96
ATOM     96  C   UNL A   1      43.666  33.468  35.914  1.00  0.00     0.023 A 
ATOM     97  C   UNL A   1      42.354  33.655  36.388  1.00  0.00     0.031 A 
ATOM     98  C   UNL A   1      44.718  34.075  36.614  1.00  0.00     0.131 A 
ATOM     99  C   UNL A   1      42.116  34.511  37.469  1.00  0.00     0.055 A 
ATOM    100  C   UNL A   1      44.482  34.871  37.736  1.00  0.00     0.041 A 
ATOM    101  F   UNL A   1      45.986  33.957  36.184  1.00  0.00    -0.206 F 
ATOM    102  C   UNL A   1      43.175  35.109  38.155  1.00  0.00     0.022 A 
BRANCH  99 103
ATOM    103  S   UNL A   1      40.424  34.946  37.955  1.00  0.00     0.124 S 
ATOM    104  O   UNL A   1      39.738  33.656  37.906  1.00  0.00    -0.237 OA
ATOM    105  O   UNL A   1      40.628  35.492  39.296  1.00  0.00    -0.237 OA
ATOM    106  O   UNL A   1      40.000  35.910  36.945  1.00  0.00    -0.744 OA
ENDBRANCH  99 103
ENDBRANCH  73  96
ENDBRANCH  47  48
ENDBRANCH  39  42
ENDBRANCH  37  38
ENDBRANCH  36  37
ENDBRANCH  35  36
ENDBRANCH   1  35
TORSDOF 20
ENDMDL
MODEL 2
REMARK VINA RESULT:     -12.0      3.063      5.947
REMARK SMILES CCCC(=O)N(c1cc2sc(=O)oc2c2ccccc12)S(=O)(=O)c1ccc(C(=O)NCCCCNC(=O)c2ccc(-c3c4nc(c(-c5cc(S(=O)(=O)[O-])ccc5F)c5ccc([nH]5)c(-c5cc(S(=O)(=O)[O-])ccc5F)c5nc(c(-c6cc(S(=O)(=O)[O-])ccc6F)c6ccc3[nH]6)C=C5)C=C4)cc2)cc1
REMARK SMILES IDX 31 1 30 2 28 3 29 4 27 6 24 7 25 8 102 9 26 10 101 11 21 12
REMARK SMILES IDX 22 13 23 14 6 15 4 16 5 17 3 18 2 19 1 20 7 21 8 22 20 23
REMARK SMILES IDX 9 24 15 25 19 26 10 27 14 28 16 29 18 30 11 31 13 32 17 33
REMARK SMILES IDX 12 34 32 35 33 36 34 37 35 38 36 39 37 41 38 42 39 43 100 44
REMARK SMILES IDX 40 45 99 46 41 47 42 48 43 49 93 50 44 51 98 52 92 53 94 54
REMARK SMILES IDX 45 55 97 56 91 57 90 58 46 60 78 61 58 62 77 63 59 64 62 65
REMARK SMILES IDX 76 66 95 67 60 68 61 69 75 71 96 72 63 73 47 74 48 75 56 76
REMARK SMILES IDX 49 77 55 78 57 79 54 80 50 81 51 82 52 83 53 84 79 85 80 86
REMARK SMILES IDX 88 87 81 88 87 89 89 90 86 91 82 92 83 93 84 94 85 95 64 96
REMARK SMILES IDX 65 97 73 98 66 99 72 100 74 101 71 102 67 103 68 104 69 105
REMARK SMILES IDX 70 106
REMARK H PARENT 30 5 35 40 94 59 62 70
REMARK Flexibility Score: inf
ROOT
ATOM      1  C   UNL A   1      34.935  29.389  27.237  1.00  0.00     0.116 C 
ENDROOT
BRANCH   1   2
ATOM      2  N   UNL A   1      34.119  29.616  26.059  1.00  0.00    -0.352 N 
ATOM      3  C   UNL A   1      33.241  28.796  25.399  1.00  0.00     0.251 C 
ATOM      4  O   UNL A   1      32.590  29.277  24.470  1.00  0.00    -0.269 OA
ATOM      5  H   UNL A   1      34.213  30.515  25.666  1.00  0.00     0.163 HD
BRANCH   3   6
ATOM      6  C   UNL A   1      33.090  27.343  25.706  1.00  0.00     0.039 A 
ATOM      7  C   UNL A   1      32.516  24.608  26.114  1.00  0.00     0.088 A 
ATOM      8  C   UNL A   1      31.598  25.587  26.493  1.00  0.00     0.023 A 
ATOM      9  C   UNL A   1      33.779  25.008  25.675  1.00  0.00     0.023 A 
ATOM     10  C   UNL A   1      31.856  26.935  26.230  1.00  0.00     0.015 A 
ATOM     11  C   UNL A   1      34.074  26.368  25.526  1.00  0.00     0.015 A 
BRANCH   7  12
ATOM     12  S   UNL A   1      32.204  22.858  26.349  1.00  0.00     0.270 S 
ATOM     13  O   UNL A   1      30.834  22.782  26.815  1.00  0.00    -0.201 OA
ATOM     14  O   UNL A   1      33.296  22.381  27.176  1.00  0.00    -0.201 OA
BRANCH  12  15
ATOM     15  N   UNL A   1      32.352  22.054  24.834  1.00  0.00    -0.202 N 
BRANCH  15  16
ATOM     16  C   UNL A   1      32.290  22.870  23.647  1.00  0.00     0.241 C 
ATOM     17  O   UNL A   1      33.181  22.860  22.800  1.00  0.00    -0.273 OA
BRANCH  16  18
ATOM     18  C   UNL A   1      31.082  23.776  23.424  1.00  0.00     0.101 C 
BRANCH  18  19
ATOM     19  C   UNL A   1      31.429  25.021  22.603  1.00  0.00     0.006 C 
ATOM     20  C   UNL A   1      30.597  26.235  22.994  1.00  0.00     0.004 C 
ENDBRANCH  18  19
ENDBRANCH  16  18
ENDBRANCH  15  16
BRANCH  15  21
ATOM     21  C   UNL A   1      33.226  20.911  24.756  1.00  0.00     0.070 A 
ATOM     22  C   UNL A   1      32.585  19.659  24.743  1.00  0.00     0.051 A 
ATOM     23  C   UNL A   1      34.657  21.014  24.766  1.00  0.00     0.010 A 
ATOM     24  C   UNL A   1      33.358  18.515  24.791  1.00  0.00     0.080 A 
ATOM     25  C   UNL A   1      35.423  19.819  24.759  1.00  0.00     0.028 A 
ATOM     26  C   UNL A   1      35.371  22.236  24.798  1.00  0.00     0.011 A 
ATOM     27  S   UNL A   1      32.814  16.854  24.920  1.00  0.00    -0.052 S 
ATOM     28  C   UNL A   1      34.744  18.592  24.801  1.00  0.00     0.157 A 
ATOM     29  C   UNL A   1      36.831  19.884  24.728  1.00  0.00     0.013 A 
ATOM     30  C   UNL A   1      36.764  22.285  24.773  1.00  0.00     0.001 A 
ATOM     31  C   UNL A   1      34.505  16.353  25.028  1.00  0.00     0.396 A 
ATOM     32  O   UNL A   1      35.439  17.380  24.906  1.00  0.00    -0.413 OA
ATOM     33  C   UNL A   1      37.495  21.108  24.724  1.00  0.00     0.001 A 
ATOM     34  O   UNL A   1      34.833  15.186  25.183  1.00  0.00    -0.233 OA
ENDBRANCH  15  21
ENDBRANCH  12  15
ENDBRANCH   7  12
ENDBRANCH   3   6
ENDBRANCH   1   2
BRANCH   1  35
ATOM     35  C   UNL A   1      35.553  30.640  27.845  1.00  0.00     0.023 C 
BRANCH  35  36
ATOM     36  C   UNL A   1      34.670  31.886  27.847  1.00  0.00     0.023 C 
BRANCH  36  37
ATOM     37  C   UNL A   1      35.405  33.213  28.050  1.00  0.00     0.116 C 
BRANCH  37  38
ATOM     38  N   UNL A   1      35.156  33.862  29.326  1.00  0.00    -0.352 N 
ATOM     39  C   UNL A   1      35.849  33.748  30.514  1.00  0.00     0.251 C 
ATOM     40  H   UNL A   1      34.382  34.471  29.346  1.00  0.00     0.163 HD
ATOM     41  O   UNL A   1      35.511  34.386  31.496  1.00  0.00    -0.269 OA
BRANCH  39  42
ATOM     42  C   UNL A   1      36.968  32.788  30.581  1.00  0.00     0.039 A 
ATOM     43  C   UNL A   1      36.777  31.528  31.152  1.00  0.00     0.014 A 
ATOM     44  C   UNL A   1      38.237  33.217  30.188  1.00  0.00     0.014 A 
ATOM     45  C   UNL A   1      37.883  30.766  31.496  1.00  0.00     0.010 A 
ATOM     46  C   UNL A   1      39.342  32.424  30.480  1.00  0.00     0.010 A 
ATOM     47  C   UNL A   1      39.168  31.230  31.191  1.00  0.00    -0.014 A 
BRANCH  47  48
ATOM     48  C   UNL A   1      40.281  30.382  31.639  1.00  0.00     0.031 A 
ATOM     49  C   UNL A   1      40.370  29.089  30.894  1.00  0.00     0.074 A 
ATOM     50  C   UNL A   1      41.430  30.960  32.047  1.00  0.00     0.049 A 
ATOM     51  N   UNL A   1      40.926  28.948  29.727  1.00  0.00    -0.248 NA
ATOM     52  C   UNL A   1      39.575  27.936  31.319  1.00  0.00     0.031 C 
ATOM     53  C   UNL A   1      42.103  32.068  31.360  1.00  0.00     0.029 A 
ATOM     54  N   UNL A   1      42.339  30.531  32.987  1.00  0.00    -0.354 N 
ATOM     55  C   UNL A   1      40.522  27.717  29.237  1.00  0.00     0.074 A 
ATOM     56  C   UNL A   1      39.683  27.128  30.255  1.00  0.00     0.031 C 
ATOM     57  C   UNL A   1      43.380  32.125  31.783  1.00  0.00     0.029 A 
ATOM     58  C   UNL A   1      43.584  31.141  32.843  1.00  0.00     0.049 A 
ATOM     59  H   UNL A   1      42.133  29.866  33.683  1.00  0.00     0.167 HD
ATOM     60  C   UNL A   1      40.895  27.233  28.023  1.00  0.00     0.034 A 
ATOM     61  C   UNL A   1      44.761  30.524  33.132  1.00  0.00     0.034 A 
ATOM     62  C   UNL A   1      41.832  28.040  27.304  1.00  0.00     0.049 A 
ATOM     63  C   UNL A   1      44.974  29.714  31.874  1.00  0.00     0.074 A 
ATOM     64  C   UNL A   1      41.804  28.965  26.287  1.00  0.00     0.029 A 
ATOM     65  N   UNL A   1      43.149  27.982  27.701  1.00  0.00    -0.354 N 
ATOM     66  N   UNL A   1      45.437  30.171  30.736  1.00  0.00    -0.248 NA
ATOM     67  C   UNL A   1      44.282  28.428  31.767  1.00  0.00     0.031 C 
ATOM     68  C   UNL A   1      43.020  29.707  26.409  1.00  0.00     0.029 A 
ATOM     69  C   UNL A   1      43.691  29.232  27.539  1.00  0.00     0.049 A 
ATOM     70  H   UNL A   1      43.618  27.186  28.041  1.00  0.00     0.167 HD
ATOM     71  C   UNL A   1      44.816  29.401  29.746  1.00  0.00     0.074 A 
ATOM     72  C   UNL A   1      44.162  28.319  30.449  1.00  0.00     0.031 C 
ATOM     73  C   UNL A   1      44.682  29.790  28.442  1.00  0.00     0.034 A 
BRANCH  60  74
ATOM     74  C   UNL A   1      40.544  25.882  27.528  1.00  0.00     0.023 A 
ATOM     75  C   UNL A   1      41.485  24.852  27.386  1.00  0.00     0.031 A 
ATOM     76  C   UNL A   1      39.183  25.590  27.329  1.00  0.00     0.131 A 
ATOM     77  C   UNL A   1      41.034  23.557  27.079  1.00  0.00     0.055 A 
ATOM     78  C   UNL A   1      38.742  24.304  27.036  1.00  0.00     0.041 A 
ATOM     79  F   UNL A   1      38.259  26.559  27.451  1.00  0.00    -0.206 F 
ATOM     80  C   UNL A   1      39.671  23.277  26.915  1.00  0.00     0.022 A 
BRANCH  77  81
ATOM     81  S   UNL A   1      42.187  22.167  26.895  1.00  0.00     0.124 S 
ATOM     82  O   UNL A   1      42.379  22.114  25.448  1.00  0.00    -0.237 OA
ATOM     83  O   UNL A   1      43.343  22.630  27.661  1.00  0.00    -0.237 OA
ATOM     84  O   UNL A   1      41.468  21.038  27.476  1.00  0.00    -0.744 OA
ENDBRANCH  77  81
ENDBRANCH  60  74
BRANCH  61  85
ATOM     85  C   UNL A   1      44.825  30.027  34.541  1.00  0.00     0.023 A 
ATOM     86  C   UNL A   1      44.365  28.789  35.004  1.00  0.00     0.031 A 
ATOM     87  C   UNL A   1      45.270  30.948  35.521  1.00  0.00     0.131 A 
ATOM     88  C   UNL A   1      44.212  28.563  36.383  1.00  0.00     0.055 A 
ATOM     89  C   UNL A   1      45.172  30.698  36.893  1.00  0.00     0.041 A 
ATOM     90  F   UNL A   1      45.779  32.135  35.152  1.00  0.00    -0.206 F 
ATOM     91  C   UNL A   1      44.610  29.508  37.331  1.00  0.00     0.022 A 
BRANCH  88  92
ATOM     92  S   UNL A   1      43.393  27.056  36.977  1.00  0.00     0.124 S 
ATOM     93  O   UNL A   1      41.979  27.400  36.861  1.00  0.00    -0.237 OA
ATOM     94  O   UNL A   1      43.886  26.067  36.022  1.00  0.00    -0.237 OA
ATOM     95  O   UNL A   1      43.895  26.918  38.340  1.00  0.00    -0.744 OA
ENDBRANCH  88  92
ENDBRANCH  61  85
BRANCH  73  96
ATOM     96  C   UNL A   1      45.443  31.008  28.015  1.00  0.00     0.023 A 
ATOM     97  C   UNL A   1      44.867  32.289  28.109  1.00  0.00     0.031 A 
ATOM     98  C   UNL A   1      46.688  30.885  27.382  1.00  0.00     0.131 A 
ATOM     99  C   UNL A   1      45.486  33.382  27.492  1.00  0.00     0.055 A 
ATOM    100  C   UNL A   1      47.337  31.990  26.830  1.00  0.00     0.041 A 
ATOM    101  F   UNL A   1      47.266  29.680  27.235  1.00  0.00    -0.206 F 
ATOM    102  C   UNL A   1      46.727  33.242  26.865  1.00  0.00     0.022 A 
BRANCH  99 103
ATOM    103  S   UNL A   1      44.657  34.992  27.404  1.00  0.00     0.124 S 
ATOM    104  O   UNL A   1      45.480  35.821  28.283  1.00  0.00    -0.237 OA
ATOM    105  O   UNL A   1      44.759  35.304  25.979  1.00  0.00    -0.237 OA
ATOM    106  O   UNL A   1      43.308  34.725  27.892  1.00  0.00    -0.744 OA
ENDBRANCH  99 103
ENDBRANCH  73  96
ENDBRANCH  47  48
ENDBRANCH  39  42
ENDBRANCH  37  38
ENDBRANCH  36  37
ENDBRANCH  35  36
ENDBRANCH   1  35
TORSDOF 20
ENDMDL
MODEL 3
REMARK VINA RESULT:     -11.5      2.764      4.437
REMARK SMILES CCCC(=O)N(c1cc2sc(=O)oc2c2ccccc12)S(=O)(=O)c1ccc(C(=O)NCCCCNC(=O)c2ccc(-c3c4nc(c(-c5cc(S(=O)(=O)[O-])ccc5F)c5ccc([nH]5)c(-c5cc(S(=O)(=O)[O-])ccc5F)c5nc(c(-c6cc(S(=O)(=O)[O-])ccc6F)c6ccc3[nH]6)C=C5)C=C4)cc2)cc1
REMARK SMILES IDX 31 1 30 2 28 3 29 4 27 6 24 7 25 8 102 9 26 10 101 11 21 12
REMARK SMILES IDX 22 13 23 14 6 15 4 16 5 17 3 18 2 19 1 20 7 21 8 22 20 23
REMARK SMILES IDX 9 24 15 25 19 26 10 27 14 28 16 29 18 30 11 31 13 32 17 33
REMARK SMILES IDX 12 34 32 35 33 36 34 37 35 38 36 39 37 41 38 42 39 43 100 44
REMARK SMILES IDX 40 45 99 46 41 47 42 48 43 49 93 50 44 51 98 52 92 53 94 54
REMARK SMILES IDX 45 55 97 56 91 57 90 58 46 60 78 61 58 62 77 63 59 64 62 65
REMARK SMILES IDX 76 66 95 67 60 68 61 69 75 71 96 72 63 73 47 74 48 75 56 76
REMARK SMILES IDX 49 77 55 78 57 79 54 80 50 81 51 82 52 83 53 84 79 85 80 86
REMARK SMILES IDX 88 87 81 88 87 89 89 90 86 91 82 92 83 93 84 94 85 95 64 96
REMARK SMILES IDX 65 97 73 98 66 99 72 100 74 101 71 102 67 103 68 104 69 105
REMARK SMILES IDX 70 106
REMARK H PARENT 30 5 35 40 94 59 62 70
REMARK Flexibility Score: inf
ROOT
ATOM      1  C   UNL A   1      34.325  29.917  27.740  1.00  0.00     0.116 C 
ENDROOT
BRANCH   1   2
ATOM      2  N   UNL A   1      33.787  30.171  26.417  1.00  0.00    -0.352 N 
ATOM      3  C   UNL A   1      32.994  29.403  25.604  1.00  0.00     0.251 C 
ATOM      4  O   UNL A   1      32.587  29.904  24.554  1.00  0.00    -0.269 OA
ATOM      5  H   UNL A   1      34.034  31.046  26.037  1.00  0.00     0.163 HD
BRANCH   3   6
ATOM      6  C   UNL A   1      32.661  27.977  25.896  1.00  0.00     0.039 A 
ATOM      7  C   UNL A   1      31.847  25.287  26.167  1.00  0.00     0.088 A 
ATOM      8  C   UNL A   1      30.899  26.302  26.050  1.00  0.00     0.023 A 
ATOM      9  C   UNL A   1      33.191  25.636  26.302  1.00  0.00     0.023 A 
ATOM     10  C   UNL A   1      31.305  27.625  25.851  1.00  0.00     0.015 A 
ATOM     11  C   UNL A   1      33.581  26.977  26.220  1.00  0.00     0.015 A 
BRANCH   7  12
ATOM     12  S   UNL A   1      31.387  23.562  26.341  1.00  0.00     0.270 S 
ATOM     13  O   UNL A   1      29.939  23.561  26.360  1.00  0.00    -0.201 OA
ATOM     14  O   UNL A   1      32.144  23.076  27.480  1.00  0.00    -0.201 OA
BRANCH  12  15
ATOM     15  N   UNL A   1      31.955  22.689  24.970  1.00  0.00    -0.202 N 
BRANCH  15  16
ATOM     16  C   UNL A   1      31.666  23.244  23.671  1.00  0.00     0.241 C 
ATOM     17  O   UNL A   1      30.517  23.368  23.253  1.00  0.00    -0.273 OA
BRANCH  16  18
ATOM     18  C   UNL A   1      32.819  23.701  22.781  1.00  0.00     0.101 C 
BRANCH  18  19
ATOM     19  C   UNL A   1      32.560  25.071  22.148  1.00  0.00     0.006 C 
ATOM     20  C   UNL A   1      33.536  26.136  22.632  1.00  0.00     0.004 C 
ENDBRANCH  18  19
ENDBRANCH  16  18
ENDBRANCH  15  16
BRANCH  15  21
ATOM     21  C   UNL A   1      33.212  21.995  25.082  1.00  0.00     0.070 A 
ATOM     22  C   UNL A   1      34.309  22.786  25.466  1.00  0.00     0.051 A 
ATOM     23  C   UNL A   1      33.375  20.607  24.754  1.00  0.00     0.010 A 
ATOM     24  C   UNL A   1      35.569  22.220  25.478  1.00  0.00     0.080 A 
ATOM     25  C   UNL A   1      34.676  20.040  24.829  1.00  0.00     0.028 A 
ATOM     26  C   UNL A   1      32.325  19.754  24.341  1.00  0.00     0.011 A 
ATOM     27  S   UNL A   1      37.102  23.010  25.784  1.00  0.00    -0.052 S 
ATOM     28  C   UNL A   1      35.749  20.879  25.165  1.00  0.00     0.157 A 
ATOM     29  C   UNL A   1      34.864  18.671  24.554  1.00  0.00     0.013 A 
ATOM     30  C   UNL A   1      32.528  18.402  24.065  1.00  0.00     0.001 A 
ATOM     31  C   UNL A   1      37.914  21.484  25.424  1.00  0.00     0.396 A 
ATOM     32  O   UNL A   1      37.069  20.410  25.152  1.00  0.00    -0.413 OA
ATOM     33  C   UNL A   1      33.796  17.856  24.186  1.00  0.00     0.001 A 
ATOM     34  O   UNL A   1      39.132  21.372  25.431  1.00  0.00    -0.233 OA
ENDBRANCH  15  21
ENDBRANCH  12  15
ENDBRANCH   7  12
ENDBRANCH   3   6
ENDBRANCH   1   2
BRANCH   1  35
ATOM     35  C   UNL A   1      34.977  31.117  28.412  1.00  0.00     0.023 C 
BRANCH  35  36
ATOM     36  C   UNL A   1      34.897  32.436  27.645  1.00  0.00     0.023 C 
BRANCH  36  37
ATOM     37  C   UNL A   1      35.356  33.675  28.417  1.00  0.00     0.116 C 
BRANCH  37  38
ATOM     38  N   UNL A   1      34.632  33.930  29.652  1.00  0.00    -0.352 N 
ATOM     39  C   UNL A   1      35.094  33.923  30.952  1.00  0.00     0.251 C 
ATOM     40  H   UNL A   1      33.676  34.138  29.544  1.00  0.00     0.163 HD
ATOM     41  O   UNL A   1      34.346  34.180  31.879  1.00  0.00    -0.269 OA
BRANCH  39  42
ATOM     42  C   UNL A   1      36.497  33.535  31.193  1.00  0.00     0.039 A 
ATOM     43  C   UNL A   1      36.875  32.193  31.127  1.00  0.00     0.014 A 
ATOM     44  C   UNL A   1      37.395  34.517  31.619  1.00  0.00     0.014 A 
ATOM     45  C   UNL A   1      38.096  31.806  31.656  1.00  0.00     0.010 A 
ATOM     46  C   UNL A   1      38.645  34.133  32.094  1.00  0.00     0.010 A 
ATOM     47  C   UNL A   1      38.967  32.772  32.172  1.00  0.00    -0.014 A 
BRANCH  47  48
ATOM     48  C   UNL A   1      40.215  32.266  32.760  1.00  0.00     0.031 A 
ATOM     49  C   UNL A   1      41.245  33.333  32.954  1.00  0.00     0.074 A 
ATOM     50  C   UNL A   1      40.163  31.262  33.659  1.00  0.00     0.049 A 
ATOM     51  N   UNL A   1      41.275  34.153  33.963  1.00  0.00    -0.248 NA
ATOM     52  C   UNL A   1      42.139  33.705  31.857  1.00  0.00     0.031 C 
ATOM     53  C   UNL A   1      39.207  31.176  34.768  1.00  0.00     0.029 A 
ATOM     54  N   UNL A   1      41.081  30.269  33.913  1.00  0.00    -0.354 N 
ATOM     55  C   UNL A   1      42.147  35.174  33.624  1.00  0.00     0.074 A 
ATOM     56  C   UNL A   1      42.655  34.857  32.309  1.00  0.00     0.031 C 
ATOM     57  C   UNL A   1      39.678  30.297  35.674  1.00  0.00     0.029 A 
ATOM     58  C   UNL A   1      40.899  29.681  35.163  1.00  0.00     0.049 A 
ATOM     59  H   UNL A   1      41.789  30.003  33.282  1.00  0.00     0.167 HD
ATOM     60  C   UNL A   1      42.418  36.231  34.435  1.00  0.00     0.034 A 
ATOM     61  C   UNL A   1      41.919  29.201  35.925  1.00  0.00     0.034 A 
ATOM     62  C   UNL A   1      41.816  36.177  35.732  1.00  0.00     0.049 A 
ATOM     63  C   UNL A   1      42.424  30.476  36.559  1.00  0.00     0.074 A 
ATOM     64  C   UNL A   1      40.717  36.710  36.362  1.00  0.00     0.029 A 
ATOM     65  N   UNL A   1      42.397  35.347  36.663  1.00  0.00    -0.354 N 
ATOM     66  N   UNL A   1      41.884  31.089  37.583  1.00  0.00    -0.248 NA
ATOM     67  C   UNL A   1      43.345  31.306  35.780  1.00  0.00     0.031 C 
ATOM     68  C   UNL A   1      40.468  35.861  37.484  1.00  0.00     0.029 A 
ATOM     69  C   UNL A   1      41.395  34.817  37.436  1.00  0.00     0.049 A 
ATOM     70  H   UNL A   1      43.360  35.167  36.759  1.00  0.00     0.167 HD
ATOM     71  C   UNL A   1      42.144  32.450  37.381  1.00  0.00     0.074 A 
ATOM     72  C   UNL A   1      43.087  32.506  36.285  1.00  0.00     0.031 C 
ATOM     73  C   UNL A   1      41.430  33.463  37.960  1.00  0.00     0.034 A 
BRANCH  60  74
ATOM     74  C   UNL A   1      43.417  37.278  34.122  1.00  0.00     0.023 A 
ATOM     75  C   UNL A   1      43.064  38.574  33.716  1.00  0.00     0.031 A 
ATOM     76  C   UNL A   1      44.769  36.994  34.383  1.00  0.00     0.131 A 
ATOM     77  C   UNL A   1      44.068  39.551  33.611  1.00  0.00     0.055 A 
ATOM     78  C   UNL A   1      45.757  37.968  34.287  1.00  0.00     0.041 A 
ATOM     79  F   UNL A   1      45.138  35.759  34.766  1.00  0.00    -0.206 F 
ATOM     80  C   UNL A   1      45.407  39.258  33.905  1.00  0.00     0.022 A 
BRANCH  77  81
ATOM     81  S   UNL A   1      43.690  41.254  33.108  1.00  0.00     0.124 S 
ATOM     82  O   UNL A   1      42.300  41.145  32.674  1.00  0.00    -0.237 OA
ATOM     83  O   UNL A   1      43.899  41.989  34.354  1.00  0.00    -0.237 OA
ATOM     84  O   UNL A   1      44.659  41.530  32.054  1.00  0.00    -0.744 OA
ENDBRANCH  77  81
ENDBRANCH  60  74
BRANCH  61  85
ATOM     85  C   UNL A   1      42.734  28.166  35.216  1.00  0.00     0.023 A 
ATOM     86  C   UNL A   1      43.296  28.286  33.940  1.00  0.00     0.031 A 
ATOM     87  C   UNL A   1      42.834  26.898  35.839  1.00  0.00     0.131 A 
ATOM     88  C   UNL A   1      43.781  27.148  33.272  1.00  0.00     0.055 A 
ATOM     89  C   UNL A   1      43.371  25.780  35.195  1.00  0.00     0.041 A 
ATOM     90  F   UNL A   1      42.369  26.720  37.087  1.00  0.00    -0.206 F 
ATOM     91  C   UNL A   1      43.821  25.896  33.888  1.00  0.00     0.022 A 
BRANCH  88  92
ATOM     92  S   UNL A   1      44.287  27.256  31.532  1.00  0.00     0.124 S 
ATOM     93  O   UNL A   1      45.696  27.622  31.637  1.00  0.00    -0.237 OA
ATOM     94  O   UNL A   1      44.015  25.898  31.070  1.00  0.00    -0.237 OA
ATOM     95  O   UNL A   1      43.409  28.290  30.992  1.00  0.00    -0.744 OA
ENDBRANCH  88  92
ENDBRANCH  61  85
BRANCH  73  96
ATOM     96  C   UNL A   1      40.465  33.082  39.040  1.00  0.00     0.023 A 
ATOM     97  C   UNL A   1      39.147  32.697  38.729  1.00  0.00     0.031 A 
ATOM     98  C   UNL A   1      40.810  33.236  40.390  1.00  0.00     0.131 A 
ATOM     99  C   UNL A   1      38.194  32.577  39.747  1.00  0.00     0.055 A 
ATOM    100  C   UNL A   1      39.874  33.045  41.408  1.00  0.00     0.041 A 
ATOM    101  F   UNL A   1      42.045  33.635  40.741  1.00  0.00    -0.206 F 
ATOM    102  C   UNL A   1      38.555  32.734  41.087  1.00  0.00     0.022 A 
BRANCH  99 103
ATOM    103  S   UNL A   1      36.445  32.306  39.355  1.00  0.00     0.124 S 
ATOM    104  O   UNL A   1      35.766  32.898  40.506  1.00  0.00    -0.237 OA
ATOM    105  O   UNL A   1      36.301  33.042  38.100  1.00  0.00    -0.237 OA
ATOM    106  O   UNL A   1      36.325  30.855  39.246  1.00  0.00    -0.744 OA
ENDBRANCH  99 103
ENDBRANCH  73  96
ENDBRANCH  47  48
ENDBRANCH  39  42
ENDBRANCH  37  38
ENDBRANCH  36  37
ENDBRANCH  35  36
ENDBRANCH   1  35
TORSDOF 20
ENDMDL
