MODEL 1
REMARK VINA RESULT:     -10.6      0.000      0.000
REMARK SMILES CC(C)(C[C@@H](O)C(F)(F)F)C(=O)NCCCCNC(=O)c1ccc(-c2c3nc(c(-c4cc(S(=O)(=O)[O-])ccc4F)c4ccc([nH]4)c(-c4cc(S(=O)(=O)[O-])ccc4F)c4nc(c(-c5cc(S(=O)(=O)[O-])ccc5F)c5ccc2[nH]5)C=C4)C=C3)cc1
REMARK SMILES IDX 15 1 14 2 13 3 11 4 12 5 2 7 1 8 3 9 4 10 5 11 6 12 7 14
REMARK SMILES IDX 8 15 9 16 10 17 16 18 17 19 18 20 19 21 20 23 21 24 22 25
REMARK SMILES IDX 83 26 23 27 82 28 24 29 25 30 26 31 76 32 27 33 81 34 75 35
REMARK SMILES IDX 77 36 28 37 80 38 74 39 73 40 29 42 61 43 41 44 60 45 42 46
REMARK SMILES IDX 45 47 59 48 78 49 43 50 44 51 58 53 79 54 46 55 30 56 31 57
REMARK SMILES IDX 39 58 32 59 38 60 40 61 37 62 33 63 34 64 35 65 36 66 62 67
REMARK SMILES IDX 63 68 71 69 64 70 70 71 72 72 69 73 65 74 66 75 67 76 68 77
REMARK SMILES IDX 47 78 48 79 56 80 49 81 55 82 57 83 54 84 50 85 51 86 52 87
REMARK SMILES IDX 53 88
REMARK H PARENT 13 6 6 13 18 22 77 41 45 52
REMARK Flexibility Score: inf
ROOT
ATOM      1  C   UNL A   1      32.307  29.415  27.003  1.00  0.00     0.023 C 
ENDROOT
BRANCH   1   2
ATOM      2  C   UNL A   1      33.649  28.873  26.514  1.00  0.00     0.116 C 
BRANCH   2   3
ATOM      3  N   UNL A   1      33.807  28.997  25.076  1.00  0.00    -0.356 N 
ATOM      4  C   UNL A   1      33.657  28.118  24.054  1.00  0.00     0.225 C 
ATOM      5  O   UNL A   1      34.028  28.505  22.940  1.00  0.00    -0.275 OA
ATOM      6  H   UNL A   1      34.075  29.898  24.785  1.00  0.00     0.163 HD
BRANCH   4   7
ATOM      7  C   UNL A   1      33.118  26.684  24.233  1.00  0.00     0.046 C 
ATOM      8  C   UNL A   1      33.995  25.952  25.281  1.00  0.00     0.021 C 
ATOM      9  C   UNL A   1      33.286  25.883  22.925  1.00  0.00     0.021 C 
BRANCH   7  10
ATOM     10  C   UNL A   1      31.643  26.662  24.714  1.00  0.00     0.057 C 
BRANCH  10  11
ATOM     11  C   UNL A   1      30.558  26.515  23.623  1.00  0.00     0.220 C 
BRANCH  11  12
ATOM     12  O   UNL A   1      29.547  25.584  24.030  1.00  0.00    -0.384 OA
ATOM     13  H   UNL A   1      29.414  24.925  23.330  1.00  0.00     0.211 HD
ENDBRANCH  11  12
BRANCH  11  14
ATOM     14  C   UNL A   1      29.946  27.897  23.309  1.00  0.00     0.414 C 
ATOM     15  F   UNL A   1      30.249  28.271  22.041  1.00  0.00    -0.168 F 
ATOM     16  F   UNL A   1      28.598  27.877  23.404  1.00  0.00    -0.168 F 
ATOM     17  F   UNL A   1      30.412  28.860  24.134  1.00  0.00    -0.168 F 
ENDBRANCH  11  14
ENDBRANCH  10  11
ENDBRANCH   7  10
ENDBRANCH   4   7
ENDBRANCH   2   3
ENDBRANCH   1   2
BRANCH   1  18
ATOM     18  C   UNL A   1      32.107  30.920  26.832  1.00  0.00     0.023 C 
BRANCH  18  19
ATOM     19  C   UNL A   1      33.160  31.807  27.493  1.00  0.00     0.116 C 
BRANCH  19  20
ATOM     20  N   UNL A   1      32.746  33.196  27.623  1.00  0.00    -0.352 N 
ATOM     21  C   UNL A   1      33.253  34.182  28.437  1.00  0.00     0.251 C 
ATOM     22  H   UNL A   1      31.997  33.470  27.044  1.00  0.00     0.163 HD
ATOM     23  O   UNL A   1      32.709  35.283  28.476  1.00  0.00    -0.269 OA
BRANCH  21  24
ATOM     24  C   UNL A   1      34.421  33.893  29.295  1.00  0.00     0.039 A 
ATOM     25  C   UNL A   1      34.241  33.098  30.429  1.00  0.00     0.014 A 
ATOM     26  C   UNL A   1      35.693  34.362  28.956  1.00  0.00     0.014 A 
ATOM     27  C   UNL A   1      35.352  32.689  31.169  1.00  0.00     0.010 A 
ATOM     28  C   UNL A   1      36.805  33.903  29.658  1.00  0.00     0.010 A 
ATOM     29  C   UNL A   1      36.647  33.043  30.757  1.00  0.00    -0.014 A 
BRANCH  29  30
ATOM     30  C   UNL A   1      37.851  32.486  31.424  1.00  0.00     0.031 A 
ATOM     31  C   UNL A   1      38.612  31.355  30.794  1.00  0.00     0.074 A 
ATOM     32  C   UNL A   1      38.200  32.942  32.644  1.00  0.00     0.049 A 
ATOM     33  N   UNL A   1      39.611  30.660  31.275  1.00  0.00    -0.248 NA
ATOM     34  C   UNL A   1      38.170  30.932  29.458  1.00  0.00     0.031 C 
ATOM     35  C   UNL A   1      37.514  34.013  33.373  1.00  0.00     0.029 A 
ATOM     36  N   UNL A   1      39.203  32.553  33.496  1.00  0.00    -0.354 N 
ATOM     37  C   UNL A   1      39.914  29.711  30.307  1.00  0.00     0.074 A 
ATOM     38  C   UNL A   1      38.954  29.887  29.235  1.00  0.00     0.031 C 
ATOM     39  C   UNL A   1      38.123  34.201  34.554  1.00  0.00     0.029 A 
ATOM     40  C   UNL A   1      39.208  33.236  34.691  1.00  0.00     0.049 A 
ATOM     41  H   UNL A   1      39.858  31.853  33.272  1.00  0.00     0.167 HD
ATOM     42  C   UNL A   1      40.911  28.791  30.305  1.00  0.00     0.034 A 
ATOM     43  C   UNL A   1      39.982  33.084  35.784  1.00  0.00     0.034 A 
ATOM     44  C   UNL A   1      41.861  28.635  31.379  1.00  0.00     0.049 A 
ATOM     45  C   UNL A   1      41.046  32.018  35.781  1.00  0.00     0.074 A 
ATOM     46  C   UNL A   1      42.958  27.792  31.445  1.00  0.00     0.029 A 
ATOM     47  N   UNL A   1      41.819  29.323  32.585  1.00  0.00    -0.354 N 
ATOM     48  N   UNL A   1      41.357  31.164  34.833  1.00  0.00    -0.248 NA
ATOM     49  C   UNL A   1      41.860  31.893  36.997  1.00  0.00     0.031 C 
ATOM     50  C   UNL A   1      43.535  27.921  32.714  1.00  0.00     0.029 A 
ATOM     51  C   UNL A   1      42.841  28.892  33.417  1.00  0.00     0.049 A 
ATOM     52  H   UNL A   1      41.159  30.017  32.815  1.00  0.00     0.167 HD
ATOM     53  C   UNL A   1      42.413  30.411  35.335  1.00  0.00     0.074 A 
ATOM     54  C   UNL A   1      42.697  30.922  36.659  1.00  0.00     0.031 C 
ATOM     55  C   UNL A   1      43.090  29.389  34.750  1.00  0.00     0.034 A 
BRANCH  42  56
ATOM     56  C   UNL A   1      41.000  27.869  29.112  1.00  0.00     0.023 A 
ATOM     57  C   UNL A   1      42.018  28.002  28.152  1.00  0.00     0.031 A 
ATOM     58  C   UNL A   1      40.037  26.864  28.915  1.00  0.00     0.131 A 
ATOM     59  C   UNL A   1      42.005  27.200  27.001  1.00  0.00     0.055 A 
ATOM     60  C   UNL A   1      40.075  26.015  27.807  1.00  0.00     0.041 A 
ATOM     61  F   UNL A   1      39.031  26.701  29.788  1.00  0.00    -0.206 F 
ATOM     62  C   UNL A   1      41.054  26.191  26.833  1.00  0.00     0.022 A 
BRANCH  59  63
ATOM     63  S   UNL A   1      43.161  27.592  25.660  1.00  0.00     0.124 S 
ATOM     64  O   UNL A   1      43.760  26.286  25.396  1.00  0.00    -0.237 OA
ATOM     65  O   UNL A   1      42.277  28.112  24.623  1.00  0.00    -0.237 OA
ATOM     66  O   UNL A   1      44.064  28.572  26.259  1.00  0.00    -0.744 OA
ENDBRANCH  59  63
ENDBRANCH  42  56
BRANCH  43  67
ATOM     67  C   UNL A   1      39.761  33.936  36.986  1.00  0.00     0.023 A 
ATOM     68  C   UNL A   1      39.131  33.422  38.129  1.00  0.00     0.031 A 
ATOM     69  C   UNL A   1      40.149  35.288  36.995  1.00  0.00     0.131 A 
ATOM     70  C   UNL A   1      38.875  34.263  39.223  1.00  0.00     0.055 A 
ATOM     71  C   UNL A   1      39.933  36.109  38.103  1.00  0.00     0.041 A 
ATOM     72  F   UNL A   1      40.759  35.827  35.927  1.00  0.00    -0.206 F 
ATOM     73  C   UNL A   1      39.282  35.599  39.223  1.00  0.00     0.022 A 
BRANCH  70  74
ATOM     74  S   UNL A   1      37.938  33.600  40.628  1.00  0.00     0.124 S 
ATOM     75  O   UNL A   1      37.723  34.797  41.433  1.00  0.00    -0.237 OA
ATOM     76  O   UNL A   1      36.758  33.048  39.971  1.00  0.00    -0.237 OA
ATOM     77  O   UNL A   1      38.845  32.612  41.207  1.00  0.00    -0.744 OA
ENDBRANCH  70  74
ENDBRANCH  43  67
BRANCH  55  78
ATOM     78  C   UNL A   1      44.210  28.774  35.548  1.00  0.00     0.023 A 
ATOM     79  C   UNL A   1      43.980  27.707  36.435  1.00  0.00     0.031 A 
ATOM     80  C   UNL A   1      45.522  29.267  35.430  1.00  0.00     0.131 A 
ATOM     81  C   UNL A   1      45.037  27.197  37.203  1.00  0.00     0.055 A 
ATOM     82  C   UNL A   1      46.579  28.721  36.158  1.00  0.00     0.041 A 
ATOM     83  F   UNL A   1      45.796  30.286  34.601  1.00  0.00    -0.206 F 
ATOM     84  C   UNL A   1      46.338  27.687  37.058  1.00  0.00     0.022 A 
BRANCH  81  85
ATOM     85  S   UNL A   1      44.678  25.928  38.449  1.00  0.00     0.124 S 
ATOM     86  O   UNL A   1      43.348  26.321  38.905  1.00  0.00    -0.237 OA
ATOM     87  O   UNL A   1      44.747  24.696  37.670  1.00  0.00    -0.237 OA
ATOM     88  O   UNL A   1      45.748  26.099  39.431  1.00  0.00    -0.744 OA
ENDBRANCH  81  85
ENDBRANCH  55  78
ENDBRANCH  29  30
ENDBRANCH  21  24
ENDBRANCH  19  20
ENDBRANCH  18  19
ENDBRANCH   1  18
TORSDOF 18
ENDMDL
MODEL 2
REMARK VINA RESULT:     -10.5      6.443     10.183
REMARK SMILES CC(C)(C[C@@H](O)C(F)(F)F)C(=O)NCCCCNC(=O)c1ccc(-c2c3nc(c(-c4cc(S(=O)(=O)[O-])ccc4F)c4ccc([nH]4)c(-c4cc(S(=O)(=O)[O-])ccc4F)c4nc(c(-c5cc(S(=O)(=O)[O-])ccc5F)c5ccc2[nH]5)C=C4)C=C3)cc1
REMARK SMILES IDX 15 1 14 2 13 3 11 4 12 5 2 7 1 8 3 9 4 10 5 11 6 12 7 14
REMARK SMILES IDX 8 15 9 16 10 17 16 18 17 19 18 20 19 21 20 23 21 24 22 25
REMARK SMILES IDX 83 26 23 27 82 28 24 29 25 30 26 31 76 32 27 33 81 34 75 35
REMARK SMILES IDX 77 36 28 37 80 38 74 39 73 40 29 42 61 43 41 44 60 45 42 46
REMARK SMILES IDX 45 47 59 48 78 49 43 50 44 51 58 53 79 54 46 55 30 56 31 57
REMARK SMILES IDX 39 58 32 59 38 60 40 61 37 62 33 63 34 64 35 65 36 66 62 67
REMARK SMILES IDX 63 68 71 69 64 70 70 71 72 72 69 73 65 74 66 75 67 76 68 77
REMARK SMILES IDX 47 78 48 79 56 80 49 81 55 82 57 83 54 84 50 85 51 86 52 87
REMARK SMILES IDX 53 88
REMARK H PARENT 13 6 6 13 18 22 77 41 45 52
REMARK Flexibility Score: inf
ROOT
ATOM      1  C   UNL A   1      41.928  19.888  27.492  1.00  0.00     0.023 C 
ENDROOT
BRANCH   1   2
ATOM      2  C   UNL A   1      42.389  19.408  26.117  1.00  0.00     0.116 C 
BRANCH   2   3
ATOM      3  N   UNL A   1      43.605  18.618  26.184  1.00  0.00    -0.356 N 
ATOM      4  C   UNL A   1      44.783  18.682  25.513  1.00  0.00     0.225 C 
ATOM      5  O   UNL A   1      45.570  17.746  25.699  1.00  0.00    -0.275 OA
ATOM      6  H   UNL A   1      43.568  17.892  26.847  1.00  0.00     0.163 HD
BRANCH   4   7
ATOM      7  C   UNL A   1      45.140  19.805  24.518  1.00  0.00     0.046 C 
ATOM      8  C   UNL A   1      44.929  19.276  23.077  1.00  0.00     0.021 C 
ATOM      9  C   UNL A   1      46.640  20.148  24.615  1.00  0.00     0.021 C 
BRANCH   7  10
ATOM     10  C   UNL A   1      44.265  21.071  24.717  1.00  0.00     0.057 C 
BRANCH  10  11
ATOM     11  C   UNL A   1      44.978  22.437  24.591  1.00  0.00     0.220 C 
BRANCH  11  12
ATOM     12  O   UNL A   1      45.139  22.802  23.214  1.00  0.00    -0.384 OA
ATOM     13  H   UNL A   1      45.196  23.768  23.141  1.00  0.00     0.211 HD
ENDBRANCH  11  12
BRANCH  11  14
ATOM     14  C   UNL A   1      44.184  23.512  25.363  1.00  0.00     0.414 C 
ATOM     15  F   UNL A   1      42.981  23.724  24.775  1.00  0.00    -0.168 F 
ATOM     16  F   UNL A   1      43.940  23.130  26.636  1.00  0.00    -0.168 F 
ATOM     17  F   UNL A   1      44.831  24.697  25.395  1.00  0.00    -0.168 F 
ENDBRANCH  11  14
ENDBRANCH  10  11
ENDBRANCH   7  10
ENDBRANCH   4   7
ENDBRANCH   2   3
ENDBRANCH   1   2
BRANCH   1  18
ATOM     18  C   UNL A   1      40.865  20.986  27.479  1.00  0.00     0.023 C 
BRANCH  18  19
ATOM     19  C   UNL A   1      40.663  21.696  26.143  1.00  0.00     0.116 C 
BRANCH  19  20
ATOM     20  N   UNL A   1      39.272  22.025  25.867  1.00  0.00    -0.352 N 
ATOM     21  C   UNL A   1      38.582  23.183  26.140  1.00  0.00     0.251 C 
ATOM     22  H   UNL A   1      38.752  21.318  25.421  1.00  0.00     0.163 HD
ATOM     23  O   UNL A   1      37.376  23.244  25.914  1.00  0.00    -0.269 OA
BRANCH  21  24
ATOM     24  C   UNL A   1      39.289  24.330  26.748  1.00  0.00     0.039 A 
ATOM     25  C   UNL A   1      40.030  25.178  25.921  1.00  0.00     0.014 A 
ATOM     26  C   UNL A   1      39.181  24.594  28.116  1.00  0.00     0.014 A 
ATOM     27  C   UNL A   1      40.580  26.348  26.449  1.00  0.00     0.010 A 
ATOM     28  C   UNL A   1      39.677  25.791  28.626  1.00  0.00     0.010 A 
ATOM     29  C   UNL A   1      40.361  26.690  27.792  1.00  0.00    -0.014 A 
BRANCH  29  30
ATOM     30  C   UNL A   1      40.790  28.004  28.336  1.00  0.00     0.031 A 
ATOM     31  C   UNL A   1      42.245  28.289  28.574  1.00  0.00     0.074 A 
ATOM     32  C   UNL A   1      39.854  28.904  28.702  1.00  0.00     0.049 A 
ATOM     33  N   UNL A   1      42.803  29.324  29.148  1.00  0.00    -0.248 NA
ATOM     34  C   UNL A   1      43.195  27.258  28.131  1.00  0.00     0.031 C 
ATOM     35  C   UNL A   1      38.407  28.724  28.555  1.00  0.00     0.029 A 
ATOM     36  N   UNL A   1      39.975  30.137  29.291  1.00  0.00    -0.354 N 
ATOM     37  C   UNL A   1      44.169  29.068  29.146  1.00  0.00     0.074 A 
ATOM     38  C   UNL A   1      44.346  27.753  28.561  1.00  0.00     0.031 C 
ATOM     39  C   UNL A   1      37.778  29.811  29.028  1.00  0.00     0.029 A 
ATOM     40  C   UNL A   1      38.768  30.743  29.558  1.00  0.00     0.049 A 
ATOM     41  H   UNL A   1      40.843  30.551  29.500  1.00  0.00     0.167 HD
ATOM     42  C   UNL A   1      45.181  29.863  29.575  1.00  0.00     0.034 A 
ATOM     43  C   UNL A   1      38.489  31.903  30.183  1.00  0.00     0.034 A 
ATOM     44  C   UNL A   1      44.985  31.171  30.149  1.00  0.00     0.049 A 
ATOM     45  C   UNL A   1      39.626  32.744  30.702  1.00  0.00     0.074 A 
ATOM     46  C   UNL A   1      45.940  32.094  30.542  1.00  0.00     0.029 A 
ATOM     47  N   UNL A   1      43.749  31.740  30.431  1.00  0.00    -0.354 N 
ATOM     48  N   UNL A   1      40.917  32.513  30.642  1.00  0.00    -0.248 NA
ATOM     49  C   UNL A   1      39.267  33.997  31.377  1.00  0.00     0.031 C 
ATOM     50  C   UNL A   1      45.284  33.186  31.122  1.00  0.00     0.029 A 
ATOM     51  C   UNL A   1      43.918  32.978  31.032  1.00  0.00     0.049 A 
ATOM     52  H   UNL A   1      42.879  31.324  30.231  1.00  0.00     0.167 HD
ATOM     53  C   UNL A   1      41.525  33.602  31.258  1.00  0.00     0.074 A 
ATOM     54  C   UNL A   1      40.461  34.496  31.667  1.00  0.00     0.031 C 
ATOM     55  C   UNL A   1      42.845  33.843  31.465  1.00  0.00     0.034 A 
BRANCH  42  56
ATOM     56  C   UNL A   1      46.585  29.319  29.461  1.00  0.00     0.023 A 
ATOM     57  C   UNL A   1      47.313  29.404  28.262  1.00  0.00     0.031 A 
ATOM     58  C   UNL A   1      47.192  28.679  30.555  1.00  0.00     0.131 A 
ATOM     59  C   UNL A   1      48.570  28.791  28.161  1.00  0.00     0.055 A 
ATOM     60  C   UNL A   1      48.478  28.140  30.473  1.00  0.00     0.041 A 
ATOM     61  F   UNL A   1      46.539  28.551  31.721  1.00  0.00    -0.206 F 
ATOM     62  C   UNL A   1      49.168  28.180  29.264  1.00  0.00     0.022 A 
BRANCH  59  63
ATOM     63  S   UNL A   1      49.349  28.677  26.526  1.00  0.00     0.124 S 
ATOM     64  O   UNL A   1      48.188  28.493  25.659  1.00  0.00    -0.237 OA
ATOM     65  O   UNL A   1      50.035  29.960  26.414  1.00  0.00    -0.237 OA
ATOM     66  O   UNL A   1      50.221  27.511  26.641  1.00  0.00    -0.744 OA
ENDBRANCH  59  63
ENDBRANCH  42  56
BRANCH  43  67
ATOM     67  C   UNL A   1      37.075  32.327  30.386  1.00  0.00     0.023 A 
ATOM     68  C   UNL A   1      36.378  33.017  29.383  1.00  0.00     0.031 A 
ATOM     69  C   UNL A   1      36.412  32.076  31.601  1.00  0.00     0.131 A 
ATOM     70  C   UNL A   1      35.069  33.464  29.624  1.00  0.00     0.055 A 
ATOM     71  C   UNL A   1      35.095  32.483  31.819  1.00  0.00     0.041 A 
ATOM     72  F   UNL A   1      37.035  31.417  32.591  1.00  0.00    -0.206 F 
ATOM     73  C   UNL A   1      34.419  33.191  30.830  1.00  0.00     0.022 A 
BRANCH  70  74
ATOM     74  S   UNL A   1      34.248  34.469  28.357  1.00  0.00     0.124 S 
ATOM     75  O   UNL A   1      32.989  33.753  28.179  1.00  0.00    -0.237 OA
ATOM     76  O   UNL A   1      34.159  35.769  29.014  1.00  0.00    -0.237 OA
ATOM     77  O   UNL A   1      35.168  34.408  27.224  1.00  0.00    -0.744 OA
ENDBRANCH  70  74
ENDBRANCH  43  67
BRANCH  55  78
ATOM     78  C   UNL A   1      43.199  35.135  32.156  1.00  0.00     0.023 A 
ATOM     79  C   UNL A   1      43.486  36.302  31.426  1.00  0.00     0.031 A 
ATOM     80  C   UNL A   1      43.261  35.197  33.559  1.00  0.00     0.131 A 
ATOM     81  C   UNL A   1      43.866  37.472  32.100  1.00  0.00     0.055 A 
ATOM     82  C   UNL A   1      43.589  36.378  34.227  1.00  0.00     0.041 A 
ATOM     83  F   UNL A   1      42.999  34.111  34.303  1.00  0.00    -0.206 F 
ATOM     84  C   UNL A   1      43.903  37.520  33.497  1.00  0.00     0.022 A 
BRANCH  81  85
ATOM     85  S   UNL A   1      44.379  38.913  31.127  1.00  0.00     0.124 S 
ATOM     86  O   UNL A   1      43.728  38.660  29.846  1.00  0.00    -0.237 OA
ATOM     87  O   UNL A   1      43.844  40.024  31.906  1.00  0.00    -0.237 OA
ATOM     88  O   UNL A   1      45.838  38.815  31.112  1.00  0.00    -0.744 OA
ENDBRANCH  81  85
ENDBRANCH  55  78
ENDBRANCH  29  30
ENDBRANCH  21  24
ENDBRANCH  19  20
ENDBRANCH  18  19
ENDBRANCH   1  18
TORSDOF 18
ENDMDL
MODEL 3
REMARK VINA RESULT:     -10.5      6.030     10.844
REMARK SMILES CC(C)(C[C@@H](O)C(F)(F)F)C(=O)NCCCCNC(=O)c1ccc(-c2c3nc(c(-c4cc(S(=O)(=O)[O-])ccc4F)c4ccc([nH]4)c(-c4cc(S(=O)(=O)[O-])ccc4F)c4nc(c(-c5cc(S(=O)(=O)[O-])ccc5F)c5ccc2[nH]5)C=C4)C=C3)cc1
REMARK SMILES IDX 15 1 14 2 13 3 11 4 12 5 2 7 1 8 3 9 4 10 5 11 6 12 7 14
REMARK SMILES IDX 8 15 9 16 10 17 16 18 17 19 18 20 19 21 20 23 21 24 22 25
REMARK SMILES IDX 83 26 23 27 82 28 24 29 25 30 26 31 76 32 27 33 81 34 75 35
REMARK SMILES IDX 77 36 28 37 80 38 74 39 73 40 29 42 61 43 41 44 60 45 42 46
REMARK SMILES IDX 45 47 59 48 78 49 43 50 44 51 58 53 79 54 46 55 30 56 31 57
REMARK SMILES IDX 39 58 32 59 38 60 40 61 37 62 33 63 34 64 35 65 36 66 62 67
REMARK SMILES IDX 63 68 71 69 64 70 70 71 72 72 69 73 65 74 66 75 67 76 68 77
REMARK SMILES IDX 47 78 48 79 56 80 49 81 55 82 57 83 54 84 50 85 51 86 52 87
REMARK SMILES IDX 53 88
REMARK H PARENT 13 6 6 13 18 22 77 41 45 52
REMARK Flexibility Score: inf
ROOT
ATOM      1  C   UNL A   1      35.031  23.575  23.883  1.00  0.00     0.023 C 
ENDROOT
BRANCH   1   2
ATOM      2  C   UNL A   1      33.720  23.138  23.232  1.00  0.00     0.116 C 
BRANCH   2   3
ATOM      3  N   UNL A   1      32.947  24.261  22.733  1.00  0.00    -0.356 N 
ATOM      4  C   UNL A   1      32.042  25.088  23.315  1.00  0.00     0.225 C 
ATOM      5  O   UNL A   1      31.438  25.857  22.558  1.00  0.00    -0.275 OA
ATOM      6  H   UNL A   1      33.113  24.463  21.784  1.00  0.00     0.163 HD
BRANCH   4   7
ATOM      7  C   UNL A   1      31.706  25.063  24.820  1.00  0.00     0.046 C 
ATOM      8  C   UNL A   1      30.354  25.789  25.038  1.00  0.00     0.021 C 
ATOM      9  C   UNL A   1      32.745  25.884  25.612  1.00  0.00     0.021 C 
BRANCH   7  10
ATOM     10  C   UNL A   1      31.594  23.620  25.377  1.00  0.00     0.057 C 
BRANCH  10  11
ATOM     11  C   UNL A   1      31.788  23.445  26.900  1.00  0.00     0.220 C 
BRANCH  11  12
ATOM     12  O   UNL A   1      30.645  22.813  27.491  1.00  0.00    -0.384 OA
ATOM     13  H   UNL A   1      30.859  22.540  28.397  1.00  0.00     0.211 HD
ENDBRANCH  11  12
BRANCH  11  14
ATOM     14  C   UNL A   1      33.074  22.635  27.171  1.00  0.00     0.414 C 
ATOM     15  F   UNL A   1      32.998  22.018  28.377  1.00  0.00    -0.168 F 
ATOM     16  F   UNL A   1      33.257  21.669  26.244  1.00  0.00    -0.168 F 
ATOM     17  F   UNL A   1      34.175  23.418  27.188  1.00  0.00    -0.168 F 
ENDBRANCH  11  14
ENDBRANCH  10  11
ENDBRANCH   7  10
ENDBRANCH   4   7
ENDBRANCH   2   3
ENDBRANCH   1   2
BRANCH   1  18
ATOM     18  C   UNL A   1      36.106  22.493  23.979  1.00  0.00     0.023 C 
BRANCH  18  19
ATOM     19  C   UNL A   1      36.594  22.168  25.389  1.00  0.00     0.116 C 
BRANCH  19  20
ATOM     20  N   UNL A   1      37.578  21.096  25.426  1.00  0.00    -0.352 N 
ATOM     21  C   UNL A   1      38.874  21.121  25.888  1.00  0.00     0.251 C 
ATOM     22  H   UNL A   1      37.273  20.230  25.072  1.00  0.00     0.163 HD
ATOM     23  O   UNL A   1      39.590  20.133  25.752  1.00  0.00    -0.269 OA
BRANCH  21  24
ATOM     24  C   UNL A   1      39.409  22.355  26.500  1.00  0.00     0.039 A 
ATOM     25  C   UNL A   1      40.430  22.247  27.447  1.00  0.00     0.014 A 
ATOM     26  C   UNL A   1      38.940  23.612  26.107  1.00  0.00     0.014 A 
ATOM     27  C   UNL A   1      41.051  23.402  27.927  1.00  0.00     0.010 A 
ATOM     28  C   UNL A   1      39.602  24.758  26.539  1.00  0.00     0.010 A 
ATOM     29  C   UNL A   1      40.678  24.663  27.435  1.00  0.00    -0.014 A 
BRANCH  29  30
ATOM     30  C   UNL A   1      41.432  25.890  27.799  1.00  0.00     0.031 A 
ATOM     31  C   UNL A   1      40.741  27.026  28.496  1.00  0.00     0.074 A 
ATOM     32  C   UNL A   1      42.719  26.013  27.414  1.00  0.00     0.049 A 
ATOM     33  N   UNL A   1      41.196  28.218  28.788  1.00  0.00    -0.248 NA
ATOM     34  C   UNL A   1      39.343  26.800  28.890  1.00  0.00     0.031 C 
ATOM     35  C   UNL A   1      43.487  24.990  26.698  1.00  0.00     0.029 A 
ATOM     36  N   UNL A   1      43.603  27.053  27.551  1.00  0.00    -0.354 N 
ATOM     37  C   UNL A   1      40.140  28.889  29.392  1.00  0.00     0.074 A 
ATOM     38  C   UNL A   1      39.006  27.986  29.374  1.00  0.00     0.031 C 
ATOM     39  C   UNL A   1      44.727  25.450  26.471  1.00  0.00     0.029 A 
ATOM     40  C   UNL A   1      44.831  26.814  26.977  1.00  0.00     0.049 A 
ATOM     41  H   UNL A   1      43.380  27.890  28.019  1.00  0.00     0.167 HD
ATOM     42  C   UNL A   1      40.124  30.135  29.929  1.00  0.00     0.034 A 
ATOM     43  C   UNL A   1      45.909  27.612  26.849  1.00  0.00     0.034 A 
ATOM     44  C   UNL A   1      41.265  31.017  29.944  1.00  0.00     0.049 A 
ATOM     45  C   UNL A   1      45.849  29.012  27.402  1.00  0.00     0.074 A 
ATOM     46  C   UNL A   1      41.384  32.265  30.531  1.00  0.00     0.029 A 
ATOM     47  N   UNL A   1      42.483  30.754  29.328  1.00  0.00    -0.354 N 
ATOM     48  N   UNL A   1      44.860  29.613  28.022  1.00  0.00    -0.248 NA
ATOM     49  C   UNL A   1      47.049  29.841  27.235  1.00  0.00     0.031 C 
ATOM     50  C   UNL A   1      42.644  32.783  30.212  1.00  0.00     0.029 A 
ATOM     51  C   UNL A   1      43.340  31.833  29.483  1.00  0.00     0.049 A 
ATOM     52  H   UNL A   1      42.705  29.921  28.852  1.00  0.00     0.167 HD
ATOM     53  C   UNL A   1      45.326  30.887  28.331  1.00  0.00     0.074 A 
ATOM     54  C   UNL A   1      46.689  30.960  27.846  1.00  0.00     0.031 C 
ATOM     55  C   UNL A   1      44.685  31.904  28.963  1.00  0.00     0.034 A 
BRANCH  42  56
ATOM     56  C   UNL A   1      38.820  30.619  30.517  1.00  0.00     0.023 A 
ATOM     57  C   UNL A   1      37.842  31.244  29.725  1.00  0.00     0.031 A 
ATOM     58  C   UNL A   1      38.565  30.484  31.893  1.00  0.00     0.131 A 
ATOM     59  C   UNL A   1      36.692  31.780  30.324  1.00  0.00     0.055 A 
ATOM     60  C   UNL A   1      37.382  30.947  32.471  1.00  0.00     0.041 A 
ATOM     61  F   UNL A   1      39.470  29.912  32.702  1.00  0.00    -0.206 F 
ATOM     62  C   UNL A   1      36.444  31.616  31.688  1.00  0.00     0.022 A 
BRANCH  59  63
ATOM     63  S   UNL A   1      35.597  32.821  29.320  1.00  0.00     0.124 S 
ATOM     64  O   UNL A   1      35.306  31.940  28.192  1.00  0.00    -0.237 OA
ATOM     65  O   UNL A   1      34.488  33.082  30.231  1.00  0.00    -0.237 OA
ATOM     66  O   UNL A   1      36.426  33.980  28.997  1.00  0.00    -0.744 OA
ENDBRANCH  59  63
ENDBRANCH  42  56
BRANCH  43  67
ATOM     67  C   UNL A   1      47.125  27.126  26.140  1.00  0.00     0.023 A 
ATOM     68  C   UNL A   1      48.152  26.470  26.835  1.00  0.00     0.031 A 
ATOM     69  C   UNL A   1      47.292  27.340  24.759  1.00  0.00     0.131 A 
ATOM     70  C   UNL A   1      49.317  26.080  26.156  1.00  0.00     0.055 A 
ATOM     71  C   UNL A   1      48.433  26.910  24.080  1.00  0.00     0.041 A 
ATOM     72  F   UNL A   1      46.337  27.960  24.048  1.00  0.00    -0.206 F 
ATOM     73  C   UNL A   1      49.459  26.285  24.782  1.00  0.00     0.022 A 
BRANCH  70  74
ATOM     74  S   UNL A   1      50.679  25.358  27.112  1.00  0.00     0.124 S 
ATOM     75  O   UNL A   1      51.129  26.502  27.898  1.00  0.00    -0.237 OA
ATOM     76  O   UNL A   1      50.001  24.299  27.851  1.00  0.00    -0.237 OA
ATOM     77  O   UNL A   1      51.611  24.900  26.085  1.00  0.00    -0.744 OA
ENDBRANCH  70  74
ENDBRANCH  43  67
BRANCH  55  78
ATOM     78  C   UNL A   1      45.469  33.175  29.169  1.00  0.00     0.023 A 
ATOM     79  C   UNL A   1      45.508  34.181  28.188  1.00  0.00     0.031 A 
ATOM     80  C   UNL A   1      46.195  33.377  30.356  1.00  0.00     0.131 A 
ATOM     81  C   UNL A   1      46.293  35.325  28.391  1.00  0.00     0.055 A 
ATOM     82  C   UNL A   1      46.932  34.541  30.575  1.00  0.00     0.041 A 
ATOM     83  F   UNL A   1      46.194  32.447  31.324  1.00  0.00    -0.206 F 
ATOM     84  C   UNL A   1      46.993  35.518  29.586  1.00  0.00     0.022 A 
BRANCH  81  85
ATOM     85  S   UNL A   1      46.446  36.530  27.044  1.00  0.00     0.124 S 
ATOM     86  O   UNL A   1      47.771  37.090  27.289  1.00  0.00    -0.237 OA
ATOM     87  O   UNL A   1      46.317  35.691  25.857  1.00  0.00    -0.237 OA
ATOM     88  O   UNL A   1      45.331  37.447  27.276  1.00  0.00    -0.744 OA
ENDBRANCH  81  85
ENDBRANCH  55  78
ENDBRANCH  29  30
ENDBRANCH  21  24
ENDBRANCH  19  20
ENDBRANCH  18  19
ENDBRANCH   1  18
TORSDOF 18
ENDMDL
