MODEL 1
REMARK VINA RESULT:     -13.0      0.000      0.000
REMARK SMILES O=C(NCCCCNC(=O)c1n[nH]c2cc(Br)cc(Cl)c12)c1ccc(-c2c3nc(c(-c4cc(S(=O)(=O)[O-])ccc4F)c4ccc([nH]4)c(-c4cc(S(=O)(=O)[O-])ccc4F)c4nc(c(-c5cc(S(=O)(=O)[O-])ccc5F)c5ccc2[nH]5)C=C4)C=C3)cc1
REMARK SMILES IDX 4 1 3 2 1 3 2 4 22 6 23 7 84 8 24 9 83 10 25 11 26 12 27 13
REMARK SMILES IDX 77 14 28 15 82 16 76 17 78 18 29 19 81 20 75 21 74 22 30 24
REMARK SMILES IDX 62 25 42 26 61 27 43 28 46 29 60 30 79 31 44 32 45 33 59 35
REMARK SMILES IDX 80 36 47 37 31 38 32 39 40 40 33 41 39 42 41 43 38 44 34 45
REMARK SMILES IDX 35 46 36 47 37 48 63 49 64 50 72 51 65 52 71 53 73 54 70 55
REMARK SMILES IDX 66 56 67 57 68 58 69 59 48 60 49 61 57 62 50 63 56 64 58 65
REMARK SMILES IDX 55 66 51 67 52 68 53 69 54 70 5 71 6 72 7 73 8 74 9 75 10 77
REMARK SMILES IDX 11 78 12 79 21 80 13 81 14 82 19 83 15 85 18 86 20 87 16 88
REMARK SMILES IDX 17 89
REMARK H PARENT 3 5 78 23 46 34 8 76 13 84
REMARK Flexibility Score: inf
ROOT
ATOM      1  C   UNL A   1      36.137  20.792  24.964  1.00  0.00     0.116 C 
ENDROOT
BRANCH   1   2
ATOM      2  N   UNL A   1      37.288  19.913  24.908  1.00  0.00    -0.352 N 
ATOM      3  O   UNL A   1      39.171  18.862  25.355  1.00  0.00    -0.269 OA
ATOM      4  C   UNL A   1      38.546  19.924  25.454  1.00  0.00     0.251 C 
ATOM      5  H   UNL A   1      37.130  19.121  24.345  1.00  0.00     0.163 HD
BRANCH   4   6
ATOM      6  C   UNL A   1      39.218  21.091  26.099  1.00  0.00     0.039 A 
ATOM      7  C   UNL A   1      38.838  22.425  25.979  1.00  0.00     0.014 A 
ATOM      8  C   UNL A   1      40.358  20.797  26.882  1.00  0.00     0.014 A 
ATOM      9  C   UNL A   1      39.599  23.434  26.579  1.00  0.00     0.010 A 
ATOM     10  C   UNL A   1      41.117  21.801  27.487  1.00  0.00     0.010 A 
ATOM     11  C   UNL A   1      40.748  23.131  27.323  1.00  0.00    -0.014 A 
BRANCH  11  12
ATOM     12  C   UNL A   1      41.406  24.219  28.056  1.00  0.00     0.031 A 
ATOM     13  C   UNL A   1      40.639  25.495  28.079  1.00  0.00     0.074 A 
ATOM     14  C   UNL A   1      42.552  24.153  28.766  1.00  0.00     0.049 A 
ATOM     15  N   UNL A   1      40.915  26.594  27.458  1.00  0.00    -0.248 NA
ATOM     16  C   UNL A   1      39.355  25.519  28.793  1.00  0.00     0.031 C 
ATOM     17  C   UNL A   1      43.347  22.977  29.111  1.00  0.00     0.029 A 
ATOM     18  N   UNL A   1      43.221  25.173  29.391  1.00  0.00    -0.354 N 
ATOM     19  C   UNL A   1      39.956  27.521  27.858  1.00  0.00     0.074 A 
ATOM     20  C   UNL A   1      38.948  26.769  28.558  1.00  0.00     0.031 C 
ATOM     21  C   UNL A   1      44.288  23.320  30.025  1.00  0.00     0.029 A 
ATOM     22  C   UNL A   1      44.257  24.761  30.227  1.00  0.00     0.049 A 
ATOM     23  H   UNL A   1      42.989  26.120  29.260  1.00  0.00     0.167 HD
ATOM     24  C   UNL A   1      40.168  28.862  27.737  1.00  0.00     0.034 A 
ATOM     25  C   UNL A   1      45.033  25.547  31.022  1.00  0.00     0.034 A 
ATOM     26  C   UNL A   1      41.240  29.145  26.810  1.00  0.00     0.049 A 
ATOM     27  C   UNL A   1      45.040  26.895  30.405  1.00  0.00     0.074 A 
ATOM     28  C   UNL A   1      41.477  28.864  25.477  1.00  0.00     0.029 A 
ATOM     29  N   UNL A   1      42.460  29.521  27.322  1.00  0.00    -0.354 N 
ATOM     30  N   UNL A   1      45.561  27.150  29.238  1.00  0.00    -0.248 NA
ATOM     31  C   UNL A   1      44.115  27.897  30.907  1.00  0.00     0.031 C 
ATOM     32  C   UNL A   1      42.875  28.584  25.404  1.00  0.00     0.029 A 
ATOM     33  C   UNL A   1      43.408  28.763  26.682  1.00  0.00     0.049 A 
ATOM     34  H   UNL A   1      42.622  30.203  28.014  1.00  0.00     0.167 HD
ATOM     35  C   UNL A   1      44.728  28.104  28.678  1.00  0.00     0.074 A 
ATOM     36  C   UNL A   1      43.925  28.603  29.791  1.00  0.00     0.031 C 
ATOM     37  C   UNL A   1      44.583  28.211  27.325  1.00  0.00     0.034 A 
BRANCH  24  38
ATOM     38  C   UNL A   1      39.642  29.913  28.689  1.00  0.00     0.023 A 
ATOM     39  C   UNL A   1      40.485  30.324  29.742  1.00  0.00     0.031 A 
ATOM     40  C   UNL A   1      38.289  30.308  28.797  1.00  0.00     0.131 A 
ATOM     41  C   UNL A   1      39.968  30.992  30.867  1.00  0.00     0.055 A 
ATOM     42  C   UNL A   1      37.793  31.031  29.885  1.00  0.00     0.041 A 
ATOM     43  F   UNL A   1      37.358  29.938  27.911  1.00  0.00    -0.206 F 
ATOM     44  C   UNL A   1      38.625  31.351  30.945  1.00  0.00     0.022 A 
BRANCH  41  45
ATOM     45  S   UNL A   1      41.049  31.231  32.301  1.00  0.00     0.124 S 
ATOM     46  O   UNL A   1      40.165  31.940  33.221  1.00  0.00    -0.237 OA
ATOM     47  O   UNL A   1      41.383  29.856  32.659  1.00  0.00    -0.237 OA
ATOM     48  O   UNL A   1      42.155  32.020  31.764  1.00  0.00    -0.744 OA
ENDBRANCH  41  45
ENDBRANCH  24  38
BRANCH  25  49
ATOM     49  C   UNL A   1      45.556  25.280  32.394  1.00  0.00     0.023 A 
ATOM     50  C   UNL A   1      44.789  24.615  33.380  1.00  0.00     0.031 A 
ATOM     51  C   UNL A   1      46.932  25.433  32.670  1.00  0.00     0.131 A 
ATOM     52  C   UNL A   1      45.400  24.126  34.559  1.00  0.00     0.055 A 
ATOM     53  C   UNL A   1      47.530  24.951  33.838  1.00  0.00     0.041 A 
ATOM     54  F   UNL A   1      47.766  25.976  31.770  1.00  0.00    -0.206 F 
ATOM     55  C   UNL A   1      46.768  24.283  34.783  1.00  0.00     0.022 A 
BRANCH  52  56
ATOM     56  S   UNL A   1      44.447  23.151  35.771  1.00  0.00     0.124 S 
ATOM     57  O   UNL A   1      44.847  23.759  37.035  1.00  0.00    -0.237 OA
ATOM     58  O   UNL A   1      43.069  23.375  35.352  1.00  0.00    -0.237 OA
ATOM     59  O   UNL A   1      44.934  21.786  35.563  1.00  0.00    -0.744 OA
ENDBRANCH  52  56
ENDBRANCH  25  49
BRANCH  37  60
ATOM     60  C   UNL A   1      45.575  27.506  26.430  1.00  0.00     0.023 A 
ATOM     61  C   UNL A   1      45.526  26.132  26.105  1.00  0.00     0.031 A 
ATOM     62  C   UNL A   1      46.510  28.309  25.755  1.00  0.00     0.131 A 
ATOM     63  C   UNL A   1      46.400  25.610  25.129  1.00  0.00     0.055 A 
ATOM     64  C   UNL A   1      47.361  27.792  24.778  1.00  0.00     0.041 A 
ATOM     65  F   UNL A   1      46.577  29.628  25.999  1.00  0.00    -0.206 F 
ATOM     66  C   UNL A   1      47.307  26.439  24.461  1.00  0.00     0.022 A 
BRANCH  63  67
ATOM     67  S   UNL A   1      46.328  23.847  24.671  1.00  0.00     0.124 S 
ATOM     68  O   UNL A   1      47.322  23.740  23.608  1.00  0.00    -0.237 OA
ATOM     69  O   UNL A   1      46.649  23.170  25.924  1.00  0.00    -0.237 OA
ATOM     70  O   UNL A   1      44.943  23.664  24.227  1.00  0.00    -0.744 OA
ENDBRANCH  63  67
ENDBRANCH  37  60
ENDBRANCH  11  12
ENDBRANCH   4   6
ENDBRANCH   1   2
BRANCH   1  71
ATOM     71  C   UNL A   1      34.779  20.098  24.865  1.00  0.00     0.023 C 
BRANCH  71  72
ATOM     72  C   UNL A   1      33.654  20.893  24.194  1.00  0.00     0.023 C 
BRANCH  72  73
ATOM     73  C   UNL A   1      32.485  21.311  25.083  1.00  0.00     0.116 C 
BRANCH  73  74
ATOM     74  N   UNL A   1      32.832  21.468  26.487  1.00  0.00    -0.351 N 
ATOM     75  C   UNL A   1      32.472  22.472  27.364  1.00  0.00     0.272 C 
ATOM     76  H   UNL A   1      33.404  20.761  26.864  1.00  0.00     0.163 HD
ATOM     77  O   UNL A   1      32.839  22.393  28.540  1.00  0.00    -0.267 OA
BRANCH  75  78
ATOM     78  C   UNL A   1      31.699  23.614  26.860  1.00  0.00     0.159 A 
ATOM     79  N   UNL A   1      30.356  23.623  26.973  1.00  0.00    -0.169 NA
ATOM     80  C   UNL A   1      32.171  24.827  26.263  1.00  0.00     0.051 A 
ATOM     81  N   UNL A   1      29.992  24.838  26.552  1.00  0.00    -0.277 N 
ATOM     82  C   UNL A   1      31.034  25.630  26.158  1.00  0.00     0.068 A 
ATOM     83  C   UNL A   1      33.391  25.383  25.833  1.00  0.00     0.054 A 
ATOM     84  H   UNL A   1      29.054  25.137  26.529  1.00  0.00     0.190 HD
ATOM     85  C   UNL A   1      31.069  26.963  25.728  1.00  0.00     0.044 A 
ATOM     86  C   UNL A   1      33.472  26.712  25.415  1.00  0.00     0.037 A 
ATOM     87  Cl  UNL A   1      34.761  24.364  25.788  1.00  0.00    -0.083 Cl
ATOM     88  C   UNL A   1      32.319  27.489  25.385  1.00  0.00     0.021 A 
ATOM     89  Br  UNL A   1      32.438  29.303  24.856  1.00  0.00    -0.051 Br
ENDBRANCH  75  78
ENDBRANCH  73  74
ENDBRANCH  72  73
ENDBRANCH  71  72
ENDBRANCH   1  71
TORSDOF 14
ENDMDL
MODEL 2
REMARK VINA RESULT:     -12.9      3.750      8.659
REMARK SMILES O=C(NCCCCNC(=O)c1n[nH]c2cc(Br)cc(Cl)c12)c1ccc(-c2c3nc(c(-c4cc(S(=O)(=O)[O-])ccc4F)c4ccc([nH]4)c(-c4cc(S(=O)(=O)[O-])ccc4F)c4nc(c(-c5cc(S(=O)(=O)[O-])ccc5F)c5ccc2[nH]5)C=C4)C=C3)cc1
REMARK SMILES IDX 4 1 3 2 1 3 2 4 22 6 23 7 84 8 24 9 83 10 25 11 26 12 27 13
REMARK SMILES IDX 77 14 28 15 82 16 76 17 78 18 29 19 81 20 75 21 74 22 30 24
REMARK SMILES IDX 62 25 42 26 61 27 43 28 46 29 60 30 79 31 44 32 45 33 59 35
REMARK SMILES IDX 80 36 47 37 31 38 32 39 40 40 33 41 39 42 41 43 38 44 34 45
REMARK SMILES IDX 35 46 36 47 37 48 63 49 64 50 72 51 65 52 71 53 73 54 70 55
REMARK SMILES IDX 66 56 67 57 68 58 69 59 48 60 49 61 57 62 50 63 56 64 58 65
REMARK SMILES IDX 55 66 51 67 52 68 53 69 54 70 5 71 6 72 7 73 8 74 9 75 10 77
REMARK SMILES IDX 11 78 12 79 21 80 13 81 14 82 19 83 15 85 18 86 20 87 16 88
REMARK SMILES IDX 17 89
REMARK H PARENT 3 5 78 23 46 34 8 76 13 84
REMARK Flexibility Score: inf
ROOT
ATOM      1  C   UNL A   1      34.968  29.120  27.006  1.00  0.00     0.116 C 
ENDROOT
BRANCH   1   2
ATOM      2  N   UNL A   1      35.168  29.473  28.397  1.00  0.00    -0.352 N 
ATOM      3  O   UNL A   1      36.022  30.195  30.294  1.00  0.00    -0.269 OA
ATOM      4  C   UNL A   1      36.261  29.670  29.201  1.00  0.00     0.251 C 
ATOM      5  H   UNL A   1      34.319  29.602  28.879  1.00  0.00     0.163 HD
BRANCH   4   6
ATOM      6  C   UNL A   1      37.667  29.272  28.892  1.00  0.00     0.039 A 
ATOM      7  C   UNL A   1      38.408  29.674  27.783  1.00  0.00     0.014 A 
ATOM      8  C   UNL A   1      38.279  28.389  29.810  1.00  0.00     0.014 A 
ATOM      9  C   UNL A   1      39.696  29.170  27.573  1.00  0.00     0.010 A 
ATOM     10  C   UNL A   1      39.567  27.888  29.607  1.00  0.00     0.010 A 
ATOM     11  C   UNL A   1      40.277  28.266  28.473  1.00  0.00    -0.014 A 
BRANCH  11  12
ATOM     12  C   UNL A   1      41.685  27.902  28.278  1.00  0.00     0.031 A 
ATOM     13  C   UNL A   1      41.893  26.640  27.516  1.00  0.00     0.074 A 
ATOM     14  C   UNL A   1      42.773  28.622  28.626  1.00  0.00     0.049 A 
ATOM     15  N   UNL A   1      42.319  25.506  27.967  1.00  0.00    -0.248 NA
ATOM     16  C   UNL A   1      41.480  26.605  26.107  1.00  0.00     0.031 C 
ATOM     17  C   UNL A   1      42.839  29.986  29.144  1.00  0.00     0.029 A 
ATOM     18  N   UNL A   1      44.093  28.266  28.524  1.00  0.00    -0.354 N 
ATOM     19  C   UNL A   1      42.425  24.662  26.865  1.00  0.00     0.074 A 
ATOM     20  C   UNL A   1      41.763  25.342  25.782  1.00  0.00     0.031 C 
ATOM     21  C   UNL A   1      44.128  30.408  29.142  1.00  0.00     0.029 A 
ATOM     22  C   UNL A   1      44.993  29.302  28.761  1.00  0.00     0.049 A 
ATOM     23  H   UNL A   1      44.381  27.353  28.301  1.00  0.00     0.167 HD
ATOM     24  C   UNL A   1      43.214  23.551  26.892  1.00  0.00     0.034 A 
ATOM     25  C   UNL A   1      46.349  29.253  28.655  1.00  0.00     0.034 A 
ATOM     26  C   UNL A   1      43.540  23.169  28.246  1.00  0.00     0.049 A 
ATOM     27  C   UNL A   1      46.739  27.839  28.871  1.00  0.00     0.074 A 
ATOM     28  C   UNL A   1      42.806  22.823  29.366  1.00  0.00     0.029 A 
ATOM     29  N   UNL A   1      44.803  23.446  28.715  1.00  0.00    -0.354 N 
ATOM     30  N   UNL A   1      46.565  27.209  29.999  1.00  0.00    -0.248 NA
ATOM     31  C   UNL A   1      46.962  26.992  27.712  1.00  0.00     0.031 C 
ATOM     32  C   UNL A   1      43.508  23.413  30.461  1.00  0.00     0.029 A 
ATOM     33  C   UNL A   1      44.648  24.032  29.946  1.00  0.00     0.049 A 
ATOM     34  H   UNL A   1      45.654  23.261  28.255  1.00  0.00     0.167 HD
ATOM     35  C   UNL A   1      46.237  25.914  29.636  1.00  0.00     0.074 A 
ATOM     36  C   UNL A   1      46.606  25.813  28.227  1.00  0.00     0.031 C 
ATOM     37  C   UNL A   1      45.457  25.130  30.435  1.00  0.00     0.034 A 
BRANCH  24  38
ATOM     38  C   UNL A   1      43.967  22.992  25.705  1.00  0.00     0.023 A 
ATOM     39  C   UNL A   1      43.963  21.593  25.527  1.00  0.00     0.031 A 
ATOM     40  C   UNL A   1      44.908  23.706  24.930  1.00  0.00     0.131 A 
ATOM     41  C   UNL A   1      44.914  20.963  24.704  1.00  0.00     0.055 A 
ATOM     42  C   UNL A   1      45.807  23.081  24.061  1.00  0.00     0.041 A 
ATOM     43  F   UNL A   1      45.077  25.028  25.038  1.00  0.00    -0.206 F 
ATOM     44  C   UNL A   1      45.837  21.700  23.967  1.00  0.00     0.022 A 
BRANCH  41  45
ATOM     45  S   UNL A   1      45.033  19.156  24.748  1.00  0.00     0.124 S 
ATOM     46  O   UNL A   1      44.984  18.823  23.329  1.00  0.00    -0.237 OA
ATOM     47  O   UNL A   1      46.315  18.954  25.414  1.00  0.00    -0.237 OA
ATOM     48  O   UNL A   1      43.860  18.759  25.524  1.00  0.00    -0.744 OA
ENDBRANCH  41  45
ENDBRANCH  24  38
BRANCH  25  49
ATOM     49  C   UNL A   1      47.296  30.284  28.137  1.00  0.00     0.023 A 
ATOM     50  C   UNL A   1      46.867  31.372  27.339  1.00  0.00     0.031 A 
ATOM     51  C   UNL A   1      48.606  30.366  28.655  1.00  0.00     0.131 A 
ATOM     52  C   UNL A   1      47.723  32.475  27.106  1.00  0.00     0.055 A 
ATOM     53  C   UNL A   1      49.449  31.457  28.419  1.00  0.00     0.041 A 
ATOM     54  F   UNL A   1      49.086  29.430  29.488  1.00  0.00    -0.206 F 
ATOM     55  C   UNL A   1      49.005  32.524  27.654  1.00  0.00     0.022 A 
BRANCH  52  56
ATOM     56  S   UNL A   1      47.132  33.940  26.193  1.00  0.00     0.124 S 
ATOM     57  O   UNL A   1      48.218  34.168  25.246  1.00  0.00    -0.237 OA
ATOM     58  O   UNL A   1      45.868  33.480  25.630  1.00  0.00    -0.237 OA
ATOM     59  O   UNL A   1      47.001  34.958  27.237  1.00  0.00    -0.744 OA
ENDBRANCH  52  56
ENDBRANCH  25  49
BRANCH  37  60
ATOM     60  C   UNL A   1      45.219  25.560  31.865  1.00  0.00     0.023 A 
ATOM     61  C   UNL A   1      46.082  25.266  32.944  1.00  0.00     0.031 A 
ATOM     62  C   UNL A   1      44.151  26.443  32.098  1.00  0.00     0.131 A 
ATOM     63  C   UNL A   1      45.855  25.856  34.204  1.00  0.00     0.055 A 
ATOM     64  C   UNL A   1      43.940  27.037  33.341  1.00  0.00     0.041 A 
ATOM     65  F   UNL A   1      43.320  26.784  31.099  1.00  0.00    -0.206 F 
ATOM     66  C   UNL A   1      44.793  26.746  34.399  1.00  0.00     0.022 A 
BRANCH  63  67
ATOM     67  S   UNL A   1      46.978  25.517  35.600  1.00  0.00     0.124 S 
ATOM     68  O   UNL A   1      46.106  25.637  36.764  1.00  0.00    -0.237 OA
ATOM     69  O   UNL A   1      47.474  24.177  35.303  1.00  0.00    -0.237 OA
ATOM     70  O   UNL A   1      47.990  26.571  35.489  1.00  0.00    -0.744 OA
ENDBRANCH  63  67
ENDBRANCH  37  60
ENDBRANCH  11  12
ENDBRANCH   4   6
ENDBRANCH   1   2
BRANCH   1  71
ATOM     71  C   UNL A   1      33.521  28.829  26.607  1.00  0.00     0.023 C 
BRANCH  71  72
ATOM     72  C   UNL A   1      33.023  29.490  25.317  1.00  0.00     0.023 C 
BRANCH  72  73
ATOM     73  C   UNL A   1      31.512  29.510  25.097  1.00  0.00     0.116 C 
BRANCH  73  74
ATOM     74  N   UNL A   1      31.115  29.748  23.718  1.00  0.00    -0.351 N 
ATOM     75  C   UNL A   1      30.476  28.898  22.838  1.00  0.00     0.272 C 
ATOM     76  H   UNL A   1      31.333  30.640  23.362  1.00  0.00     0.163 HD
ATOM     77  O   UNL A   1      30.184  29.315  21.714  1.00  0.00    -0.267 OA
BRANCH  75  78
ATOM     78  C   UNL A   1      30.198  27.517  23.257  1.00  0.00     0.159 A 
ATOM     79  N   UNL A   1      29.001  27.201  23.790  1.00  0.00    -0.169 NA
ATOM     80  C   UNL A   1      31.033  26.359  23.147  1.00  0.00     0.051 A 
ATOM     81  N   UNL A   1      29.035  25.872  23.925  1.00  0.00    -0.277 N 
ATOM     82  C   UNL A   1      30.205  25.296  23.514  1.00  0.00     0.068 A 
ATOM     83  C   UNL A   1      32.348  26.043  22.757  1.00  0.00     0.054 A 
ATOM     84  H   UNL A   1      28.283  25.352  24.290  1.00  0.00     0.190 HD
ATOM     85  C   UNL A   1      30.595  23.953  23.433  1.00  0.00     0.044 A 
ATOM     86  C   UNL A   1      32.769  24.717  22.646  1.00  0.00     0.037 A 
ATOM     87  Cl  UNL A   1      33.429  27.334  22.473  1.00  0.00    -0.083 Cl
ATOM     88  C   UNL A   1      31.887  23.691  22.966  1.00  0.00     0.021 A 
ATOM     89  Br  UNL A   1      32.448  21.893  22.777  1.00  0.00    -0.051 Br
ENDBRANCH  75  78
ENDBRANCH  73  74
ENDBRANCH  72  73
ENDBRANCH  71  72
ENDBRANCH   1  71
TORSDOF 14
ENDMDL
MODEL 3
REMARK VINA RESULT:     -12.9      3.955      7.370
REMARK SMILES O=C(NCCCCNC(=O)c1n[nH]c2cc(Br)cc(Cl)c12)c1ccc(-c2c3nc(c(-c4cc(S(=O)(=O)[O-])ccc4F)c4ccc([nH]4)c(-c4cc(S(=O)(=O)[O-])ccc4F)c4nc(c(-c5cc(S(=O)(=O)[O-])ccc5F)c5ccc2[nH]5)C=C4)C=C3)cc1
REMARK SMILES IDX 4 1 3 2 1 3 2 4 22 6 23 7 84 8 24 9 83 10 25 11 26 12 27 13
REMARK SMILES IDX 77 14 28 15 82 16 76 17 78 18 29 19 81 20 75 21 74 22 30 24
REMARK SMILES IDX 62 25 42 26 61 27 43 28 46 29 60 30 79 31 44 32 45 33 59 35
REMARK SMILES IDX 80 36 47 37 31 38 32 39 40 40 33 41 39 42 41 43 38 44 34 45
REMARK SMILES IDX 35 46 36 47 37 48 63 49 64 50 72 51 65 52 71 53 73 54 70 55
REMARK SMILES IDX 66 56 67 57 68 58 69 59 48 60 49 61 57 62 50 63 56 64 58 65
REMARK SMILES IDX 55 66 51 67 52 68 53 69 54 70 5 71 6 72 7 73 8 74 9 75 10 77
REMARK SMILES IDX 11 78 12 79 21 80 13 81 14 82 19 83 15 85 18 86 20 87 16 88
REMARK SMILES IDX 17 89
REMARK H PARENT 3 5 78 23 46 34 8 76 13 84
REMARK Flexibility Score: inf
ROOT
ATOM      1  C   UNL A   1      33.060  29.779  27.656  1.00  0.00     0.116 C 
ENDROOT
BRANCH   1   2
ATOM      2  N   UNL A   1      33.649  31.103  27.694  1.00  0.00    -0.352 N 
ATOM      3  O   UNL A   1      35.031  32.808  27.525  1.00  0.00    -0.269 OA
ATOM      4  C   UNL A   1      34.927  31.596  27.741  1.00  0.00     0.251 C 
ATOM      5  H   UNL A   1      32.970  31.816  27.683  1.00  0.00     0.163 HD
BRANCH   4   6
ATOM      6  C   UNL A   1      36.161  30.820  28.067  1.00  0.00     0.039 A 
ATOM      7  C   UNL A   1      36.357  29.460  27.843  1.00  0.00     0.014 A 
ATOM      8  C   UNL A   1      37.208  31.547  28.678  1.00  0.00     0.014 A 
ATOM      9  C   UNL A   1      37.538  28.837  28.261  1.00  0.00     0.010 A 
ATOM     10  C   UNL A   1      38.391  30.930  29.093  1.00  0.00     0.010 A 
ATOM     11  C   UNL A   1      38.554  29.563  28.900  1.00  0.00    -0.014 A 
BRANCH  11  12
ATOM     12  C   UNL A   1      39.827  28.884  29.167  1.00  0.00     0.031 A 
ATOM     13  C   UNL A   1      40.151  28.736  30.613  1.00  0.00     0.074 A 
ATOM     14  C   UNL A   1      40.658  28.316  28.268  1.00  0.00     0.049 A 
ATOM     15  N   UNL A   1      41.065  29.355  31.286  1.00  0.00    -0.248 NA
ATOM     16  C   UNL A   1      39.288  27.875  31.433  1.00  0.00     0.031 C 
ATOM     17  C   UNL A   1      40.448  28.100  26.838  1.00  0.00     0.029 A 
ATOM     18  N   UNL A   1      41.885  27.748  28.489  1.00  0.00    -0.354 N 
ATOM     19  C   UNL A   1      41.036  28.820  32.570  1.00  0.00     0.074 A 
ATOM     20  C   UNL A   1      39.837  28.026  32.640  1.00  0.00     0.031 C 
ATOM     21  C   UNL A   1      41.425  27.295  26.355  1.00  0.00     0.029 A 
ATOM     22  C   UNL A   1      42.407  27.052  27.401  1.00  0.00     0.049 A 
ATOM     23  H   UNL A   1      42.360  27.825  29.347  1.00  0.00     0.167 HD
ATOM     24  C   UNL A   1      42.103  28.929  33.411  1.00  0.00     0.034 A 
ATOM     25  C   UNL A   1      43.562  26.333  27.363  1.00  0.00     0.034 A 
ATOM     26  C   UNL A   1      43.010  29.967  32.981  1.00  0.00     0.049 A 
ATOM     27  C   UNL A   1      44.453  26.909  28.398  1.00  0.00     0.074 A 
ATOM     28  C   UNL A   1      42.898  31.326  32.750  1.00  0.00     0.029 A 
ATOM     29  N   UNL A   1      44.186  29.594  32.371  1.00  0.00    -0.354 N 
ATOM     30  N   UNL A   1      44.926  28.123  28.347  1.00  0.00    -0.248 NA
ATOM     31  C   UNL A   1      44.506  26.274  29.704  1.00  0.00     0.031 C 
ATOM     32  C   UNL A   1      43.711  31.572  31.602  1.00  0.00     0.029 A 
ATOM     33  C   UNL A   1      44.306  30.362  31.241  1.00  0.00     0.049 A 
ATOM     34  H   UNL A   1      44.818  28.908  32.686  1.00  0.00     0.167 HD
ATOM     35  C   UNL A   1      44.941  28.555  29.662  1.00  0.00     0.074 A 
ATOM     36  C   UNL A   1      44.780  27.341  30.459  1.00  0.00     0.031 C 
ATOM     37  C   UNL A   1      44.819  29.877  29.976  1.00  0.00     0.034 A 
BRANCH  24  38
ATOM     38  C   UNL A   1      42.509  27.893  34.436  1.00  0.00     0.023 A 
ATOM     39  C   UNL A   1      43.269  26.792  33.989  1.00  0.00     0.031 A 
ATOM     40  C   UNL A   1      41.959  27.773  35.732  1.00  0.00     0.131 A 
ATOM     41  C   UNL A   1      43.369  25.619  34.760  1.00  0.00     0.055 A 
ATOM     42  C   UNL A   1      42.119  26.631  36.522  1.00  0.00     0.041 A 
ATOM     43  F   UNL A   1      41.162  28.705  36.266  1.00  0.00    -0.206 F 
ATOM     44  C   UNL A   1      42.800  25.532  36.027  1.00  0.00     0.022 A 
BRANCH  41  45
ATOM     45  S   UNL A   1      44.113  24.151  34.003  1.00  0.00     0.124 S 
ATOM     46  O   UNL A   1      44.485  24.655  32.686  1.00  0.00    -0.237 OA
ATOM     47  O   UNL A   1      45.213  23.864  34.918  1.00  0.00    -0.237 OA
ATOM     48  O   UNL A   1      43.024  23.176  34.014  1.00  0.00    -0.744 OA
ENDBRANCH  41  45
ENDBRANCH  24  38
BRANCH  25  49
ATOM     49  C   UNL A   1      43.849  25.040  26.675  1.00  0.00     0.023 A 
ATOM     50  C   UNL A   1      43.106  23.864  26.934  1.00  0.00     0.031 A 
ATOM     51  C   UNL A   1      44.689  25.013  25.540  1.00  0.00     0.131 A 
ATOM     52  C   UNL A   1      43.207  22.744  26.074  1.00  0.00     0.055 A 
ATOM     53  C   UNL A   1      44.788  23.903  24.696  1.00  0.00     0.041 A 
ATOM     54  F   UNL A   1      45.376  26.099  25.156  1.00  0.00    -0.206 F 
ATOM     55  C   UNL A   1      44.036  22.767  24.952  1.00  0.00     0.022 A 
BRANCH  52  56
ATOM     56  S   UNL A   1      42.154  21.276  26.323  1.00  0.00     0.124 S 
ATOM     57  O   UNL A   1      42.328  21.012  27.746  1.00  0.00    -0.237 OA
ATOM     58  O   UNL A   1      40.838  21.750  25.909  1.00  0.00    -0.237 OA
ATOM     59  O   UNL A   1      42.751  20.278  25.433  1.00  0.00    -0.744 OA
ENDBRANCH  52  56
ENDBRANCH  25  49
BRANCH  37  60
ATOM     60  C   UNL A   1      44.992  30.902  28.879  1.00  0.00     0.023 A 
ATOM     61  C   UNL A   1      46.227  31.483  28.512  1.00  0.00     0.031 A 
ATOM     62  C   UNL A   1      43.873  31.171  28.072  1.00  0.00     0.131 A 
ATOM     63  C   UNL A   1      46.304  32.301  27.366  1.00  0.00     0.055 A 
ATOM     64  C   UNL A   1      43.958  31.966  26.931  1.00  0.00     0.041 A 
ATOM     65  F   UNL A   1      42.683  30.617  28.355  1.00  0.00    -0.206 F 
ATOM     66  C   UNL A   1      45.176  32.534  26.573  1.00  0.00     0.022 A 
BRANCH  63  67
ATOM     67  S   UNL A   1      47.895  33.031  26.857  1.00  0.00     0.124 S 
ATOM     68  O   UNL A   1      47.525  33.878  25.728  1.00  0.00    -0.237 OA
ATOM     69  O   UNL A   1      48.339  33.724  28.063  1.00  0.00    -0.237 OA
ATOM     70  O   UNL A   1      48.708  31.866  26.500  1.00  0.00    -0.744 OA
ENDBRANCH  63  67
ENDBRANCH  37  60
ENDBRANCH  11  12
ENDBRANCH   4   6
ENDBRANCH   1   2
BRANCH   1  71
ATOM     71  C   UNL A   1      33.176  29.050  26.317  1.00  0.00     0.023 C 
BRANCH  71  72
ATOM     72  C   UNL A   1      32.646  29.793  25.086  1.00  0.00     0.023 C 
BRANCH  72  73
ATOM     73  C   UNL A   1      31.134  29.773  24.872  1.00  0.00     0.116 C 
BRANCH  73  74
ATOM     74  N   UNL A   1      30.729  29.902  23.481  1.00  0.00    -0.351 N 
ATOM     75  C   UNL A   1      30.168  28.955  22.648  1.00  0.00     0.272 C 
ATOM     76  H   UNL A   1      30.876  30.789  23.078  1.00  0.00     0.163 HD
ATOM     77  O   UNL A   1      29.851  29.286  21.502  1.00  0.00    -0.267 OA
BRANCH  75  78
ATOM     78  C   UNL A   1      30.001  27.582  23.140  1.00  0.00     0.159 A 
ATOM     79  N   UNL A   1      28.839  27.203  23.706  1.00  0.00    -0.169 NA
ATOM     80  C   UNL A   1      30.922  26.486  23.077  1.00  0.00     0.051 A 
ATOM     81  N   UNL A   1      28.976  25.889  23.909  1.00  0.00    -0.277 N 
ATOM     82  C   UNL A   1      30.182  25.384  23.510  1.00  0.00     0.068 A 
ATOM     83  C   UNL A   1      32.253  26.251  22.684  1.00  0.00     0.054 A 
ATOM     84  H   UNL A   1      28.269  25.334  24.311  1.00  0.00     0.190 HD
ATOM     85  C   UNL A   1      30.672  24.072  23.492  1.00  0.00     0.044 A 
ATOM     86  C   UNL A   1      32.773  24.957  22.634  1.00  0.00     0.037 A 
ATOM     87  Cl  UNL A   1      33.229  27.604  22.319  1.00  0.00    -0.083 Cl
ATOM     88  C   UNL A   1      31.975  23.885  23.019  1.00  0.00     0.021 A 
ATOM     89  Br  UNL A   1      32.671  22.128  22.913  1.00  0.00    -0.051 Br
ENDBRANCH  75  78
ENDBRANCH  73  74
ENDBRANCH  72  73
ENDBRANCH  71  72
ENDBRANCH   1  71
TORSDOF 14
ENDMDL
