MODEL 1
REMARK VINA RESULT:     -11.5      0.000      0.000
REMARK SMILES COc1cccc([C@H]2CC(c3ccc(S(C)(=O)=O)cc3)=NN2c2ccc(C(=O)NCCCCNC(=O)c3ccc(-c4c5nc(c(-c6cc(S(=O)(=O)[O-])ccc6F)c6ccc([nH]6)c(-c6cc(S(=O)(=O)[O-])ccc6F)c6nc(c(-c7cc(S(=O)(=O)[O-])ccc7F)c7ccc4[nH]7)C=C6)C=C5)cc3)cc2)c1
REMARK SMILES IDX 31 1 30 2 29 3 27 4 28 5 26 7 23 8 24 9 101 10 25 11 100 12
REMARK SMILES IDX 22 13 8 14 9 15 10 16 21 17 7 18 3 19 4 20 102 21 5 22 6 23
REMARK SMILES IDX 2 24 1 25 11 26 12 27 20 28 13 29 19 30 14 31 15 32 16 33
REMARK SMILES IDX 17 34 18 35 32 36 33 37 34 38 35 39 36 41 37 42 38 43 99 44
REMARK SMILES IDX 39 45 98 46 40 47 41 48 42 49 92 50 43 51 97 52 91 53 93 54
REMARK SMILES IDX 44 55 96 56 90 57 89 58 45 60 77 61 57 62 76 63 58 64 61 65
REMARK SMILES IDX 75 66 94 67 59 68 60 69 74 71 95 72 62 73 46 74 47 75 55 76
REMARK SMILES IDX 48 77 54 78 56 79 53 80 49 81 50 82 51 83 52 84 78 85 79 86
REMARK SMILES IDX 87 87 80 88 86 89 88 90 85 91 81 92 82 93 83 94 84 95 63 96
REMARK SMILES IDX 64 97 72 98 65 99 71 100 73 101 70 102 66 103 67 104 68 105
REMARK SMILES IDX 69 106
REMARK H PARENT 29 6 34 40 93 59 61 70
REMARK Flexibility Score: inf
ROOT
ATOM      1  C   UNL A   1      38.221  20.928  25.517  1.00  0.00     0.023 C 
ENDROOT
BRANCH   1   2
ATOM      2  C   UNL A   1      37.234  21.846  24.793  1.00  0.00     0.116 C 
BRANCH   2   3
ATOM      3  N   UNL A   1      35.963  21.175  24.615  1.00  0.00    -0.352 N 
ATOM      4  C   UNL A   1      34.669  21.618  24.694  1.00  0.00     0.251 C 
ATOM      5  O   UNL A   1      33.777  20.790  24.497  1.00  0.00    -0.269 OA
ATOM      6  H   UNL A   1      36.044  20.219  24.394  1.00  0.00     0.163 HD
BRANCH   4   7
ATOM      7  C   UNL A   1      34.290  23.038  24.955  1.00  0.00     0.039 A 
ATOM      8  C   UNL A   1      33.693  25.793  25.270  1.00  0.00     0.060 A 
ATOM      9  C   UNL A   1      34.215  25.303  24.070  1.00  0.00     0.029 A 
ATOM     10  C   UNL A   1      33.429  24.880  26.293  1.00  0.00     0.029 A 
ATOM     11  C   UNL A   1      34.530  23.950  23.920  1.00  0.00     0.016 A 
ATOM     12  C   UNL A   1      33.687  23.515  26.122  1.00  0.00     0.016 A 
BRANCH   8  13
ATOM     13  N   UNL A   1      33.417  27.142  25.403  1.00  0.00    -0.257 N 
ATOM     14  C   UNL A   1      32.833  27.981  24.358  1.00  0.00     0.144 C 
ATOM     15  C   UNL A   1      32.988  29.396  24.939  1.00  0.00     0.091 C 
ATOM     16  C   UNL A   1      33.754  29.078  26.190  1.00  0.00     0.071 C 
ATOM     17  N   UNL A   1      33.976  27.827  26.429  1.00  0.00    -0.176 NA
BRANCH  14  18
ATOM     18  C   UNL A   1      31.385  27.595  24.099  1.00  0.00    -0.019 A 
ATOM     19  C   UNL A   1      29.235  28.015  23.027  1.00  0.00     0.119 A 
ATOM     20  C   UNL A   1      28.679  26.947  23.729  1.00  0.00     0.046 A 
ATOM     21  C   UNL A   1      30.575  28.349  23.227  1.00  0.00     0.052 A 
ATOM     22  C   UNL A   1      29.466  26.189  24.594  1.00  0.00     0.004 A 
ATOM     23  C   UNL A   1      30.813  26.507  24.775  1.00  0.00     0.006 A 
BRANCH  19  24
ATOM     24  O   UNL A   1      28.373  28.706  22.218  1.00  0.00    -0.497 OA
ATOM     25  C   UNL A   1      27.487  29.584  22.905  1.00  0.00     0.278 C 
ENDBRANCH  19  24
ENDBRANCH  14  18
BRANCH  16  26
ATOM     26  C   UNL A   1      34.258  30.135  27.069  1.00  0.00    -0.002 A 
ATOM     27  C   UNL A   1      35.536  29.989  27.618  1.00  0.00     0.011 A 
ATOM     28  C   UNL A   1      33.449  31.222  27.397  1.00  0.00     0.011 A 
ATOM     29  C   UNL A   1      36.021  30.955  28.498  1.00  0.00     0.021 A 
ATOM     30  C   UNL A   1      33.922  32.176  28.299  1.00  0.00     0.021 A 
ATOM     31  C   UNL A   1      35.203  32.034  28.847  1.00  0.00     0.067 A 
BRANCH  31  32
ATOM     32  S   UNL A   1      35.815  33.240  30.001  1.00  0.00     0.175 S 
ATOM     33  C   UNL A   1      34.442  34.335  30.255  1.00  0.00     0.163 C 
ATOM     34  O   UNL A   1      36.081  32.537  31.240  1.00  0.00    -0.224 OA
ATOM     35  O   UNL A   1      36.859  33.996  29.332  1.00  0.00    -0.224 OA
ENDBRANCH  31  32
ENDBRANCH  16  26
ENDBRANCH   8  13
ENDBRANCH   4   7
ENDBRANCH   2   3
ENDBRANCH   1   2
BRANCH   1  36
ATOM     36  C   UNL A   1      39.463  21.646  26.051  1.00  0.00     0.023 C 
BRANCH  36  37
ATOM     37  C   UNL A   1      40.368  20.791  26.932  1.00  0.00     0.116 C 
BRANCH  37  38
ATOM     38  N   UNL A   1      41.283  19.960  26.167  1.00  0.00    -0.352 N 
ATOM     39  C   UNL A   1      42.529  20.277  25.685  1.00  0.00     0.251 C 
ATOM     40  H   UNL A   1      40.966  19.050  25.966  1.00  0.00     0.163 HD
ATOM     41  O   UNL A   1      43.110  19.493  24.941  1.00  0.00    -0.269 OA
BRANCH  39  42
ATOM     42  C   UNL A   1      43.137  21.578  26.033  1.00  0.00     0.039 A 
ATOM     43  C   UNL A   1      43.057  22.622  25.110  1.00  0.00     0.014 A 
ATOM     44  C   UNL A   1      43.766  21.772  27.266  1.00  0.00     0.014 A 
ATOM     45  C   UNL A   1      43.565  23.878  25.446  1.00  0.00     0.010 A 
ATOM     46  C   UNL A   1      44.205  23.043  27.627  1.00  0.00     0.010 A 
ATOM     47  C   UNL A   1      44.116  24.107  26.718  1.00  0.00    -0.014 A 
BRANCH  47  48
ATOM     48  C   UNL A   1      44.617  25.452  27.097  1.00  0.00     0.031 A 
ATOM     49  C   UNL A   1      46.013  25.870  26.725  1.00  0.00     0.074 A 
ATOM     50  C   UNL A   1      43.824  26.280  27.807  1.00  0.00     0.049 A 
ATOM     51  N   UNL A   1      46.636  26.993  26.975  1.00  0.00    -0.248 NA
ATOM     52  C   UNL A   1      46.827  24.881  26.003  1.00  0.00     0.031 C 
ATOM     53  C   UNL A   1      42.471  25.963  28.270  1.00  0.00     0.029 A 
ATOM     54  N   UNL A   1      44.039  27.556  28.262  1.00  0.00    -0.354 N 
ATOM     55  C   UNL A   1      47.914  26.844  26.448  1.00  0.00     0.074 A 
ATOM     56  C   UNL A   1      47.997  25.496  25.929  1.00  0.00     0.031 C 
ATOM     57  C   UNL A   1      41.966  27.027  28.914  1.00  0.00     0.029 A 
ATOM     58  C   UNL A   1      42.968  28.087  28.942  1.00  0.00     0.049 A 
ATOM     59  H   UNL A   1      44.881  28.045  28.116  1.00  0.00     0.167 HD
ATOM     60  C   UNL A   1      48.915  27.757  26.376  1.00  0.00     0.034 A 
ATOM     61  C   UNL A   1      42.813  29.293  29.525  1.00  0.00     0.034 A 
ATOM     62  C   UNL A   1      48.809  29.101  26.891  1.00  0.00     0.049 A 
ATOM     63  C   UNL A   1      43.942  30.289  29.440  1.00  0.00     0.074 A 
ATOM     64  C   UNL A   1      49.737  30.125  26.828  1.00  0.00     0.029 A 
ATOM     65  N   UNL A   1      47.709  29.607  27.574  1.00  0.00    -0.354 N 
ATOM     66  N   UNL A   1      45.123  30.154  28.880  1.00  0.00    -0.248 NA
ATOM     67  C   UNL A   1      43.709  31.603  30.051  1.00  0.00     0.031 C 
ATOM     68  C   UNL A   1      49.228  31.225  27.529  1.00  0.00     0.029 A 
ATOM     69  C   UNL A   1      47.948  30.917  27.963  1.00  0.00     0.049 A 
ATOM     70  H   UNL A   1      46.880  29.108  27.755  1.00  0.00     0.167 HD
ATOM     71  C   UNL A   1      45.762  31.380  29.048  1.00  0.00     0.074 A 
ATOM     72  C   UNL A   1      44.825  32.243  29.739  1.00  0.00     0.031 C 
ATOM     73  C   UNL A   1      47.010  31.759  28.668  1.00  0.00     0.034 A 
BRANCH  60  74
ATOM     74  C   UNL A   1      50.211  27.315  25.737  1.00  0.00     0.023 A 
ATOM     75  C   UNL A   1      50.512  27.614  24.395  1.00  0.00     0.031 A 
ATOM     76  C   UNL A   1      51.144  26.557  26.464  1.00  0.00     0.131 A 
ATOM     77  C   UNL A   1      51.668  27.087  23.801  1.00  0.00     0.055 A 
ATOM     78  C   UNL A   1      52.337  26.109  25.891  1.00  0.00     0.041 A 
ATOM     79  F   UNL A   1      50.907  26.222  27.742  1.00  0.00    -0.206 F 
ATOM     80  C   UNL A   1      52.596  26.358  24.546  1.00  0.00     0.022 A 
BRANCH  77  81
ATOM     81  S   UNL A   1      51.864  27.239  22.004  1.00  0.00     0.124 S 
ATOM     82  O   UNL A   1      50.474  27.222  21.554  1.00  0.00    -0.237 OA
ATOM     83  O   UNL A   1      52.564  28.511  21.869  1.00  0.00    -0.237 OA
ATOM     84  O   UNL A   1      52.643  26.056  21.642  1.00  0.00    -0.744 OA
ENDBRANCH  77  81
ENDBRANCH  60  74
BRANCH  61  85
ATOM     85  C   UNL A   1      41.547  29.635  30.235  1.00  0.00     0.023 A 
ATOM     86  C   UNL A   1      41.480  29.637  31.637  1.00  0.00     0.031 A 
ATOM     87  C   UNL A   1      40.371  29.919  29.518  1.00  0.00     0.131 A 
ATOM     88  C   UNL A   1      40.254  29.869  32.279  1.00  0.00     0.055 A 
ATOM     89  C   UNL A   1      39.165  30.203  30.163  1.00  0.00     0.041 A 
ATOM     90  F   UNL A   1      40.381  29.938  28.176  1.00  0.00    -0.206 F 
ATOM     91  C   UNL A   1      39.098  30.164  31.552  1.00  0.00     0.022 A 
BRANCH  88  92
ATOM     92  S   UNL A   1      40.172  29.693  34.083  1.00  0.00     0.124 S 
ATOM     93  O   UNL A   1      38.763  29.962  34.344  1.00  0.00    -0.237 OA
ATOM     94  O   UNL A   1      40.608  28.314  34.273  1.00  0.00    -0.237 OA
ATOM     95  O   UNL A   1      41.103  30.711  34.566  1.00  0.00    -0.744 OA
ENDBRANCH  88  92
ENDBRANCH  61  85
BRANCH  73  96
ATOM     96  C   UNL A   1      47.407  33.186  28.966  1.00  0.00     0.023 A 
ATOM     97  C   UNL A   1      47.173  34.225  28.048  1.00  0.00     0.031 A 
ATOM     98  C   UNL A   1      48.059  33.503  30.171  1.00  0.00     0.131 A 
ATOM     99  C   UNL A   1      47.650  35.517  28.317  1.00  0.00     0.055 A 
ATOM    100  C   UNL A   1      48.471  34.805  30.463  1.00  0.00     0.041 A 
ATOM    101  F   UNL A   1      48.312  32.552  31.084  1.00  0.00    -0.206 F 
ATOM    102  C   UNL A   1      48.282  35.817  29.526  1.00  0.00     0.022 A 
BRANCH  99 103
ATOM    103  S   UNL A   1      47.536  36.774  27.014  1.00  0.00     0.124 S 
ATOM    104  O   UNL A   1      47.309  35.959  25.825  1.00  0.00    -0.237 OA
ATOM    105  O   UNL A   1      46.405  37.581  27.458  1.00  0.00    -0.237 OA
ATOM    106  O   UNL A   1      48.835  37.443  27.069  1.00  0.00    -0.744 OA
ENDBRANCH  99 103
ENDBRANCH  73  96
ENDBRANCH  47  48
ENDBRANCH  39  42
ENDBRANCH  37  38
ENDBRANCH  36  37
ENDBRANCH   1  36
TORSDOF 19
ENDMDL
MODEL 2
REMARK VINA RESULT:     -11.2      6.577     15.790
REMARK SMILES COc1cccc([C@H]2CC(c3ccc(S(C)(=O)=O)cc3)=NN2c2ccc(C(=O)NCCCCNC(=O)c3ccc(-c4c5nc(c(-c6cc(S(=O)(=O)[O-])ccc6F)c6ccc([nH]6)c(-c6cc(S(=O)(=O)[O-])ccc6F)c6nc(c(-c7cc(S(=O)(=O)[O-])ccc7F)c7ccc4[nH]7)C=C6)C=C5)cc3)cc2)c1
REMARK SMILES IDX 31 1 30 2 29 3 27 4 28 5 26 7 23 8 24 9 101 10 25 11 100 12
REMARK SMILES IDX 22 13 8 14 9 15 10 16 21 17 7 18 3 19 4 20 102 21 5 22 6 23
REMARK SMILES IDX 2 24 1 25 11 26 12 27 20 28 13 29 19 30 14 31 15 32 16 33
REMARK SMILES IDX 17 34 18 35 32 36 33 37 34 38 35 39 36 41 37 42 38 43 99 44
REMARK SMILES IDX 39 45 98 46 40 47 41 48 42 49 92 50 43 51 97 52 91 53 93 54
REMARK SMILES IDX 44 55 96 56 90 57 89 58 45 60 77 61 57 62 76 63 58 64 61 65
REMARK SMILES IDX 75 66 94 67 59 68 60 69 74 71 95 72 62 73 46 74 47 75 55 76
REMARK SMILES IDX 48 77 54 78 56 79 53 80 49 81 50 82 51 83 52 84 78 85 79 86
REMARK SMILES IDX 87 87 80 88 86 89 88 90 85 91 81 92 82 93 83 94 84 95 63 96
REMARK SMILES IDX 64 97 72 98 65 99 71 100 73 101 70 102 66 103 67 104 68 105
REMARK SMILES IDX 69 106
REMARK H PARENT 29 6 34 40 93 59 61 70
REMARK Flexibility Score: inf
ROOT
ATOM      1  C   UNL A   1      43.090  39.907  30.996  1.00  0.00     0.023 C 
ENDROOT
BRANCH   1   2
ATOM      2  C   UNL A   1      41.975  40.042  29.957  1.00  0.00     0.116 C 
BRANCH   2   3
ATOM      3  N   UNL A   1      41.935  38.868  29.109  1.00  0.00    -0.352 N 
ATOM      4  C   UNL A   1      42.236  38.677  27.787  1.00  0.00     0.251 C 
ATOM      5  O   UNL A   1      42.090  37.540  27.334  1.00  0.00    -0.269 OA
ATOM      6  H   UNL A   1      41.633  38.054  29.572  1.00  0.00     0.163 HD
BRANCH   4   7
ATOM      7  C   UNL A   1      42.770  39.746  26.892  1.00  0.00     0.039 A 
ATOM      8  C   UNL A   1      43.576  41.798  25.107  1.00  0.00     0.060 A 
ATOM      9  C   UNL A   1      42.224  41.575  25.383  1.00  0.00     0.029 A 
ATOM     10  C   UNL A   1      44.520  41.014  25.772  1.00  0.00     0.029 A 
ATOM     11  C   UNL A   1      41.823  40.551  26.244  1.00  0.00     0.016 A 
ATOM     12  C   UNL A   1      44.122  40.028  26.683  1.00  0.00     0.016 A 
BRANCH   8  13
ATOM     13  N   UNL A   1      43.944  42.799  24.226  1.00  0.00    -0.257 N 
ATOM     14  C   UNL A   1      44.323  44.156  24.616  1.00  0.00     0.144 C 
ATOM     15  C   UNL A   1      44.376  44.890  23.267  1.00  0.00     0.091 C 
ATOM     16  C   UNL A   1      43.894  43.796  22.359  1.00  0.00     0.071 C 
ATOM     17  N   UNL A   1      43.667  42.648  22.909  1.00  0.00    -0.176 NA
BRANCH  14  18
ATOM     18  C   UNL A   1      45.653  44.158  25.353  1.00  0.00    -0.019 A 
ATOM     19  C   UNL A   1      46.932  44.273  27.427  1.00  0.00     0.119 A 
ATOM     20  C   UNL A   1      48.116  44.293  26.693  1.00  0.00     0.046 A 
ATOM     21  C   UNL A   1      45.707  44.228  26.759  1.00  0.00     0.052 A 
ATOM     22  C   UNL A   1      48.082  44.223  25.301  1.00  0.00     0.004 A 
ATOM     23  C   UNL A   1      46.858  44.151  24.634  1.00  0.00     0.006 A 
BRANCH  19  24
ATOM     24  O   UNL A   1      47.074  44.365  28.786  1.00  0.00    -0.497 OA
ATOM     25  C   UNL A   1      48.060  43.501  29.341  1.00  0.00     0.278 C 
ENDBRANCH  19  24
ENDBRANCH  14  18
BRANCH  16  26
ATOM     26  C   UNL A   1      43.657  44.031  20.935  1.00  0.00    -0.002 A 
ATOM     27  C   UNL A   1      44.597  44.780  20.219  1.00  0.00     0.011 A 
ATOM     28  C   UNL A   1      42.485  43.574  20.331  1.00  0.00     0.011 A 
ATOM     29  C   UNL A   1      44.372  45.062  18.873  1.00  0.00     0.021 A 
ATOM     30  C   UNL A   1      42.245  43.879  18.991  1.00  0.00     0.021 A 
ATOM     31  C   UNL A   1      43.187  44.625  18.272  1.00  0.00     0.067 A 
BRANCH  31  32
ATOM     32  S   UNL A   1      42.890  45.024  16.565  1.00  0.00     0.175 S 
ATOM     33  C   UNL A   1      41.121  45.033  16.422  1.00  0.00     0.163 C 
ATOM     34  O   UNL A   1      43.377  46.373  16.360  1.00  0.00    -0.224 OA
ATOM     35  O   UNL A   1      43.388  43.920  15.764  1.00  0.00    -0.224 OA
ENDBRANCH  31  32
ENDBRANCH  16  26
ENDBRANCH   8  13
ENDBRANCH   4   7
ENDBRANCH   2   3
ENDBRANCH   1   2
BRANCH   1  36
ATOM     36  C   UNL A   1      44.494  39.800  30.394  1.00  0.00     0.023 C 
BRANCH  36  37
ATOM     37  C   UNL A   1      44.941  38.380  30.064  1.00  0.00     0.116 C 
BRANCH  37  38
ATOM     38  N   UNL A   1      46.247  38.331  29.428  1.00  0.00    -0.352 N 
ATOM     39  C   UNL A   1      46.902  37.248  28.895  1.00  0.00     0.251 C 
ATOM     40  H   UNL A   1      46.727  39.189  29.373  1.00  0.00     0.163 HD
ATOM     41  O   UNL A   1      48.062  37.367  28.513  1.00  0.00    -0.269 OA
BRANCH  39  42
ATOM     42  C   UNL A   1      46.215  35.941  28.827  1.00  0.00     0.039 A 
ATOM     43  C   UNL A   1      45.363  35.689  27.750  1.00  0.00     0.014 A 
ATOM     44  C   UNL A   1      46.421  34.967  29.806  1.00  0.00     0.014 A 
ATOM     45  C   UNL A   1      44.758  34.437  27.630  1.00  0.00     0.010 A 
ATOM     46  C   UNL A   1      45.876  33.696  29.646  1.00  0.00     0.010 A 
ATOM     47  C   UNL A   1      45.032  33.421  28.560  1.00  0.00    -0.014 A 
BRANCH  47  48
ATOM     48  C   UNL A   1      44.426  32.074  28.413  1.00  0.00     0.031 A 
ATOM     49  C   UNL A   1      43.102  31.767  29.059  1.00  0.00     0.074 A 
ATOM     50  C   UNL A   1      45.087  31.120  27.728  1.00  0.00     0.049 A 
ATOM     51  N   UNL A   1      42.418  30.652  29.056  1.00  0.00    -0.248 NA
ATOM     52  C   UNL A   1      42.481  32.849  29.836  1.00  0.00     0.031 C 
ATOM     53  C   UNL A   1      46.402  31.286  27.103  1.00  0.00     0.029 A 
ATOM     54  N   UNL A   1      44.746  29.823  27.440  1.00  0.00    -0.354 N 
ATOM     55  C   UNL A   1      41.291  30.896  29.833  1.00  0.00     0.074 A 
ATOM     56  C   UNL A   1      41.423  32.241  30.349  1.00  0.00     0.031 C 
ATOM     57  C   UNL A   1      46.739  30.146  26.479  1.00  0.00     0.029 A 
ATOM     58  C   UNL A   1      45.687  29.157  26.688  1.00  0.00     0.049 A 
ATOM     59  H   UNL A   1      43.907  29.407  27.744  1.00  0.00     0.167 HD
ATOM     60  C   UNL A   1      40.231  30.083  30.072  1.00  0.00     0.034 A 
ATOM     61  C   UNL A   1      45.698  27.893  26.222  1.00  0.00     0.034 A 
ATOM     62  C   UNL A   1      40.114  28.746  29.541  1.00  0.00     0.049 A 
ATOM     63  C   UNL A   1      44.513  27.005  26.506  1.00  0.00     0.074 A 
ATOM     64  C   UNL A   1      39.065  27.854  29.672  1.00  0.00     0.029 A 
ATOM     65  N   UNL A   1      41.086  28.104  28.781  1.00  0.00    -0.354 N 
ATOM     66  N   UNL A   1      43.424  27.273  27.189  1.00  0.00    -0.248 NA
ATOM     67  C   UNL A   1      44.554  25.652  25.940  1.00  0.00     0.031 C 
ATOM     68  C   UNL A   1      39.428  26.653  29.052  1.00  0.00     0.029 A 
ATOM     69  C   UNL A   1      40.672  26.818  28.464  1.00  0.00     0.049 A 
ATOM     70  H   UNL A   1      41.943  28.504  28.508  1.00  0.00     0.167 HD
ATOM     71  C   UNL A   1      42.637  26.127  27.111  1.00  0.00     0.074 A 
ATOM     72  C   UNL A   1      43.368  25.179  26.293  1.00  0.00     0.031 C 
ATOM     73  C   UNL A   1      41.421  25.878  27.663  1.00  0.00     0.034 A 
BRANCH  60  74
ATOM     74  C   UNL A   1      39.134  30.619  30.961  1.00  0.00     0.023 A 
ATOM     75  C   UNL A   1      38.069  31.380  30.444  1.00  0.00     0.031 A 
ATOM     76  C   UNL A   1      39.167  30.398  32.349  1.00  0.00     0.131 A 
ATOM     77  C   UNL A   1      37.134  31.960  31.313  1.00  0.00     0.055 A 
ATOM     78  C   UNL A   1      38.183  30.906  33.200  1.00  0.00     0.041 A 
ATOM     79  F   UNL A   1      40.167  29.697  32.907  1.00  0.00    -0.206 F 
ATOM     80  C   UNL A   1      37.168  31.707  32.686  1.00  0.00     0.022 A 
BRANCH  77  81
ATOM     81  S   UNL A   1      35.965  33.174  30.642  1.00  0.00     0.124 S 
ATOM     82  O   UNL A   1      36.726  33.730  29.525  1.00  0.00    -0.237 OA
ATOM     83  O   UNL A   1      34.820  32.345  30.284  1.00  0.00    -0.237 OA
ATOM     84  O   UNL A   1      35.746  34.094  31.756  1.00  0.00    -0.744 OA
ENDBRANCH  77  81
ENDBRANCH  60  74
BRANCH  61  85
ATOM     85  C   UNL A   1      46.860  27.386  25.437  1.00  0.00     0.023 A 
ATOM     86  C   UNL A   1      47.084  27.809  24.117  1.00  0.00     0.031 A 
ATOM     87  C   UNL A   1      47.739  26.432  25.980  1.00  0.00     0.131 A 
ATOM     88  C   UNL A   1      48.127  27.245  23.368  1.00  0.00     0.055 A 
ATOM     89  C   UNL A   1      48.810  25.914  25.249  1.00  0.00     0.041 A 
ATOM     90  F   UNL A   1      47.576  25.998  27.240  1.00  0.00    -0.206 F 
ATOM     91  C   UNL A   1      49.000  26.309  23.929  1.00  0.00     0.022 A 
BRANCH  88  92
ATOM     92  S   UNL A   1      48.277  27.689  21.615  1.00  0.00     0.124 S 
ATOM     93  O   UNL A   1      49.372  28.652  21.645  1.00  0.00    -0.237 OA
ATOM     94  O   UNL A   1      48.571  26.399  21.000  1.00  0.00    -0.237 OA
ATOM     95  O   UNL A   1      46.964  28.246  21.293  1.00  0.00    -0.744 OA
ENDBRANCH  88  92
ENDBRANCH  61  85
BRANCH  73  96
ATOM     96  C   UNL A   1      40.800  24.535  27.362  1.00  0.00     0.023 A 
ATOM     97  C   UNL A   1      39.631  24.418  26.590  1.00  0.00     0.031 A 
ATOM     98  C   UNL A   1      41.367  23.359  27.883  1.00  0.00     0.131 A 
ATOM     99  C   UNL A   1      39.027  23.163  26.419  1.00  0.00     0.055 A 
ATOM    100  C   UNL A   1      40.800  22.104  27.653  1.00  0.00     0.041 A 
ATOM    101  F   UNL A   1      42.482  23.408  28.629  1.00  0.00    -0.206 F 
ATOM    102  C   UNL A   1      39.613  22.003  26.932  1.00  0.00     0.022 A 
BRANCH  99 103
ATOM    103  S   UNL A   1      37.402  23.082  25.618  1.00  0.00     0.124 S 
ATOM    104  O   UNL A   1      37.672  23.695  24.321  1.00  0.00    -0.237 OA
ATOM    105  O   UNL A   1      37.135  21.648  25.600  1.00  0.00    -0.237 OA
ATOM    106  O   UNL A   1      36.542  23.862  26.506  1.00  0.00    -0.744 OA
ENDBRANCH  99 103
ENDBRANCH  73  96
ENDBRANCH  47  48
ENDBRANCH  39  42
ENDBRANCH  37  38
ENDBRANCH  36  37
ENDBRANCH   1  36
TORSDOF 19
ENDMDL
MODEL 3
REMARK VINA RESULT:     -11.2      1.083      7.336
REMARK SMILES COc1cccc([C@H]2CC(c3ccc(S(C)(=O)=O)cc3)=NN2c2ccc(C(=O)NCCCCNC(=O)c3ccc(-c4c5nc(c(-c6cc(S(=O)(=O)[O-])ccc6F)c6ccc([nH]6)c(-c6cc(S(=O)(=O)[O-])ccc6F)c6nc(c(-c7cc(S(=O)(=O)[O-])ccc7F)c7ccc4[nH]7)C=C6)C=C5)cc3)cc2)c1
REMARK SMILES IDX 31 1 30 2 29 3 27 4 28 5 26 7 23 8 24 9 101 10 25 11 100 12
REMARK SMILES IDX 22 13 8 14 9 15 10 16 21 17 7 18 3 19 4 20 102 21 5 22 6 23
REMARK SMILES IDX 2 24 1 25 11 26 12 27 20 28 13 29 19 30 14 31 15 32 16 33
REMARK SMILES IDX 17 34 18 35 32 36 33 37 34 38 35 39 36 41 37 42 38 43 99 44
REMARK SMILES IDX 39 45 98 46 40 47 41 48 42 49 92 50 43 51 97 52 91 53 93 54
REMARK SMILES IDX 44 55 96 56 90 57 89 58 45 60 77 61 57 62 76 63 58 64 61 65
REMARK SMILES IDX 75 66 94 67 59 68 60 69 74 71 95 72 62 73 46 74 47 75 55 76
REMARK SMILES IDX 48 77 54 78 56 79 53 80 49 81 50 82 51 83 52 84 78 85 79 86
REMARK SMILES IDX 87 87 80 88 86 89 88 90 85 91 81 92 82 93 83 94 84 95 63 96
REMARK SMILES IDX 64 97 72 98 65 99 71 100 73 101 70 102 66 103 67 104 68 105
REMARK SMILES IDX 69 106
REMARK H PARENT 29 6 34 40 93 59 61 70
REMARK Flexibility Score: inf
ROOT
ATOM      1  C   UNL A   1      38.130  21.199  25.402  1.00  0.00     0.023 C 
ENDROOT
BRANCH   1   2
ATOM      2  C   UNL A   1      37.168  21.839  24.399  1.00  0.00     0.116 C 
BRANCH   2   3
ATOM      3  N   UNL A   1      35.890  21.159  24.424  1.00  0.00    -0.352 N 
ATOM      4  C   UNL A   1      34.620  21.597  24.690  1.00  0.00     0.251 C 
ATOM      5  O   UNL A   1      33.714  20.761  24.642  1.00  0.00    -0.269 OA
ATOM      6  H   UNL A   1      35.945  20.200  24.210  1.00  0.00     0.163 HD
BRANCH   4   7
ATOM      7  C   UNL A   1      34.274  23.020  24.981  1.00  0.00     0.039 A 
ATOM      8  C   UNL A   1      33.753  25.782  25.365  1.00  0.00     0.060 A 
ATOM      9  C   UNL A   1      34.345  25.318  24.186  1.00  0.00     0.029 A 
ATOM     10  C   UNL A   1      33.382  24.841  26.327  1.00  0.00     0.029 A 
ATOM     11  C   UNL A   1      34.623  23.961  24.004  1.00  0.00     0.016 A 
ATOM     12  C   UNL A   1      33.603  23.474  26.119  1.00  0.00     0.016 A 
BRANCH   8  13
ATOM     13  N   UNL A   1      33.517  27.134  25.533  1.00  0.00    -0.257 N 
ATOM     14  C   UNL A   1      33.040  28.034  24.485  1.00  0.00     0.144 C 
ATOM     15  C   UNL A   1      33.203  29.418  25.132  1.00  0.00     0.091 C 
ATOM     16  C   UNL A   1      33.866  29.025  26.420  1.00  0.00     0.071 C 
ATOM     17  N   UNL A   1      34.025  27.757  26.623  1.00  0.00    -0.176 NA
BRANCH  14  18
ATOM     18  C   UNL A   1      31.601  27.714  24.109  1.00  0.00    -0.019 A 
ATOM     19  C   UNL A   1      29.575  28.212  22.845  1.00  0.00     0.119 A 
ATOM     20  C   UNL A   1      28.906  27.193  23.520  1.00  0.00     0.046 A 
ATOM     21  C   UNL A   1      30.909  28.484  23.154  1.00  0.00     0.052 A 
ATOM     22  C   UNL A   1      29.576  26.419  24.466  1.00  0.00     0.004 A 
ATOM     23  C   UNL A   1      30.917  26.674  24.756  1.00  0.00     0.006 A 
BRANCH  19  24
ATOM     24  O   UNL A   1      28.823  28.924  21.950  1.00  0.00    -0.497 OA
ATOM     25  C   UNL A   1      27.813  29.738  22.536  1.00  0.00     0.278 C 
ENDBRANCH  19  24
ENDBRANCH  14  18
BRANCH  16  26
ATOM     26  C   UNL A   1      34.342  30.026  27.374  1.00  0.00    -0.002 A 
ATOM     27  C   UNL A   1      33.677  31.255  27.434  1.00  0.00     0.011 A 
ATOM     28  C   UNL A   1      35.474  29.777  28.151  1.00  0.00     0.011 A 
ATOM     29  C   UNL A   1      34.140  32.247  28.298  1.00  0.00     0.021 A 
ATOM     30  C   UNL A   1      35.954  30.778  28.996  1.00  0.00     0.021 A 
ATOM     31  C   UNL A   1      35.288  32.008  29.060  1.00  0.00     0.067 A 
BRANCH  31  32
ATOM     32  S   UNL A   1      35.894  33.292  30.129  1.00  0.00     0.175 S 
ATOM     33  C   UNL A   1      37.336  32.586  30.884  1.00  0.00     0.163 C 
ATOM     34  O   UNL A   1      36.309  34.387  29.275  1.00  0.00    -0.224 OA
ATOM     35  O   UNL A   1      34.908  33.494  31.176  1.00  0.00    -0.224 OA
ENDBRANCH  31  32
ENDBRANCH  16  26
ENDBRANCH   8  13
ENDBRANCH   4   7
ENDBRANCH   2   3
ENDBRANCH   1   2
BRANCH   1  36
ATOM     36  C   UNL A   1      39.087  22.191  26.069  1.00  0.00     0.023 C 
BRANCH  36  37
ATOM     37  C   UNL A   1      40.137  21.558  26.975  1.00  0.00     0.116 C 
BRANCH  37  38
ATOM     38  N   UNL A   1      40.928  20.542  26.300  1.00  0.00    -0.352 N 
ATOM     39  C   UNL A   1      42.221  20.625  25.845  1.00  0.00     0.251 C 
ATOM     40  H   UNL A   1      40.477  19.681  26.148  1.00  0.00     0.163 HD
ATOM     41  O   UNL A   1      42.689  19.708  25.177  1.00  0.00    -0.269 OA
BRANCH  39  42
ATOM     42  C   UNL A   1      43.019  21.835  26.129  1.00  0.00     0.039 A 
ATOM     43  C   UNL A   1      42.910  22.926  25.265  1.00  0.00     0.014 A 
ATOM     44  C   UNL A   1      43.855  21.902  27.247  1.00  0.00     0.014 A 
ATOM     45  C   UNL A   1      43.602  24.104  25.553  1.00  0.00     0.010 A 
ATOM     46  C   UNL A   1      44.485  23.099  27.571  1.00  0.00     0.010 A 
ATOM     47  C   UNL A   1      44.371  24.211  26.723  1.00  0.00    -0.014 A 
BRANCH  47  48
ATOM     48  C   UNL A   1      45.074  25.475  27.056  1.00  0.00     0.031 A 
ATOM     49  C   UNL A   1      44.428  26.480  27.971  1.00  0.00     0.074 A 
ATOM     50  C   UNL A   1      46.277  25.732  26.505  1.00  0.00     0.049 A 
ATOM     51  N   UNL A   1      44.873  27.642  28.371  1.00  0.00    -0.248 NA
ATOM     52  C   UNL A   1      43.090  26.143  28.479  1.00  0.00     0.031 C 
ATOM     53  C   UNL A   1      46.978  24.856  25.562  1.00  0.00     0.029 A 
ATOM     54  N   UNL A   1      47.124  26.799  26.657  1.00  0.00    -0.354 N 
ATOM     55  C   UNL A   1      43.870  28.179  29.170  1.00  0.00     0.074 A 
ATOM     56  C   UNL A   1      42.766  27.244  29.138  1.00  0.00     0.031 C 
ATOM     57  C   UNL A   1      48.161  25.407  25.247  1.00  0.00     0.029 A 
ATOM     58  C   UNL A   1      48.289  26.688  25.933  1.00  0.00     0.049 A 
ATOM     59  H   UNL A   1      46.918  27.573  27.230  1.00  0.00     0.167 HD
ATOM     60  C   UNL A   1      43.880  29.330  29.888  1.00  0.00     0.034 A 
ATOM     61  C   UNL A   1      49.339  27.526  25.833  1.00  0.00     0.034 A 
ATOM     62  C   UNL A   1      44.995  30.246  29.914  1.00  0.00     0.049 A 
ATOM     63  C   UNL A   1      49.325  28.804  26.634  1.00  0.00     0.074 A 
ATOM     64  C   UNL A   1      45.137  31.412  30.645  1.00  0.00     0.029 A 
ATOM     65  N   UNL A   1      46.161  30.102  29.170  1.00  0.00    -0.354 N 
ATOM     66  N   UNL A   1      48.395  29.266  27.437  1.00  0.00    -0.248 NA
ATOM     67  C   UNL A   1      50.511  29.662  26.525  1.00  0.00     0.031 C 
ATOM     68  C   UNL A   1      46.354  32.007  30.292  1.00  0.00     0.029 A 
ATOM     69  C   UNL A   1      47.011  31.173  29.400  1.00  0.00     0.049 A 
ATOM     70  H   UNL A   1      46.354  29.348  28.566  1.00  0.00     0.167 HD
ATOM     71  C   UNL A   1      48.898  30.459  27.951  1.00  0.00     0.074 A 
ATOM     72  C   UNL A   1      50.222  30.627  27.385  1.00  0.00     0.031 C 
ATOM     73  C   UNL A   1      48.321  31.336  28.813  1.00  0.00     0.034 A 
BRANCH  60  74
ATOM     74  C   UNL A   1      42.637  29.664  30.680  1.00  0.00     0.023 A 
ATOM     75  C   UNL A   1      42.529  29.358  32.049  1.00  0.00     0.031 A 
ATOM     76  C   UNL A   1      41.530  30.264  30.054  1.00  0.00     0.131 A 
ATOM     77  C   UNL A   1      41.319  29.573  32.724  1.00  0.00     0.055 A 
ATOM     78  C   UNL A   1      40.358  30.556  30.753  1.00  0.00     0.041 A 
ATOM     79  F   UNL A   1      41.563  30.562  28.745  1.00  0.00    -0.206 F 
ATOM     80  C   UNL A   1      40.240  30.194  32.092  1.00  0.00     0.022 A 
BRANCH  77  81
ATOM     81  S   UNL A   1      41.124  28.890  34.393  1.00  0.00     0.124 S 
ATOM     82  O   UNL A   1      39.999  29.672  34.901  1.00  0.00    -0.237 OA
ATOM     83  O   UNL A   1      40.857  27.482  34.129  1.00  0.00    -0.237 OA
ATOM     84  O   UNL A   1      42.408  29.173  35.032  1.00  0.00    -0.744 OA
ENDBRANCH  77  81
ENDBRANCH  60  74
BRANCH  61  85
ATOM     85  C   UNL A   1      50.494  27.192  24.951  1.00  0.00     0.023 A 
ATOM     86  C   UNL A   1      50.457  27.461  23.574  1.00  0.00     0.031 A 
ATOM     87  C   UNL A   1      51.637  26.555  25.467  1.00  0.00     0.131 A 
ATOM     88  C   UNL A   1      51.516  27.050  22.750  1.00  0.00     0.055 A 
ATOM     89  C   UNL A   1      52.713  26.197  24.652  1.00  0.00     0.041 A 
ATOM     90  F   UNL A   1      51.729  26.282  26.778  1.00  0.00    -0.206 F 
ATOM     91  C   UNL A   1      52.650  26.432  23.282  1.00  0.00     0.022 A 
BRANCH  88  92
ATOM     92  S   UNL A   1      51.354  27.260  20.956  1.00  0.00     0.124 S 
ATOM     93  O   UNL A   1      51.792  28.639  20.777  1.00  0.00    -0.237 OA
ATOM     94  O   UNL A   1      52.252  26.228  20.448  1.00  0.00    -0.237 OA
ATOM     95  O   UNL A   1      49.932  27.019  20.713  1.00  0.00    -0.744 OA
ENDBRANCH  88  92
ENDBRANCH  61  85
BRANCH  73  96
ATOM     96  C   UNL A   1      49.145  32.536  29.216  1.00  0.00     0.023 A 
ATOM     97  C   UNL A   1      49.109  33.736  28.486  1.00  0.00     0.031 A 
ATOM     98  C   UNL A   1      50.004  32.464  30.327  1.00  0.00     0.131 A 
ATOM     99  C   UNL A   1      49.966  34.792  28.831  1.00  0.00     0.055 A 
ATOM    100  C   UNL A   1      50.806  33.542  30.708  1.00  0.00     0.041 A 
ATOM    101  F   UNL A   1      50.082  31.343  31.061  1.00  0.00    -0.206 F 
ATOM    102  C   UNL A   1      50.802  34.708  29.948  1.00  0.00     0.022 A 
BRANCH  99 103
ATOM    103  S   UNL A   1      50.061  36.231  27.731  1.00  0.00     0.124 S 
ATOM    104  O   UNL A   1      50.031  37.340  28.680  1.00  0.00    -0.237 OA
ATOM    105  O   UNL A   1      51.329  36.015  27.044  1.00  0.00    -0.237 OA
ATOM    106  O   UNL A   1      48.871  36.101  26.893  1.00  0.00    -0.744 OA
ENDBRANCH  99 103
ENDBRANCH  73  96
ENDBRANCH  47  48
ENDBRANCH  39  42
ENDBRANCH  37  38
ENDBRANCH  36  37
ENDBRANCH   1  36
TORSDOF 19
ENDMDL
