MODEL 1
REMARK VINA RESULT:     -11.1      0.000      0.000
REMARK SMILES CCCC[C@@H](C(=O)NCCCCNC(=O)c1ccc(-c2c3nc(c(-c4cc(S(=O)(=O)[O-])ccc4F)c4ccc([nH]4)c(-c4cc(S(=O)(=O)[O-])ccc4F)c4nc(c(-c5cc(S(=O)(=O)[O-])ccc5F)c5ccc2[nH]5)C=C4)C=C3)cc1)C1(O)Cc2ccccc2C1
REMARK SMILES IDX 10 1 9 2 8 3 6 4 7 5 5 7 4 8 3 9 2 10 1 11 79 12 81 13 88 14
REMARK SMILES IDX 82 15 87 16 83 17 86 18 84 19 85 20 80 21 11 23 12 24 13 25
REMARK SMILES IDX 14 26 15 28 16 29 17 30 78 31 18 32 77 33 19 34 20 35 21 36
REMARK SMILES IDX 71 37 22 38 76 39 70 40 72 41 23 42 75 43 69 44 68 45 24 47
REMARK SMILES IDX 56 48 36 49 55 50 37 51 40 52 54 53 73 54 38 55 39 56 53 58
REMARK SMILES IDX 74 59 41 60 25 61 26 62 34 63 27 64 33 65 35 66 32 67 28 68
REMARK SMILES IDX 29 69 30 70 31 71 57 72 58 73 66 74 59 75 65 76 67 77 64 78
REMARK SMILES IDX 60 79 61 80 62 81 63 82 42 83 43 84 51 85 44 86 50 87 52 88
REMARK SMILES IDX 49 89 45 90 46 91 47 92 48 93
REMARK H PARENT 8 6 80 22 13 27 72 46 40 57
REMARK Flexibility Score: inf
ROOT
ATOM      1  C   UNL A   1      34.410  21.419  26.097  1.00  0.00     0.023 C 
ENDROOT
BRANCH   1   2
ATOM      2  C   UNL A   1      34.121  21.340  24.602  1.00  0.00     0.116 C 
BRANCH   2   3
ATOM      3  N   UNL A   1      32.730  21.623  24.305  1.00  0.00    -0.356 N 
ATOM      4  C   UNL A   1      32.450  22.518  23.314  1.00  0.00     0.226 C 
ATOM      5  O   UNL A   1      32.301  22.090  22.169  1.00  0.00    -0.275 OA
ATOM      6  H   UNL A   1      32.008  21.180  24.806  1.00  0.00     0.163 HD
BRANCH   4   7
ATOM      7  C   UNL A   1      32.322  24.016  23.640  1.00  0.00     0.111 C 
BRANCH   7   8
ATOM      8  C   UNL A   1      31.171  24.819  22.973  1.00  0.00     0.016 C 
BRANCH   8   9
ATOM      9  C   UNL A   1      29.910  25.246  23.734  1.00  0.00     0.001 C 
BRANCH   9  10
ATOM     10  C   UNL A   1      29.996  26.404  24.718  1.00  0.00    -0.003 C 
ATOM     11  C   UNL A   1      30.297  25.935  26.129  1.00  0.00     0.004 C 
ENDBRANCH   9  10
ENDBRANCH   8   9
ENDBRANCH   7   8
BRANCH   7  12
ATOM     12  C   UNL A   1      33.700  24.784  23.424  1.00  0.00     0.084 C 
ATOM     13  C   UNL A   1      33.650  26.117  22.607  1.00  0.00     0.072 C 
ATOM     14  C   UNL A   1      34.397  25.239  24.743  1.00  0.00     0.072 C 
ATOM     15  C   UNL A   1      33.417  27.123  23.695  1.00  0.00    -0.042 A 
ATOM     16  C   UNL A   1      33.815  26.600  24.929  1.00  0.00    -0.042 A 
ATOM     17  C   UNL A   1      32.861  28.387  23.606  1.00  0.00     0.004 A 
ATOM     18  C   UNL A   1      33.638  27.305  26.106  1.00  0.00     0.004 A 
ATOM     19  C   UNL A   1      32.668  29.106  24.789  1.00  0.00     0.000 A 
ATOM     20  C   UNL A   1      33.045  28.566  26.030  1.00  0.00     0.000 A 
BRANCH  12  21
ATOM     21  O   UNL A   1      34.591  23.877  22.741  1.00  0.00    -0.388 OA
ATOM     22  H   UNL A   1      34.157  23.015  22.636  1.00  0.00     0.211 HD
ENDBRANCH  12  21
ENDBRANCH   7  12
ENDBRANCH   4   7
ENDBRANCH   2   3
ENDBRANCH   1   2
BRANCH   1  23
ATOM     23  C   UNL A   1      35.619  22.268  26.465  1.00  0.00     0.023 C 
BRANCH  23  24
ATOM     24  C   UNL A   1      36.689  22.352  25.383  1.00  0.00     0.116 C 
BRANCH  24  25
ATOM     25  N   UNL A   1      37.617  21.228  25.373  1.00  0.00    -0.352 N 
ATOM     26  C   UNL A   1      38.895  21.201  25.884  1.00  0.00     0.251 C 
ATOM     27  H   UNL A   1      37.295  20.397  24.954  1.00  0.00     0.163 HD
ATOM     28  O   UNL A   1      39.608  20.211  25.760  1.00  0.00    -0.269 OA
BRANCH  26  29
ATOM     29  C   UNL A   1      39.393  22.424  26.542  1.00  0.00     0.039 A 
ATOM     30  C   UNL A   1      40.399  22.316  27.503  1.00  0.00     0.014 A 
ATOM     31  C   UNL A   1      38.971  23.671  26.076  1.00  0.00     0.014 A 
ATOM     32  C   UNL A   1      41.049  23.472  27.940  1.00  0.00     0.010 A 
ATOM     33  C   UNL A   1      39.673  24.806  26.452  1.00  0.00     0.010 A 
ATOM     34  C   UNL A   1      40.723  24.718  27.382  1.00  0.00    -0.014 A 
BRANCH  34  35
ATOM     35  C   UNL A   1      41.436  25.963  27.765  1.00  0.00     0.031 A 
ATOM     36  C   UNL A   1      40.686  27.024  28.520  1.00  0.00     0.074 A 
ATOM     37  C   UNL A   1      42.701  26.181  27.354  1.00  0.00     0.049 A 
ATOM     38  N   UNL A   1      41.026  28.259  28.779  1.00  0.00    -0.248 NA
ATOM     39  C   UNL A   1      39.347  26.651  29.006  1.00  0.00     0.031 C 
ATOM     40  C   UNL A   1      43.523  25.237  26.591  1.00  0.00     0.029 A 
ATOM     41  N   UNL A   1      43.514  27.276  27.506  1.00  0.00    -0.354 N 
ATOM     42  C   UNL A   1      39.931  28.821  29.427  1.00  0.00     0.074 A 
ATOM     43  C   UNL A   1      38.898  27.808  29.464  1.00  0.00     0.031 C 
ATOM     44  C   UNL A   1      44.727  25.788  26.362  1.00  0.00     0.029 A 
ATOM     45  C   UNL A   1      44.748  27.139  26.913  1.00  0.00     0.049 A 
ATOM     46  H   UNL A   1      43.239  28.085  27.995  1.00  0.00     0.167 HD
ATOM     47  C   UNL A   1      39.808  30.060  29.963  1.00  0.00     0.034 A 
ATOM     48  C   UNL A   1      45.770  28.013  26.814  1.00  0.00     0.034 A 
ATOM     49  C   UNL A   1      40.861  31.044  29.946  1.00  0.00     0.049 A 
ATOM     50  C   UNL A   1      45.614  29.385  27.426  1.00  0.00     0.074 A 
ATOM     51  C   UNL A   1      40.861  32.323  30.473  1.00  0.00     0.029 A 
ATOM     52  N   UNL A   1      42.115  30.847  29.381  1.00  0.00    -0.354 N 
ATOM     53  N   UNL A   1      44.573  29.902  28.037  1.00  0.00    -0.248 NA
ATOM     54  C   UNL A   1      46.772  30.285  27.342  1.00  0.00     0.031 C 
ATOM     55  C   UNL A   1      42.100  32.911  30.196  1.00  0.00     0.029 A 
ATOM     56  C   UNL A   1      42.894  31.980  29.548  1.00  0.00     0.049 A 
ATOM     57  H   UNL A   1      42.408  30.023  28.929  1.00  0.00     0.167 HD
ATOM     58  C   UNL A   1      44.969  31.172  28.448  1.00  0.00     0.074 A 
ATOM     59  C   UNL A   1      46.341  31.340  28.016  1.00  0.00     0.031 C 
ATOM     60  C   UNL A   1      44.267  32.113  29.126  1.00  0.00     0.034 A 
BRANCH  47  61
ATOM     61  C   UNL A   1      38.482  30.408  30.589  1.00  0.00     0.023 A 
ATOM     62  C   UNL A   1      37.461  31.028  29.847  1.00  0.00     0.031 A 
ATOM     63  C   UNL A   1      38.251  30.172  31.956  1.00  0.00     0.131 A 
ATOM     64  C   UNL A   1      36.298  31.475  30.490  1.00  0.00     0.055 A 
ATOM     65  C   UNL A   1      37.052  30.539  32.572  1.00  0.00     0.041 A 
ATOM     66  F   UNL A   1      39.195  29.603  32.721  1.00  0.00    -0.206 F 
ATOM     67  C   UNL A   1      36.075  31.211  31.842  1.00  0.00     0.022 A 
BRANCH  64  68
ATOM     68  S   UNL A   1      35.157  32.539  29.568  1.00  0.00     0.124 S 
ATOM     69  O   UNL A   1      34.508  31.573  28.683  1.00  0.00    -0.237 OA
ATOM     70  O   UNL A   1      34.322  33.099  30.624  1.00  0.00    -0.237 OA
ATOM     71  O   UNL A   1      36.041  33.491  28.899  1.00  0.00    -0.744 OA
ENDBRANCH  64  68
ENDBRANCH  47  61
BRANCH  48  72
ATOM     72  C   UNL A   1      47.031  27.637  26.114  1.00  0.00     0.023 A 
ATOM     73  C   UNL A   1      47.203  27.916  24.748  1.00  0.00     0.031 A 
ATOM     74  C   UNL A   1      48.057  26.942  26.777  1.00  0.00     0.131 A 
ATOM     75  C   UNL A   1      48.344  27.453  24.075  1.00  0.00     0.055 A 
ATOM     76  C   UNL A   1      49.215  26.528  26.115  1.00  0.00     0.041 A 
ATOM     77  F   UNL A   1      47.948  26.656  28.084  1.00  0.00    -0.206 F 
ATOM     78  C   UNL A   1      49.356  26.769  24.752  1.00  0.00     0.022 A 
BRANCH  75  79
ATOM     79  S   UNL A   1      48.439  27.672  22.277  1.00  0.00     0.124 S 
ATOM     80  O   UNL A   1      48.453  26.291  21.810  1.00  0.00    -0.237 OA
ATOM     81  O   UNL A   1      47.223  28.431  22.002  1.00  0.00    -0.237 OA
ATOM     82  O   UNL A   1      49.688  28.408  22.091  1.00  0.00    -0.744 OA
ENDBRANCH  75  79
ENDBRANCH  48  72
BRANCH  60  83
ATOM     83  C   UNL A   1      45.000  33.369  29.515  1.00  0.00     0.023 A 
ATOM     84  C   UNL A   1      45.119  34.461  28.639  1.00  0.00     0.031 A 
ATOM     85  C   UNL A   1      45.582  33.470  30.791  1.00  0.00     0.131 A 
ATOM     86  C   UNL A   1      45.842  35.595  29.038  1.00  0.00     0.055 A 
ATOM     87  C   UNL A   1      46.259  34.619  31.199  1.00  0.00     0.041 A 
ATOM     88  F   UNL A   1      45.493  32.453  31.663  1.00  0.00    -0.206 F 
ATOM     89  C   UNL A   1      46.399  35.687  30.317  1.00  0.00     0.022 A 
BRANCH  86  90
ATOM     90  S   UNL A   1      46.093  36.935  27.841  1.00  0.00     0.124 S 
ATOM     91  O   UNL A   1      46.874  37.892  28.617  1.00  0.00    -0.237 OA
ATOM     92  O   UNL A   1      46.804  36.260  26.760  1.00  0.00    -0.237 OA
ATOM     93  O   UNL A   1      44.733  37.362  27.514  1.00  0.00    -0.744 OA
ENDBRANCH  86  90
ENDBRANCH  60  83
ENDBRANCH  34  35
ENDBRANCH  26  29
ENDBRANCH  24  25
ENDBRANCH  23  24
ENDBRANCH   1  23
TORSDOF 19
ENDMDL
MODEL 2
REMARK VINA RESULT:     -11.0      1.249      7.737
REMARK SMILES CCCC[C@@H](C(=O)NCCCCNC(=O)c1ccc(-c2c3nc(c(-c4cc(S(=O)(=O)[O-])ccc4F)c4ccc([nH]4)c(-c4cc(S(=O)(=O)[O-])ccc4F)c4nc(c(-c5cc(S(=O)(=O)[O-])ccc5F)c5ccc2[nH]5)C=C4)C=C3)cc1)C1(O)Cc2ccccc2C1
REMARK SMILES IDX 10 1 9 2 8 3 6 4 7 5 5 7 4 8 3 9 2 10 1 11 79 12 81 13 88 14
REMARK SMILES IDX 82 15 87 16 83 17 86 18 84 19 85 20 80 21 11 23 12 24 13 25
REMARK SMILES IDX 14 26 15 28 16 29 17 30 78 31 18 32 77 33 19 34 20 35 21 36
REMARK SMILES IDX 71 37 22 38 76 39 70 40 72 41 23 42 75 43 69 44 68 45 24 47
REMARK SMILES IDX 56 48 36 49 55 50 37 51 40 52 54 53 73 54 38 55 39 56 53 58
REMARK SMILES IDX 74 59 41 60 25 61 26 62 34 63 27 64 33 65 35 66 32 67 28 68
REMARK SMILES IDX 29 69 30 70 31 71 57 72 58 73 66 74 59 75 65 76 67 77 64 78
REMARK SMILES IDX 60 79 61 80 62 81 63 82 42 83 43 84 51 85 44 86 50 87 52 88
REMARK SMILES IDX 49 89 45 90 46 91 47 92 48 93
REMARK H PARENT 8 6 80 22 13 27 72 46 40 57
REMARK Flexibility Score: inf
ROOT
ATOM      1  C   UNL A   1      35.274  20.645  25.141  1.00  0.00     0.023 C 
ENDROOT
BRANCH   1   2
ATOM      2  C   UNL A   1      33.876  21.123  24.767  1.00  0.00     0.116 C 
BRANCH   2   3
ATOM      3  N   UNL A   1      33.249  21.856  25.849  1.00  0.00    -0.356 N 
ATOM      4  C   UNL A   1      32.067  22.491  25.600  1.00  0.00     0.226 C 
ATOM      5  O   UNL A   1      31.020  21.874  25.805  1.00  0.00    -0.275 OA
ATOM      6  H   UNL A   1      33.666  21.894  26.741  1.00  0.00     0.163 HD
BRANCH   4   7
ATOM      7  C   UNL A   1      32.062  23.939  25.083  1.00  0.00     0.111 C 
BRANCH   7   8
ATOM      8  C   UNL A   1      33.417  24.579  24.670  1.00  0.00     0.016 C 
BRANCH   8   9
ATOM      9  C   UNL A   1      33.668  25.156  23.272  1.00  0.00     0.001 C 
BRANCH   9  10
ATOM     10  C   UNL A   1      32.535  25.154  22.256  1.00  0.00    -0.003 C 
ATOM     11  C   UNL A   1      32.644  26.304  21.273  1.00  0.00     0.004 C 
ENDBRANCH   9  10
ENDBRANCH   8   9
ENDBRANCH   7   8
BRANCH   7  12
ATOM     12  C   UNL A   1      31.297  24.917  26.080  1.00  0.00     0.084 C 
ATOM     13  C   UNL A   1      31.895  26.349  26.270  1.00  0.00     0.072 C 
ATOM     14  C   UNL A   1      29.825  25.232  25.670  1.00  0.00     0.072 C 
ATOM     15  C   UNL A   1      31.184  27.114  25.193  1.00  0.00    -0.042 A 
ATOM     16  C   UNL A   1      30.011  26.448  24.824  1.00  0.00    -0.042 A 
ATOM     17  C   UNL A   1      31.564  28.285  24.561  1.00  0.00     0.004 A 
ATOM     18  C   UNL A   1      29.208  26.911  23.797  1.00  0.00     0.004 A 
ATOM     19  C   UNL A   1      30.766  28.758  23.516  1.00  0.00     0.000 A 
ATOM     20  C   UNL A   1      29.602  28.072  23.131  1.00  0.00     0.000 A 
BRANCH  12  21
ATOM     21  O   UNL A   1      31.268  24.272  27.371  1.00  0.00    -0.388 OA
ATOM     22  H   UNL A   1      32.144  23.904  27.568  1.00  0.00     0.211 HD
ENDBRANCH  12  21
ENDBRANCH   7  12
ENDBRANCH   4   7
ENDBRANCH   2   3
ENDBRANCH   1   2
BRANCH   1  23
ATOM     23  C   UNL A   1      36.406  21.484  24.564  1.00  0.00     0.023 C 
BRANCH  23  24
ATOM     24  C   UNL A   1      37.443  21.938  25.584  1.00  0.00     0.116 C 
BRANCH  24  25
ATOM     25  N   UNL A   1      38.532  20.990  25.791  1.00  0.00    -0.352 N 
ATOM     26  C   UNL A   1      39.741  21.236  26.403  1.00  0.00     0.251 C 
ATOM     27  H   UNL A   1      38.388  20.076  25.456  1.00  0.00     0.163 HD
ATOM     28  O   UNL A   1      40.609  20.371  26.463  1.00  0.00    -0.269 OA
BRANCH  26  29
ATOM     29  C   UNL A   1      39.972  22.590  26.938  1.00  0.00     0.039 A 
ATOM     30  C   UNL A   1      40.893  22.764  27.973  1.00  0.00     0.014 A 
ATOM     31  C   UNL A   1      39.395  23.687  26.296  1.00  0.00     0.014 A 
ATOM     32  C   UNL A   1      41.304  24.055  28.308  1.00  0.00     0.010 A 
ATOM     33  C   UNL A   1      39.867  24.961  26.577  1.00  0.00     0.010 A 
ATOM     34  C   UNL A   1      40.831  25.157  27.581  1.00  0.00    -0.014 A 
BRANCH  34  35
ATOM     35  C   UNL A   1      41.294  26.541  27.857  1.00  0.00     0.031 A 
ATOM     36  C   UNL A   1      42.702  26.920  27.491  1.00  0.00     0.074 A 
ATOM     37  C   UNL A   1      40.501  27.409  28.516  1.00  0.00     0.049 A 
ATOM     38  N   UNL A   1      43.388  27.984  27.815  1.00  0.00    -0.248 NA
ATOM     39  C   UNL A   1      43.451  25.938  26.689  1.00  0.00     0.031 C 
ATOM     40  C   UNL A   1      39.126  27.146  28.948  1.00  0.00     0.029 A 
ATOM     41  N   UNL A   1      40.745  28.686  28.954  1.00  0.00    -0.354 N 
ATOM     42  C   UNL A   1      44.659  27.785  27.287  1.00  0.00     0.074 A 
ATOM     43  C   UNL A   1      44.661  26.472  26.677  1.00  0.00     0.031 C 
ATOM     44  C   UNL A   1      38.644  28.236  29.570  1.00  0.00     0.029 A 
ATOM     45  C   UNL A   1      39.688  29.254  29.628  1.00  0.00     0.049 A 
ATOM     46  H   UNL A   1      41.598  29.153  28.800  1.00  0.00     0.167 HD
ATOM     47  C   UNL A   1      45.720  28.629  27.291  1.00  0.00     0.034 A 
ATOM     48  C   UNL A   1      39.584  30.454  30.235  1.00  0.00     0.034 A 
ATOM     49  C   UNL A   1      45.688  29.946  27.874  1.00  0.00     0.049 A 
ATOM     50  C   UNL A   1      40.775  31.382  30.218  1.00  0.00     0.074 A 
ATOM     51  C   UNL A   1      46.691  30.898  27.920  1.00  0.00     0.029 A 
ATOM     52  N   UNL A   1      44.581  30.504  28.501  1.00  0.00    -0.354 N 
ATOM     53  N   UNL A   1      41.971  31.180  29.714  1.00  0.00    -0.248 NA
ATOM     54  C   UNL A   1      40.599  32.699  30.844  1.00  0.00     0.031 C 
ATOM     55  C   UNL A   1      46.203  32.016  28.606  1.00  0.00     0.029 A 
ATOM     56  C   UNL A   1      44.878  31.786  28.936  1.00  0.00     0.049 A 
ATOM     57  H   UNL A   1      43.713  30.056  28.618  1.00  0.00     0.167 HD
ATOM     58  C   UNL A   1      42.673  32.363  29.925  1.00  0.00     0.074 A 
ATOM     59  C   UNL A   1      41.769  33.271  30.599  1.00  0.00     0.031 C 
ATOM     60  C   UNL A   1      43.949  32.676  29.586  1.00  0.00     0.034 A 
BRANCH  47  61
ATOM     61  C   UNL A   1      46.995  28.131  26.659  1.00  0.00     0.023 A 
ATOM     62  C   UNL A   1      47.220  28.244  25.276  1.00  0.00     0.031 A 
ATOM     63  C   UNL A   1      47.975  27.485  27.435  1.00  0.00     0.131 A 
ATOM     64  C   UNL A   1      48.345  27.639  24.697  1.00  0.00     0.055 A 
ATOM     65  C   UNL A   1      49.138  26.964  26.863  1.00  0.00     0.041 A 
ATOM     66  F   UNL A   1      47.807  27.329  28.757  1.00  0.00    -0.206 F 
ATOM     67  C   UNL A   1      49.319  27.023  25.484  1.00  0.00     0.022 A 
BRANCH  64  68
ATOM     68  S   UNL A   1      48.434  27.536  22.890  1.00  0.00     0.124 S 
ATOM     69  O   UNL A   1      48.422  26.090  22.678  1.00  0.00    -0.237 OA
ATOM     70  O   UNL A   1      47.235  28.252  22.471  1.00  0.00    -0.237 OA
ATOM     71  O   UNL A   1      49.699  28.195  22.571  1.00  0.00    -0.744 OA
ENDBRANCH  64  68
ENDBRANCH  47  61
BRANCH  48  72
ATOM     72  C   UNL A   1      38.319  30.860  30.911  1.00  0.00     0.023 A 
ATOM     73  C   UNL A   1      37.295  31.499  30.193  1.00  0.00     0.031 A 
ATOM     74  C   UNL A   1      38.136  30.674  32.292  1.00  0.00     0.131 A 
ATOM     75  C   UNL A   1      36.161  31.980  30.865  1.00  0.00     0.055 A 
ATOM     76  C   UNL A   1      36.983  31.109  32.949  1.00  0.00     0.041 A 
ATOM     77  F   UNL A   1      39.080  30.063  33.025  1.00  0.00    -0.206 F 
ATOM     78  C   UNL A   1      35.994  31.781  32.237  1.00  0.00     0.022 A 
BRANCH  75  79
ATOM     79  S   UNL A   1      34.952  32.961  29.934  1.00  0.00     0.124 S 
ATOM     80  O   UNL A   1      34.036  33.382  30.988  1.00  0.00    -0.237 OA
ATOM     81  O   UNL A   1      35.792  34.006  29.358  1.00  0.00    -0.237 OA
ATOM     82  O   UNL A   1      34.405  32.003  28.975  1.00  0.00    -0.744 OA
ENDBRANCH  75  79
ENDBRANCH  48  72
BRANCH  60  83
ATOM     83  C   UNL A   1      44.407  34.084  29.865  1.00  0.00     0.023 A 
ATOM     84  C   UNL A   1      44.263  35.113  28.920  1.00  0.00     0.031 A 
ATOM     85  C   UNL A   1      44.990  34.393  31.106  1.00  0.00     0.131 A 
ATOM     86  C   UNL A   1      44.737  36.399  29.217  1.00  0.00     0.055 A 
ATOM     87  C   UNL A   1      45.416  35.685  31.414  1.00  0.00     0.041 A 
ATOM     88  F   UNL A   1      45.147  33.444  32.043  1.00  0.00    -0.206 F 
ATOM     89  C   UNL A   1      45.299  36.695  30.463  1.00  0.00     0.022 A 
BRANCH  86  90
ATOM     90  S   UNL A   1      44.659  37.676  27.930  1.00  0.00     0.124 S 
ATOM     91  O   UNL A   1      44.698  38.903  28.718  1.00  0.00    -0.237 OA
ATOM     92  O   UNL A   1      45.850  37.391  27.135  1.00  0.00    -0.237 OA
ATOM     93  O   UNL A   1      43.389  37.409  27.258  1.00  0.00    -0.744 OA
ENDBRANCH  86  90
ENDBRANCH  60  83
ENDBRANCH  34  35
ENDBRANCH  26  29
ENDBRANCH  24  25
ENDBRANCH  23  24
ENDBRANCH   1  23
TORSDOF 19
ENDMDL
MODEL 3
REMARK VINA RESULT:     -10.9      1.600      2.063
REMARK SMILES CCCC[C@@H](C(=O)NCCCCNC(=O)c1ccc(-c2c3nc(c(-c4cc(S(=O)(=O)[O-])ccc4F)c4ccc([nH]4)c(-c4cc(S(=O)(=O)[O-])ccc4F)c4nc(c(-c5cc(S(=O)(=O)[O-])ccc5F)c5ccc2[nH]5)C=C4)C=C3)cc1)C1(O)Cc2ccccc2C1
REMARK SMILES IDX 10 1 9 2 8 3 6 4 7 5 5 7 4 8 3 9 2 10 1 11 79 12 81 13 88 14
REMARK SMILES IDX 82 15 87 16 83 17 86 18 84 19 85 20 80 21 11 23 12 24 13 25
REMARK SMILES IDX 14 26 15 28 16 29 17 30 78 31 18 32 77 33 19 34 20 35 21 36
REMARK SMILES IDX 71 37 22 38 76 39 70 40 72 41 23 42 75 43 69 44 68 45 24 47
REMARK SMILES IDX 56 48 36 49 55 50 37 51 40 52 54 53 73 54 38 55 39 56 53 58
REMARK SMILES IDX 74 59 41 60 25 61 26 62 34 63 27 64 33 65 35 66 32 67 28 68
REMARK SMILES IDX 29 69 30 70 31 71 57 72 58 73 66 74 59 75 65 76 67 77 64 78
REMARK SMILES IDX 60 79 61 80 62 81 63 82 42 83 43 84 51 85 44 86 50 87 52 88
REMARK SMILES IDX 49 89 45 90 46 91 47 92 48 93
REMARK H PARENT 8 6 80 22 13 27 72 46 40 57
REMARK Flexibility Score: inf
ROOT
ATOM      1  C   UNL A   1      35.738  22.937  23.536  1.00  0.00     0.023 C 
ENDROOT
BRANCH   1   2
ATOM      2  C   UNL A   1      35.018  24.279  23.489  1.00  0.00     0.116 C 
BRANCH   2   3
ATOM      3  N   UNL A   1      33.675  24.154  22.958  1.00  0.00    -0.356 N 
ATOM      4  C   UNL A   1      33.149  25.211  22.274  1.00  0.00     0.226 C 
ATOM      5  O   UNL A   1      33.311  25.251  21.053  1.00  0.00    -0.275 OA
ATOM      6  H   UNL A   1      33.156  23.327  23.089  1.00  0.00     0.163 HD
BRANCH   4   7
ATOM      7  C   UNL A   1      32.375  26.308  23.023  1.00  0.00     0.111 C 
BRANCH   7   8
ATOM      8  C   UNL A   1      30.857  26.468  22.732  1.00  0.00     0.016 C 
BRANCH   8   9
ATOM      9  C   UNL A   1      29.777  25.745  23.547  1.00  0.00     0.001 C 
BRANCH   9  10
ATOM     10  C   UNL A   1      29.563  26.136  25.002  1.00  0.00    -0.003 C 
ATOM     11  C   UNL A   1      30.850  26.089  25.804  1.00  0.00     0.004 C 
ENDBRANCH   9  10
ENDBRANCH   8   9
ENDBRANCH   7   8
BRANCH   7  12
ATOM     12  C   UNL A   1      33.091  27.725  22.895  1.00  0.00     0.084 C 
ATOM     13  C   UNL A   1      32.208  28.992  23.136  1.00  0.00     0.072 C 
ATOM     14  C   UNL A   1      34.261  27.948  23.902  1.00  0.00     0.072 C 
ATOM     15  C   UNL A   1      32.376  29.194  24.613  1.00  0.00    -0.042 A 
ATOM     16  C   UNL A   1      33.541  28.560  25.057  1.00  0.00    -0.042 A 
ATOM     17  C   UNL A   1      31.545  29.854  25.502  1.00  0.00     0.004 A 
ATOM     18  C   UNL A   1      33.888  28.537  26.396  1.00  0.00     0.004 A 
ATOM     19  C   UNL A   1      31.879  29.829  26.858  1.00  0.00     0.000 A 
ATOM     20  C   UNL A   1      33.036  29.169  27.303  1.00  0.00     0.000 A 
BRANCH  12  21
ATOM     21  O   UNL A   1      33.634  27.808  21.560  1.00  0.00    -0.388 OA
ATOM     22  H   UNL A   1      32.936  28.079  20.943  1.00  0.00     0.211 HD
ENDBRANCH  12  21
ENDBRANCH   7  12
ENDBRANCH   4   7
ENDBRANCH   2   3
ENDBRANCH   1   2
BRANCH   1  23
ATOM     23  C   UNL A   1      35.357  22.054  24.716  1.00  0.00     0.023 C 
BRANCH  23  24
ATOM     24  C   UNL A   1      36.430  21.930  25.789  1.00  0.00     0.116 C 
BRANCH  24  25
ATOM     25  N   UNL A   1      37.404  20.873  25.542  1.00  0.00    -0.352 N 
ATOM     26  C   UNL A   1      38.753  20.905  25.816  1.00  0.00     0.251 C 
ATOM     27  H   UNL A   1      37.059  20.046  25.135  1.00  0.00     0.163 HD
ATOM     28  O   UNL A   1      39.486  19.974  25.504  1.00  0.00    -0.269 OA
BRANCH  26  29
ATOM     29  C   UNL A   1      39.291  22.123  26.452  1.00  0.00     0.039 A 
ATOM     30  C   UNL A   1      40.348  22.006  27.356  1.00  0.00     0.014 A 
ATOM     31  C   UNL A   1      38.848  23.374  26.018  1.00  0.00     0.014 A 
ATOM     32  C   UNL A   1      41.025  23.157  27.762  1.00  0.00     0.010 A 
ATOM     33  C   UNL A   1      39.574  24.505  26.361  1.00  0.00     0.010 A 
ATOM     34  C   UNL A   1      40.674  24.408  27.231  1.00  0.00    -0.014 A 
BRANCH  34  35
ATOM     35  C   UNL A   1      41.411  25.648  27.581  1.00  0.00     0.031 A 
ATOM     36  C   UNL A   1      40.717  26.694  28.407  1.00  0.00     0.074 A 
ATOM     37  C   UNL A   1      42.642  25.876  27.082  1.00  0.00     0.049 A 
ATOM     38  N   UNL A   1      41.074  27.926  28.661  1.00  0.00    -0.248 NA
ATOM     39  C   UNL A   1      39.419  26.310  28.985  1.00  0.00     0.031 C 
ATOM     40  C   UNL A   1      43.407  24.947  26.245  1.00  0.00     0.029 A 
ATOM     41  N   UNL A   1      43.462  26.970  27.192  1.00  0.00    -0.354 N 
ATOM     42  C   UNL A   1      40.029  28.474  29.398  1.00  0.00     0.074 A 
ATOM     43  C   UNL A   1      39.003  27.457  29.494  1.00  0.00     0.031 C 
ATOM     44  C   UNL A   1      44.590  25.505  25.936  1.00  0.00     0.029 A 
ATOM     45  C   UNL A   1      44.650  26.846  26.507  1.00  0.00     0.049 A 
ATOM     46  H   UNL A   1      43.223  27.771  27.713  1.00  0.00     0.167 HD
ATOM     47  C   UNL A   1      39.944  29.704  29.962  1.00  0.00     0.034 A 
ATOM     48  C   UNL A   1      45.661  27.725  26.348  1.00  0.00     0.034 A 
ATOM     49  C   UNL A   1      40.992  30.690  29.884  1.00  0.00     0.049 A 
ATOM     50  C   UNL A   1      45.548  29.086  26.992  1.00  0.00     0.074 A 
ATOM     51  C   UNL A   1      41.028  31.960  30.431  1.00  0.00     0.029 A 
ATOM     52  N   UNL A   1      42.201  30.506  29.224  1.00  0.00    -0.354 N 
ATOM     53  N   UNL A   1      44.554  29.590  27.687  1.00  0.00    -0.248 NA
ATOM     54  C   UNL A   1      46.696  29.990  26.839  1.00  0.00     0.031 C 
ATOM     55  C   UNL A   1      42.243  32.557  30.073  1.00  0.00     0.029 A 
ATOM     56  C   UNL A   1      42.988  31.639  29.352  1.00  0.00     0.049 A 
ATOM     57  H   UNL A   1      42.460  29.691  28.739  1.00  0.00     0.167 HD
ATOM     58  C   UNL A   1      44.978  30.854  28.089  1.00  0.00     0.074 A 
ATOM     59  C   UNL A   1      46.314  31.033  27.560  1.00  0.00     0.031 C 
ATOM     60  C   UNL A   1      44.326  31.781  28.833  1.00  0.00     0.034 A 
BRANCH  47  61
ATOM     61  C   UNL A   1      38.667  30.038  30.690  1.00  0.00     0.023 A 
ATOM     62  C   UNL A   1      37.640  30.769  30.069  1.00  0.00     0.031 A 
ATOM     63  C   UNL A   1      38.494  29.673  32.037  1.00  0.00     0.131 A 
ATOM     64  C   UNL A   1      36.531  31.194  30.816  1.00  0.00     0.055 A 
ATOM     65  C   UNL A   1      37.344  30.022  32.750  1.00  0.00     0.041 A 
ATOM     66  F   UNL A   1      39.448  28.991  32.690  1.00  0.00    -0.206 F 
ATOM     67  C   UNL A   1      36.363  30.802  32.145  1.00  0.00     0.022 A 
BRANCH  64  68
ATOM     68  S   UNL A   1      35.394  32.390  30.067  1.00  0.00     0.124 S 
ATOM     69  O   UNL A   1      34.406  32.559  31.131  1.00  0.00    -0.237 OA
ATOM     70  O   UNL A   1      36.260  33.536  29.814  1.00  0.00    -0.237 OA
ATOM     71  O   UNL A   1      34.906  31.699  28.875  1.00  0.00    -0.744 OA
ENDBRANCH  64  68
ENDBRANCH  47  61
BRANCH  48  72
ATOM     72  C   UNL A   1      46.867  27.364  25.550  1.00  0.00     0.023 A 
ATOM     73  C   UNL A   1      47.014  27.818  24.228  1.00  0.00     0.031 A 
ATOM     74  C   UNL A   1      47.860  26.515  26.068  1.00  0.00     0.131 A 
ATOM     75  C   UNL A   1      48.096  27.375  23.452  1.00  0.00     0.055 A 
ATOM     76  C   UNL A   1      48.962  26.119  25.308  1.00  0.00     0.041 A 
ATOM     77  F   UNL A   1      47.772  26.059  27.328  1.00  0.00    -0.206 F 
ATOM     78  C   UNL A   1      49.076  26.536  23.986  1.00  0.00     0.022 A 
BRANCH  75  79
ATOM     79  S   UNL A   1      48.148  27.834  21.697  1.00  0.00     0.124 S 
ATOM     80  O   UNL A   1      46.831  28.433  21.508  1.00  0.00    -0.237 OA
ATOM     81  O   UNL A   1      49.282  28.752  21.660  1.00  0.00    -0.237 OA
ATOM     82  O   UNL A   1      48.358  26.557  21.018  1.00  0.00    -0.744 OA
ENDBRANCH  75  79
ENDBRANCH  48  72
BRANCH  60  83
ATOM     83  C   UNL A   1      45.085  33.033  29.187  1.00  0.00     0.023 A 
ATOM     84  C   UNL A   1      45.869  33.123  30.349  1.00  0.00     0.031 A 
ATOM     85  C   UNL A   1      45.022  34.150  28.336  1.00  0.00     0.131 A 
ATOM     86  C   UNL A   1      46.528  34.324  30.650  1.00  0.00     0.055 A 
ATOM     87  C   UNL A   1      45.719  35.325  28.616  1.00  0.00     0.041 A 
ATOM     88  F   UNL A   1      44.288  34.112  27.212  1.00  0.00    -0.206 F 
ATOM     89  C   UNL A   1      46.471  35.420  29.784  1.00  0.00     0.022 A 
BRANCH  86  90
ATOM     90  S   UNL A   1      47.424  34.456  32.222  1.00  0.00     0.124 S 
ATOM     91  O   UNL A   1      48.768  34.809  31.777  1.00  0.00    -0.237 OA
ATOM     92  O   UNL A   1      46.686  35.506  32.916  1.00  0.00    -0.237 OA
ATOM     93  O   UNL A   1      47.294  33.121  32.805  1.00  0.00    -0.744 OA
ENDBRANCH  86  90
ENDBRANCH  60  83
ENDBRANCH  34  35
ENDBRANCH  26  29
ENDBRANCH  24  25
ENDBRANCH  23  24
ENDBRANCH   1  23
TORSDOF 19
ENDMDL
