MODEL 1
REMARK VINA RESULT:      -9.5      0.000      0.000
REMARK SMILES O=C(CCCc1nc(-c2ccc(Cl)c(Cl)c2)c(-c2ccccc2)o1)NCCCCNC(=O)c1ccc(-c2c3nc(c(-c4cc(S(=O)(=O)[O-])ccc4F)c4ccc([nH]4)c(-c4cc(S(=O)(=O)[O-])ccc4F)c4nc(c(-c5cc(S(=O)(=O)[O-])ccc5F)c5ccc2[nH]5)C=C4)C=C3)cc1
REMARK SMILES IDX 27 1 26 2 25 3 1 4 2 5 3 7 4 8 5 9 6 10 7 11 24 12 8 13
REMARK SMILES IDX 17 14 9 15 10 16 16 17 11 18 14 19 12 20 15 21 13 22 18 23
REMARK SMILES IDX 19 24 23 25 20 26 22 27 21 28 28 29 29 30 30 31 31 32 32 34
REMARK SMILES IDX 33 35 34 36 95 37 35 38 94 39 36 40 37 41 38 42 88 43 39 44
REMARK SMILES IDX 93 45 87 46 89 47 40 48 92 49 86 50 85 51 41 53 73 54 53 55
REMARK SMILES IDX 72 56 54 57 57 58 71 59 90 60 55 61 56 62 70 64 91 65 58 66
REMARK SMILES IDX 42 67 43 68 51 69 44 70 50 71 52 72 49 73 45 74 46 75 47 76
REMARK SMILES IDX 48 77 74 78 75 79 83 80 76 81 82 82 84 83 81 84 77 85 78 86
REMARK SMILES IDX 79 87 80 88 59 89 60 90 68 91 61 92 67 93 69 94 66 95 62 96
REMARK SMILES IDX 63 97 64 98 65 99
REMARK H PARENT 25 6 30 33 89 52 57 63
REMARK Flexibility Score: inf
ROOT
ATOM      1  C   UNL A   1      45.289  21.985  24.176  1.00  0.00     0.023 C 
ENDROOT
BRANCH   1   2
ATOM      2  C   UNL A   1      45.033  20.501  23.925  1.00  0.00     0.116 C 
BRANCH   2   3
ATOM      3  N   UNL A   1      43.885  20.010  24.658  1.00  0.00    -0.356 N 
ATOM      4  O   UNL A   1      44.892  18.079  25.387  1.00  0.00    -0.275 OA
ATOM      5  C   UNL A   1      43.923  18.830  25.362  1.00  0.00     0.220 C 
ATOM      6  H   UNL A   1      43.054  20.537  24.652  1.00  0.00     0.163 HD
BRANCH   5   7
ATOM      7  C   UNL A   1      42.651  18.523  26.120  1.00  0.00     0.100 C 
BRANCH   7   8
ATOM      8  C   UNL A   1      41.653  19.688  26.126  1.00  0.00     0.020 C 
BRANCH   8   9
ATOM      9  C   UNL A   1      41.100  20.129  27.491  1.00  0.00     0.098 C 
BRANCH   9  10
ATOM     10  C   UNL A   1      41.316  21.573  27.773  1.00  0.00     0.195 A 
ATOM     11  N   UNL A   1      40.572  22.597  27.405  1.00  0.00    -0.213 NA
ATOM     12  O   UNL A   1      42.452  21.911  28.465  1.00  0.00    -0.440 OA
ATOM     13  C   UNL A   1      41.262  23.684  27.863  1.00  0.00     0.117 A 
ATOM     14  C   UNL A   1      42.380  23.278  28.558  1.00  0.00     0.162 A 
BRANCH  13  15
ATOM     15  C   UNL A   1      40.834  25.047  27.654  1.00  0.00     0.006 A 
ATOM     16  C   UNL A   1      39.749  25.550  28.378  1.00  0.00     0.012 A 
ATOM     17  C   UNL A   1      41.494  25.869  26.731  1.00  0.00     0.032 A 
ATOM     18  C   UNL A   1      39.344  26.873  28.202  1.00  0.00     0.023 A 
ATOM     19  C   UNL A   1      41.079  27.191  26.543  1.00  0.00     0.060 A 
ATOM     20  C   UNL A   1      40.006  27.696  27.284  1.00  0.00     0.059 A 
ATOM     21  Cl  UNL A   1      41.925  28.140  25.373  1.00  0.00    -0.083 Cl
ATOM     22  Cl  UNL A   1      39.443  29.320  27.113  1.00  0.00    -0.083 Cl
ENDBRANCH  13  15
BRANCH  14  23
ATOM     23  C   UNL A   1      43.361  23.966  29.371  1.00  0.00     0.020 A 
ATOM     24  C   UNL A   1      43.663  23.556  30.672  1.00  0.00     0.012 A 
ATOM     25  C   UNL A   1      44.082  25.026  28.795  1.00  0.00     0.012 A 
ATOM     26  C   UNL A   1      44.697  24.181  31.371  1.00  0.00     0.001 A 
ATOM     27  C   UNL A   1      45.108  25.649  29.494  1.00  0.00     0.001 A 
ATOM     28  C   UNL A   1      45.418  25.218  30.777  1.00  0.00     0.000 A 
ENDBRANCH  14  23
ENDBRANCH   9  10
ENDBRANCH   8   9
ENDBRANCH   7   8
ENDBRANCH   5   7
ENDBRANCH   2   3
ENDBRANCH   1   2
BRANCH   1  29
ATOM     29  C   UNL A   1      45.034  22.459  25.610  1.00  0.00     0.023 C 
BRANCH  29  30
ATOM     30  C   UNL A   1      45.948  23.577  26.102  1.00  0.00     0.116 C 
BRANCH  30  31
ATOM     31  N   UNL A   1      46.873  24.036  25.078  1.00  0.00    -0.352 N 
ATOM     32  C   UNL A   1      47.242  25.315  24.734  1.00  0.00     0.251 C 
ATOM     33  H   UNL A   1      47.299  23.322  24.551  1.00  0.00     0.163 HD
ATOM     34  O   UNL A   1      47.906  25.495  23.715  1.00  0.00    -0.269 OA
BRANCH  32  35
ATOM     35  C   UNL A   1      46.819  26.471  25.559  1.00  0.00     0.039 A 
ATOM     36  C   UNL A   1      47.444  26.683  26.792  1.00  0.00     0.014 A 
ATOM     37  C   UNL A   1      45.808  27.337  25.136  1.00  0.00     0.014 A 
ATOM     38  C   UNL A   1      47.106  27.801  27.560  1.00  0.00     0.010 A 
ATOM     39  C   UNL A   1      45.527  28.492  25.866  1.00  0.00     0.010 A 
ATOM     40  C   UNL A   1      46.176  28.741  27.085  1.00  0.00    -0.014 A 
BRANCH  40  41
ATOM     41  C   UNL A   1      45.877  29.985  27.848  1.00  0.00     0.031 A 
ATOM     42  C   UNL A   1      44.572  30.129  28.585  1.00  0.00     0.074 A 
ATOM     43  C   UNL A   1      46.760  31.004  27.839  1.00  0.00     0.049 A 
ATOM     44  N   UNL A   1      44.102  31.159  29.242  1.00  0.00    -0.248 NA
ATOM     45  C   UNL A   1      43.667  28.970  28.561  1.00  0.00     0.031 C 
ATOM     46  C   UNL A   1      48.053  30.995  27.151  1.00  0.00     0.029 A 
ATOM     47  N   UNL A   1      46.711  32.246  28.426  1.00  0.00    -0.354 N 
ATOM     48  C   UNL A   1      42.844  30.777  29.700  1.00  0.00     0.074 A 
ATOM     49  C   UNL A   1      42.604  29.443  29.193  1.00  0.00     0.031 C 
ATOM     50  C   UNL A   1      48.684  32.157  27.383  1.00  0.00     0.029 A 
ATOM     51  C   UNL A   1      47.824  33.020  28.185  1.00  0.00     0.049 A 
ATOM     52  H   UNL A   1      45.949  32.554  28.968  1.00  0.00     0.167 HD
ATOM     53  C   UNL A   1      41.980  31.467  30.487  1.00  0.00     0.034 A 
ATOM     54  C   UNL A   1      48.111  34.287  28.549  1.00  0.00     0.034 A 
ATOM     55  C   UNL A   1      42.239  32.795  30.992  1.00  0.00     0.049 A 
ATOM     56  C   UNL A   1      47.101  35.058  29.361  1.00  0.00     0.074 A 
ATOM     57  C   UNL A   1      41.456  33.560  31.841  1.00  0.00     0.029 A 
ATOM     58  N   UNL A   1      43.356  33.562  30.687  1.00  0.00    -0.354 N 
ATOM     59  N   UNL A   1      45.933  34.667  29.814  1.00  0.00    -0.248 NA
ATOM     60  C   UNL A   1      47.450  36.441  29.709  1.00  0.00     0.031 C 
ATOM     61  C   UNL A   1      42.056  34.816  31.980  1.00  0.00     0.029 A 
ATOM     62  C   UNL A   1      43.261  34.805  31.297  1.00  0.00     0.049 A 
ATOM     63  H   UNL A   1      44.105  33.268  30.122  1.00  0.00     0.167 HD
ATOM     64  C   UNL A   1      45.429  35.745  30.540  1.00  0.00     0.074 A 
ATOM     65  C   UNL A   1      46.424  36.794  30.467  1.00  0.00     0.031 C 
ATOM     66  C   UNL A   1      44.255  35.851  31.214  1.00  0.00     0.034 A 
BRANCH  53  67
ATOM     67  C   UNL A   1      40.661  30.810  30.823  1.00  0.00     0.023 A 
ATOM     68  C   UNL A   1      39.492  31.075  30.090  1.00  0.00     0.031 A 
ATOM     69  C   UNL A   1      40.570  29.910  31.902  1.00  0.00     0.131 A 
ATOM     70  C   UNL A   1      38.271  30.509  30.488  1.00  0.00     0.055 A 
ATOM     71  C   UNL A   1      39.369  29.283  32.238  1.00  0.00     0.041 A 
ATOM     72  F   UNL A   1      41.646  29.632  32.653  1.00  0.00    -0.206 F 
ATOM     73  C   UNL A   1      38.205  29.593  31.540  1.00  0.00     0.022 A 
BRANCH  70  74
ATOM     74  S   UNL A   1      36.745  31.104  29.707  1.00  0.00     0.124 S 
ATOM     75  O   UNL A   1      37.263  31.745  28.500  1.00  0.00    -0.237 OA
ATOM     76  O   UNL A   1      35.993  29.871  29.505  1.00  0.00    -0.237 OA
ATOM     77  O   UNL A   1      36.189  32.021  30.699  1.00  0.00    -0.744 OA
ENDBRANCH  70  74
ENDBRANCH  53  67
BRANCH  54  78
ATOM     78  C   UNL A   1      49.386  34.935  28.119  1.00  0.00     0.023 A 
ATOM     79  C   UNL A   1      49.572  35.404  26.811  1.00  0.00     0.031 A 
ATOM     80  C   UNL A   1      50.470  35.029  29.004  1.00  0.00     0.131 A 
ATOM     81  C   UNL A   1      50.827  35.899  26.418  1.00  0.00     0.055 A 
ATOM     82  C   UNL A   1      51.697  35.579  28.632  1.00  0.00     0.041 A 
ATOM     83  F   UNL A   1      50.344  34.582  30.260  1.00  0.00    -0.206 F 
ATOM     84  C   UNL A   1      51.885  36.006  27.324  1.00  0.00     0.022 A 
BRANCH  81  85
ATOM     85  S   UNL A   1      51.090  36.305  24.670  1.00  0.00     0.124 S 
ATOM     86  O   UNL A   1      52.162  37.290  24.756  1.00  0.00    -0.237 OA
ATOM     87  O   UNL A   1      51.451  35.007  24.111  1.00  0.00    -0.237 OA
ATOM     88  O   UNL A   1      49.793  36.827  24.246  1.00  0.00    -0.744 OA
ENDBRANCH  81  85
ENDBRANCH  54  78
BRANCH  66  89
ATOM     89  C   UNL A   1      44.014  37.130  31.980  1.00  0.00     0.023 A 
ATOM     90  C   UNL A   1      43.540  38.296  31.355  1.00  0.00     0.031 A 
ATOM     91  C   UNL A   1      44.281  37.184  33.361  1.00  0.00     0.131 A 
ATOM     92  C   UNL A   1      43.405  39.481  32.096  1.00  0.00     0.055 A 
ATOM     93  C   UNL A   1      44.077  38.345  34.106  1.00  0.00     0.041 A 
ATOM     94  F   UNL A   1      44.742  36.103  34.011  1.00  0.00    -0.206 F 
ATOM     95  C   UNL A   1      43.651  39.508  33.471  1.00  0.00     0.022 A 
BRANCH  92  96
ATOM     96  S   UNL A   1      43.004  41.016  31.217  1.00  0.00     0.124 S 
ATOM     97  O   UNL A   1      41.689  41.342  31.761  1.00  0.00    -0.237 OA
ATOM     98  O   UNL A   1      44.095  41.898  31.617  1.00  0.00    -0.237 OA
ATOM     99  O   UNL A   1      43.013  40.619  29.811  1.00  0.00    -0.744 OA
ENDBRANCH  92  96
ENDBRANCH  66  89
ENDBRANCH  40  41
ENDBRANCH  32  35
ENDBRANCH  30  31
ENDBRANCH  29  30
ENDBRANCH   1  29
TORSDOF 19
ENDMDL
MODEL 2
REMARK VINA RESULT:      -9.4      2.332      7.915
REMARK SMILES O=C(CCCc1nc(-c2ccc(Cl)c(Cl)c2)c(-c2ccccc2)o1)NCCCCNC(=O)c1ccc(-c2c3nc(c(-c4cc(S(=O)(=O)[O-])ccc4F)c4ccc([nH]4)c(-c4cc(S(=O)(=O)[O-])ccc4F)c4nc(c(-c5cc(S(=O)(=O)[O-])ccc5F)c5ccc2[nH]5)C=C4)C=C3)cc1
REMARK SMILES IDX 27 1 26 2 25 3 1 4 2 5 3 7 4 8 5 9 6 10 7 11 24 12 8 13
REMARK SMILES IDX 17 14 9 15 10 16 16 17 11 18 14 19 12 20 15 21 13 22 18 23
REMARK SMILES IDX 19 24 23 25 20 26 22 27 21 28 28 29 29 30 30 31 31 32 32 34
REMARK SMILES IDX 33 35 34 36 95 37 35 38 94 39 36 40 37 41 38 42 88 43 39 44
REMARK SMILES IDX 93 45 87 46 89 47 40 48 92 49 86 50 85 51 41 53 73 54 53 55
REMARK SMILES IDX 72 56 54 57 57 58 71 59 90 60 55 61 56 62 70 64 91 65 58 66
REMARK SMILES IDX 42 67 43 68 51 69 44 70 50 71 52 72 49 73 45 74 46 75 47 76
REMARK SMILES IDX 48 77 74 78 75 79 83 80 76 81 82 82 84 83 81 84 77 85 78 86
REMARK SMILES IDX 79 87 80 88 59 89 60 90 68 91 61 92 67 93 69 94 66 95 62 96
REMARK SMILES IDX 63 97 64 98 65 99
REMARK H PARENT 25 6 30 33 89 52 57 63
REMARK Flexibility Score: inf
ROOT
ATOM      1  C   UNL A   1      45.183  22.805  24.550  1.00  0.00     0.023 C 
ENDROOT
BRANCH   1   2
ATOM      2  C   UNL A   1      45.673  21.448  25.051  1.00  0.00     0.116 C 
BRANCH   2   3
ATOM      3  N   UNL A   1      44.584  20.585  25.452  1.00  0.00    -0.356 N 
ATOM      4  O   UNL A   1      45.598  18.628  24.807  1.00  0.00    -0.275 OA
ATOM      5  C   UNL A   1      44.652  19.218  25.317  1.00  0.00     0.220 C 
ATOM      6  H   UNL A   1      43.770  20.987  25.832  1.00  0.00     0.163 HD
BRANCH   5   7
ATOM      7  C   UNL A   1      43.446  18.484  25.857  1.00  0.00     0.100 C 
BRANCH   7   8
ATOM      8  C   UNL A   1      42.146  19.293  25.751  1.00  0.00     0.020 C 
BRANCH   8   9
ATOM      9  C   UNL A   1      41.447  19.669  27.067  1.00  0.00     0.098 C 
BRANCH   9  10
ATOM     10  C   UNL A   1      41.837  21.009  27.578  1.00  0.00     0.195 A 
ATOM     11  N   UNL A   1      42.983  21.374  28.120  1.00  0.00    -0.213 NA
ATOM     12  O   UNL A   1      40.885  21.997  27.535  1.00  0.00    -0.440 OA
ATOM     13  C   UNL A   1      42.776  22.678  28.474  1.00  0.00     0.117 A 
ATOM     14  C   UNL A   1      41.522  23.086  28.073  1.00  0.00     0.162 A 
BRANCH  13  15
ATOM     15  C   UNL A   1      43.765  23.489  29.143  1.00  0.00     0.006 A 
ATOM     16  C   UNL A   1      43.683  23.677  30.526  1.00  0.00     0.012 A 
ATOM     17  C   UNL A   1      44.804  24.090  28.421  1.00  0.00     0.032 A 
ATOM     18  C   UNL A   1      44.648  24.439  31.187  1.00  0.00     0.023 A 
ATOM     19  C   UNL A   1      45.763  24.865  29.080  1.00  0.00     0.060 A 
ATOM     20  C   UNL A   1      45.688  25.035  30.466  1.00  0.00     0.059 A 
ATOM     21  Cl  UNL A   1      47.003  25.595  28.123  1.00  0.00    -0.083 Cl
ATOM     22  Cl  UNL A   1      46.841  25.970  31.350  1.00  0.00    -0.083 Cl
ENDBRANCH  13  15
BRANCH  14  23
ATOM     23  C   UNL A   1      40.845  24.365  28.043  1.00  0.00     0.020 A 
ATOM     24  C   UNL A   1      39.564  24.512  27.506  1.00  0.00     0.012 A 
ATOM     25  C   UNL A   1      41.472  25.468  28.648  1.00  0.00     0.012 A 
ATOM     26  C   UNL A   1      38.910  25.742  27.606  1.00  0.00     0.001 A 
ATOM     27  C   UNL A   1      40.821  26.691  28.744  1.00  0.00     0.001 A 
ATOM     28  C   UNL A   1      39.537  26.821  28.230  1.00  0.00     0.000 A 
ENDBRANCH  14  23
ENDBRANCH   9  10
ENDBRANCH   8   9
ENDBRANCH   7   8
ENDBRANCH   5   7
ENDBRANCH   2   3
ENDBRANCH   1   2
BRANCH   1  29
ATOM     29  C   UNL A   1      46.008  24.009  25.012  1.00  0.00     0.023 C 
BRANCH  29  30
ATOM     30  C   UNL A   1      45.274  25.347  25.008  1.00  0.00     0.116 C 
BRANCH  30  31
ATOM     31  N   UNL A   1      43.851  25.204  24.749  1.00  0.00    -0.352 N 
ATOM     32  C   UNL A   1      42.795  25.966  25.190  1.00  0.00     0.251 C 
ATOM     33  H   UNL A   1      43.606  24.445  24.171  1.00  0.00     0.163 HD
ATOM     34  O   UNL A   1      41.647  25.568  25.001  1.00  0.00    -0.269 OA
BRANCH  32  35
ATOM     35  C   UNL A   1      43.031  27.236  25.915  1.00  0.00     0.039 A 
ATOM     36  C   UNL A   1      42.253  28.352  25.589  1.00  0.00     0.014 A 
ATOM     37  C   UNL A   1      44.015  27.341  26.901  1.00  0.00     0.014 A 
ATOM     38  C   UNL A   1      42.415  29.545  26.300  1.00  0.00     0.010 A 
ATOM     39  C   UNL A   1      44.121  28.506  27.661  1.00  0.00     0.010 A 
ATOM     40  C   UNL A   1      43.319  29.621  27.372  1.00  0.00    -0.014 A 
BRANCH  40  41
ATOM     41  C   UNL A   1      43.432  30.855  28.200  1.00  0.00     0.031 A 
ATOM     42  C   UNL A   1      44.517  31.861  27.919  1.00  0.00     0.074 A 
ATOM     43  C   UNL A   1      42.589  31.047  29.234  1.00  0.00     0.049 A 
ATOM     44  N   UNL A   1      44.821  32.955  28.571  1.00  0.00    -0.248 NA
ATOM     45  C   UNL A   1      45.388  31.590  26.766  1.00  0.00     0.031 C 
ATOM     46  C   UNL A   1      41.506  30.139  29.621  1.00  0.00     0.029 A 
ATOM     47  N   UNL A   1      42.505  32.066  30.153  1.00  0.00    -0.354 N 
ATOM     48  C   UNL A   1      45.923  33.496  27.915  1.00  0.00     0.074 A 
ATOM     49  C   UNL A   1      46.268  32.577  26.852  1.00  0.00     0.031 C 
ATOM     50  C   UNL A   1      40.849  30.658  30.670  1.00  0.00     0.029 A 
ATOM     51  C   UNL A   1      41.493  31.904  31.073  1.00  0.00     0.049 A 
ATOM     52  H   UNL A   1      43.112  32.841  30.152  1.00  0.00     0.167 HD
ATOM     53  C   UNL A   1      46.573  34.661  28.165  1.00  0.00     0.034 A 
ATOM     54  C   UNL A   1      41.137  32.659  32.133  1.00  0.00     0.034 A 
ATOM     55  C   UNL A   1      46.211  35.572  29.225  1.00  0.00     0.049 A 
ATOM     56  C   UNL A   1      41.924  33.911  32.432  1.00  0.00     0.074 A 
ATOM     57  C   UNL A   1      46.767  36.804  29.528  1.00  0.00     0.029 A 
ATOM     58  N   UNL A   1      45.210  35.349  30.163  1.00  0.00    -0.354 N 
ATOM     59  N   UNL A   1      42.940  34.424  31.779  1.00  0.00    -0.248 NA
ATOM     60  C   UNL A   1      41.513  34.683  33.612  1.00  0.00     0.031 C 
ATOM     61  C   UNL A   1      46.163  37.283  30.695  1.00  0.00     0.029 A 
ATOM     62  C   UNL A   1      45.164  36.400  31.069  1.00  0.00     0.049 A 
ATOM     63  H   UNL A   1      44.621  34.561  30.183  1.00  0.00     0.167 HD
ATOM     64  C   UNL A   1      43.259  35.605  32.445  1.00  0.00     0.074 A 
ATOM     65  C   UNL A   1      42.324  35.727  33.544  1.00  0.00     0.031 C 
ATOM     66  C   UNL A   1      44.232  36.511  32.167  1.00  0.00     0.034 A 
BRANCH  53  67
ATOM     67  C   UNL A   1      47.761  34.999  27.295  1.00  0.00     0.023 A 
ATOM     68  C   UNL A   1      49.065  34.597  27.631  1.00  0.00     0.031 A 
ATOM     69  C   UNL A   1      47.589  35.746  26.114  1.00  0.00     0.131 A 
ATOM     70  C   UNL A   1      50.151  35.005  26.840  1.00  0.00     0.055 A 
ATOM     71  C   UNL A   1      48.663  36.074  25.286  1.00  0.00     0.041 A 
ATOM     72  F   UNL A   1      46.371  36.178  25.750  1.00  0.00    -0.206 F 
ATOM     73  C   UNL A   1      49.957  35.717  25.655  1.00  0.00     0.022 A 
BRANCH  70  74
ATOM     74  S   UNL A   1      51.831  34.721  27.464  1.00  0.00     0.124 S 
ATOM     75  O   UNL A   1      52.492  35.975  27.110  1.00  0.00    -0.237 OA
ATOM     76  O   UNL A   1      51.604  34.497  28.887  1.00  0.00    -0.237 OA
ATOM     77  O   UNL A   1      52.283  33.554  26.710  1.00  0.00    -0.744 OA
ENDBRANCH  70  74
ENDBRANCH  53  67
BRANCH  54  78
ATOM     78  C   UNL A   1      40.015  32.242  33.025  1.00  0.00     0.023 A 
ATOM     79  C   UNL A   1      38.761  32.868  32.979  1.00  0.00     0.031 A 
ATOM     80  C   UNL A   1      40.209  31.245  33.994  1.00  0.00     0.131 A 
ATOM     81  C   UNL A   1      37.773  32.523  33.916  1.00  0.00     0.055 A 
ATOM     82  C   UNL A   1      39.207  30.858  34.883  1.00  0.00     0.041 A 
ATOM     83  F   UNL A   1      41.394  30.629  34.085  1.00  0.00    -0.206 F 
ATOM     84  C   UNL A   1      37.981  31.510  34.856  1.00  0.00     0.022 A 
BRANCH  81  85
ATOM     85  S   UNL A   1      36.242  33.493  33.957  1.00  0.00     0.124 S 
ATOM     86  O   UNL A   1      35.383  32.723  33.063  1.00  0.00    -0.237 OA
ATOM     87  O   UNL A   1      35.898  33.453  35.373  1.00  0.00    -0.237 OA
ATOM     88  O   UNL A   1      36.656  34.800  33.453  1.00  0.00    -0.744 OA
ENDBRANCH  81  85
ENDBRANCH  54  78
BRANCH  66  89
ATOM     89  C   UNL A   1      44.289  37.748  33.032  1.00  0.00     0.023 A 
ATOM     90  C   UNL A   1      43.612  38.931  32.689  1.00  0.00     0.031 A 
ATOM     91  C   UNL A   1      45.051  37.744  34.214  1.00  0.00     0.131 A 
ATOM     92  C   UNL A   1      43.759  40.077  33.486  1.00  0.00     0.055 A 
ATOM     93  C   UNL A   1      45.136  38.864  35.041  1.00  0.00     0.041 A 
ATOM     94  F   UNL A   1      45.725  36.644  34.590  1.00  0.00    -0.206 F 
ATOM     95  C   UNL A   1      44.500  40.046  34.670  1.00  0.00     0.022 A 
BRANCH  92  96
ATOM     96  S   UNL A   1      43.054  41.642  32.899  1.00  0.00     0.124 S 
ATOM     97  O   UNL A   1      42.961  41.412  31.461  1.00  0.00    -0.237 OA
ATOM     98  O   UNL A   1      41.786  41.701  33.617  1.00  0.00    -0.237 OA
ATOM     99  O   UNL A   1      44.043  42.638  33.306  1.00  0.00    -0.744 OA
ENDBRANCH  92  96
ENDBRANCH  66  89
ENDBRANCH  40  41
ENDBRANCH  32  35
ENDBRANCH  30  31
ENDBRANCH  29  30
ENDBRANCH   1  29
TORSDOF 19
ENDMDL
MODEL 3
REMARK VINA RESULT:      -9.3      4.703     10.474
REMARK SMILES O=C(CCCc1nc(-c2ccc(Cl)c(Cl)c2)c(-c2ccccc2)o1)NCCCCNC(=O)c1ccc(-c2c3nc(c(-c4cc(S(=O)(=O)[O-])ccc4F)c4ccc([nH]4)c(-c4cc(S(=O)(=O)[O-])ccc4F)c4nc(c(-c5cc(S(=O)(=O)[O-])ccc5F)c5ccc2[nH]5)C=C4)C=C3)cc1
REMARK SMILES IDX 27 1 26 2 25 3 1 4 2 5 3 7 4 8 5 9 6 10 7 11 24 12 8 13
REMARK SMILES IDX 17 14 9 15 10 16 16 17 11 18 14 19 12 20 15 21 13 22 18 23
REMARK SMILES IDX 19 24 23 25 20 26 22 27 21 28 28 29 29 30 30 31 31 32 32 34
REMARK SMILES IDX 33 35 34 36 95 37 35 38 94 39 36 40 37 41 38 42 88 43 39 44
REMARK SMILES IDX 93 45 87 46 89 47 40 48 92 49 86 50 85 51 41 53 73 54 53 55
REMARK SMILES IDX 72 56 54 57 57 58 71 59 90 60 55 61 56 62 70 64 91 65 58 66
REMARK SMILES IDX 42 67 43 68 51 69 44 70 50 71 52 72 49 73 45 74 46 75 47 76
REMARK SMILES IDX 48 77 74 78 75 79 83 80 76 81 82 82 84 83 81 84 77 85 78 86
REMARK SMILES IDX 79 87 80 88 59 89 60 90 68 91 61 92 67 93 69 94 66 95 62 96
REMARK SMILES IDX 63 97 64 98 65 99
REMARK H PARENT 25 6 30 33 89 52 57 63
REMARK Flexibility Score: inf
ROOT
ATOM      1  C   UNL A   1      37.034  33.268  32.209  1.00  0.00     0.023 C 
ENDROOT
BRANCH   1   2
ATOM      2  C   UNL A   1      36.206  34.514  32.516  1.00  0.00     0.116 C 
BRANCH   2   3
ATOM      3  N   UNL A   1      35.297  34.848  31.440  1.00  0.00    -0.356 N 
ATOM      4  O   UNL A   1      33.378  34.547  32.665  1.00  0.00    -0.275 OA
ATOM      5  C   UNL A   1      33.934  34.862  31.618  1.00  0.00     0.220 C 
ATOM      6  H   UNL A   1      35.666  35.071  30.555  1.00  0.00     0.163 HD
BRANCH   5   7
ATOM      7  C   UNL A   1      33.157  35.303  30.400  1.00  0.00     0.100 C 
BRANCH   7   8
ATOM      8  C   UNL A   1      33.919  35.090  29.084  1.00  0.00     0.020 C 
BRANCH   8   9
ATOM      9  C   UNL A   1      33.285  34.144  28.053  1.00  0.00     0.098 C 
BRANCH   9  10
ATOM     10  C   UNL A   1      33.883  32.783  28.057  1.00  0.00     0.195 A 
ATOM     11  N   UNL A   1      35.011  32.389  28.615  1.00  0.00    -0.213 NA
ATOM     12  O   UNL A   1      33.219  31.806  27.358  1.00  0.00    -0.440 OA
ATOM     13  C   UNL A   1      35.114  31.075  28.252  1.00  0.00     0.117 A 
ATOM     14  C   UNL A   1      34.001  30.693  27.533  1.00  0.00     0.162 A 
BRANCH  13  15
ATOM     15  C   UNL A   1      36.228  30.233  28.614  1.00  0.00     0.006 A 
ATOM     16  C   UNL A   1      36.235  29.590  29.855  1.00  0.00     0.012 A 
ATOM     17  C   UNL A   1      37.304  30.054  27.734  1.00  0.00     0.032 A 
ATOM     18  C   UNL A   1      37.295  28.753  30.204  1.00  0.00     0.023 A 
ATOM     19  C   UNL A   1      38.374  29.227  28.089  1.00  0.00     0.060 A 
ATOM     20  C   UNL A   1      38.367  28.571  29.324  1.00  0.00     0.059 A 
ATOM     21  Cl  UNL A   1      39.676  29.072  26.964  1.00  0.00    -0.083 Cl
ATOM     22  Cl  UNL A   1      39.649  27.527  29.826  1.00  0.00    -0.083 Cl
ENDBRANCH  13  15
BRANCH  14  23
ATOM     23  C   UNL A   1      33.511  29.421  27.045  1.00  0.00     0.020 A 
ATOM     24  C   UNL A   1      34.282  28.599  26.219  1.00  0.00     0.012 A 
ATOM     25  C   UNL A   1      32.255  28.974  27.489  1.00  0.00     0.012 A 
ATOM     26  C   UNL A   1      33.810  27.332  25.871  1.00  0.00     0.001 A 
ATOM     27  C   UNL A   1      31.786  27.714  27.138  1.00  0.00     0.001 A 
ATOM     28  C   UNL A   1      32.570  26.894  26.338  1.00  0.00     0.000 A 
ENDBRANCH  14  23
ENDBRANCH   9  10
ENDBRANCH   8   9
ENDBRANCH   7   8
ENDBRANCH   5   7
ENDBRANCH   2   3
ENDBRANCH   1   2
BRANCH   1  29
ATOM     29  C   UNL A   1      36.655  32.019  33.011  1.00  0.00     0.023 C 
BRANCH  29  30
ATOM     30  C   UNL A   1      37.640  31.620  34.106  1.00  0.00     0.116 C 
BRANCH  30  31
ATOM     31  N   UNL A   1      37.980  30.206  34.065  1.00  0.00    -0.352 N 
ATOM     32  C   UNL A   1      38.974  29.560  33.370  1.00  0.00     0.251 C 
ATOM     33  H   UNL A   1      37.411  29.624  34.619  1.00  0.00     0.163 HD
ATOM     34  O   UNL A   1      38.980  28.331  33.333  1.00  0.00    -0.269 OA
BRANCH  32  35
ATOM     35  C   UNL A   1      40.011  30.330  32.644  1.00  0.00     0.039 A 
ATOM     36  C   UNL A   1      41.164  30.721  33.331  1.00  0.00     0.014 A 
ATOM     37  C   UNL A   1      39.853  30.678  31.300  1.00  0.00     0.014 A 
ATOM     38  C   UNL A   1      42.184  31.395  32.653  1.00  0.00     0.010 A 
ATOM     39  C   UNL A   1      40.903  31.280  30.607  1.00  0.00     0.010 A 
ATOM     40  C   UNL A   1      42.083  31.643  31.273  1.00  0.00    -0.014 A 
BRANCH  40  41
ATOM     41  C   UNL A   1      43.203  32.273  30.519  1.00  0.00     0.031 A 
ATOM     42  C   UNL A   1      44.436  31.476  30.183  1.00  0.00     0.074 A 
ATOM     43  C   UNL A   1      43.131  33.575  30.177  1.00  0.00     0.049 A 
ATOM     44  N   UNL A   1      45.540  31.867  29.599  1.00  0.00    -0.248 NA
ATOM     45  C   UNL A   1      44.435  30.059  30.575  1.00  0.00     0.031 C 
ATOM     46  C   UNL A   1      41.998  34.460  30.458  1.00  0.00     0.029 A 
ATOM     47  N   UNL A   1      44.024  34.387  29.520  1.00  0.00    -0.354 N 
ATOM     48  C   UNL A   1      46.369  30.749  29.564  1.00  0.00     0.074 A 
ATOM     49  C   UNL A   1      45.660  29.684  30.239  1.00  0.00     0.031 C 
ATOM     50  C   UNL A   1      42.250  35.676  29.947  1.00  0.00     0.029 A 
ATOM     51  C   UNL A   1      43.583  35.681  29.354  1.00  0.00     0.049 A 
ATOM     52  H   UNL A   1      44.899  34.071  29.196  1.00  0.00     0.167 HD
ATOM     53  C   UNL A   1      47.598  30.619  29.002  1.00  0.00     0.034 A 
ATOM     54  C   UNL A   1      44.190  36.755  28.807  1.00  0.00     0.034 A 
ATOM     55  C   UNL A   1      48.289  31.690  28.325  1.00  0.00     0.049 A 
ATOM     56  C   UNL A   1      45.586  36.601  28.257  1.00  0.00     0.074 A 
ATOM     57  C   UNL A   1      49.510  31.650  27.673  1.00  0.00     0.029 A 
ATOM     58  N   UNL A   1      47.829  32.998  28.220  1.00  0.00    -0.354 N 
ATOM     59  N   UNL A   1      46.338  35.527  28.201  1.00  0.00    -0.248 NA
ATOM     60  C   UNL A   1      46.211  37.806  27.698  1.00  0.00     0.031 C 
ATOM     61  C   UNL A   1      49.827  32.945  27.251  1.00  0.00     0.029 A 
ATOM     62  C   UNL A   1      48.762  33.779  27.552  1.00  0.00     0.049 A 
ATOM     63  H   UNL A   1      46.968  33.322  28.568  1.00  0.00     0.167 HD
ATOM     64  C   UNL A   1      47.510  35.920  27.557  1.00  0.00     0.074 A 
ATOM     65  C   UNL A   1      47.358  37.325  27.242  1.00  0.00     0.031 C 
ATOM     66  C   UNL A   1      48.606  35.182  27.246  1.00  0.00     0.034 A 
BRANCH  53  67
ATOM     67  C   UNL A   1      48.286  29.279  29.126  1.00  0.00     0.023 A 
ATOM     68  C   UNL A   1      48.074  28.248  28.195  1.00  0.00     0.031 A 
ATOM     69  C   UNL A   1      49.159  29.025  30.200  1.00  0.00     0.131 A 
ATOM     70  C   UNL A   1      48.667  26.991  28.394  1.00  0.00     0.055 A 
ATOM     71  C   UNL A   1      49.813  27.800  30.344  1.00  0.00     0.041 A 
ATOM     72  F   UNL A   1      49.385  29.962  31.134  1.00  0.00    -0.206 F 
ATOM     73  C   UNL A   1      49.556  26.767  29.447  1.00  0.00     0.022 A 
BRANCH  70  74
ATOM     74  S   UNL A   1      48.138  25.609  27.344  1.00  0.00     0.124 S 
ATOM     75  O   UNL A   1      46.919  25.174  28.022  1.00  0.00    -0.237 OA
ATOM     76  O   UNL A   1      47.956  26.250  26.048  1.00  0.00    -0.237 OA
ATOM     77  O   UNL A   1      49.255  24.670  27.427  1.00  0.00    -0.744 OA
ENDBRANCH  70  74
ENDBRANCH  53  67
BRANCH  54  78
ATOM     78  C   UNL A   1      43.514  38.086  28.788  1.00  0.00     0.023 A 
ATOM     79  C   UNL A   1      43.711  39.031  29.804  1.00  0.00     0.031 A 
ATOM     80  C   UNL A   1      42.596  38.402  27.774  1.00  0.00     0.131 A 
ATOM     81  C   UNL A   1      42.965  40.222  29.806  1.00  0.00     0.055 A 
ATOM     82  C   UNL A   1      41.902  39.612  27.742  1.00  0.00     0.041 A 
ATOM     83  F   UNL A   1      42.364  37.525  26.790  1.00  0.00    -0.206 F 
ATOM     84  C   UNL A   1      42.075  40.526  28.773  1.00  0.00     0.022 A 
BRANCH  81  85
ATOM     85  S   UNL A   1      43.096  41.324  31.240  1.00  0.00     0.124 S 
ATOM     86  O   UNL A   1      41.881  40.993  31.977  1.00  0.00    -0.237 OA
ATOM     87  O   UNL A   1      44.352  40.889  31.840  1.00  0.00    -0.237 OA
ATOM     88  O   UNL A   1      43.120  42.656  30.641  1.00  0.00    -0.744 OA
ENDBRANCH  81  85
ENDBRANCH  54  78
BRANCH  66  89
ATOM     89  C   UNL A   1      49.703  35.872  26.470  1.00  0.00     0.023 A 
ATOM     90  C   UNL A   1      50.682  36.659  27.099  1.00  0.00     0.031 A 
ATOM     91  C   UNL A   1      49.756  35.749  25.069  1.00  0.00     0.131 A 
ATOM     92  C   UNL A   1      51.635  37.340  26.326  1.00  0.00     0.055 A 
ATOM     93  C   UNL A   1      50.748  36.372  24.312  1.00  0.00     0.041 A 
ATOM     94  F   UNL A   1      48.843  35.016  24.412  1.00  0.00    -0.206 F 
ATOM     95  C   UNL A   1      51.686  37.187  24.939  1.00  0.00     0.022 A 
BRANCH  92  96
ATOM     96  S   UNL A   1      52.743  38.518  27.149  1.00  0.00     0.124 S 
ATOM     97  O   UNL A   1      53.419  39.141  26.015  1.00  0.00    -0.237 OA
ATOM     98  O   UNL A   1      51.808  39.368  27.878  1.00  0.00    -0.237 OA
ATOM     99  O   UNL A   1      53.588  37.668  27.985  1.00  0.00    -0.744 OA
ENDBRANCH  92  96
ENDBRANCH  66  89
ENDBRANCH  40  41
ENDBRANCH  32  35
ENDBRANCH  30  31
ENDBRANCH  29  30
ENDBRANCH   1  29
TORSDOF 19
ENDMDL
