MODEL 1
REMARK VINA RESULT:     -11.7      0.000      0.000
REMARK SMILES C[C@@H]1C[C@H]([N@@H+](C)Cc2ccc(C(=O)NCCCCNC(=O)c3ccc(-c4c5nc(c(-c6cc(S(=O)(=O)[O-])ccc6F)c6ccc([nH]6)c(-c6cc(S(=O)(=O)[O-])ccc6F)c6nc(c(-c7cc(S(=O)(=O)[O-])ccc7F)c7ccc4[nH]7)C=C6)C=C5)cc3)cc2)CS1
REMARK SMILES IDX 16 1 15 2 14 3 12 4 13 5 11 7 8 8 9 9 86 10 10 11 85 12 7 13
REMARK SMILES IDX 5 14 6 15 4 17 1 18 2 19 3 20 88 21 87 22 17 23 18 24 19 25
REMARK SMILES IDX 20 26 21 28 22 29 23 30 84 31 24 32 83 33 25 34 26 35 27 36
REMARK SMILES IDX 77 37 28 38 82 39 76 40 78 41 29 42 81 43 75 44 74 45 30 47
REMARK SMILES IDX 62 48 42 49 61 50 43 51 46 52 60 53 79 54 44 55 45 56 59 58
REMARK SMILES IDX 80 59 47 60 31 61 32 62 40 63 33 64 39 65 41 66 38 67 34 68
REMARK SMILES IDX 35 69 36 70 37 71 63 72 64 73 72 74 65 75 71 76 73 77 70 78
REMARK SMILES IDX 66 79 67 80 68 81 69 82 48 83 49 84 57 85 50 86 56 87 58 88
REMARK SMILES IDX 55 89 51 90 52 91 53 92 54 93
REMARK H PARENT 14 6 5 16 19 27 78 46 46 57
REMARK Flexibility Score: inf
ROOT
ATOM      1  C   UNL A   1      31.657  30.821  25.965  1.00  0.00     0.023 C 
ENDROOT
BRANCH   1   2
ATOM      2  C   UNL A   1      31.437  29.547  25.145  1.00  0.00     0.116 C 
BRANCH   2   3
ATOM      3  N   UNL A   1      31.013  29.863  23.797  1.00  0.00    -0.352 N 
ATOM      4  C   UNL A   1      30.560  29.048  22.791  1.00  0.00     0.251 C 
ATOM      5  O   UNL A   1      30.148  29.571  21.755  1.00  0.00    -0.269 OA
ATOM      6  H   UNL A   1      31.057  30.818  23.564  1.00  0.00     0.163 HD
BRANCH   4   7
ATOM      7  C   UNL A   1      30.527  27.566  22.914  1.00  0.00     0.039 A 
ATOM      8  C   UNL A   1      30.763  24.763  23.214  1.00  0.00     0.006 A 
ATOM      9  C   UNL A   1      31.476  25.444  22.219  1.00  0.00     0.010 A 
ATOM     10  C   UNL A   1      29.849  25.490  23.978  1.00  0.00     0.010 A 
ATOM     11  C   UNL A   1      31.371  26.832  22.078  1.00  0.00     0.014 A 
ATOM     12  C   UNL A   1      29.770  26.878  23.863  1.00  0.00     0.014 A 
BRANCH   8  13
ATOM     13  C   UNL A   1      31.004  23.291  23.469  1.00  0.00     0.299 C 
BRANCH  13  14
ATOM     14  N   UNL A   1      32.294  22.720  23.045  1.00  0.00    -0.330 N 
ATOM     15  C   UNL A   1      32.191  21.429  22.370  1.00  0.00     0.333 C 
ATOM     16  H   UNL A   1      32.554  23.421  22.350  1.00  0.00     0.348 HD
BRANCH  14  17
ATOM     17  C   UNL A   1      33.440  22.775  23.975  1.00  0.00     0.195 C 
ATOM     18  C   UNL A   1      33.823  26.241  25.010  1.00  0.00     0.019 C 
ATOM     19  C   UNL A   1      34.402  24.837  25.130  1.00  0.00     0.049 C 
ATOM     20  C   UNL A   1      34.300  24.043  23.831  1.00  0.00     0.080 C 
ATOM     21  S   UNL A   1      33.578  23.905  26.439  1.00  0.00    -0.152 SA
ATOM     22  C   UNL A   1      33.224  22.436  25.456  1.00  0.00     0.134 C 
ENDBRANCH  14  17
ENDBRANCH  13  14
ENDBRANCH   8  13
ENDBRANCH   4   7
ENDBRANCH   2   3
ENDBRANCH   1   2
BRANCH   1  23
ATOM     23  C   UNL A   1      32.546  30.643  27.194  1.00  0.00     0.023 C 
BRANCH  23  24
ATOM     24  C   UNL A   1      33.591  31.732  27.375  1.00  0.00     0.116 C 
BRANCH  24  25
ATOM     25  N   UNL A   1      33.019  33.057  27.564  1.00  0.00    -0.352 N 
ATOM     26  C   UNL A   1      33.400  33.997  28.497  1.00  0.00     0.251 C 
ATOM     27  H   UNL A   1      32.283  33.308  26.960  1.00  0.00     0.163 HD
ATOM     28  O   UNL A   1      32.780  35.040  28.628  1.00  0.00    -0.269 OA
BRANCH  26  29
ATOM     29  C   UNL A   1      34.548  33.669  29.365  1.00  0.00     0.039 A 
ATOM     30  C   UNL A   1      34.362  32.776  30.422  1.00  0.00     0.014 A 
ATOM     31  C   UNL A   1      35.818  34.155  29.049  1.00  0.00     0.014 A 
ATOM     32  C   UNL A   1      35.474  32.311  31.127  1.00  0.00     0.010 A 
ATOM     33  C   UNL A   1      36.926  33.640  29.707  1.00  0.00     0.010 A 
ATOM     34  C   UNL A   1      36.765  32.711  30.749  1.00  0.00    -0.014 A 
BRANCH  34  35
ATOM     35  C   UNL A   1      37.978  32.206  31.440  1.00  0.00     0.031 A 
ATOM     36  C   UNL A   1      38.786  31.120  30.790  1.00  0.00     0.074 A 
ATOM     37  C   UNL A   1      38.285  32.642  32.677  1.00  0.00     0.049 A 
ATOM     38  N   UNL A   1      39.755  30.396  31.284  1.00  0.00    -0.248 NA
ATOM     39  C   UNL A   1      38.418  30.776  29.407  1.00  0.00     0.031 C 
ATOM     40  C   UNL A   1      37.557  33.675  33.417  1.00  0.00     0.029 A 
ATOM     41  N   UNL A   1      39.276  32.252  33.541  1.00  0.00    -0.354 N 
ATOM     42  C   UNL A   1      40.091  29.488  30.287  1.00  0.00     0.074 A 
ATOM     43  C   UNL A   1      39.186  29.722  29.181  1.00  0.00     0.031 C 
ATOM     44  C   UNL A   1      38.131  33.839  34.621  1.00  0.00     0.029 A 
ATOM     45  C   UNL A   1      39.234  32.892  34.758  1.00  0.00     0.049 A 
ATOM     46  H   UNL A   1      39.955  31.577  33.312  1.00  0.00     0.167 HD
ATOM     47  C   UNL A   1      41.074  28.554  30.288  1.00  0.00     0.034 A 
ATOM     48  C   UNL A   1      39.983  32.716  35.864  1.00  0.00     0.034 A 
ATOM     49  C   UNL A   1      41.983  28.356  31.391  1.00  0.00     0.049 A 
ATOM     50  C   UNL A   1      41.072  31.672  35.847  1.00  0.00     0.074 A 
ATOM     51  C   UNL A   1      43.046  27.477  31.487  1.00  0.00     0.029 A 
ATOM     52  N   UNL A   1      41.933  29.054  32.591  1.00  0.00    -0.354 N 
ATOM     53  N   UNL A   1      41.395  30.834  34.889  1.00  0.00    -0.248 NA
ATOM     54  C   UNL A   1      41.901  31.554  37.054  1.00  0.00     0.031 C 
ATOM     55  C   UNL A   1      43.609  27.608  32.761  1.00  0.00     0.029 A 
ATOM     56  C   UNL A   1      42.937  28.614  33.438  1.00  0.00     0.049 A 
ATOM     57  H   UNL A   1      41.280  29.758  32.808  1.00  0.00     0.167 HD
ATOM     58  C   UNL A   1      42.488  30.117  35.365  1.00  0.00     0.074 A 
ATOM     59  C   UNL A   1      42.768  30.618  36.695  1.00  0.00     0.031 C 
ATOM     60  C   UNL A   1      43.203  29.139  34.755  1.00  0.00     0.034 A 
BRANCH  47  61
ATOM     61  C   UNL A   1      41.188  27.668  29.073  1.00  0.00     0.023 A 
ATOM     62  C   UNL A   1      42.180  27.877  28.099  1.00  0.00     0.031 A 
ATOM     63  C   UNL A   1      40.260  26.634  28.857  1.00  0.00     0.131 A 
ATOM     64  C   UNL A   1      42.167  27.126  26.915  1.00  0.00     0.055 A 
ATOM     65  C   UNL A   1      40.307  25.830  27.716  1.00  0.00     0.041 A 
ATOM     66  F   UNL A   1      39.278  26.400  29.742  1.00  0.00    -0.206 F 
ATOM     67  C   UNL A   1      41.254  26.086  26.728  1.00  0.00     0.022 A 
BRANCH  64  68
ATOM     68  S   UNL A   1      43.262  27.632  25.561  1.00  0.00     0.124 S 
ATOM     69  O   UNL A   1      43.912  26.368  25.222  1.00  0.00    -0.237 OA
ATOM     70  O   UNL A   1      42.324  28.153  24.574  1.00  0.00    -0.237 OA
ATOM     71  O   UNL A   1      44.134  28.628  26.180  1.00  0.00    -0.744 OA
ENDBRANCH  64  68
ENDBRANCH  47  61
BRANCH  48  72
ATOM     72  C   UNL A   1      39.728  33.529  37.087  1.00  0.00     0.023 A 
ATOM     73  C   UNL A   1      39.061  32.977  38.193  1.00  0.00     0.031 A 
ATOM     74  C   UNL A   1      40.115  34.878  37.155  1.00  0.00     0.131 A 
ATOM     75  C   UNL A   1      38.763  33.783  39.302  1.00  0.00     0.055 A 
ATOM     76  C   UNL A   1      39.857  35.664  38.281  1.00  0.00     0.041 A 
ATOM     77  F   UNL A   1      40.763  35.451  36.128  1.00  0.00    -0.206 F 
ATOM     78  C   UNL A   1      39.166  35.119  39.358  1.00  0.00     0.022 A 
BRANCH  75  79
ATOM     79  S   UNL A   1      37.773  33.075  40.647  1.00  0.00     0.124 S 
ATOM     80  O   UNL A   1      37.923  34.085  41.690  1.00  0.00    -0.237 OA
ATOM     81  O   UNL A   1      36.453  32.976  40.033  1.00  0.00    -0.237 OA
ATOM     82  O   UNL A   1      38.430  31.798  40.917  1.00  0.00    -0.744 OA
ENDBRANCH  75  79
ENDBRANCH  48  72
BRANCH  60  83
ATOM     83  C   UNL A   1      44.401  28.601  35.492  1.00  0.00     0.023 A 
ATOM     84  C   UNL A   1      44.287  27.594  36.463  1.00  0.00     0.031 A 
ATOM     85  C   UNL A   1      45.683  29.096  35.191  1.00  0.00     0.131 A 
ATOM     86  C   UNL A   1      45.435  27.132  37.125  1.00  0.00     0.055 A 
ATOM     87  C   UNL A   1      46.825  28.603  35.820  1.00  0.00     0.041 A 
ATOM     88  F   UNL A   1      45.843  30.058  34.269  1.00  0.00    -0.206 F 
ATOM     89  C   UNL A   1      46.704  27.619  36.798  1.00  0.00     0.022 A 
BRANCH  86  90
ATOM     90  S   UNL A   1      45.249  25.911  38.452  1.00  0.00     0.124 S 
ATOM     91  O   UNL A   1      44.800  24.732  37.719  1.00  0.00    -0.237 OA
ATOM     92  O   UNL A   1      46.596  25.841  39.007  1.00  0.00    -0.237 OA
ATOM     93  O   UNL A   1      44.248  26.512  39.334  1.00  0.00    -0.744 OA
ENDBRANCH  86  90
ENDBRANCH  60  83
ENDBRANCH  34  35
ENDBRANCH  26  29
ENDBRANCH  24  25
ENDBRANCH  23  24
ENDBRANCH   1  23
TORSDOF 17
ENDMDL
MODEL 2
REMARK VINA RESULT:     -11.7      1.518      1.903
REMARK SMILES C[C@@H]1C[C@H]([N@@H+](C)Cc2ccc(C(=O)NCCCCNC(=O)c3ccc(-c4c5nc(c(-c6cc(S(=O)(=O)[O-])ccc6F)c6ccc([nH]6)c(-c6cc(S(=O)(=O)[O-])ccc6F)c6nc(c(-c7cc(S(=O)(=O)[O-])ccc7F)c7ccc4[nH]7)C=C6)C=C5)cc3)cc2)CS1
REMARK SMILES IDX 16 1 15 2 14 3 12 4 13 5 11 7 8 8 9 9 86 10 10 11 85 12 7 13
REMARK SMILES IDX 5 14 6 15 4 17 1 18 2 19 3 20 88 21 87 22 17 23 18 24 19 25
REMARK SMILES IDX 20 26 21 28 22 29 23 30 84 31 24 32 83 33 25 34 26 35 27 36
REMARK SMILES IDX 77 37 28 38 82 39 76 40 78 41 29 42 81 43 75 44 74 45 30 47
REMARK SMILES IDX 62 48 42 49 61 50 43 51 46 52 60 53 79 54 44 55 45 56 59 58
REMARK SMILES IDX 80 59 47 60 31 61 32 62 40 63 33 64 39 65 41 66 38 67 34 68
REMARK SMILES IDX 35 69 36 70 37 71 63 72 64 73 72 74 65 75 71 76 73 77 70 78
REMARK SMILES IDX 66 79 67 80 68 81 69 82 48 83 49 84 57 85 50 86 56 87 58 88
REMARK SMILES IDX 55 89 51 90 52 91 53 92 54 93
REMARK H PARENT 14 6 5 16 19 27 78 46 46 57
REMARK Flexibility Score: inf
ROOT
ATOM      1  C   UNL A   1      31.683  29.753  26.562  1.00  0.00     0.023 C 
ENDROOT
BRANCH   1   2
ATOM      2  C   UNL A   1      32.180  29.378  25.163  1.00  0.00     0.116 C 
BRANCH   2   3
ATOM      3  N   UNL A   1      31.202  29.723  24.153  1.00  0.00    -0.352 N 
ATOM      4  C   UNL A   1      30.373  28.926  23.405  1.00  0.00     0.251 C 
ATOM      5  O   UNL A   1      29.538  29.466  22.681  1.00  0.00    -0.269 OA
ATOM      6  H   UNL A   1      31.117  30.687  23.973  1.00  0.00     0.163 HD
BRANCH   4   7
ATOM      7  C   UNL A   1      30.432  27.440  23.454  1.00  0.00     0.039 A 
ATOM      8  C   UNL A   1      30.849  24.644  23.575  1.00  0.00     0.006 A 
ATOM      9  C   UNL A   1      31.387  25.410  22.532  1.00  0.00     0.010 A 
ATOM     10  C   UNL A   1      30.010  25.283  24.489  1.00  0.00     0.010 A 
ATOM     11  C   UNL A   1      31.194  26.794  22.478  1.00  0.00     0.014 A 
ATOM     12  C   UNL A   1      29.845  26.668  24.457  1.00  0.00     0.014 A 
BRANCH   8  13
ATOM     13  C   UNL A   1      31.197  23.179  23.719  1.00  0.00     0.299 C 
BRANCH  13  14
ATOM     14  N   UNL A   1      32.379  22.677  22.999  1.00  0.00    -0.330 N 
ATOM     15  C   UNL A   1      32.147  21.457  22.231  1.00  0.00     0.333 C 
ATOM     16  H   UNL A   1      32.500  23.447  22.341  1.00  0.00     0.348 HD
BRANCH  14  17
ATOM     17  C   UNL A   1      33.684  22.662  23.691  1.00  0.00     0.195 C 
ATOM     18  C   UNL A   1      34.057  25.872  25.360  1.00  0.00     0.019 C 
ATOM     19  C   UNL A   1      34.732  24.539  25.065  1.00  0.00     0.049 C 
ATOM     20  C   UNL A   1      34.419  24.013  23.667  1.00  0.00     0.080 C 
ATOM     21  S   UNL A   1      34.248  23.285  26.272  1.00  0.00    -0.152 SA
ATOM     22  C   UNL A   1      33.793  22.013  25.078  1.00  0.00     0.134 C 
ENDBRANCH  14  17
ENDBRANCH  13  14
ENDBRANCH   8  13
ENDBRANCH   4   7
ENDBRANCH   2   3
ENDBRANCH   1   2
BRANCH   1  23
ATOM     23  C   UNL A   1      31.388  31.239  26.757  1.00  0.00     0.023 C 
BRANCH  23  24
ATOM     24  C   UNL A   1      32.621  32.127  26.772  1.00  0.00     0.116 C 
BRANCH  24  25
ATOM     25  N   UNL A   1      32.371  33.453  27.320  1.00  0.00    -0.352 N 
ATOM     26  C   UNL A   1      33.133  34.117  28.257  1.00  0.00     0.251 C 
ATOM     27  H   UNL A   1      31.574  33.924  26.985  1.00  0.00     0.163 HD
ATOM     28  O   UNL A   1      32.771  35.188  28.717  1.00  0.00    -0.269 OA
BRANCH  26  29
ATOM     29  C   UNL A   1      34.370  33.459  28.720  1.00  0.00     0.039 A 
ATOM     30  C   UNL A   1      35.593  34.101  28.519  1.00  0.00     0.014 A 
ATOM     31  C   UNL A   1      34.292  32.273  29.453  1.00  0.00     0.014 A 
ATOM     32  C   UNL A   1      36.742  33.584  29.120  1.00  0.00     0.010 A 
ATOM     33  C   UNL A   1      35.424  31.800  30.103  1.00  0.00     0.010 A 
ATOM     34  C   UNL A   1      36.658  32.453  29.946  1.00  0.00    -0.014 A 
BRANCH  34  35
ATOM     35  C   UNL A   1      37.846  31.898  30.642  1.00  0.00     0.031 A 
ATOM     36  C   UNL A   1      38.673  30.854  29.948  1.00  0.00     0.074 A 
ATOM     37  C   UNL A   1      38.111  32.249  31.915  1.00  0.00     0.049 A 
ATOM     38  N   UNL A   1      39.623  30.095  30.425  1.00  0.00    -0.248 NA
ATOM     39  C   UNL A   1      38.352  30.605  28.534  1.00  0.00     0.031 C 
ATOM     40  C   UNL A   1      37.361  33.233  32.698  1.00  0.00     0.029 A 
ATOM     41  N   UNL A   1      39.072  31.798  32.784  1.00  0.00    -0.354 N 
ATOM     42  C   UNL A   1      39.991  29.254  29.381  1.00  0.00     0.074 A 
ATOM     43  C   UNL A   1      39.125  29.565  28.263  1.00  0.00     0.031 C 
ATOM     44  C   UNL A   1      37.893  33.314  33.928  1.00  0.00     0.029 A 
ATOM     45  C   UNL A   1      38.989  32.355  34.039  1.00  0.00     0.049 A 
ATOM     46  H   UNL A   1      39.757  31.136  32.533  1.00  0.00     0.167 HD
ATOM     47  C   UNL A   1      40.972  28.318  29.354  1.00  0.00     0.034 A 
ATOM     48  C   UNL A   1      39.700  32.102  35.155  1.00  0.00     0.034 A 
ATOM     49  C   UNL A   1      41.842  28.043  30.471  1.00  0.00     0.049 A 
ATOM     50  C   UNL A   1      40.787  31.057  35.106  1.00  0.00     0.074 A 
ATOM     51  C   UNL A   1      42.899  27.154  30.544  1.00  0.00     0.029 A 
ATOM     52  N   UNL A   1      41.753  28.659  31.712  1.00  0.00    -0.354 N 
ATOM     53  N   UNL A   1      41.140  30.283  34.105  1.00  0.00    -0.248 NA
ATOM     54  C   UNL A   1      41.574  30.855  36.329  1.00  0.00     0.031 C 
ATOM     55  C   UNL A   1      43.419  27.198  31.842  1.00  0.00     0.029 A 
ATOM     56  C   UNL A   1      42.727  28.159  32.561  1.00  0.00     0.049 A 
ATOM     57  H   UNL A   1      41.095  29.350  31.954  1.00  0.00     0.167 HD
ATOM     58  C   UNL A   1      42.215  29.531  34.569  1.00  0.00     0.074 A 
ATOM     59  C   UNL A   1      42.450  29.941  35.938  1.00  0.00     0.031 C 
ATOM     60  C   UNL A   1      42.949  28.593  33.919  1.00  0.00     0.034 A 
BRANCH  47  61
ATOM     61  C   UNL A   1      41.125  27.515  28.086  1.00  0.00     0.023 A 
ATOM     62  C   UNL A   1      40.714  26.173  28.010  1.00  0.00     0.031 A 
ATOM     63  C   UNL A   1      41.737  28.081  26.954  1.00  0.00     0.131 A 
ATOM     64  C   UNL A   1      41.002  25.417  26.864  1.00  0.00     0.055 A 
ATOM     65  C   UNL A   1      41.940  27.348  25.784  1.00  0.00     0.041 A 
ATOM     66  F   UNL A   1      42.168  29.353  26.974  1.00  0.00    -0.206 F 
ATOM     67  C   UNL A   1      41.589  26.002  25.740  1.00  0.00     0.022 A 
BRANCH  64  68
ATOM     68  S   UNL A   1      40.738  23.624  26.925  1.00  0.00     0.124 S 
ATOM     69  O   UNL A   1      41.655  23.157  25.888  1.00  0.00    -0.237 OA
ATOM     70  O   UNL A   1      41.105  23.296  28.297  1.00  0.00    -0.237 OA
ATOM     71  O   UNL A   1      39.319  23.475  26.606  1.00  0.00    -0.744 OA
ENDBRANCH  64  68
ENDBRANCH  47  61
BRANCH  48  72
ATOM     72  C   UNL A   1      39.405  32.833  36.421  1.00  0.00     0.023 A 
ATOM     73  C   UNL A   1      38.521  32.298  37.372  1.00  0.00     0.031 A 
ATOM     74  C   UNL A   1      39.974  34.090  36.682  1.00  0.00     0.131 A 
ATOM     75  C   UNL A   1      38.198  33.038  38.519  1.00  0.00     0.055 A 
ATOM     76  C   UNL A   1      39.685  34.803  37.848  1.00  0.00     0.041 A 
ATOM     77  F   UNL A   1      40.832  34.642  35.809  1.00  0.00    -0.206 F 
ATOM     78  C   UNL A   1      38.782  34.282  38.769  1.00  0.00     0.022 A 
BRANCH  75  79
ATOM     79  S   UNL A   1      36.942  32.380  39.651  1.00  0.00     0.124 S 
ATOM     80  O   UNL A   1      37.420  31.017  39.864  1.00  0.00    -0.237 OA
ATOM     81  O   UNL A   1      37.055  33.285  40.789  1.00  0.00    -0.237 OA
ATOM     82  O   UNL A   1      35.702  32.494  38.887  1.00  0.00    -0.744 OA
ENDBRANCH  75  79
ENDBRANCH  48  72
BRANCH  60  83
ATOM     83  C   UNL A   1      44.120  28.003  34.659  1.00  0.00     0.023 A 
ATOM     84  C   UNL A   1      44.039  26.762  35.310  1.00  0.00     0.031 A 
ATOM     85  C   UNL A   1      45.345  28.692  34.684  1.00  0.00     0.131 A 
ATOM     86  C   UNL A   1      45.160  26.259  35.989  1.00  0.00     0.055 A 
ATOM     87  C   UNL A   1      46.468  28.167  35.323  1.00  0.00     0.041 A 
ATOM     88  F   UNL A   1      45.472  29.881  34.074  1.00  0.00    -0.206 F 
ATOM     89  C   UNL A   1      46.377  26.946  35.987  1.00  0.00     0.022 A 
BRANCH  86  90
ATOM     90  S   UNL A   1      44.997  24.709  36.916  1.00  0.00     0.124 S 
ATOM     91  O   UNL A   1      46.391  24.317  37.098  1.00  0.00    -0.237 OA
ATOM     92  O   UNL A   1      44.293  25.135  38.121  1.00  0.00    -0.237 OA
ATOM     93  O   UNL A   1      44.224  23.851  36.019  1.00  0.00    -0.744 OA
ENDBRANCH  86  90
ENDBRANCH  60  83
ENDBRANCH  34  35
ENDBRANCH  26  29
ENDBRANCH  24  25
ENDBRANCH  23  24
ENDBRANCH   1  23
TORSDOF 17
ENDMDL
MODEL 3
REMARK VINA RESULT:     -11.6      6.295     11.399
REMARK SMILES C[C@@H]1C[C@H]([N@@H+](C)Cc2ccc(C(=O)NCCCCNC(=O)c3ccc(-c4c5nc(c(-c6cc(S(=O)(=O)[O-])ccc6F)c6ccc([nH]6)c(-c6cc(S(=O)(=O)[O-])ccc6F)c6nc(c(-c7cc(S(=O)(=O)[O-])ccc7F)c7ccc4[nH]7)C=C6)C=C5)cc3)cc2)CS1
REMARK SMILES IDX 16 1 15 2 14 3 12 4 13 5 11 7 8 8 9 9 86 10 10 11 85 12 7 13
REMARK SMILES IDX 5 14 6 15 4 17 1 18 2 19 3 20 88 21 87 22 17 23 18 24 19 25
REMARK SMILES IDX 20 26 21 28 22 29 23 30 84 31 24 32 83 33 25 34 26 35 27 36
REMARK SMILES IDX 77 37 28 38 82 39 76 40 78 41 29 42 81 43 75 44 74 45 30 47
REMARK SMILES IDX 62 48 42 49 61 50 43 51 46 52 60 53 79 54 44 55 45 56 59 58
REMARK SMILES IDX 80 59 47 60 31 61 32 62 40 63 33 64 39 65 41 66 38 67 34 68
REMARK SMILES IDX 35 69 36 70 37 71 63 72 64 73 72 74 65 75 71 76 73 77 70 78
REMARK SMILES IDX 66 79 67 80 68 81 69 82 48 83 49 84 57 85 50 86 56 87 58 88
REMARK SMILES IDX 55 89 51 90 52 91 53 92 54 93
REMARK H PARENT 14 6 5 16 19 27 78 46 46 57
REMARK Flexibility Score: inf
ROOT
ATOM      1  C   UNL A   1      36.864  21.918  25.045  1.00  0.00     0.023 C 
ENDROOT
BRANCH   1   2
ATOM      2  C   UNL A   1      35.648  21.807  25.967  1.00  0.00     0.116 C 
BRANCH   2   3
ATOM      3  N   UNL A   1      34.904  20.591  25.705  1.00  0.00    -0.352 N 
ATOM      4  C   UNL A   1      33.749  20.389  24.993  1.00  0.00     0.251 C 
ATOM      5  O   UNL A   1      33.367  19.233  24.815  1.00  0.00    -0.269 OA
ATOM      6  H   UNL A   1      35.291  19.778  26.101  1.00  0.00     0.163 HD
BRANCH   4   7
ATOM      7  C   UNL A   1      32.959  21.508  24.413  1.00  0.00     0.039 A 
ATOM      8  C   UNL A   1      31.510  23.787  23.572  1.00  0.00     0.006 A 
ATOM      9  C   UNL A   1      31.103  23.045  24.689  1.00  0.00     0.010 A 
ATOM     10  C   UNL A   1      32.582  23.304  22.822  1.00  0.00     0.010 A 
ATOM     11  C   UNL A   1      31.826  21.927  25.115  1.00  0.00     0.014 A 
ATOM     12  C   UNL A   1      33.326  22.210  23.265  1.00  0.00     0.014 A 
BRANCH   8  13
ATOM     13  C   UNL A   1      30.823  25.087  23.214  1.00  0.00     0.299 C 
BRANCH  13  14
ATOM     14  N   UNL A   1      30.231  25.878  24.307  1.00  0.00    -0.330 N 
ATOM     15  C   UNL A   1      28.907  26.418  24.013  1.00  0.00     0.333 C 
ATOM     16  H   UNL A   1      30.123  25.134  24.997  1.00  0.00     0.348 HD
BRANCH  14  17
ATOM     17  C   UNL A   1      31.082  26.844  25.031  1.00  0.00     0.195 C 
ATOM     18  C   UNL A   1      34.319  25.264  25.537  1.00  0.00     0.019 C 
ATOM     19  C   UNL A   1      33.488  26.511  25.811  1.00  0.00     0.049 C 
ATOM     20  C   UNL A   1      32.017  26.198  26.068  1.00  0.00     0.080 C 
ATOM     21  S   UNL A   1      33.595  27.677  24.436  1.00  0.00    -0.152 SA
ATOM     22  C   UNL A   1      31.822  27.934  24.243  1.00  0.00     0.134 C 
ENDBRANCH  14  17
ENDBRANCH  13  14
ENDBRANCH   8  13
ENDBRANCH   4   7
ENDBRANCH   2   3
ENDBRANCH   1   2
BRANCH   1  23
ATOM     23  C   UNL A   1      37.775  20.692  25.037  1.00  0.00     0.023 C 
BRANCH  23  24
ATOM     24  C   UNL A   1      39.038  20.844  25.868  1.00  0.00     0.116 C 
BRANCH  24  25
ATOM     25  N   UNL A   1      39.867  19.647  25.884  1.00  0.00    -0.352 N 
ATOM     26  C   UNL A   1      41.227  19.586  26.095  1.00  0.00     0.251 C 
ATOM     27  H   UNL A   1      39.406  18.791  25.727  1.00  0.00     0.163 HD
ATOM     28  O   UNL A   1      41.834  18.532  25.986  1.00  0.00    -0.269 OA
BRANCH  26  29
ATOM     29  C   UNL A   1      41.926  20.849  26.403  1.00  0.00     0.039 A 
ATOM     30  C   UNL A   1      42.186  21.747  25.366  1.00  0.00     0.014 A 
ATOM     31  C   UNL A   1      42.206  21.181  27.729  1.00  0.00     0.014 A 
ATOM     32  C   UNL A   1      42.669  23.021  25.671  1.00  0.00     0.010 A 
ATOM     33  C   UNL A   1      42.623  22.470  28.034  1.00  0.00     0.010 A 
ATOM     34  C   UNL A   1      42.854  23.403  27.009  1.00  0.00    -0.014 A 
BRANCH  34  35
ATOM     35  C   UNL A   1      43.321  24.761  27.381  1.00  0.00     0.031 A 
ATOM     36  C   UNL A   1      42.359  25.705  28.044  1.00  0.00     0.074 A 
ATOM     37  C   UNL A   1      44.555  25.174  27.032  1.00  0.00     0.049 A 
ATOM     38  N   UNL A   1      42.479  26.985  28.279  1.00  0.00    -0.248 NA
ATOM     39  C   UNL A   1      41.069  25.132  28.459  1.00  0.00     0.031 C 
ATOM     40  C   UNL A   1      45.566  24.353  26.362  1.00  0.00     0.029 A 
ATOM     41  N   UNL A   1      45.161  26.396  27.170  1.00  0.00    -0.354 N 
ATOM     42  C   UNL A   1      41.268  27.379  28.837  1.00  0.00     0.074 A 
ATOM     43  C   UNL A   1      40.413  26.211  28.857  1.00  0.00     0.031 C 
ATOM     44  C   UNL A   1      46.666  25.094  26.153  1.00  0.00     0.029 A 
ATOM     45  C   UNL A   1      46.424  26.453  26.628  1.00  0.00     0.049 A 
ATOM     46  H   UNL A   1      44.732  27.163  27.616  1.00  0.00     0.167 HD
ATOM     47  C   UNL A   1      40.909  28.600  29.303  1.00  0.00     0.034 A 
ATOM     48  C   UNL A   1      47.277  27.490  26.507  1.00  0.00     0.034 A 
ATOM     49  C   UNL A   1      41.787  29.744  29.299  1.00  0.00     0.049 A 
ATOM     50  C   UNL A   1      46.859  28.842  27.032  1.00  0.00     0.074 A 
ATOM     51  C   UNL A   1      41.551  31.016  29.787  1.00  0.00     0.029 A 
ATOM     52  N   UNL A   1      43.075  29.750  28.778  1.00  0.00    -0.354 N 
ATOM     53  N   UNL A   1      45.719  29.197  27.578  1.00  0.00    -0.248 NA
ATOM     54  C   UNL A   1      47.842  29.928  26.931  1.00  0.00     0.031 C 
ATOM     55  C   UNL A   1      42.676  31.804  29.520  1.00  0.00     0.029 A 
ATOM     56  C   UNL A   1      43.638  31.008  28.921  1.00  0.00     0.049 A 
ATOM     57  H   UNL A   1      43.522  28.975  28.368  1.00  0.00     0.167 HD
ATOM     58  C   UNL A   1      45.863  30.537  27.919  1.00  0.00     0.074 A 
ATOM     59  C   UNL A   1      47.198  30.929  27.515  1.00  0.00     0.031 C 
ATOM     60  C   UNL A   1      44.977  31.369  28.521  1.00  0.00     0.034 A 
BRANCH  47  61
ATOM     61  C   UNL A   1      39.502  28.754  29.825  1.00  0.00     0.023 A 
ATOM     62  C   UNL A   1      38.457  29.212  29.003  1.00  0.00     0.031 A 
ATOM     63  C   UNL A   1      39.210  28.489  31.174  1.00  0.00     0.131 A 
ATOM     64  C   UNL A   1      37.197  29.478  29.557  1.00  0.00     0.055 A 
ATOM     65  C   UNL A   1      37.930  28.671  31.699  1.00  0.00     0.041 A 
ATOM     66  F   UNL A   1      40.171  28.068  32.012  1.00  0.00    -0.206 F 
ATOM     67  C   UNL A   1      36.918  29.186  30.894  1.00  0.00     0.022 A 
BRANCH  64  68
ATOM     68  S   UNL A   1      35.977  30.355  28.542  1.00  0.00     0.124 S 
ATOM     69  O   UNL A   1      35.413  31.295  29.508  1.00  0.00    -0.237 OA
ATOM     70  O   UNL A   1      36.801  30.938  27.489  1.00  0.00    -0.237 OA
ATOM     71  O   UNL A   1      35.067  29.297  28.109  1.00  0.00    -0.744 OA
ENDBRANCH  64  68
ENDBRANCH  47  61
BRANCH  48  72
ATOM     72  C   UNL A   1      48.603  27.305  25.852  1.00  0.00     0.023 A 
ATOM     73  C   UNL A   1      48.751  27.472  24.465  1.00  0.00     0.031 A 
ATOM     74  C   UNL A   1      49.733  26.925  26.596  1.00  0.00     0.131 A 
ATOM     75  C   UNL A   1      49.990  27.217  23.859  1.00  0.00     0.055 A 
ATOM     76  C   UNL A   1      50.976  26.718  25.994  1.00  0.00     0.041 A 
ATOM     77  F   UNL A   1      49.646  26.761  27.925  1.00  0.00    -0.206 F 
ATOM     78  C   UNL A   1      51.107  26.852  24.615  1.00  0.00     0.022 A 
BRANCH  75  79
ATOM     79  S   UNL A   1      50.105  27.301  22.051  1.00  0.00     0.124 S 
ATOM     80  O   UNL A   1      51.458  26.808  21.816  1.00  0.00    -0.237 OA
ATOM     81  O   UNL A   1      49.019  26.418  21.637  1.00  0.00    -0.237 OA
ATOM     82  O   UNL A   1      49.898  28.718  21.763  1.00  0.00    -0.744 OA
ENDBRANCH  75  79
ENDBRANCH  48  72
BRANCH  60  83
ATOM     83  C   UNL A   1      45.451  32.761  28.845  1.00  0.00     0.023 A 
ATOM     84  C   UNL A   1      45.357  33.813  27.920  1.00  0.00     0.031 A 
ATOM     85  C   UNL A   1      45.981  33.036  30.119  1.00  0.00     0.131 A 
ATOM     86  C   UNL A   1      45.819  35.091  28.272  1.00  0.00     0.055 A 
ATOM     87  C   UNL A   1      46.398  34.317  30.478  1.00  0.00     0.041 A 
ATOM     88  F   UNL A   1      46.089  32.063  31.037  1.00  0.00    -0.206 F 
ATOM     89  C   UNL A   1      46.324  35.353  29.549  1.00  0.00     0.022 A 
BRANCH  86  90
ATOM     90  S   UNL A   1      45.790  36.405  27.024  1.00  0.00     0.124 S 
ATOM     91  O   UNL A   1      46.149  35.679  25.810  1.00  0.00    -0.237 OA
ATOM     92  O   UNL A   1      44.413  36.880  27.098  1.00  0.00    -0.237 OA
ATOM     93  O   UNL A   1      46.797  37.353  27.499  1.00  0.00    -0.744 OA
ENDBRANCH  86  90
ENDBRANCH  60  83
ENDBRANCH  34  35
ENDBRANCH  26  29
ENDBRANCH  24  25
ENDBRANCH  23  24
ENDBRANCH   1  23
TORSDOF 17
ENDMDL
